MODEL        1
REMARK 921   NORMALIZED FREE ENERGY PREDICTED BY IDOCK:   -5.38 KCAL/MOL
REMARK 922        TOTAL FREE ENERGY PREDICTED BY IDOCK:   -6.21 KCAL/MOL
REMARK 923 INTER-LIGAND FREE ENERGY PREDICTED BY IDOCK:   -6.01 KCAL/MOL
REMARK 924 INTRA-LIGAND FREE ENERGY PREDICTED BY IDOCK:   -0.20 KCAL/MOL
REMARK 927      BINDING AFFINITY PREDICTED BY RF-SCORE:    0.00 PKD
ROOT
ATOM      1  N   PHE A   1     -12.494  14.297  63.504  1.00  0.00    -1.102 NA 
ATOM      2  CA  PHE A   1     -11.663  14.373  64.752  1.00  0.00    -0.416 C  
ATOM      3  H1  PHE A   1     -13.175  15.052  63.419  1.00  0.00     0.000 HD 
ATOM      4  H2  PHE A   1     -12.953  13.389  63.432  1.00  0.00     0.000 HD 
ATOM      5  C   PHE A   1     -10.954  15.737  64.758  1.00  0.00    -0.393 C  
ATOM      6  OXT PHE A   1      -9.962  16.024  65.408  1.00  0.00    -0.445 OA 
ATOM      7  O   PHE A   1     -11.603  16.621  63.953  1.00  0.00    -1.204 OA 
ENDROOT
BRANCH   2   8
ATOM      8  CB  PHE A   1     -10.637  13.236  64.880  1.00  0.00    -0.381 C  
BRANCH   8   9
ATOM      9  CG  PHE A   1     -10.848  12.386  66.111  1.00  0.00    -0.308 A  
ATOM     10  CD1 PHE A   1     -11.574  12.883  67.204  1.00  0.00    -0.421 A  
ATOM     11  CE1 PHE A   1     -11.735  12.110  68.354  1.00  0.00    -0.388 A  
ATOM     12  CZ  PHE A   1     -11.183  10.834  68.423  1.00  0.00    -0.345 A  
ATOM     13  CE2 PHE A   1     -10.469  10.327  67.340  1.00  0.00    -0.303 A  
ATOM     14  CD2 PHE A   1     -10.299  11.099  66.189  1.00  0.00    -0.302 A  
ENDBRANCH   8   9
ENDBRANCH   2   8
TORSDOF 2
ENDMDL
MODEL        2
REMARK 921   NORMALIZED FREE ENERGY PREDICTED BY IDOCK:   -5.34 KCAL/MOL
REMARK 922        TOTAL FREE ENERGY PREDICTED BY IDOCK:   -6.16 KCAL/MOL
REMARK 923 INTER-LIGAND FREE ENERGY PREDICTED BY IDOCK:   -6.01 KCAL/MOL
REMARK 924 INTRA-LIGAND FREE ENERGY PREDICTED BY IDOCK:   -0.15 KCAL/MOL
REMARK 927      BINDING AFFINITY PREDICTED BY RF-SCORE:    0.00 PKD
ROOT
ATOM      1  N   PHE A   1     -12.529  14.391  63.349  1.00  0.00    -1.068 NA 
ATOM      2  CA  PHE A   1     -11.858  14.448  64.690  1.00  0.00    -0.451 C  
ATOM      3  H1  PHE A   1     -13.148  15.181  63.167  1.00  0.00     0.000 HD 
ATOM      4  H2  PHE A   1     -13.029  13.508  63.233  1.00  0.00     0.000 HD 
ATOM      5  C   PHE A   1     -11.075  15.769  64.764  1.00  0.00    -0.400 C  
ATOM      6  OXT PHE A   1     -10.158  16.014  65.529  1.00  0.00    -0.382 OA 
ATOM      7  O   PHE A   1     -11.565  16.670  63.870  1.00  0.00    -1.204 OA 
ENDROOT
BRANCH   2   8
ATOM      8  CB  PHE A   1     -10.925  13.257  64.965  1.00  0.00    -0.328 C  
BRANCH   8   9
ATOM      9  CG  PHE A   1     -11.141  12.641  66.326  1.00  0.00    -0.330 A  
ATOM     10  CD1 PHE A   1     -10.845  11.288  66.552  1.00  0.00    -0.319 A  
ATOM     11  CE1 PHE A   1     -11.080  10.712  67.801  1.00  0.00    -0.385 A  
ATOM     12  CZ  PHE A   1     -11.604  11.480  68.838  1.00  0.00    -0.384 A  
ATOM     13  CE2 PHE A   1     -11.892  12.826  68.628  1.00  0.00    -0.341 A  
ATOM     14  CD2 PHE A   1     -11.665  13.405  67.378  1.00  0.00    -0.415 A  
ENDBRANCH   8   9
ENDBRANCH   2   8
TORSDOF 2
ENDMDL
MODEL        3
REMARK 921   NORMALIZED FREE ENERGY PREDICTED BY IDOCK:   -5.33 KCAL/MOL
REMARK 922        TOTAL FREE ENERGY PREDICTED BY IDOCK:   -6.16 KCAL/MOL
REMARK 923 INTER-LIGAND FREE ENERGY PREDICTED BY IDOCK:   -6.05 KCAL/MOL
REMARK 924 INTRA-LIGAND FREE ENERGY PREDICTED BY IDOCK:   -0.10 KCAL/MOL
REMARK 927      BINDING AFFINITY PREDICTED BY RF-SCORE:    0.00 PKD
ROOT
ATOM      1  N   PHE A   1     -11.470  16.467  63.877  1.00  0.00    -1.618 NA 
ATOM      2  CA  PHE A   1     -10.946  15.453  64.852  1.00  0.00    -0.437 C  
ATOM      3  H1  PHE A   1     -11.592  16.102  62.933  1.00  0.00     0.000 HD 
ATOM      4  H2  PHE A   1     -10.879  17.298  63.869  1.00  0.00     0.000 HD 
ATOM      5  C   PHE A   1     -11.921  14.265  64.859  1.00  0.00    -0.425 C  
ATOM      6  OXT PHE A   1     -12.019  13.426  65.740  1.00  0.00    -0.364 OA 
ATOM      7  O   PHE A   1     -12.659  14.240  63.716  1.00  0.00    -0.821 OA 
ENDROOT
BRANCH   2   8
ATOM      8  CB  PHE A   1     -10.764  16.003  66.276  1.00  0.00    -0.234 C  
BRANCH   8   9
ATOM      9  CG  PHE A   1      -9.926  17.259  66.321  1.00  0.00    -0.311 A  
ATOM     10  CD1 PHE A   1      -8.529  17.188  66.213  1.00  0.00    -0.279 A  
ATOM     11  CE1 PHE A   1      -7.754  18.346  66.292  1.00  0.00    -0.279 A  
ATOM     12  CZ  PHE A   1      -8.365  19.585  66.471  1.00  0.00    -0.352 A  
ATOM     13  CE2 PHE A   1      -9.751  19.668  66.571  1.00  0.00    -0.498 A  
ATOM     14  CD2 PHE A   1     -10.530  18.511  66.499  1.00  0.00    -0.435 A  
ENDBRANCH   8   9
ENDBRANCH   2   8
TORSDOF 2
ENDMDL
MODEL        4
REMARK 921   NORMALIZED FREE ENERGY PREDICTED BY IDOCK:   -5.32 KCAL/MOL
REMARK 922        TOTAL FREE ENERGY PREDICTED BY IDOCK:   -6.14 KCAL/MOL
REMARK 923 INTER-LIGAND FREE ENERGY PREDICTED BY IDOCK:   -5.99 KCAL/MOL
REMARK 924 INTRA-LIGAND FREE ENERGY PREDICTED BY IDOCK:   -0.15 KCAL/MOL
REMARK 927      BINDING AFFINITY PREDICTED BY RF-SCORE:    0.00 PKD
ROOT
ATOM      1  N   PHE A   1     -11.413  16.585  63.909  1.00  0.00    -1.599 NA 
ATOM      2  CA  PHE A   1     -10.910  15.598  64.921  1.00  0.00    -0.418 C  
ATOM      3  H1  PHE A   1     -11.520  16.194  62.973  1.00  0.00     0.000 HD 
ATOM      4  H2  PHE A   1     -10.818  17.414  63.887  1.00  0.00     0.000 HD 
ATOM      5  C   PHE A   1     -11.890  14.413  64.944  1.00  0.00    -0.417 C  
ATOM      6  OXT PHE A   1     -12.006  13.600  65.846  1.00  0.00    -0.362 OA 
ATOM      7  O   PHE A   1     -12.609  14.360  63.791  1.00  0.00    -0.829 OA 
ENDROOT
BRANCH   2   8
ATOM      8  CB  PHE A   1     -10.748  16.187  66.331  1.00  0.00    -0.211 C  
BRANCH   8   9
ATOM      9  CG  PHE A   1      -9.778  17.343  66.381  1.00  0.00    -0.303 A  
ATOM     10  CD1 PHE A   1     -10.240  18.654  66.567  1.00  0.00    -0.449 A  
ATOM     11  CE1 PHE A   1      -9.345  19.724  66.575  1.00  0.00    -0.486 A  
ATOM     12  CZ  PHE A   1      -7.981  19.496  66.406  1.00  0.00    -0.323 A  
ATOM     13  CE2 PHE A   1      -7.510  18.198  66.230  1.00  0.00    -0.301 A  
ATOM     14  CD2 PHE A   1      -8.404  17.124  66.215  1.00  0.00    -0.298 A  
ENDBRANCH   8   9
ENDBRANCH   2   8
TORSDOF 2
ENDMDL
MODEL        5
REMARK 921   NORMALIZED FREE ENERGY PREDICTED BY IDOCK:   -4.99 KCAL/MOL
REMARK 922        TOTAL FREE ENERGY PREDICTED BY IDOCK:   -5.77 KCAL/MOL
REMARK 923 INTER-LIGAND FREE ENERGY PREDICTED BY IDOCK:   -5.58 KCAL/MOL
REMARK 924 INTRA-LIGAND FREE ENERGY PREDICTED BY IDOCK:   -0.19 KCAL/MOL
REMARK 927      BINDING AFFINITY PREDICTED BY RF-SCORE:    0.00 PKD
ROOT
ATOM      1  N   PHE A   1     -13.141  12.391  64.413  1.00  0.00    -0.811 NA 
ATOM      2  CA  PHE A   1     -12.573  13.227  65.523  1.00  0.00    -0.446 C  
ATOM      3  H1  PHE A   1     -13.901  12.845  63.906  1.00  0.00     0.000 HD 
ATOM      4  H2  PHE A   1     -13.436  11.480  64.764  1.00  0.00     0.000 HD 
ATOM      5  C   PHE A   1     -12.091  14.552  64.909  1.00  0.00    -0.416 C  
ATOM      6  OXT PHE A   1     -11.290  15.322  65.412  1.00  0.00    -0.326 OA 
ATOM      7  O   PHE A   1     -12.708  14.785  63.719  1.00  0.00    -0.767 OA 
ENDROOT
BRANCH   2   8
ATOM      8  CB  PHE A   1     -11.428  12.544  66.287  1.00  0.00    -0.421 C  
BRANCH   8   9
ATOM      9  CG  PHE A   1     -11.673  12.470  67.775  1.00  0.00    -0.419 A  
ATOM     10  CD1 PHE A   1     -11.860  13.640  68.526  1.00  0.00    -0.406 A  
ATOM     11  CE1 PHE A   1     -12.049  13.571  69.907  1.00  0.00    -0.408 A  
ATOM     12  CZ  PHE A   1     -12.062  12.336  70.550  1.00  0.00    -0.371 A  
ATOM     13  CE2 PHE A   1     -11.888  11.167  69.814  1.00  0.00    -0.422 A  
ATOM     14  CD2 PHE A   1     -11.692  11.232  68.432  1.00  0.00    -0.365 A  
ENDBRANCH   8   9
ENDBRANCH   2   8
TORSDOF 2
ENDMDL
MODEL        6
REMARK 921   NORMALIZED FREE ENERGY PREDICTED BY IDOCK:   -4.96 KCAL/MOL
REMARK 922        TOTAL FREE ENERGY PREDICTED BY IDOCK:   -5.74 KCAL/MOL
REMARK 923 INTER-LIGAND FREE ENERGY PREDICTED BY IDOCK:   -5.65 KCAL/MOL
REMARK 924 INTRA-LIGAND FREE ENERGY PREDICTED BY IDOCK:   -0.10 KCAL/MOL
REMARK 927      BINDING AFFINITY PREDICTED BY RF-SCORE:    0.00 PKD
ROOT
ATOM      1  N   PHE A   1     -12.343  10.607  68.820  1.00  0.00    -0.784 NA 
ATOM      2  CA  PHE A   1     -11.718  10.872  70.158  1.00  0.00    -0.347 C  
ATOM      3  H1  PHE A   1     -11.674  10.326  68.104  1.00  0.00     0.000 HD 
ATOM      4  H2  PHE A   1     -12.886  11.413  68.510  1.00  0.00     0.000 HD 
ATOM      5  C   PHE A   1     -10.977   9.595  70.589  1.00  0.00    -0.320 C  
ATOM      6  OXT PHE A   1     -10.645   9.312  71.728  1.00  0.00    -0.355 OA 
ATOM      7  O   PHE A   1     -10.700   8.812  69.511  1.00  0.00    -0.228 OA 
ENDROOT
BRANCH   2   8
ATOM      8  CB  PHE A   1     -12.726  11.295  71.239  1.00  0.00    -0.510 C  
BRANCH   8   9
ATOM      9  CG  PHE A   1     -12.888  12.793  71.341  1.00  0.00    -0.371 A  
ATOM     10  CD1 PHE A   1     -13.710  13.356  72.329  1.00  0.00    -0.705 A  
ATOM     11  CE1 PHE A   1     -13.886  14.738  72.398  1.00  0.00    -0.578 A  
ATOM     12  CZ  PHE A   1     -13.240  15.572  71.488  1.00  0.00    -0.589 A  
ATOM     13  CE2 PHE A   1     -12.415  15.025  70.509  1.00  0.00    -0.425 A  
ATOM     14  CD2 PHE A   1     -12.240  13.641  70.433  1.00  0.00    -0.434 A  
ENDBRANCH   8   9
ENDBRANCH   2   8
TORSDOF 2
ENDMDL
MODEL        7
REMARK 921   NORMALIZED FREE ENERGY PREDICTED BY IDOCK:   -4.93 KCAL/MOL
REMARK 922        TOTAL FREE ENERGY PREDICTED BY IDOCK:   -5.71 KCAL/MOL
REMARK 923 INTER-LIGAND FREE ENERGY PREDICTED BY IDOCK:   -5.52 KCAL/MOL
REMARK 924 INTRA-LIGAND FREE ENERGY PREDICTED BY IDOCK:   -0.19 KCAL/MOL
REMARK 927      BINDING AFFINITY PREDICTED BY RF-SCORE:    0.00 PKD
ROOT
ATOM      1  N   PHE A   1     -12.965  12.375  64.284  1.00  0.00    -0.750 NA 
ATOM      2  CA  PHE A   1     -12.435  13.174  65.439  1.00  0.00    -0.481 C  
ATOM      3  H1  PHE A   1     -13.725  12.836  63.782  1.00  0.00     0.000 HD 
ATOM      4  H2  PHE A   1     -13.249  11.444  64.590  1.00  0.00     0.000 HD 
ATOM      5  C   PHE A   1     -11.968  14.532  64.891  1.00  0.00    -0.422 C  
ATOM      6  OXT PHE A   1     -11.192  15.296  65.442  1.00  0.00    -0.341 OA 
ATOM      7  O   PHE A   1     -12.567  14.804  63.700  1.00  0.00    -0.749 OA 
ENDROOT
BRANCH   2   8
ATOM      8  CB  PHE A   1     -11.291  12.480  66.196  1.00  0.00    -0.388 C  
BRANCH   8   9
ATOM      9  CG  PHE A   1     -11.560  12.346  67.676  1.00  0.00    -0.421 A  
ATOM     10  CD1 PHE A   1     -11.649  11.078  68.272  1.00  0.00    -0.354 A  
ATOM     11  CE1 PHE A   1     -11.934  10.956  69.632  1.00  0.00    -0.414 A  
ATOM     12  CZ  PHE A   1     -12.124  12.095  70.412  1.00  0.00    -0.395 A  
ATOM     13  CE2 PHE A   1     -12.029  13.357  69.833  1.00  0.00    -0.408 A  
ATOM     14  CD2 PHE A   1     -11.750  13.484  68.470  1.00  0.00    -0.392 A  
ENDBRANCH   8   9
ENDBRANCH   2   8
TORSDOF 2
ENDMDL
MODEL        8
REMARK 921   NORMALIZED FREE ENERGY PREDICTED BY IDOCK:   -4.92 KCAL/MOL
REMARK 922        TOTAL FREE ENERGY PREDICTED BY IDOCK:   -5.69 KCAL/MOL
REMARK 923 INTER-LIGAND FREE ENERGY PREDICTED BY IDOCK:   -5.59 KCAL/MOL
REMARK 924 INTRA-LIGAND FREE ENERGY PREDICTED BY IDOCK:   -0.10 KCAL/MOL
REMARK 927      BINDING AFFINITY PREDICTED BY RF-SCORE:    0.00 PKD
ROOT
ATOM      1  N   PHE A   1     -12.278  10.645  68.754  1.00  0.00    -0.808 NA 
ATOM      2  CA  PHE A   1     -11.632  10.892  70.086  1.00  0.00    -0.338 C  
ATOM      3  H1  PHE A   1     -11.617  10.392  68.019  1.00  0.00     0.000 HD 
ATOM      4  H2  PHE A   1     -12.840  11.449  68.472  1.00  0.00     0.000 HD 
ATOM      5  C   PHE A   1     -10.861   9.620  70.474  1.00  0.00    -0.309 C  
ATOM      6  OXT PHE A   1     -10.503   9.317  71.600  1.00  0.00    -0.344 OA 
ATOM      7  O   PHE A   1     -10.591   8.866  69.375  1.00  0.00    -0.227 OA 
ENDROOT
BRANCH   2   8
ATOM      8  CB  PHE A   1     -12.627  11.274  71.194  1.00  0.00    -0.501 C  
BRANCH   8   9
ATOM      9  CG  PHE A   1     -12.867  12.762  71.284  1.00  0.00    -0.355 A  
ATOM     10  CD1 PHE A   1     -12.168  13.649  70.453  1.00  0.00    -0.434 A  
ATOM     11  CE1 PHE A   1     -12.364  15.026  70.564  1.00  0.00    -0.411 A  
ATOM     12  CZ  PHE A   1     -13.265  15.530  71.499  1.00  0.00    -0.589 A  
ATOM     13  CE2 PHE A   1     -13.972  14.659  72.323  1.00  0.00    -0.589 A  
ATOM     14  CD2 PHE A   1     -13.774  13.280  72.220  1.00  0.00    -0.686 A  
ENDBRANCH   8   9
ENDBRANCH   2   8
TORSDOF 2
ENDMDL
MODEL        9
REMARK 921   NORMALIZED FREE ENERGY PREDICTED BY IDOCK:   -4.91 KCAL/MOL
REMARK 922        TOTAL FREE ENERGY PREDICTED BY IDOCK:   -5.68 KCAL/MOL
REMARK 923 INTER-LIGAND FREE ENERGY PREDICTED BY IDOCK:   -5.53 KCAL/MOL
REMARK 924 INTRA-LIGAND FREE ENERGY PREDICTED BY IDOCK:   -0.15 KCAL/MOL
REMARK 927      BINDING AFFINITY PREDICTED BY RF-SCORE:    0.00 PKD
ROOT
ATOM      1  N   PHE A   1     -10.496  13.128  69.205  1.00  0.00    -0.437 NA 
ATOM      2  CA  PHE A   1     -11.783  13.735  68.729  1.00  0.00    -0.356 C  
ATOM      3  H1  PHE A   1     -10.394  12.142  68.963  1.00  0.00     0.000 HD 
ATOM      4  H2  PHE A   1     -10.383  13.266  70.209  1.00  0.00     0.000 HD 
ATOM      5  C   PHE A   1     -11.852  13.548  67.204  1.00  0.00    -0.387 C  
ATOM      6  OXT PHE A   1     -12.555  14.184  66.437  1.00  0.00    -0.427 OA 
ATOM      7  O   PHE A   1     -11.036  12.535  66.806  1.00  0.00    -0.250 OA 
ENDROOT
BRANCH   2   8
ATOM      8  CB  PHE A   1     -11.937  15.221  69.092  1.00  0.00    -0.308 C  
BRANCH   8   9
ATOM      9  CG  PHE A   1     -12.449  15.435  70.497  1.00  0.00    -0.468 A  
ATOM     10  CD1 PHE A   1     -11.605  15.953  71.492  1.00  0.00    -0.537 A  
ATOM     11  CE1 PHE A   1     -12.070  16.114  72.798  1.00  0.00    -0.653 A  
ATOM     12  CZ  PHE A   1     -13.379  15.769  73.122  1.00  0.00    -0.685 A  
ATOM     13  CE2 PHE A   1     -14.228  15.263  72.141  1.00  0.00    -0.667 A  
ATOM     14  CD2 PHE A   1     -13.766  15.094  70.834  1.00  0.00    -0.352 A  
ENDBRANCH   8   9
ENDBRANCH   2   8
TORSDOF 2
ENDMDL
MODEL       10
REMARK 921   NORMALIZED FREE ENERGY PREDICTED BY IDOCK:   -4.89 KCAL/MOL
REMARK 922        TOTAL FREE ENERGY PREDICTED BY IDOCK:   -5.67 KCAL/MOL
REMARK 923 INTER-LIGAND FREE ENERGY PREDICTED BY IDOCK:   -5.51 KCAL/MOL
REMARK 924 INTRA-LIGAND FREE ENERGY PREDICTED BY IDOCK:   -0.16 KCAL/MOL
REMARK 927      BINDING AFFINITY PREDICTED BY RF-SCORE:    0.00 PKD
ROOT
ATOM      1  N   PHE A   1     -11.041  12.392  69.314  1.00  0.00    -0.413 NA 
ATOM      2  CA  PHE A   1     -12.014  13.405  68.788  1.00  0.00    -0.324 C  
ATOM      3  H1  PHE A   1     -11.254  11.435  69.033  1.00  0.00     0.000 HD 
ATOM      4  H2  PHE A   1     -10.963  12.461  70.329  1.00  0.00     0.000 HD 
ATOM      5  C   PHE A   1     -12.027  13.287  67.255  1.00  0.00    -0.343 C  
ATOM      6  OXT PHE A   1     -12.420  14.140  66.476  1.00  0.00    -0.447 OA 
ATOM      7  O   PHE A   1     -11.566  12.070  66.861  1.00  0.00    -0.432 OA 
ENDROOT
BRANCH   2   8
ATOM      8  CB  PHE A   1     -11.694  14.848  69.210  1.00  0.00    -0.344 C  
BRANCH   8   9
ATOM      9  CG  PHE A   1     -12.267  15.209  70.560  1.00  0.00    -0.389 A  
ATOM     10  CD1 PHE A   1     -13.625  14.990  70.840  1.00  0.00    -0.363 A  
ATOM     11  CE1 PHE A   1     -14.160  15.359  72.074  1.00  0.00    -0.647 A  
ATOM     12  CZ  PHE A   1     -13.346  15.941  73.043  1.00  0.00    -0.663 A  
ATOM     13  CE2 PHE A   1     -11.996  16.155  72.780  1.00  0.00    -0.638 A  
ATOM     14  CD2 PHE A   1     -11.457  15.793  71.543  1.00  0.00    -0.504 A  
ENDBRANCH   8   9
ENDBRANCH   2   8
TORSDOF 2
ENDMDL
MODEL       11
REMARK 921   NORMALIZED FREE ENERGY PREDICTED BY IDOCK:   -4.84 KCAL/MOL
REMARK 922        TOTAL FREE ENERGY PREDICTED BY IDOCK:   -5.60 KCAL/MOL
REMARK 923 INTER-LIGAND FREE ENERGY PREDICTED BY IDOCK:   -5.40 KCAL/MOL
REMARK 924 INTRA-LIGAND FREE ENERGY PREDICTED BY IDOCK:   -0.21 KCAL/MOL
REMARK 927      BINDING AFFINITY PREDICTED BY RF-SCORE:    0.00 PKD
ROOT
ATOM      1  N   PHE A   1     -11.010  13.956  66.422  1.00  0.00    -0.301 NA 
ATOM      2  CA  PHE A   1     -11.142  15.410  66.075  1.00  0.00    -0.233 C  
ATOM      3  H1  PHE A   1     -11.894  13.446  66.393  1.00  0.00     0.000 HD 
ATOM      4  H2  PHE A   1     -10.557  13.841  67.329  1.00  0.00     0.000 HD 
ATOM      5  C   PHE A   1     -11.768  15.501  64.674  1.00  0.00    -0.226 C  
ATOM      6  OXT PHE A   1     -11.720  16.468  63.932  1.00  0.00    -1.148 OA 
ATOM      7  O   PHE A   1     -12.430  14.353  64.366  1.00  0.00    -0.635 OA 
ENDROOT
BRANCH   2   8
ATOM      8  CB  PHE A   1      -9.811  16.178  66.117  1.00  0.00    -0.358 C  
BRANCH   8   9
ATOM      9  CG  PHE A   1      -9.909  17.488  66.862  1.00  0.00    -0.302 A  
ATOM     10  CD1 PHE A   1      -9.996  17.508  68.262  1.00  0.00    -0.330 A  
ATOM     11  CE1 PHE A   1     -10.124  18.718  68.945  1.00  0.00    -0.360 A  
ATOM     12  CZ  PHE A   1     -10.159  19.919  68.239  1.00  0.00    -0.571 A  
ATOM     13  CE2 PHE A   1     -10.065  19.912  66.850  1.00  0.00    -0.579 A  
ATOM     14  CD2 PHE A   1      -9.943  18.702  66.162  1.00  0.00    -0.355 A  
ENDBRANCH   8   9
ENDBRANCH   2   8
TORSDOF 2
ENDMDL
MODEL       12
REMARK 921   NORMALIZED FREE ENERGY PREDICTED BY IDOCK:   -4.83 KCAL/MOL
REMARK 922        TOTAL FREE ENERGY PREDICTED BY IDOCK:   -5.60 KCAL/MOL
REMARK 923 INTER-LIGAND FREE ENERGY PREDICTED BY IDOCK:   -5.43 KCAL/MOL
REMARK 924 INTRA-LIGAND FREE ENERGY PREDICTED BY IDOCK:   -0.17 KCAL/MOL
REMARK 927      BINDING AFFINITY PREDICTED BY RF-SCORE:    0.00 PKD
ROOT
ATOM      1  N   PHE A   1     -10.647  16.337  66.191  1.00  0.00    -0.298 NA 
ATOM      2  CA  PHE A   1     -11.116  15.008  65.676  1.00  0.00    -0.349 C  
ATOM      3  H1  PHE A   1     -10.104  16.871  65.512  1.00  0.00     0.000 HD 
ATOM      4  H2  PHE A   1     -10.124  16.223  67.060  1.00  0.00     0.000 HD 
ATOM      5  C   PHE A   1     -11.948  15.266  64.409  1.00  0.00    -0.277 C  
ATOM      6  OXT PHE A   1     -12.755  14.496  63.915  1.00  0.00    -0.782 OA 
ATOM      7  O   PHE A   1     -11.643  16.477  63.870  1.00  0.00    -1.175 OA 
ENDROOT
BRANCH   2   8
ATOM      8  CB  PHE A   1     -11.935  14.203  66.698  1.00  0.00    -0.470 C  
BRANCH   8   9
ATOM      9  CG  PHE A   1     -11.477  12.770  66.824  1.00  0.00    -0.399 A  
ATOM     10  CD1 PHE A   1     -11.765  12.028  67.979  1.00  0.00    -0.398 A  
ATOM     11  CE1 PHE A   1     -11.309  10.716  68.108  1.00  0.00    -0.354 A  
ATOM     12  CZ  PHE A   1     -10.569  10.129  67.084  1.00  0.00    -0.308 A  
ATOM     13  CE2 PHE A   1     -10.285  10.852  65.929  1.00  0.00    -0.314 A  
ATOM     14  CD2 PHE A   1     -10.735  12.168  65.799  1.00  0.00    -0.303 A  
ENDBRANCH   8   9
ENDBRANCH   2   8
TORSDOF 2
ENDMDL
MODEL       13
REMARK 921   NORMALIZED FREE ENERGY PREDICTED BY IDOCK:   -4.83 KCAL/MOL
REMARK 922        TOTAL FREE ENERGY PREDICTED BY IDOCK:   -5.59 KCAL/MOL
REMARK 923 INTER-LIGAND FREE ENERGY PREDICTED BY IDOCK:   -5.42 KCAL/MOL
REMARK 924 INTRA-LIGAND FREE ENERGY PREDICTED BY IDOCK:   -0.17 KCAL/MOL
REMARK 927      BINDING AFFINITY PREDICTED BY RF-SCORE:    0.00 PKD
ROOT
ATOM      1  N   PHE A   1     -10.100  13.067  63.925  1.00  0.00    -0.757 NA 
ATOM      2  CA  PHE A   1     -11.076  12.966  65.061  1.00  0.00    -0.292 C  
ATOM      3  H1  PHE A   1     -10.429  12.633  63.063  1.00  0.00     0.000 HD 
ATOM      4  H2  PHE A   1      -9.192  12.688  64.196  1.00  0.00     0.000 HD 
ATOM      5  C   PHE A   1     -12.393  13.614  64.603  1.00  0.00    -0.371 C  
ATOM      6  OXT PHE A   1     -13.282  14.019  65.334  1.00  0.00    -0.761 OA 
ATOM      7  O   PHE A   1     -12.465  13.653  63.245  1.00  0.00    -0.801 OA 
ENDROOT
BRANCH   2   8
ATOM      8  CB  PHE A   1     -10.581  13.621  66.361  1.00  0.00    -0.284 C  
BRANCH   8   9
ATOM      9  CG  PHE A   1     -11.064  12.908  67.601  1.00  0.00    -0.297 A  
ATOM     10  CD1 PHE A   1     -11.149  11.508  67.632  1.00  0.00    -0.324 A  
ATOM     11  CE1 PHE A   1     -11.630  10.854  68.766  1.00  0.00    -0.378 A  
ATOM     12  CZ  PHE A   1     -12.024  11.588  69.882  1.00  0.00    -0.426 A  
ATOM     13  CE2 PHE A   1     -11.936  12.977  69.867  1.00  0.00    -0.381 A  
ATOM     14  CD2 PHE A   1     -11.460  13.637  68.731  1.00  0.00    -0.346 A  
ENDBRANCH   8   9
ENDBRANCH   2   8
TORSDOF 2
ENDMDL
MODEL       14
REMARK 921   NORMALIZED FREE ENERGY PREDICTED BY IDOCK:   -4.80 KCAL/MOL
REMARK 922        TOTAL FREE ENERGY PREDICTED BY IDOCK:   -5.56 KCAL/MOL
REMARK 923 INTER-LIGAND FREE ENERGY PREDICTED BY IDOCK:   -5.38 KCAL/MOL
REMARK 924 INTRA-LIGAND FREE ENERGY PREDICTED BY IDOCK:   -0.18 KCAL/MOL
REMARK 927      BINDING AFFINITY PREDICTED BY RF-SCORE:    0.00 PKD
ROOT
ATOM      1  N   PHE A   1     -10.398  15.892  66.348  1.00  0.00    -0.296 NA 
ATOM      2  CA  PHE A   1     -11.094  14.782  65.616  1.00  0.00    -0.342 C  
ATOM      3  H1  PHE A   1      -9.754  16.426  65.764  1.00  0.00     0.000 HD 
ATOM      4  H2  PHE A   1      -9.922  15.534  67.176  1.00  0.00     0.000 HD 
ATOM      5  C   PHE A   1     -11.841  15.404  64.425  1.00  0.00    -0.256 C  
ATOM      6  OXT PHE A   1     -12.767  14.893  63.816  1.00  0.00    -0.754 OA 
ATOM      7  O   PHE A   1     -11.309  16.614  64.101  1.00  0.00    -1.141 OA 
ENDROOT
BRANCH   2   8
ATOM      8  CB  PHE A   1     -12.065  13.976  66.494  1.00  0.00    -0.488 C  
BRANCH   8   9
ATOM      9  CG  PHE A   1     -11.551  12.597  66.831  1.00  0.00    -0.438 A  
ATOM     10  CD1 PHE A   1     -10.825  11.856  65.885  1.00  0.00    -0.342 A  
ATOM     11  CE1 PHE A   1     -10.383  10.567  66.186  1.00  0.00    -0.276 A  
ATOM     12  CZ  PHE A   1     -10.653  10.008  67.432  1.00  0.00    -0.330 A  
ATOM     13  CE2 PHE A   1     -11.364  10.737  68.382  1.00  0.00    -0.367 A  
ATOM     14  CD2 PHE A   1     -11.814  12.026  68.083  1.00  0.00    -0.352 A  
ENDBRANCH   8   9
ENDBRANCH   2   8
TORSDOF 2
ENDMDL
MODEL       15
REMARK 921   NORMALIZED FREE ENERGY PREDICTED BY IDOCK:   -4.76 KCAL/MOL
REMARK 922        TOTAL FREE ENERGY PREDICTED BY IDOCK:   -5.52 KCAL/MOL
REMARK 923 INTER-LIGAND FREE ENERGY PREDICTED BY IDOCK:   -5.37 KCAL/MOL
REMARK 924 INTRA-LIGAND FREE ENERGY PREDICTED BY IDOCK:   -0.15 KCAL/MOL
REMARK 927      BINDING AFFINITY PREDICTED BY RF-SCORE:    0.00 PKD
ROOT
ATOM      1  N   PHE A   1     -11.417  16.342  63.883  1.00  0.00    -1.618 NA 
ATOM      2  CA  PHE A   1     -10.872  15.275  64.787  1.00  0.00    -0.358 C  
ATOM      3  H1  PHE A   1     -11.588  16.023  62.929  1.00  0.00     0.000 HD 
ATOM      4  H2  PHE A   1     -10.808  17.161  63.885  1.00  0.00     0.000 HD 
ATOM      5  C   PHE A   1     -11.871  14.107  64.785  1.00  0.00    -0.417 C  
ATOM      6  OXT PHE A   1     -11.948  13.231  65.630  1.00  0.00    -0.367 OA 
ATOM      7  O   PHE A   1     -12.659  14.149  63.677  1.00  0.00    -0.831 OA 
ENDROOT
BRANCH   2   8
ATOM      8  CB  PHE A   1     -10.615  15.756  66.224  1.00  0.00    -0.313 C  
BRANCH   8   9
ATOM      9  CG  PHE A   1      -9.162  16.075  66.489  1.00  0.00    -0.307 A  
ATOM     10  CD1 PHE A   1      -8.356  15.181  67.210  1.00  0.00    -0.225 A  
ATOM     11  CE1 PHE A   1      -7.025  15.496  67.485  1.00  0.00    -0.223 A  
ATOM     12  CZ  PHE A   1      -6.483  16.698  67.037  1.00  0.00    -0.231 A  
ATOM     13  CE2 PHE A   1      -7.271  17.588  66.313  1.00  0.00    -0.351 A  
ATOM     14  CD2 PHE A   1      -8.606  17.281  66.041  1.00  0.00    -0.127 A  
ENDBRANCH   8   9
ENDBRANCH   2   8
TORSDOF 2
ENDMDL
MODEL       16
REMARK 921   NORMALIZED FREE ENERGY PREDICTED BY IDOCK:   -4.75 KCAL/MOL
REMARK 922        TOTAL FREE ENERGY PREDICTED BY IDOCK:   -5.51 KCAL/MOL
REMARK 923 INTER-LIGAND FREE ENERGY PREDICTED BY IDOCK:   -5.30 KCAL/MOL
REMARK 924 INTRA-LIGAND FREE ENERGY PREDICTED BY IDOCK:   -0.20 KCAL/MOL
REMARK 927      BINDING AFFINITY PREDICTED BY RF-SCORE:    0.00 PKD
ROOT
ATOM      1  N   PHE A   1     -14.221   9.055  73.209  1.00  0.00    -1.188 NA 
ATOM      2  CA  PHE A   1     -13.075   8.774  72.281  1.00  0.00    -0.409 C  
ATOM      3  H1  PHE A   1     -14.061   9.848  73.829  1.00  0.00     0.000 HD 
ATOM      4  H2  PHE A   1     -14.463   8.221  73.745  1.00  0.00     0.000 HD 
ATOM      5  C   PHE A   1     -12.813  10.049  71.463  1.00  0.00    -0.432 C  
ATOM      6  OXT PHE A   1     -12.209  10.107  70.405  1.00  0.00    -0.266 OA 
ATOM      7  O   PHE A   1     -13.321  11.141  72.097  1.00  0.00    -0.452 OA 
ENDROOT
BRANCH   2   8
ATOM      8  CB  PHE A   1     -13.316   7.578  71.346  1.00  0.00    -0.370 C  
BRANCH   8   9
ATOM      9  CG  PHE A   1     -12.123   6.658  71.244  1.00  0.00    -0.395 A  
ATOM     10  CD1 PHE A   1     -11.508   6.423  70.005  1.00  0.00    -0.496 A  
ATOM     11  CE1 PHE A   1     -10.429   5.543  69.907  1.00  0.00    -0.386 A  
ATOM     12  CZ  PHE A   1      -9.948   4.898  71.044  1.00  0.00    -0.282 A  
ATOM     13  CE2 PHE A   1     -10.545   5.131  72.280  1.00  0.00    -0.278 A  
ATOM     14  CD2 PHE A   1     -11.629   6.006  72.381  1.00  0.00    -0.349 A  
ENDBRANCH   8   9
ENDBRANCH   2   8
TORSDOF 2
ENDMDL
MODEL       17
REMARK 921   NORMALIZED FREE ENERGY PREDICTED BY IDOCK:   -4.73 KCAL/MOL
REMARK 922        TOTAL FREE ENERGY PREDICTED BY IDOCK:   -5.49 KCAL/MOL
REMARK 923 INTER-LIGAND FREE ENERGY PREDICTED BY IDOCK:   -5.29 KCAL/MOL
REMARK 924 INTRA-LIGAND FREE ENERGY PREDICTED BY IDOCK:   -0.20 KCAL/MOL
REMARK 927      BINDING AFFINITY PREDICTED BY RF-SCORE:    0.00 PKD
ROOT
ATOM      1  N   PHE A   1     -11.984  12.370  66.815  1.00  0.00    -0.588 NA 
ATOM      2  CA  PHE A   1     -12.034  13.610  67.659  1.00  0.00    -0.351 C  
ATOM      3  H1  PHE A   1     -12.433  12.476  65.905  1.00  0.00     0.000 HD 
ATOM      4  H2  PHE A   1     -12.376  11.575  67.320  1.00  0.00     0.000 HD 
ATOM      5  C   PHE A   1     -11.368  14.744  66.862  1.00  0.00    -0.355 C  
ATOM      6  OXT PHE A   1     -10.926  15.781  67.328  1.00  0.00    -0.316 OA 
ATOM      7  O   PHE A   1     -11.362  14.459  65.532  1.00  0.00    -0.319 OA 
ENDROOT
BRANCH   2   8
ATOM      8  CB  PHE A   1     -11.358  13.452  69.030  1.00  0.00    -0.335 C  
BRANCH   8   9
ATOM      9  CG  PHE A   1     -12.276  13.785  70.182  1.00  0.00    -0.425 A  
ATOM     10  CD1 PHE A   1     -12.653  12.795  71.103  1.00  0.00    -0.365 A  
ATOM     11  CE1 PHE A   1     -13.530  13.097  72.145  1.00  0.00    -0.653 A  
ATOM     12  CZ  PHE A   1     -14.033  14.388  72.284  1.00  0.00    -0.610 A  
ATOM     13  CE2 PHE A   1     -13.659  15.380  71.382  1.00  0.00    -0.604 A  
ATOM     14  CD2 PHE A   1     -12.786  15.081  70.334  1.00  0.00    -0.371 A  
ENDBRANCH   8   9
ENDBRANCH   2   8
TORSDOF 2
ENDMDL
MODEL       18
REMARK 921   NORMALIZED FREE ENERGY PREDICTED BY IDOCK:   -4.69 KCAL/MOL
REMARK 922        TOTAL FREE ENERGY PREDICTED BY IDOCK:   -5.44 KCAL/MOL
REMARK 923 INTER-LIGAND FREE ENERGY PREDICTED BY IDOCK:   -5.33 KCAL/MOL
REMARK 924 INTRA-LIGAND FREE ENERGY PREDICTED BY IDOCK:   -0.11 KCAL/MOL
REMARK 927      BINDING AFFINITY PREDICTED BY RF-SCORE:    0.00 PKD
ROOT
ATOM      1  N   PHE A   1     -13.107  13.879  65.229  1.00  0.00    -0.770 NA 
ATOM      2  CA  PHE A   1     -11.790  13.876  64.510  1.00  0.00    -0.426 C  
ATOM      3  H1  PHE A   1     -13.913  13.819  64.607  1.00  0.00     0.000 HD 
ATOM      4  H2  PHE A   1     -13.182  14.693  65.840  1.00  0.00     0.000 HD 
ATOM      5  C   PHE A   1     -11.721  12.593  63.666  1.00  0.00    -0.522 C  
ATOM      6  OXT PHE A   1     -10.706  12.081  63.225  1.00  0.00    -0.408 OA 
ATOM      7  O   PHE A   1     -12.969  12.100  63.436  1.00  0.00    -0.776 OA 
ENDROOT
BRANCH   2   8
ATOM      8  CB  PHE A   1     -10.574  13.965  65.447  1.00  0.00    -0.344 C  
BRANCH   8   9
ATOM      9  CG  PHE A   1     -10.570  15.218  66.290  1.00  0.00    -0.312 A  
ATOM     10  CD1 PHE A   1     -10.974  15.176  67.633  1.00  0.00    -0.308 A  
ATOM     11  CE1 PHE A   1     -11.004  16.342  68.399  1.00  0.00    -0.351 A  
ATOM     12  CZ  PHE A   1     -10.624  17.558  67.836  1.00  0.00    -0.390 A  
ATOM     13  CE2 PHE A   1     -10.213  17.610  66.507  1.00  0.00    -0.355 A  
ATOM     14  CD2 PHE A   1     -10.187  16.447  65.735  1.00  0.00    -0.370 A  
ENDBRANCH   8   9
ENDBRANCH   2   8
TORSDOF 2
ENDMDL
MODEL       19
REMARK 921   NORMALIZED FREE ENERGY PREDICTED BY IDOCK:   -4.67 KCAL/MOL
REMARK 922        TOTAL FREE ENERGY PREDICTED BY IDOCK:   -5.42 KCAL/MOL
REMARK 923 INTER-LIGAND FREE ENERGY PREDICTED BY IDOCK:   -5.22 KCAL/MOL
REMARK 924 INTRA-LIGAND FREE ENERGY PREDICTED BY IDOCK:   -0.20 KCAL/MOL
REMARK 927      BINDING AFFINITY PREDICTED BY RF-SCORE:    0.00 PKD
ROOT
ATOM      1  N   PHE A   1     -11.595  16.188  63.902  1.00  0.00    -1.469 NA 
ATOM      2  CA  PHE A   1     -11.142  15.911  65.306  1.00  0.00    -0.248 C  
ATOM      3  H1  PHE A   1     -12.241  16.974  63.828  1.00  0.00     0.000 HD 
ATOM      4  H2  PHE A   1     -11.997  15.350  63.481  1.00  0.00     0.000 HD 
ATOM      5  C   PHE A   1     -10.489  17.193  65.847  1.00  0.00    -0.258 C  
ATOM      6  OXT PHE A   1      -9.722  17.260  66.793  1.00  0.00    -0.258 OA 
ATOM      7  O   PHE A   1     -10.909  18.281  65.145  1.00  0.00    -0.656 OA 
ENDROOT
BRANCH   2   8
ATOM      8  CB  PHE A   1     -10.168  14.727  65.418  1.00  0.00    -0.415 C  
BRANCH   8   9
ATOM      9  CG  PHE A   1     -10.681  13.624  66.313  1.00  0.00    -0.285 A  
ATOM     10  CD1 PHE A   1     -11.511  13.919  67.405  1.00  0.00    -0.374 A  
ATOM     11  CE1 PHE A   1     -11.954  12.903  68.252  1.00  0.00    -0.297 A  
ATOM     12  CZ  PHE A   1     -11.580  11.582  68.014  1.00  0.00    -0.370 A  
ATOM     13  CE2 PHE A   1     -10.764  11.276  66.928  1.00  0.00    -0.319 A  
ATOM     14  CD2 PHE A   1     -10.314  12.291  66.081  1.00  0.00    -0.269 A  
ENDBRANCH   8   9
ENDBRANCH   2   8
TORSDOF 2
ENDMDL
MODEL       20
REMARK 921   NORMALIZED FREE ENERGY PREDICTED BY IDOCK:   -4.67 KCAL/MOL
REMARK 922        TOTAL FREE ENERGY PREDICTED BY IDOCK:   -5.42 KCAL/MOL
REMARK 923 INTER-LIGAND FREE ENERGY PREDICTED BY IDOCK:   -5.24 KCAL/MOL
REMARK 924 INTRA-LIGAND FREE ENERGY PREDICTED BY IDOCK:   -0.18 KCAL/MOL
REMARK 927      BINDING AFFINITY PREDICTED BY RF-SCORE:    0.00 PKD
ROOT
ATOM      1  N   PHE A   1     -12.831  12.527  65.041  1.00  0.00    -0.758 NA 
ATOM      2  CA  PHE A   1     -12.410  13.834  65.646  1.00  0.00    -0.482 C  
ATOM      3  H1  PHE A   1     -13.614  12.610  64.393  1.00  0.00     0.000 HD 
ATOM      4  H2  PHE A   1     -13.038  11.842  65.770  1.00  0.00     0.000 HD 
ATOM      5  C   PHE A   1     -12.052  14.788  64.495  1.00  0.00    -0.446 C  
ATOM      6  OXT PHE A   1     -11.365  15.791  64.586  1.00  0.00    -0.432 OA 
ATOM      7  O   PHE A   1     -12.639  14.384  63.335  1.00  0.00    -0.729 OA 
ENDROOT
BRANCH   2   8
ATOM      8  CB  PHE A   1     -11.230  13.710  66.624  1.00  0.00    -0.324 C  
BRANCH   8   9
ATOM      9  CG  PHE A   1     -11.427  14.507  67.891  1.00  0.00    -0.348 A  
ATOM     10  CD1 PHE A   1     -10.883  15.795  68.015  1.00  0.00    -0.309 A  
ATOM     11  CE1 PHE A   1     -11.035  16.514  69.201  1.00  0.00    -0.303 A  
ATOM     12  CZ  PHE A   1     -11.736  15.961  70.270  1.00  0.00    -0.352 A  
ATOM     13  CE2 PHE A   1     -12.287  14.688  70.155  1.00  0.00    -0.390 A  
ATOM     14  CD2 PHE A   1     -12.133  13.961  68.972  1.00  0.00    -0.365 A  
ENDBRANCH   8   9
ENDBRANCH   2   8
TORSDOF 2
ENDMDL
MODEL       21
REMARK 921   NORMALIZED FREE ENERGY PREDICTED BY IDOCK:   -4.65 KCAL/MOL
REMARK 922        TOTAL FREE ENERGY PREDICTED BY IDOCK:   -5.40 KCAL/MOL
REMARK 923 INTER-LIGAND FREE ENERGY PREDICTED BY IDOCK:   -5.38 KCAL/MOL
REMARK 924 INTRA-LIGAND FREE ENERGY PREDICTED BY IDOCK:   -0.02 KCAL/MOL
REMARK 927      BINDING AFFINITY PREDICTED BY RF-SCORE:    0.00 PKD
ROOT
ATOM      1  N   PHE A   1     -12.150  15.974  71.003  1.00  0.00    -0.538 NA 
ATOM      2  CA  PHE A   1     -12.959  14.716  70.883  1.00  0.00    -0.365 C  
ATOM      3  H1  PHE A   1     -12.714  16.812  71.144  1.00  0.00     0.000 HD 
ATOM      4  H2  PHE A   1     -11.535  16.085  70.197  1.00  0.00     0.000 HD 
ATOM      5  C   PHE A   1     -13.807  14.582  72.159  1.00  0.00    -0.477 C  
ATOM      6  OXT PHE A   1     -14.318  13.555  72.572  1.00  0.00    -0.713 OA 
ATOM      7  O   PHE A   1     -13.950  15.789  72.770  1.00  0.00    -0.590 OA 
ENDROOT
BRANCH   2   8
ATOM      8  CB  PHE A   1     -12.108  13.453  70.672  1.00  0.00    -0.374 C  
BRANCH   8   9
ATOM      9  CG  PHE A   1     -11.862  13.144  69.214  1.00  0.00    -0.377 A  
ATOM     10  CD1 PHE A   1     -12.025  14.138  68.237  1.00  0.00    -0.367 A  
ATOM     11  CE1 PHE A   1     -11.833  13.841  66.888  1.00  0.00    -0.447 A  
ATOM     12  CZ  PHE A   1     -11.469  12.554  66.500  1.00  0.00    -0.418 A  
ATOM     13  CE2 PHE A   1     -11.296  11.562  67.461  1.00  0.00    -0.366 A  
ATOM     14  CD2 PHE A   1     -11.493  11.853  68.813  1.00  0.00    -0.347 A  
ENDBRANCH   8   9
ENDBRANCH   2   8
TORSDOF 2
ENDMDL
MODEL       22
REMARK 921   NORMALIZED FREE ENERGY PREDICTED BY IDOCK:   -4.65 KCAL/MOL
REMARK 922        TOTAL FREE ENERGY PREDICTED BY IDOCK:   -5.39 KCAL/MOL
REMARK 923 INTER-LIGAND FREE ENERGY PREDICTED BY IDOCK:   -5.24 KCAL/MOL
REMARK 924 INTRA-LIGAND FREE ENERGY PREDICTED BY IDOCK:   -0.15 KCAL/MOL
REMARK 927      BINDING AFFINITY PREDICTED BY RF-SCORE:    0.00 PKD
ROOT
ATOM      1  N   PHE A   1     -13.157  13.940  65.126  1.00  0.00    -0.764 NA 
ATOM      2  CA  PHE A   1     -11.844  13.860  64.404  1.00  0.00    -0.429 C  
ATOM      3  H1  PHE A   1     -13.967  13.849  64.512  1.00  0.00     0.000 HD 
ATOM      4  H2  PHE A   1     -13.215  14.798  65.674  1.00  0.00     0.000 HD 
ATOM      5  C   PHE A   1     -11.802  12.516  63.658  1.00  0.00    -0.530 C  
ATOM      6  OXT PHE A   1     -10.798  11.955  63.252  1.00  0.00    -0.385 OA 
ATOM      7  O   PHE A   1     -13.059  12.031  63.469  1.00  0.00    -0.764 OA 
ENDROOT
BRANCH   2   8
ATOM      8  CB  PHE A   1     -10.623  13.996  65.328  1.00  0.00    -0.376 C  
BRANCH   8   9
ATOM      9  CG  PHE A   1     -10.633  15.272  66.136  1.00  0.00    -0.318 A  
ATOM     10  CD1 PHE A   1     -10.419  16.511  65.515  1.00  0.00    -0.320 A  
ATOM     11  CE1 PHE A   1     -10.392  17.684  66.269  1.00  0.00    -0.342 A  
ATOM     12  CZ  PHE A   1     -10.586  17.634  67.647  1.00  0.00    -0.364 A  
ATOM     13  CE2 PHE A   1     -10.809  16.411  68.274  1.00  0.00    -0.347 A  
ATOM     14  CD2 PHE A   1     -10.830  15.233  67.523  1.00  0.00    -0.304 A  
ENDBRANCH   8   9
ENDBRANCH   2   8
TORSDOF 2
ENDMDL
MODEL       23
REMARK 921   NORMALIZED FREE ENERGY PREDICTED BY IDOCK:   -4.65 KCAL/MOL
REMARK 922        TOTAL FREE ENERGY PREDICTED BY IDOCK:   -5.39 KCAL/MOL
REMARK 923 INTER-LIGAND FREE ENERGY PREDICTED BY IDOCK:   -5.21 KCAL/MOL
REMARK 924 INTRA-LIGAND FREE ENERGY PREDICTED BY IDOCK:   -0.19 KCAL/MOL
REMARK 927      BINDING AFFINITY PREDICTED BY RF-SCORE:    0.00 PKD
ROOT
ATOM      1  N   PHE A   1     -12.451  11.788  63.330  1.00  0.00    -0.904 NA 
ATOM      2  CA  PHE A   1     -12.087  12.430  64.636  1.00  0.00    -0.415 C  
ATOM      3  H1  PHE A   1     -13.303  12.163  62.913  1.00  0.00     0.000 HD 
ATOM      4  H2  PHE A   1     -12.516  10.775  63.432  1.00  0.00     0.000 HD 
ATOM      5  C   PHE A   1     -11.942  13.941  64.390  1.00  0.00    -0.450 C  
ATOM      6  OXT PHE A   1     -11.342  14.727  65.105  1.00  0.00    -0.350 OA 
ATOM      7  O   PHE A   1     -12.610  14.311  63.264  1.00  0.00    -0.716 OA 
ENDROOT
BRANCH   2   8
ATOM      8  CB  PHE A   1     -10.803  11.865  65.266  1.00  0.00    -0.347 C  
BRANCH   8   9
ATOM      9  CG  PHE A   1     -11.002  11.387  66.684  1.00  0.00    -0.341 A  
ATOM     10  CD1 PHE A   1     -11.610  12.217  67.638  1.00  0.00    -0.421 A  
ATOM     11  CE1 PHE A   1     -11.758  11.787  68.957  1.00  0.00    -0.390 A  
ATOM     12  CZ  PHE A   1     -11.311  10.524  69.335  1.00  0.00    -0.331 A  
ATOM     13  CE2 PHE A   1     -10.714   9.688  68.395  1.00  0.00    -0.251 A  
ATOM     14  CD2 PHE A   1     -10.558  10.116  67.075  1.00  0.00    -0.290 A  
ENDBRANCH   8   9
ENDBRANCH   2   8
TORSDOF 2
ENDMDL
MODEL       24
REMARK 921   NORMALIZED FREE ENERGY PREDICTED BY IDOCK:   -4.64 KCAL/MOL
REMARK 922        TOTAL FREE ENERGY PREDICTED BY IDOCK:   -5.39 KCAL/MOL
REMARK 923 INTER-LIGAND FREE ENERGY PREDICTED BY IDOCK:   -5.57 KCAL/MOL
REMARK 924 INTRA-LIGAND FREE ENERGY PREDICTED BY IDOCK:    0.18 KCAL/MOL
REMARK 927      BINDING AFFINITY PREDICTED BY RF-SCORE:    0.00 PKD
ROOT
ATOM      1  N   PHE A   1     -11.326  16.234  64.299  1.00  0.00    -1.209 NA 
ATOM      2  CA  PHE A   1     -10.410  15.759  65.389  1.00  0.00    -0.389 C  
ATOM      3  H1  PHE A   1     -11.045  15.931  63.367  1.00  0.00     0.000 HD 
ATOM      4  H2  PHE A   1     -11.428  17.249  64.332  1.00  0.00     0.000 HD 
ATOM      5  C   PHE A   1     -10.358  14.224  65.318  1.00  0.00    -0.395 C  
ATOM      6  OXT PHE A   1     -10.006  13.479  66.218  1.00  0.00    -0.285 OA 
ATOM      7  O   PHE A   1     -10.731  13.785  64.086  1.00  0.00    -0.289 OA 
ENDROOT
BRANCH   2   8
ATOM      8  CB  PHE A   1     -10.832  16.216  66.794  1.00  0.00    -0.162 C  
BRANCH   8   9
ATOM      9  CG  PHE A   1     -10.435  17.641  67.096  1.00  0.00    -0.319 A  
ATOM     10  CD1 PHE A   1     -10.104  18.027  68.404  1.00  0.00    -0.392 A  
ATOM     11  CE1 PHE A   1      -9.773  19.353  68.687  1.00  0.00    -0.504 A  
ATOM     12  CZ  PHE A   1      -9.760  20.303  67.669  1.00  0.00    -0.555 A  
ATOM     13  CE2 PHE A   1     -10.078  19.929  66.366  1.00  0.00    -0.615 A  
ATOM     14  CD2 PHE A   1     -10.416  18.604  66.079  1.00  0.00    -0.456 A  
ENDBRANCH   8   9
ENDBRANCH   2   8
TORSDOF 2
ENDMDL
MODEL       25
REMARK 921   NORMALIZED FREE ENERGY PREDICTED BY IDOCK:   -4.63 KCAL/MOL
REMARK 922        TOTAL FREE ENERGY PREDICTED BY IDOCK:   -5.37 KCAL/MOL
REMARK 923 INTER-LIGAND FREE ENERGY PREDICTED BY IDOCK:   -5.17 KCAL/MOL
REMARK 924 INTRA-LIGAND FREE ENERGY PREDICTED BY IDOCK:   -0.20 KCAL/MOL
REMARK 927      BINDING AFFINITY PREDICTED BY RF-SCORE:    0.00 PKD
ROOT
ATOM      1  N   PHE A   1     -10.262  16.113  66.788  1.00  0.00    -0.274 NA 
ATOM      2  CA  PHE A   1     -10.696  15.344  65.574  1.00  0.00    -0.384 C  
ATOM      3  H1  PHE A   1      -9.663  16.912  66.574  1.00  0.00     0.000 HD 
ATOM      4  H2  PHE A   1      -9.811  15.496  67.464  1.00  0.00     0.000 HD 
ATOM      5  C   PHE A   1     -11.422  16.322  64.636  1.00  0.00    -0.167 C  
ATOM      6  OXT PHE A   1     -12.191  16.015  63.741  1.00  0.00    -0.895 OA 
ATOM      7  O   PHE A   1     -11.068  17.607  64.912  1.00  0.00    -0.854 OA 
ENDROOT
BRANCH   2   8
ATOM      8  CB  PHE A   1     -11.597  14.141  65.895  1.00  0.00    -0.349 C  
BRANCH   8   9
ATOM      9  CG  PHE A   1     -11.020  12.828  65.423  1.00  0.00    -0.313 A  
ATOM     10  CD1 PHE A   1     -10.713  11.813  66.341  1.00  0.00    -0.306 A  
ATOM     11  CE1 PHE A   1     -10.146  10.615  65.906  1.00  0.00    -0.321 A  
ATOM     12  CZ  PHE A   1      -9.886  10.415  64.553  1.00  0.00    -0.405 A  
ATOM     13  CE2 PHE A   1     -10.194  11.412  63.631  1.00  0.00    -0.448 A  
ATOM     14  CD2 PHE A   1     -10.757  12.615  64.063  1.00  0.00    -0.457 A  
ENDBRANCH   8   9
ENDBRANCH   2   8
TORSDOF 2
ENDMDL
MODEL       26
REMARK 921   NORMALIZED FREE ENERGY PREDICTED BY IDOCK:   -4.62 KCAL/MOL
REMARK 922        TOTAL FREE ENERGY PREDICTED BY IDOCK:   -5.36 KCAL/MOL
REMARK 923 INTER-LIGAND FREE ENERGY PREDICTED BY IDOCK:   -5.15 KCAL/MOL
REMARK 924 INTRA-LIGAND FREE ENERGY PREDICTED BY IDOCK:   -0.21 KCAL/MOL
REMARK 927      BINDING AFFINITY PREDICTED BY RF-SCORE:    0.00 PKD
ROOT
ATOM      1  N   PHE A   1     -14.227   7.592  71.128  1.00  0.00    -0.668 NA 
ATOM      2  CA  PHE A   1     -13.047   8.494  71.343  1.00  0.00    -0.230 C  
ATOM      3  H1  PHE A   1     -14.013   6.764  70.573  1.00  0.00     0.000 HD 
ATOM      4  H2  PHE A   1     -15.006   8.109  70.719  1.00  0.00     0.000 HD 
ATOM      5  C   PHE A   1     -11.943   7.666  72.021  1.00  0.00    -0.302 C  
ATOM      6  OXT PHE A   1     -10.995   8.113  72.644  1.00  0.00    -0.351 OA 
ATOM      7  O   PHE A   1     -12.139   6.336  71.808  1.00  0.00    -0.323 OA 
ENDROOT
BRANCH   2   8
ATOM      8  CB  PHE A   1     -13.368   9.743  72.180  1.00  0.00    -0.527 C  
BRANCH   8   9
ATOM      9  CG  PHE A   1     -12.932  11.027  71.516  1.00  0.00    -0.553 A  
ATOM     10  CD1 PHE A   1     -12.153  10.997  70.349  1.00  0.00    -0.463 A  
ATOM     11  CE1 PHE A   1     -11.720  12.185  69.759  1.00  0.00    -0.381 A  
ATOM     12  CZ  PHE A   1     -12.066  13.412  70.320  1.00  0.00    -0.419 A  
ATOM     13  CE2 PHE A   1     -12.846  13.454  71.472  1.00  0.00    -0.427 A  
ATOM     14  CD2 PHE A   1     -13.276  12.267  72.071  1.00  0.00    -0.508 A  
ENDBRANCH   8   9
ENDBRANCH   2   8
TORSDOF 2
ENDMDL
MODEL       27
REMARK 921   NORMALIZED FREE ENERGY PREDICTED BY IDOCK:   -4.60 KCAL/MOL
REMARK 922        TOTAL FREE ENERGY PREDICTED BY IDOCK:   -5.34 KCAL/MOL
REMARK 923 INTER-LIGAND FREE ENERGY PREDICTED BY IDOCK:   -5.23 KCAL/MOL
REMARK 924 INTRA-LIGAND FREE ENERGY PREDICTED BY IDOCK:   -0.11 KCAL/MOL
REMARK 927      BINDING AFFINITY PREDICTED BY RF-SCORE:    0.00 PKD
ROOT
ATOM      1  N   PHE A   1     -12.261  10.845  68.379  1.00  0.00    -0.810 NA 
ATOM      2  CA  PHE A   1     -11.579  12.180  68.450  1.00  0.00    -0.327 C  
ATOM      3  H1  PHE A   1     -11.985  10.204  69.124  1.00  0.00     0.000 HD 
ATOM      4  H2  PHE A   1     -12.118  10.416  67.464  1.00  0.00     0.000 HD 
ATOM      5  C   PHE A   1     -11.892  12.792  69.825  1.00  0.00    -0.310 C  
ATOM      6  OXT PHE A   1     -11.805  13.972  70.119  1.00  0.00    -0.287 OA 
ATOM      7  O   PHE A   1     -12.258  11.825  70.711  1.00  0.00    -0.378 OA 
ENDROOT
BRANCH   2   8
ATOM      8  CB  PHE A   1     -11.993  13.145  67.328  1.00  0.00    -0.389 C  
BRANCH   8   9
ATOM      9  CG  PHE A   1     -11.623  12.645  65.952  1.00  0.00    -0.443 A  
ATOM     10  CD1 PHE A   1     -12.530  12.753  64.887  1.00  0.00    -0.563 A  
ATOM     11  CE1 PHE A   1     -12.200  12.256  63.626  1.00  0.00    -0.665 A  
ATOM     12  CZ  PHE A   1     -10.962  11.654  63.413  1.00  0.00    -0.442 A  
ATOM     13  CE2 PHE A   1     -10.051  11.549  64.460  1.00  0.00    -0.324 A  
ATOM     14  CD2 PHE A   1     -10.379  12.040  65.726  1.00  0.00    -0.289 A  
ENDBRANCH   8   9
ENDBRANCH   2   8
TORSDOF 2
ENDMDL
MODEL       28
REMARK 921   NORMALIZED FREE ENERGY PREDICTED BY IDOCK:   -4.60 KCAL/MOL
REMARK 922        TOTAL FREE ENERGY PREDICTED BY IDOCK:   -5.33 KCAL/MOL
REMARK 923 INTER-LIGAND FREE ENERGY PREDICTED BY IDOCK:   -5.33 KCAL/MOL
REMARK 924 INTRA-LIGAND FREE ENERGY PREDICTED BY IDOCK:   -0.01 KCAL/MOL
REMARK 927      BINDING AFFINITY PREDICTED BY RF-SCORE:    0.00 PKD
ROOT
ATOM      1  N   PHE A   1     -13.266  13.958  65.091  1.00  0.00    -0.690 NA 
ATOM      2  CA  PHE A   1     -11.902  13.909  64.467  1.00  0.00    -0.426 C  
ATOM      3  H1  PHE A   1     -14.028  13.880  64.417  1.00  0.00     0.000 HD 
ATOM      4  H2  PHE A   1     -13.372  14.799  65.659  1.00  0.00     0.000 HD 
ATOM      5  C   PHE A   1     -11.793  12.589  63.686  1.00  0.00    -0.530 C  
ATOM      6  OXT PHE A   1     -10.756  12.048  63.340  1.00  0.00    -0.415 OA 
ATOM      7  O   PHE A   1     -13.028  12.101  63.391  1.00  0.00    -0.776 OA 
ENDROOT
BRANCH   2   8
ATOM      8  CB  PHE A   1     -10.754  14.027  65.482  1.00  0.00    -0.317 C  
BRANCH   8   9
ATOM      9  CG  PHE A   1     -11.188  13.745  66.901  1.00  0.00    -0.326 A  
ATOM     10  CD1 PHE A   1     -11.429  14.798  67.796  1.00  0.00    -0.363 A  
ATOM     11  CE1 PHE A   1     -11.794  14.534  69.116  1.00  0.00    -0.354 A  
ATOM     12  CZ  PHE A   1     -11.931  13.219  69.554  1.00  0.00    -0.366 A  
ATOM     13  CE2 PHE A   1     -11.704  12.165  68.672  1.00  0.00    -0.382 A  
ATOM     14  CD2 PHE A   1     -11.332  12.425  67.351  1.00  0.00    -0.381 A  
ENDBRANCH   8   9
ENDBRANCH   2   8
TORSDOF 2
ENDMDL
MODEL       29
REMARK 921   NORMALIZED FREE ENERGY PREDICTED BY IDOCK:   -4.58 KCAL/MOL
REMARK 922        TOTAL FREE ENERGY PREDICTED BY IDOCK:   -5.31 KCAL/MOL
REMARK 923 INTER-LIGAND FREE ENERGY PREDICTED BY IDOCK:   -5.12 KCAL/MOL
REMARK 924 INTRA-LIGAND FREE ENERGY PREDICTED BY IDOCK:   -0.19 KCAL/MOL
REMARK 927      BINDING AFFINITY PREDICTED BY RF-SCORE:    0.00 PKD
ROOT
ATOM      1  N   PHE A   1     -10.987  15.592  66.006  1.00  0.00    -0.292 NA 
ATOM      2  CA  PHE A   1     -11.256  14.365  65.184  1.00  0.00    -0.359 C  
ATOM      3  H1  PHE A   1     -10.514  16.334  65.489  1.00  0.00     0.000 HD 
ATOM      4  H2  PHE A   1     -10.466  15.353  66.850  1.00  0.00     0.000 HD 
ATOM      5  C   PHE A   1     -12.097  14.791  63.970  1.00  0.00    -0.161 C  
ATOM      6  OXT PHE A   1     -12.780  14.053  63.279  1.00  0.00    -0.750 OA 
ATOM      7  O   PHE A   1     -11.958  16.123  63.731  1.00  0.00    -0.926 OA 
ENDROOT
BRANCH   2   8
ATOM      8  CB  PHE A   1     -11.968  13.246  65.961  1.00  0.00    -0.473 C  
BRANCH   8   9
ATOM      9  CG  PHE A   1     -11.206  11.942  65.948  1.00  0.00    -0.373 A  
ATOM     10  CD1 PHE A   1     -11.039  11.201  67.129  1.00  0.00    -0.352 A  
ATOM     11  CE1 PHE A   1     -10.304  10.016  67.121  1.00  0.00    -0.300 A  
ATOM     12  CZ  PHE A   1      -9.735   9.554  65.937  1.00  0.00    -0.352 A  
ATOM     13  CE2 PHE A   1      -9.901  10.275  64.758  1.00  0.00    -0.403 A  
ATOM     14  CD2 PHE A   1     -10.632  11.466  64.762  1.00  0.00    -0.377 A  
ENDBRANCH   8   9
ENDBRANCH   2   8
TORSDOF 2
ENDMDL
MODEL       30
REMARK 921   NORMALIZED FREE ENERGY PREDICTED BY IDOCK:   -4.50 KCAL/MOL
REMARK 922        TOTAL FREE ENERGY PREDICTED BY IDOCK:   -5.22 KCAL/MOL
REMARK 923 INTER-LIGAND FREE ENERGY PREDICTED BY IDOCK:   -5.07 KCAL/MOL
REMARK 924 INTRA-LIGAND FREE ENERGY PREDICTED BY IDOCK:   -0.16 KCAL/MOL
REMARK 927      BINDING AFFINITY PREDICTED BY RF-SCORE:    0.00 PKD
ROOT
ATOM      1  N   PHE A   1     -11.299  14.869  67.473  1.00  0.00    -0.333 NA 
ATOM      2  CA  PHE A   1     -11.413  15.862  68.592  1.00  0.00    -0.391 C  
ATOM      3  H1  PHE A   1     -11.628  15.225  66.575  1.00  0.00     0.000 HD 
ATOM      4  H2  PHE A   1     -11.777  14.000  67.712  1.00  0.00     0.000 HD 
ATOM      5  C   PHE A   1     -10.616  17.113  68.189  1.00  0.00    -0.380 C  
ATOM      6  OXT PHE A   1     -10.201  17.972  68.949  1.00  0.00    -0.379 OA 
ATOM      7  O   PHE A   1     -10.455  17.167  66.839  1.00  0.00    -0.320 OA 
ENDROOT
BRANCH   2   8
ATOM      8  CB  PHE A   1     -10.918  15.326  69.946  1.00  0.00    -0.303 C  
BRANCH   8   9
ATOM      9  CG  PHE A   1     -12.036  14.811  70.821  1.00  0.00    -0.371 A  
ATOM     10  CD1 PHE A   1     -12.272  13.433  70.938  1.00  0.00    -0.367 A  
ATOM     11  CE1 PHE A   1     -13.329  12.962  71.718  1.00  0.00    -0.451 A  
ATOM     12  CZ  PHE A   1     -14.153  13.858  72.394  1.00  0.00    -0.586 A  
ATOM     13  CE2 PHE A   1     -13.922  15.227  72.292  1.00  0.00    -0.646 A  
ATOM     14  CD2 PHE A   1     -12.870  15.704  71.507  1.00  0.00    -0.538 A  
ENDBRANCH   8   9
ENDBRANCH   2   8
TORSDOF 2
ENDMDL
MODEL       31
REMARK 921   NORMALIZED FREE ENERGY PREDICTED BY IDOCK:   -4.48 KCAL/MOL
REMARK 922        TOTAL FREE ENERGY PREDICTED BY IDOCK:   -5.20 KCAL/MOL
REMARK 923 INTER-LIGAND FREE ENERGY PREDICTED BY IDOCK:   -5.00 KCAL/MOL
REMARK 924 INTRA-LIGAND FREE ENERGY PREDICTED BY IDOCK:   -0.20 KCAL/MOL
REMARK 927      BINDING AFFINITY PREDICTED BY RF-SCORE:    0.00 PKD
ROOT
ATOM      1  N   PHE A   1      -9.669  13.628  65.707  1.00  0.00    -0.477 NA 
ATOM      2  CA  PHE A   1     -11.053  13.714  66.282  1.00  0.00    -0.301 C  
ATOM      3  H1  PHE A   1      -9.485  12.755  65.212  1.00  0.00     0.000 HD 
ATOM      4  H2  PHE A   1      -8.968  13.786  66.432  1.00  0.00     0.000 HD 
ATOM      5  C   PHE A   1     -12.050  13.533  65.126  1.00  0.00    -0.404 C  
ATOM      6  OXT PHE A   1     -13.223  13.869  65.135  1.00  0.00    -0.768 OA 
ATOM      7  O   PHE A   1     -11.460  12.905  64.074  1.00  0.00    -0.370 OA 
ENDROOT
BRANCH   2   8
ATOM      8  CB  PHE A   1     -11.331  15.029  67.028  1.00  0.00    -0.319 C  
BRANCH   8   9
ATOM      9  CG  PHE A   1     -11.632  14.824  68.494  1.00  0.00    -0.348 A  
ATOM     10  CD1 PHE A   1     -11.878  13.537  68.998  1.00  0.00    -0.385 A  
ATOM     11  CE1 PHE A   1     -12.192  13.355  70.345  1.00  0.00    -0.415 A  
ATOM     12  CZ  PHE A   1     -12.255  14.450  71.203  1.00  0.00    -0.420 A  
ATOM     13  CE2 PHE A   1     -12.004  15.730  70.716  1.00  0.00    -0.444 A  
ATOM     14  CD2 PHE A   1     -11.695  15.918  69.366  1.00  0.00    -0.350 A  
ENDBRANCH   8   9
ENDBRANCH   2   8
TORSDOF 2
ENDMDL
MODEL       32
REMARK 921   NORMALIZED FREE ENERGY PREDICTED BY IDOCK:   -4.46 KCAL/MOL
REMARK 922        TOTAL FREE ENERGY PREDICTED BY IDOCK:   -5.18 KCAL/MOL
REMARK 923 INTER-LIGAND FREE ENERGY PREDICTED BY IDOCK:   -4.97 KCAL/MOL
REMARK 924 INTRA-LIGAND FREE ENERGY PREDICTED BY IDOCK:   -0.20 KCAL/MOL
REMARK 927      BINDING AFFINITY PREDICTED BY RF-SCORE:    0.00 PKD
ROOT
ATOM      1  N   PHE A   1     -14.147   9.029  73.090  1.00  0.00    -1.223 NA 
ATOM      2  CA  PHE A   1     -13.328   8.872  71.842  1.00  0.00    -0.405 C  
ATOM      3  H1  PHE A   1     -15.103   8.685  72.998  1.00  0.00     0.000 HD 
ATOM      4  H2  PHE A   1     -14.142  10.000  73.404  1.00  0.00     0.000 HD 
ATOM      5  C   PHE A   1     -13.327   7.381  71.469  1.00  0.00    -0.372 C  
ATOM      6  OXT PHE A   1     -12.521   6.827  70.740  1.00  0.00    -0.351 OA 
ATOM      7  O   PHE A   1     -14.384   6.741  72.039  1.00  0.00    -0.274 OA 
ENDROOT
BRANCH   2   8
ATOM      8  CB  PHE A   1     -11.887   9.390  71.980  1.00  0.00    -0.310 C  
BRANCH   8   9
ATOM      9  CG  PHE A   1     -11.421  10.168  70.773  1.00  0.00    -0.442 A  
ATOM     10  CD1 PHE A   1     -12.043  11.375  70.419  1.00  0.00    -0.473 A  
ATOM     11  CE1 PHE A   1     -11.636  12.073  69.282  1.00  0.00    -0.380 A  
ATOM     12  CZ  PHE A   1     -10.600  11.579  68.492  1.00  0.00    -0.236 A  
ATOM     13  CE2 PHE A   1      -9.970  10.387  68.838  1.00  0.00    -0.208 A  
ATOM     14  CD2 PHE A   1     -10.379   9.682  69.973  1.00  0.00    -0.298 A  
ENDBRANCH   8   9
ENDBRANCH   2   8
TORSDOF 2
ENDMDL
MODEL       33
REMARK 921   NORMALIZED FREE ENERGY PREDICTED BY IDOCK:   -4.42 KCAL/MOL
REMARK 922        TOTAL FREE ENERGY PREDICTED BY IDOCK:   -5.14 KCAL/MOL
REMARK 923 INTER-LIGAND FREE ENERGY PREDICTED BY IDOCK:   -4.94 KCAL/MOL
REMARK 924 INTRA-LIGAND FREE ENERGY PREDICTED BY IDOCK:   -0.20 KCAL/MOL
REMARK 927      BINDING AFFINITY PREDICTED BY RF-SCORE:    0.00 PKD
ROOT
ATOM      1  N   PHE A   1     -10.635   9.298  71.405  1.00  0.00    -0.339 NA 
ATOM      2  CA  PHE A   1     -11.984   9.936  71.569  1.00  0.00    -0.390 C  
ATOM      3  H1  PHE A   1     -10.381   8.677  72.174  1.00  0.00     0.000 HD 
ATOM      4  H2  PHE A   1      -9.916  10.007  71.262  1.00  0.00     0.000 HD 
ATOM      5  C   PHE A   1     -13.020   8.809  71.712  1.00  0.00    -0.361 C  
ATOM      6  OXT PHE A   1     -14.221   8.915  71.528  1.00  0.00    -0.357 OA 
ATOM      7  O   PHE A   1     -12.423   7.655  72.115  1.00  0.00    -0.285 OA 
ENDROOT
BRANCH   2   8
ATOM      8  CB  PHE A   1     -12.369  10.872  70.411  1.00  0.00    -0.436 C  
BRANCH   8   9
ATOM      9  CG  PHE A   1     -12.604  12.295  70.856  1.00  0.00    -0.334 A  
ATOM     10  CD1 PHE A   1     -13.328  12.566  72.027  1.00  0.00    -0.528 A  
ATOM     11  CE1 PHE A   1     -13.576  13.883  72.416  1.00  0.00    -0.676 A  
ATOM     12  CZ  PHE A   1     -13.099  14.941  71.646  1.00  0.00    -0.424 A  
ATOM     13  CE2 PHE A   1     -12.372  14.684  70.487  1.00  0.00    -0.400 A  
ATOM     14  CD2 PHE A   1     -12.126  13.368  70.091  1.00  0.00    -0.415 A  
ENDBRANCH   8   9
ENDBRANCH   2   8
TORSDOF 2
ENDMDL
MODEL       34
REMARK 921   NORMALIZED FREE ENERGY PREDICTED BY IDOCK:   -4.34 KCAL/MOL
REMARK 922        TOTAL FREE ENERGY PREDICTED BY IDOCK:   -5.05 KCAL/MOL
REMARK 923 INTER-LIGAND FREE ENERGY PREDICTED BY IDOCK:   -4.85 KCAL/MOL
REMARK 924 INTRA-LIGAND FREE ENERGY PREDICTED BY IDOCK:   -0.20 KCAL/MOL
REMARK 927      BINDING AFFINITY PREDICTED BY RF-SCORE:    0.00 PKD
ROOT
ATOM      1  N   PHE A   1     -10.125  13.083  63.650  1.00  0.00    -0.686 NA 
ATOM      2  CA  PHE A   1     -10.848  13.642  64.840  1.00  0.00    -0.375 C  
ATOM      3  H1  PHE A   1     -10.331  12.100  63.470  1.00  0.00     0.000 HD 
ATOM      4  H2  PHE A   1      -9.119  13.230  63.738  1.00  0.00     0.000 HD 
ATOM      5  C   PHE A   1     -12.355  13.445  64.606  1.00  0.00    -0.382 C  
ATOM      6  OXT PHE A   1     -13.251  14.052  65.169  1.00  0.00    -0.768 OA 
ATOM      7  O   PHE A   1     -12.576  12.459  63.695  1.00  0.00    -0.658 OA 
ENDROOT
BRANCH   2   8
ATOM      8  CB  PHE A   1     -10.539  15.123  65.112  1.00  0.00    -0.447 C  
BRANCH   8   9
ATOM      9  CG  PHE A   1     -10.053  15.376  66.519  1.00  0.00    -0.282 A  
ATOM     10  CD1 PHE A   1      -8.685  15.308  66.825  1.00  0.00    -0.304 A  
ATOM     11  CE1 PHE A   1      -8.243  15.506  68.133  1.00  0.00    -0.144 A  
ATOM     12  CZ  PHE A   1      -9.158  15.781  69.146  1.00  0.00    -0.262 A  
ATOM     13  CE2 PHE A   1     -10.516  15.859  68.854  1.00  0.00    -0.233 A  
ATOM     14  CD2 PHE A   1     -10.964  15.656  67.546  1.00  0.00    -0.309 A  
ENDBRANCH   8   9
ENDBRANCH   2   8
TORSDOF 2
ENDMDL
MODEL       35
REMARK 921   NORMALIZED FREE ENERGY PREDICTED BY IDOCK:   -4.33 KCAL/MOL
REMARK 922        TOTAL FREE ENERGY PREDICTED BY IDOCK:   -5.03 KCAL/MOL
REMARK 923 INTER-LIGAND FREE ENERGY PREDICTED BY IDOCK:   -4.83 KCAL/MOL
REMARK 924 INTRA-LIGAND FREE ENERGY PREDICTED BY IDOCK:   -0.21 KCAL/MOL
REMARK 927      BINDING AFFINITY PREDICTED BY RF-SCORE:    0.00 PKD
ROOT
ATOM      1  N   PHE A   1     -12.843  12.179  63.085  1.00  0.00    -0.796 NA 
ATOM      2  CA  PHE A   1     -11.748  12.279  64.106  1.00  0.00    -0.402 C  
ATOM      3  H1  PHE A   1     -13.696  12.672  63.351  1.00  0.00     0.000 HD 
ATOM      4  H2  PHE A   1     -13.044  11.203  62.867  1.00  0.00     0.000 HD 
ATOM      5  C   PHE A   1     -11.456  13.771  64.334  1.00  0.00    -0.372 C  
ATOM      6  OXT PHE A   1     -10.436  14.234  64.817  1.00  0.00    -0.431 OA 
ATOM      7  O   PHE A   1     -12.516  14.533  63.951  1.00  0.00    -0.814 OA 
ENDROOT
BRANCH   2   8
ATOM      8  CB  PHE A   1     -10.462  11.537  63.707  1.00  0.00    -0.459 C  
BRANCH   8   9
ATOM      9  CG  PHE A   1     -10.033  10.509  64.725  1.00  0.00    -0.412 A  
ATOM     10  CD1 PHE A   1      -9.160   9.470  64.367  1.00  0.00    -0.234 A  
ATOM     11  CE1 PHE A   1      -8.795   8.500  65.300  1.00  0.00    -0.144 A  
ATOM     12  CZ  PHE A   1      -9.289   8.560  66.601  1.00  0.00    -0.243 A  
ATOM     13  CE2 PHE A   1     -10.149   9.591  66.971  1.00  0.00    -0.297 A  
ATOM     14  CD2 PHE A   1     -10.522  10.561  66.038  1.00  0.00    -0.226 A  
ENDBRANCH   8   9
ENDBRANCH   2   8
TORSDOF 2
ENDMDL
MODEL       36
REMARK 921   NORMALIZED FREE ENERGY PREDICTED BY IDOCK:   -4.32 KCAL/MOL
REMARK 922        TOTAL FREE ENERGY PREDICTED BY IDOCK:   -5.03 KCAL/MOL
REMARK 923 INTER-LIGAND FREE ENERGY PREDICTED BY IDOCK:   -4.85 KCAL/MOL
REMARK 924 INTRA-LIGAND FREE ENERGY PREDICTED BY IDOCK:   -0.18 KCAL/MOL
REMARK 927      BINDING AFFINITY PREDICTED BY RF-SCORE:    0.00 PKD
ROOT
ATOM      1  N   PHE A   1     -10.878  17.752  67.845  1.00  0.00    -0.310 NA 
ATOM      2  CA  PHE A   1     -10.657  16.928  69.079  1.00  0.00    -0.338 C  
ATOM      3  H1  PHE A   1     -10.213  18.519  67.740  1.00  0.00     0.000 HD 
ATOM      4  H2  PHE A   1     -11.837  18.100  67.811  1.00  0.00     0.000 HD 
ATOM      5  C   PHE A   1      -9.219  16.386  69.028  1.00  0.00    -0.247 C  
ATOM      6  OXT PHE A   1      -8.792  15.432  69.656  1.00  0.00    -0.256 OA 
ATOM      7  O   PHE A   1      -8.449  17.142  68.199  1.00  0.00    -0.213 OA 
ENDROOT
BRANCH   2   8
ATOM      8  CB  PHE A   1     -11.659  15.772  69.238  1.00  0.00    -0.380 C  
BRANCH   8   9
ATOM      9  CG  PHE A   1     -12.331  15.755  70.590  1.00  0.00    -0.412 A  
ATOM     10  CD1 PHE A   1     -11.667  16.250  71.723  1.00  0.00    -0.504 A  
ATOM     11  CE1 PHE A   1     -12.276  16.198  72.977  1.00  0.00    -0.641 A  
ATOM     12  CZ  PHE A   1     -13.554  15.661  73.112  1.00  0.00    -0.560 A  
ATOM     13  CE2 PHE A   1     -14.226  15.175  71.994  1.00  0.00    -0.673 A  
ATOM     14  CD2 PHE A   1     -13.618  15.219  70.737  1.00  0.00    -0.313 A  
ENDBRANCH   8   9
ENDBRANCH   2   8
TORSDOF 2
ENDMDL
MODEL       37
REMARK 921   NORMALIZED FREE ENERGY PREDICTED BY IDOCK:   -4.32 KCAL/MOL
REMARK 922        TOTAL FREE ENERGY PREDICTED BY IDOCK:   -5.03 KCAL/MOL
REMARK 923 INTER-LIGAND FREE ENERGY PREDICTED BY IDOCK:   -4.86 KCAL/MOL
REMARK 924 INTRA-LIGAND FREE ENERGY PREDICTED BY IDOCK:   -0.17 KCAL/MOL
REMARK 927      BINDING AFFINITY PREDICTED BY RF-SCORE:    0.00 PKD
ROOT
ATOM      1  N   PHE A   1     -10.188  15.150  70.489  1.00  0.00    -0.460 NA 
ATOM      2  CA  PHE A   1     -11.576  15.009  69.935  1.00  0.00    -0.293 C  
ATOM      3  H1  PHE A   1      -9.931  16.112  70.709  1.00  0.00     0.000 HD 
ATOM      4  H2  PHE A   1      -9.504  14.730  69.859  1.00  0.00     0.000 HD 
ATOM      5  C   PHE A   1     -12.552  15.601  70.964  1.00  0.00    -0.459 C  
ATOM      6  OXT PHE A   1     -13.748  15.372  71.029  1.00  0.00    -0.473 OA 
ATOM      7  O   PHE A   1     -11.909  16.462  71.798  1.00  0.00    -0.472 OA 
ENDROOT
BRANCH   2   8
ATOM      8  CB  PHE A   1     -11.964  13.559  69.603  1.00  0.00    -0.397 C  
BRANCH   8   9
ATOM      9  CG  PHE A   1     -11.847  13.239  68.132  1.00  0.00    -0.388 A  
ATOM     10  CD1 PHE A   1     -11.366  11.990  67.710  1.00  0.00    -0.370 A  
ATOM     11  CE1 PHE A   1     -11.224  11.710  66.350  1.00  0.00    -0.349 A  
ATOM     12  CZ  PHE A   1     -11.566  12.669  65.400  1.00  0.00    -0.400 A  
ATOM     13  CE2 PHE A   1     -12.052  13.908  65.806  1.00  0.00    -0.449 A  
ATOM     14  CD2 PHE A   1     -12.191  14.195  67.166  1.00  0.00    -0.348 A  
ENDBRANCH   8   9
ENDBRANCH   2   8
TORSDOF 2
ENDMDL
MODEL       38
REMARK 921   NORMALIZED FREE ENERGY PREDICTED BY IDOCK:   -4.31 KCAL/MOL
REMARK 922        TOTAL FREE ENERGY PREDICTED BY IDOCK:   -5.01 KCAL/MOL
REMARK 923 INTER-LIGAND FREE ENERGY PREDICTED BY IDOCK:   -4.87 KCAL/MOL
REMARK 924 INTRA-LIGAND FREE ENERGY PREDICTED BY IDOCK:   -0.15 KCAL/MOL
REMARK 927      BINDING AFFINITY PREDICTED BY RF-SCORE:    0.00 PKD
ROOT
ATOM      1  N   PHE A   1     -10.191  14.656  69.556  1.00  0.00    -0.417 NA 
ATOM      2  CA  PHE A   1     -10.962  15.292  68.436  1.00  0.00    -0.271 C  
ATOM      3  H1  PHE A   1     -10.782  14.224  70.266  1.00  0.00     0.000 HD 
ATOM      4  H2  PHE A   1      -9.552  15.329  69.980  1.00  0.00     0.000 HD 
ATOM      5  C   PHE A   1     -11.850  14.207  67.805  1.00  0.00    -0.379 C  
ATOM      6  OXT PHE A   1     -12.348  14.249  66.693  1.00  0.00    -0.446 OA 
ATOM      7  O   PHE A   1     -12.046  13.179  68.675  1.00  0.00    -0.315 OA 
ENDROOT
BRANCH   2   8
ATOM      8  CB  PHE A   1     -10.073  15.944  67.366  1.00  0.00    -0.252 C  
BRANCH   8   9
ATOM      9  CG  PHE A   1     -10.093  17.453  67.420  1.00  0.00    -0.321 A  
ATOM     10  CD1 PHE A   1     -10.194  18.208  66.242  1.00  0.00    -0.401 A  
ATOM     11  CE1 PHE A   1     -10.175  19.602  66.292  1.00  0.00    -0.598 A  
ATOM     12  CZ  PHE A   1     -10.064  20.256  67.517  1.00  0.00    -0.519 A  
ATOM     13  CE2 PHE A   1      -9.972  19.517  68.693  1.00  0.00    -0.538 A  
ATOM     14  CD2 PHE A   1      -9.984  18.121  68.647  1.00  0.00    -0.409 A  
ENDBRANCH   8   9
ENDBRANCH   2   8
TORSDOF 2
ENDMDL
MODEL       39
REMARK 921   NORMALIZED FREE ENERGY PREDICTED BY IDOCK:   -4.30 KCAL/MOL
REMARK 922        TOTAL FREE ENERGY PREDICTED BY IDOCK:   -5.01 KCAL/MOL
REMARK 923 INTER-LIGAND FREE ENERGY PREDICTED BY IDOCK:   -4.94 KCAL/MOL
REMARK 924 INTRA-LIGAND FREE ENERGY PREDICTED BY IDOCK:   -0.07 KCAL/MOL
REMARK 927      BINDING AFFINITY PREDICTED BY RF-SCORE:    0.00 PKD
ROOT
ATOM      1  N   PHE A   1     -13.501  11.322  72.212  1.00  0.00    -0.521 NA 
ATOM      2  CA  PHE A   1     -13.155  10.338  71.133  1.00  0.00    -0.390 C  
ATOM      3  H1  PHE A   1     -14.447  11.213  72.577  1.00  0.00     0.000 HD 
ATOM      4  H2  PHE A   1     -13.347  12.278  71.890  1.00  0.00     0.000 HD 
ATOM      5  C   PHE A   1     -13.347   8.926  71.710  1.00  0.00    -0.386 C  
ATOM      6  OXT PHE A   1     -12.857   7.900  71.267  1.00  0.00    -0.297 OA 
ATOM      7  O   PHE A   1     -14.179   8.954  72.786  1.00  0.00    -0.557 OA 
ENDROOT
BRANCH   2   8
ATOM      8  CB  PHE A   1     -11.730  10.501  70.581  1.00  0.00    -0.453 C  
BRANCH   8   9
ATOM      9  CG  PHE A   1     -11.650  11.481  69.434  1.00  0.00    -0.388 A  
ATOM     10  CD1 PHE A   1     -11.807  12.857  69.659  1.00  0.00    -0.387 A  
ATOM     11  CE1 PHE A   1     -11.769  13.756  68.593  1.00  0.00    -0.391 A  
ATOM     12  CZ  PHE A   1     -11.567  13.293  67.295  1.00  0.00    -0.404 A  
ATOM     13  CE2 PHE A   1     -11.401  11.931  67.061  1.00  0.00    -0.392 A  
ATOM     14  CD2 PHE A   1     -11.444  11.026  68.125  1.00  0.00    -0.374 A  
ENDBRANCH   8   9
ENDBRANCH   2   8
TORSDOF 2
ENDMDL
MODEL       40
REMARK 921   NORMALIZED FREE ENERGY PREDICTED BY IDOCK:   -4.26 KCAL/MOL
REMARK 922        TOTAL FREE ENERGY PREDICTED BY IDOCK:   -4.95 KCAL/MOL
REMARK 923 INTER-LIGAND FREE ENERGY PREDICTED BY IDOCK:   -4.75 KCAL/MOL
REMARK 924 INTRA-LIGAND FREE ENERGY PREDICTED BY IDOCK:   -0.20 KCAL/MOL
REMARK 927      BINDING AFFINITY PREDICTED BY RF-SCORE:    0.00 PKD
ROOT
ATOM      1  N   PHE A   1     -12.334  14.621  68.417  1.00  0.00    -0.606 NA 
ATOM      2  CA  PHE A   1     -11.448  14.427  67.222  1.00  0.00    -0.359 C  
ATOM      3  H1  PHE A   1     -11.855  15.030  69.220  1.00  0.00     0.000 HD 
ATOM      4  H2  PHE A   1     -12.787  13.744  68.676  1.00  0.00     0.000 HD 
ATOM      5  C   PHE A   1     -10.857  15.797  66.851  1.00  0.00    -0.265 C  
ATOM      6  OXT PHE A   1     -10.378  16.100  65.771  1.00  0.00    -0.342 OA 
ATOM      7  O   PHE A   1     -10.903  16.644  67.915  1.00  0.00    -0.347 OA 
ENDROOT
BRANCH   2   8
ATOM      8  CB  PHE A   1     -12.169  13.811  66.012  1.00  0.00    -0.495 C  
BRANCH   8   9
ATOM      9  CG  PHE A   1     -11.378  12.707  65.352  1.00  0.00    -0.348 A  
ATOM     10  CD1 PHE A   1     -11.064  12.773  63.985  1.00  0.00    -0.458 A  
ATOM     11  CE1 PHE A   1     -10.365  11.735  63.370  1.00  0.00    -0.481 A  
ATOM     12  CZ  PHE A   1      -9.965  10.626  64.111  1.00  0.00    -0.406 A  
ATOM     13  CE2 PHE A   1     -10.262  10.553  65.469  1.00  0.00    -0.325 A  
ATOM     14  CD2 PHE A   1     -10.967  11.588  66.088  1.00  0.00    -0.320 A  
ENDBRANCH   8   9
ENDBRANCH   2   8
TORSDOF 2
ENDMDL
MODEL       41
REMARK 921   NORMALIZED FREE ENERGY PREDICTED BY IDOCK:   -4.25 KCAL/MOL
REMARK 922        TOTAL FREE ENERGY PREDICTED BY IDOCK:   -4.95 KCAL/MOL
REMARK 923 INTER-LIGAND FREE ENERGY PREDICTED BY IDOCK:   -4.78 KCAL/MOL
REMARK 924 INTRA-LIGAND FREE ENERGY PREDICTED BY IDOCK:   -0.17 KCAL/MOL
REMARK 927      BINDING AFFINITY PREDICTED BY RF-SCORE:    0.00 PKD
ROOT
ATOM      1  N   PHE A   1     -11.620  10.239  67.635  1.00  0.00    -0.543 NA 
ATOM      2  CA  PHE A   1     -12.019  11.333  68.581  1.00  0.00    -0.243 C  
ATOM      3  H1  PHE A   1     -12.179  10.212  66.781  1.00  0.00     0.000 HD 
ATOM      4  H2  PHE A   1     -11.636   9.333  68.104  1.00  0.00     0.000 HD 
ATOM      5  C   PHE A   1     -11.908  12.668  67.826  1.00  0.00    -0.323 C  
ATOM      6  OXT PHE A   1     -11.821  13.772  68.337  1.00  0.00    -0.341 OA 
ATOM      7  O   PHE A   1     -11.952  12.466  66.482  1.00  0.00    -0.564 OA 
ENDROOT
BRANCH   2   8
ATOM      8  CB  PHE A   1     -11.178  11.374  69.868  1.00  0.00    -0.221 C  
BRANCH   8   9
ATOM      9  CG  PHE A   1     -11.393  10.170  70.752  1.00  0.00    -0.436 A  
ATOM     10  CD1 PHE A   1     -12.662   9.892  71.284  1.00  0.00    -0.482 A  
ATOM     11  CE1 PHE A   1     -12.850   8.800  72.131  1.00  0.00    -0.456 A  
ATOM     12  CZ  PHE A   1     -11.778   7.970  72.449  1.00  0.00    -0.444 A  
ATOM     13  CE2 PHE A   1     -10.516   8.230  71.921  1.00  0.00    -0.342 A  
ATOM     14  CD2 PHE A   1     -10.323   9.326  71.077  1.00  0.00    -0.388 A  
ENDBRANCH   8   9
ENDBRANCH   2   8
TORSDOF 2
ENDMDL
MODEL       42
REMARK 921   NORMALIZED FREE ENERGY PREDICTED BY IDOCK:   -4.25 KCAL/MOL
REMARK 922        TOTAL FREE ENERGY PREDICTED BY IDOCK:   -4.95 KCAL/MOL
REMARK 923 INTER-LIGAND FREE ENERGY PREDICTED BY IDOCK:   -4.78 KCAL/MOL
REMARK 924 INTRA-LIGAND FREE ENERGY PREDICTED BY IDOCK:   -0.17 KCAL/MOL
REMARK 927      BINDING AFFINITY PREDICTED BY RF-SCORE:    0.00 PKD
ROOT
ATOM      1  N   PHE A   1     -10.147  11.666  65.886  1.00  0.00    -0.222 NA 
ATOM      2  CA  PHE A   1     -11.475  12.174  66.368  1.00  0.00    -0.370 C  
ATOM      3  H1  PHE A   1     -10.219  10.990  65.125  1.00  0.00     0.000 HD 
ATOM      4  H2  PHE A   1      -9.607  11.280  66.661  1.00  0.00     0.000 HD 
ATOM      5  C   PHE A   1     -12.200  12.798  65.165  1.00  0.00    -0.477 C  
ATOM      6  OXT PHE A   1     -13.124  13.593  65.221  1.00  0.00    -0.735 OA 
ATOM      7  O   PHE A   1     -11.697  12.318  63.996  1.00  0.00    -0.360 OA 
ENDROOT
BRANCH   2   8
ATOM      8  CB  PHE A   1     -11.367  13.192  67.515  1.00  0.00    -0.336 C  
BRANCH   8   9
ATOM      9  CG  PHE A   1     -11.863  12.650  68.834  1.00  0.00    -0.345 A  
ATOM     10  CD1 PHE A   1     -12.334  13.519  69.830  1.00  0.00    -0.287 A  
ATOM     11  CE1 PHE A   1     -12.757  13.018  71.062  1.00  0.00    -0.347 A  
ATOM     12  CZ  PHE A   1     -12.723  11.648  71.309  1.00  0.00    -0.444 A  
ATOM     13  CE2 PHE A   1     -12.266  10.776  70.325  1.00  0.00    -0.431 A  
ATOM     14  CD2 PHE A   1     -11.836  11.273  69.092  1.00  0.00    -0.423 A  
ENDBRANCH   8   9
ENDBRANCH   2   8
TORSDOF 2
ENDMDL
MODEL       43
REMARK 921   NORMALIZED FREE ENERGY PREDICTED BY IDOCK:   -4.23 KCAL/MOL
REMARK 922        TOTAL FREE ENERGY PREDICTED BY IDOCK:   -4.93 KCAL/MOL
REMARK 923 INTER-LIGAND FREE ENERGY PREDICTED BY IDOCK:   -4.74 KCAL/MOL
REMARK 924 INTRA-LIGAND FREE ENERGY PREDICTED BY IDOCK:   -0.19 KCAL/MOL
REMARK 927      BINDING AFFINITY PREDICTED BY RF-SCORE:    0.00 PKD
ROOT
ATOM      1  N   PHE A   1     -11.855  11.987  66.509  1.00  0.00    -0.605 NA 
ATOM      2  CA  PHE A   1     -11.872  12.315  67.973  1.00  0.00    -0.305 C  
ATOM      3  H1  PHE A   1     -12.589  12.455  65.976  1.00  0.00     0.000 HD 
ATOM      4  H2  PHE A   1     -11.893  10.978  66.365  1.00  0.00     0.000 HD 
ATOM      5  C   PHE A   1     -11.745  13.841  68.112  1.00  0.00    -0.357 C  
ATOM      6  OXT PHE A   1     -11.390  14.440  69.113  1.00  0.00    -0.249 OA 
ATOM      7  O   PHE A   1     -12.119  14.462  66.961  1.00  0.00    -0.418 OA 
ENDROOT
BRANCH   2   8
ATOM      8  CB  PHE A   1     -10.766  11.611  68.776  1.00  0.00    -0.254 C  
BRANCH   8   9
ATOM      9  CG  PHE A   1     -11.297  10.842  69.963  1.00  0.00    -0.386 A  
ATOM     10  CD1 PHE A   1     -10.627   9.702  70.431  1.00  0.00    -0.354 A  
ATOM     11  CE1 PHE A   1     -11.140   8.972  71.504  1.00  0.00    -0.419 A  
ATOM     12  CZ  PHE A   1     -12.319   9.377  72.125  1.00  0.00    -0.368 A  
ATOM     13  CE2 PHE A   1     -12.988  10.512  71.675  1.00  0.00    -0.581 A  
ATOM     14  CD2 PHE A   1     -12.481  11.242  70.597  1.00  0.00    -0.439 A  
ENDBRANCH   8   9
ENDBRANCH   2   8
TORSDOF 2
ENDMDL
MODEL       44
REMARK 921   NORMALIZED FREE ENERGY PREDICTED BY IDOCK:   -4.23 KCAL/MOL
REMARK 922        TOTAL FREE ENERGY PREDICTED BY IDOCK:   -4.93 KCAL/MOL
REMARK 923 INTER-LIGAND FREE ENERGY PREDICTED BY IDOCK:   -4.83 KCAL/MOL
REMARK 924 INTRA-LIGAND FREE ENERGY PREDICTED BY IDOCK:   -0.10 KCAL/MOL
REMARK 927      BINDING AFFINITY PREDICTED BY RF-SCORE:    0.00 PKD
ROOT
ATOM      1  N   PHE A   1     -13.528  11.325  72.208  1.00  0.00    -0.521 NA 
ATOM      2  CA  PHE A   1     -13.081  10.439  71.082  1.00  0.00    -0.383 C  
ATOM      3  H1  PHE A   1     -14.449  11.085  72.577  1.00  0.00     0.000 HD 
ATOM      4  H2  PHE A   1     -13.497  12.306  71.929  1.00  0.00     0.000 HD 
ATOM      5  C   PHE A   1     -13.090   8.990  71.596  1.00  0.00    -0.365 C  
ATOM      6  OXT PHE A   1     -12.486   8.053  71.102  1.00  0.00    -0.284 OA 
ATOM      7  O   PHE A   1     -13.904   8.869  72.680  1.00  0.00    -0.445 OA 
ENDROOT
BRANCH   2   8
ATOM      8  CB  PHE A   1     -11.695  10.801  70.525  1.00  0.00    -0.449 C  
BRANCH   8   9
ATOM      9  CG  PHE A   1     -11.753  11.822  69.414  1.00  0.00    -0.405 A  
ATOM     10  CD1 PHE A   1     -11.607  11.428  68.075  1.00  0.00    -0.357 A  
ATOM     11  CE1 PHE A   1     -11.623  12.378  67.054  1.00  0.00    -0.434 A  
ATOM     12  CZ  PHE A   1     -11.794  13.727  67.356  1.00  0.00    -0.431 A  
ATOM     13  CE2 PHE A   1     -11.949  14.128  68.680  1.00  0.00    -0.373 A  
ATOM     14  CD2 PHE A   1     -11.926  13.181  69.707  1.00  0.00    -0.382 A  
ENDBRANCH   8   9
ENDBRANCH   2   8
TORSDOF 2
ENDMDL
MODEL       45
REMARK 921   NORMALIZED FREE ENERGY PREDICTED BY IDOCK:   -4.21 KCAL/MOL
REMARK 922        TOTAL FREE ENERGY PREDICTED BY IDOCK:   -4.90 KCAL/MOL
REMARK 923 INTER-LIGAND FREE ENERGY PREDICTED BY IDOCK:   -4.70 KCAL/MOL
REMARK 924 INTRA-LIGAND FREE ENERGY PREDICTED BY IDOCK:   -0.20 KCAL/MOL
REMARK 927      BINDING AFFINITY PREDICTED BY RF-SCORE:    0.00 PKD
ROOT
ATOM      1  N   PHE A   1     -12.468  10.813  69.115  1.00  0.00    -0.717 NA 
ATOM      2  CA  PHE A   1     -11.416  11.275  68.148  1.00  0.00    -0.306 C  
ATOM      3  H1  PHE A   1     -12.368   9.837  69.392  1.00  0.00     0.000 HD 
ATOM      4  H2  PHE A   1     -13.401  10.989  68.742  1.00  0.00     0.000 HD 
ATOM      5  C   PHE A   1     -10.045  11.041  68.803  1.00  0.00    -0.203 C  
ATOM      6  OXT PHE A   1      -8.999  11.582  68.486  1.00  0.00    -0.165 OA 
ATOM      7  O   PHE A   1     -10.134  10.105  69.787  1.00  0.00    -0.230 OA 
ENDROOT
BRANCH   2   8
ATOM      8  CB  PHE A   1     -11.565  12.746  67.730  1.00  0.00    -0.405 C  
BRANCH   8   9
ATOM      9  CG  PHE A   1     -11.717  12.924  66.238  1.00  0.00    -0.457 A  
ATOM     10  CD1 PHE A   1     -12.346  14.064  65.716  1.00  0.00    -0.506 A  
ATOM     11  CE1 PHE A   1     -12.518  14.207  64.339  1.00  0.00    -0.325 A  
ATOM     12  CZ  PHE A   1     -12.058  13.221  63.470  1.00  0.00    -0.550 A  
ATOM     13  CE2 PHE A   1     -11.424  12.089  63.976  1.00  0.00    -0.484 A  
ATOM     14  CD2 PHE A   1     -11.255  11.938  65.355  1.00  0.00    -0.351 A  
ENDBRANCH   8   9
ENDBRANCH   2   8
TORSDOF 2
ENDMDL
MODEL       46
REMARK 921   NORMALIZED FREE ENERGY PREDICTED BY IDOCK:   -4.19 KCAL/MOL
REMARK 922        TOTAL FREE ENERGY PREDICTED BY IDOCK:   -4.88 KCAL/MOL
REMARK 923 INTER-LIGAND FREE ENERGY PREDICTED BY IDOCK:   -4.68 KCAL/MOL
REMARK 924 INTRA-LIGAND FREE ENERGY PREDICTED BY IDOCK:   -0.20 KCAL/MOL
REMARK 927      BINDING AFFINITY PREDICTED BY RF-SCORE:    0.00 PKD
ROOT
ATOM      1  N   PHE A   1     -10.491  18.819  65.727  1.00  0.00    -0.601 NA 
ATOM      2  CA  PHE A   1     -10.646  17.645  66.650  1.00  0.00    -0.211 C  
ATOM      3  H1  PHE A   1     -11.035  19.635  66.008  1.00  0.00     0.000 HD 
ATOM      4  H2  PHE A   1     -10.709  18.554  64.767  1.00  0.00     0.000 HD 
ATOM      5  C   PHE A   1     -10.237  18.102  68.059  1.00  0.00    -0.380 C  
ATOM      6  OXT PHE A   1      -9.912  17.372  68.981  1.00  0.00    -0.302 OA 
ATOM      7  O   PHE A   1     -10.315  19.456  68.169  1.00  0.00    -0.408 OA 
ENDROOT
BRANCH   2   8
ATOM      8  CB  PHE A   1      -9.826  16.415  66.227  1.00  0.00    -0.336 C  
BRANCH   8   9
ATOM      9  CG  PHE A   1     -10.678  15.191  65.990  1.00  0.00    -0.333 A  
ATOM     10  CD1 PHE A   1     -10.721  14.586  64.725  1.00  0.00    -0.414 A  
ATOM     11  CE1 PHE A   1     -11.538  13.478  64.499  1.00  0.00    -0.410 A  
ATOM     12  CZ  PHE A   1     -12.312  12.958  65.533  1.00  0.00    -0.517 A  
ATOM     13  CE2 PHE A   1     -12.270  13.544  66.795  1.00  0.00    -0.392 A  
ATOM     14  CD2 PHE A   1     -11.459  14.658  67.024  1.00  0.00    -0.379 A  
ENDBRANCH   8   9
ENDBRANCH   2   8
TORSDOF 2
ENDMDL
MODEL       47
REMARK 921   NORMALIZED FREE ENERGY PREDICTED BY IDOCK:   -4.18 KCAL/MOL
REMARK 922        TOTAL FREE ENERGY PREDICTED BY IDOCK:   -4.87 KCAL/MOL
REMARK 923 INTER-LIGAND FREE ENERGY PREDICTED BY IDOCK:   -4.68 KCAL/MOL
REMARK 924 INTRA-LIGAND FREE ENERGY PREDICTED BY IDOCK:   -0.19 KCAL/MOL
REMARK 927      BINDING AFFINITY PREDICTED BY RF-SCORE:    0.00 PKD
ROOT
ATOM      1  N   PHE A   1     -11.181  13.370  69.587  1.00  0.00    -0.464 NA 
ATOM      2  CA  PHE A   1     -10.954  13.914  68.207  1.00  0.00    -0.255 C  
ATOM      3  H1  PHE A   1     -10.386  13.498  70.214  1.00  0.00     0.000 HD 
ATOM      4  H2  PHE A   1     -11.452  12.387  69.547  1.00  0.00     0.000 HD 
ATOM      5  C   PHE A   1     -10.617  15.408  68.344  1.00  0.00    -0.247 C  
ATOM      6  OXT PHE A   1     -10.701  16.244  67.460  1.00  0.00    -0.316 OA 
ATOM      7  O   PHE A   1     -10.168  15.687  69.598  1.00  0.00    -0.256 OA 
ENDROOT
BRANCH   2   8
ATOM      8  CB  PHE A   1     -12.152  13.721  67.263  1.00  0.00    -0.393 C  
BRANCH   8   9
ATOM      9  CG  PHE A   1     -11.802  12.938  66.019  1.00  0.00    -0.485 A  
ATOM     10  CD1 PHE A   1     -10.743  12.018  66.030  1.00  0.00    -0.317 A  
ATOM     11  CE1 PHE A   1     -10.398  11.324  64.870  1.00  0.00    -0.362 A  
ATOM     12  CZ  PHE A   1     -11.111  11.534  63.692  1.00  0.00    -0.469 A  
ATOM     13  CE2 PHE A   1     -12.170  12.438  63.672  1.00  0.00    -0.653 A  
ATOM     14  CD2 PHE A   1     -12.514  13.140  64.829  1.00  0.00    -0.460 A  
ENDBRANCH   8   9
ENDBRANCH   2   8
TORSDOF 2
ENDMDL
MODEL       48
REMARK 921   NORMALIZED FREE ENERGY PREDICTED BY IDOCK:   -4.17 KCAL/MOL
REMARK 922        TOTAL FREE ENERGY PREDICTED BY IDOCK:   -4.86 KCAL/MOL
REMARK 923 INTER-LIGAND FREE ENERGY PREDICTED BY IDOCK:   -4.67 KCAL/MOL
REMARK 924 INTRA-LIGAND FREE ENERGY PREDICTED BY IDOCK:   -0.19 KCAL/MOL
REMARK 927      BINDING AFFINITY PREDICTED BY RF-SCORE:    0.00 PKD
ROOT
ATOM      1  N   PHE A   1      -9.915  13.269  68.099  1.00  0.00    -0.229 NA 
ATOM      2  CA  PHE A   1     -11.022  12.767  68.981  1.00  0.00    -0.193 C  
ATOM      3  H1  PHE A   1      -9.116  12.637  68.045  1.00  0.00     0.000 HD 
ATOM      4  H2  PHE A   1      -9.618  14.201  68.389  1.00  0.00     0.000 HD 
ATOM      5  C   PHE A   1     -11.460  11.395  68.444  1.00  0.00    -0.299 C  
ATOM      6  OXT PHE A   1     -12.524  10.844  68.676  1.00  0.00    -0.418 OA 
ATOM      7  O   PHE A   1     -10.478  10.838  67.685  1.00  0.00    -0.190 OA 
ENDROOT
BRANCH   2   8
ATOM      8  CB  PHE A   1     -12.226  13.720  69.063  1.00  0.00    -0.259 C  
BRANCH   8   9
ATOM      9  CG  PHE A   1     -12.487  14.221  70.463  1.00  0.00    -0.428 A  
ATOM     10  CD1 PHE A   1     -12.051  15.495  70.857  1.00  0.00    -0.433 A  
ATOM     11  CE1 PHE A   1     -12.260  15.942  72.162  1.00  0.00    -0.578 A  
ATOM     12  CZ  PHE A   1     -12.913  15.126  73.083  1.00  0.00    -0.627 A  
ATOM     13  CE2 PHE A   1     -13.359  13.864  72.701  1.00  0.00    -0.640 A  
ATOM     14  CD2 PHE A   1     -13.145  13.410  71.397  1.00  0.00    -0.373 A  
ENDBRANCH   8   9
ENDBRANCH   2   8
TORSDOF 2
ENDMDL
MODEL       49
REMARK 921   NORMALIZED FREE ENERGY PREDICTED BY IDOCK:   -4.16 KCAL/MOL
REMARK 922        TOTAL FREE ENERGY PREDICTED BY IDOCK:   -4.85 KCAL/MOL
REMARK 923 INTER-LIGAND FREE ENERGY PREDICTED BY IDOCK:   -4.73 KCAL/MOL
REMARK 924 INTRA-LIGAND FREE ENERGY PREDICTED BY IDOCK:   -0.12 KCAL/MOL
REMARK 927      BINDING AFFINITY PREDICTED BY RF-SCORE:    0.00 PKD
ROOT
ATOM      1  N   PHE A   1     -11.878  16.524  71.643  1.00  0.00    -0.641 NA 
ATOM      2  CA  PHE A   1     -12.751  15.461  71.041  1.00  0.00    -0.448 C  
ATOM      3  H1  PHE A   1     -12.396  17.333  71.986  1.00  0.00     0.000 HD 
ATOM      4  H2  PHE A   1     -11.155  16.812  70.984  1.00  0.00     0.000 HD 
ATOM      5  C   PHE A   1     -13.769  15.032  72.110  1.00  0.00    -0.453 C  
ATOM      6  OXT PHE A   1     -14.403  13.990  72.116  1.00  0.00    -0.525 OA 
ATOM      7  O   PHE A   1     -13.907  15.997  73.060  1.00  0.00    -0.592 OA 
ENDROOT
BRANCH   2   8
ATOM      8  CB  PHE A   1     -11.972  14.242  70.524  1.00  0.00    -0.402 C  
BRANCH   8   9
ATOM      9  CG  PHE A   1     -11.341  14.474  69.172  1.00  0.00    -0.305 A  
ATOM     10  CD1 PHE A   1     -12.062  14.220  67.995  1.00  0.00    -0.289 A  
ATOM     11  CE1 PHE A   1     -11.464  14.400  66.748  1.00  0.00    -0.381 A  
ATOM     12  CZ  PHE A   1     -10.146  14.843  66.661  1.00  0.00    -0.264 A  
ATOM     13  CE2 PHE A   1      -9.424  15.107  67.822  1.00  0.00    -0.194 A  
ATOM     14  CD2 PHE A   1     -10.016  14.922  69.073  1.00  0.00    -0.235 A  
ENDBRANCH   8   9
ENDBRANCH   2   8
TORSDOF 2
ENDMDL
MODEL       50
REMARK 921   NORMALIZED FREE ENERGY PREDICTED BY IDOCK:   -4.13 KCAL/MOL
REMARK 922        TOTAL FREE ENERGY PREDICTED BY IDOCK:   -4.82 KCAL/MOL
REMARK 923 INTER-LIGAND FREE ENERGY PREDICTED BY IDOCK:   -4.76 KCAL/MOL
REMARK 924 INTRA-LIGAND FREE ENERGY PREDICTED BY IDOCK:   -0.06 KCAL/MOL
REMARK 927      BINDING AFFINITY PREDICTED BY RF-SCORE:    0.00 PKD
ROOT
ATOM      1  N   PHE A   1     -12.059  12.220  66.911  1.00  0.00    -0.553 NA 
ATOM      2  CA  PHE A   1     -11.660  13.584  67.392  1.00  0.00    -0.356 C  
ATOM      3  H1  PHE A   1     -12.555  12.229  66.019  1.00  0.00     0.000 HD 
ATOM      4  H2  PHE A   1     -12.604  11.731  67.622  1.00  0.00     0.000 HD 
ATOM      5  C   PHE A   1     -10.790  14.229  66.301  1.00  0.00    -0.310 C  
ATOM      6  OXT PHE A   1     -10.021  15.163  66.459  1.00  0.00    -0.247 OA 
ATOM      7  O   PHE A   1     -11.011  13.637  65.096  1.00  0.00    -0.305 OA 
ENDROOT
BRANCH   2   8
ATOM      8  CB  PHE A   1     -10.911  13.570  68.735  1.00  0.00    -0.291 C  
BRANCH   8   9
ATOM      9  CG  PHE A   1     -11.811  13.265  69.909  1.00  0.00    -0.380 A  
ATOM     10  CD1 PHE A   1     -12.413  14.304  70.635  1.00  0.00    -0.428 A  
ATOM     11  CE1 PHE A   1     -13.213  14.021  71.742  1.00  0.00    -0.454 A  
ATOM     12  CZ  PHE A   1     -13.427  12.701  72.131  1.00  0.00    -0.561 A  
ATOM     13  CE2 PHE A   1     -12.843  11.661  71.413  1.00  0.00    -0.461 A  
ATOM     14  CD2 PHE A   1     -12.035  11.940  70.307  1.00  0.00    -0.416 A  
ENDBRANCH   8   9
ENDBRANCH   2   8
TORSDOF 2
ENDMDL
MODEL       51
REMARK 921   NORMALIZED FREE ENERGY PREDICTED BY IDOCK:   -4.13 KCAL/MOL
REMARK 922        TOTAL FREE ENERGY PREDICTED BY IDOCK:   -4.81 KCAL/MOL
REMARK 923 INTER-LIGAND FREE ENERGY PREDICTED BY IDOCK:   -4.61 KCAL/MOL
REMARK 924 INTRA-LIGAND FREE ENERGY PREDICTED BY IDOCK:   -0.20 KCAL/MOL
REMARK 927      BINDING AFFINITY PREDICTED BY RF-SCORE:    0.00 PKD
ROOT
ATOM      1  N   PHE A   1     -10.636  17.247  65.376  1.00  0.00    -0.631 NA 
ATOM      2  CA  PHE A   1     -10.208  16.444  66.569  1.00  0.00    -0.304 C  
ATOM      3  H1  PHE A   1     -10.196  18.167  65.323  1.00  0.00     0.000 HD 
ATOM      4  H2  PHE A   1     -11.652  17.332  65.344  1.00  0.00     0.000 HD 
ATOM      5  C   PHE A   1      -8.678  16.303  66.514  1.00  0.00    -0.292 C  
ATOM      6  OXT PHE A   1      -8.016  15.462  67.098  1.00  0.00    -0.183 OA 
ATOM      7  O   PHE A   1      -8.133  17.279  65.738  1.00  0.00    -0.527 OA 
ENDROOT
BRANCH   2   8
ATOM      8  CB  PHE A   1     -10.870  15.059  66.651  1.00  0.00    -0.318 C  
BRANCH   8   9
ATOM      9  CG  PHE A   1     -11.401  14.738  68.027  1.00  0.00    -0.332 A  
ATOM     10  CD1 PHE A   1     -11.709  15.768  68.930  1.00  0.00    -0.404 A  
ATOM     11  CE1 PHE A   1     -12.165  15.468  70.214  1.00  0.00    -0.432 A  
ATOM     12  CZ  PHE A   1     -12.326  14.142  70.607  1.00  0.00    -0.435 A  
ATOM     13  CE2 PHE A   1     -12.032  13.112  69.717  1.00  0.00    -0.382 A  
ATOM     14  CD2 PHE A   1     -11.570  13.408  68.432  1.00  0.00    -0.368 A  
ENDBRANCH   8   9
ENDBRANCH   2   8
TORSDOF 2
ENDMDL
MODEL       52
REMARK 921   NORMALIZED FREE ENERGY PREDICTED BY IDOCK:   -4.11 KCAL/MOL
REMARK 922        TOTAL FREE ENERGY PREDICTED BY IDOCK:   -4.79 KCAL/MOL
REMARK 923 INTER-LIGAND FREE ENERGY PREDICTED BY IDOCK:   -4.58 KCAL/MOL
REMARK 924 INTRA-LIGAND FREE ENERGY PREDICTED BY IDOCK:   -0.21 KCAL/MOL
REMARK 927      BINDING AFFINITY PREDICTED BY RF-SCORE:    0.00 PKD
ROOT
ATOM      1  N   PHE A   1     -14.312   9.025  72.802  1.00  0.00    -1.030 NA 
ATOM      2  CA  PHE A   1     -12.855   8.921  72.455  1.00  0.00    -0.380 C  
ATOM      3  H1  PHE A   1     -14.548   9.864  73.331  1.00  0.00     0.000 HD 
ATOM      4  H2  PHE A   1     -14.625   8.188  73.295  1.00  0.00     0.000 HD 
ATOM      5  C   PHE A   1     -12.474  10.180  71.659  1.00  0.00    -0.409 C  
ATOM      6  OXT PHE A   1     -11.501  10.299  70.933  1.00  0.00    -0.338 OA 
ATOM      7  O   PHE A   1     -13.360  11.185  71.895  1.00  0.00    -0.417 OA 
ENDROOT
BRANCH   2   8
ATOM      8  CB  PHE A   1     -12.499   7.656  71.657  1.00  0.00    -0.362 C  
BRANCH   8   9
ATOM      9  CG  PHE A   1     -11.382   6.857  72.286  1.00  0.00    -0.306 A  
ATOM     10  CD1 PHE A   1     -10.995   5.622  71.743  1.00  0.00    -0.290 A  
ATOM     11  CE1 PHE A   1      -9.989   4.869  72.348  1.00  0.00    -0.228 A  
ATOM     12  CZ  PHE A   1      -9.353   5.342  73.493  1.00  0.00    -0.134 A  
ATOM     13  CE2 PHE A   1      -9.722   6.570  74.036  1.00  0.00    -0.269 A  
ATOM     14  CD2 PHE A   1     -10.734   7.325  73.437  1.00  0.00    -0.415 A  
ENDBRANCH   8   9
ENDBRANCH   2   8
TORSDOF 2
ENDMDL
MODEL       53
REMARK 921   NORMALIZED FREE ENERGY PREDICTED BY IDOCK:   -4.08 KCAL/MOL
REMARK 922        TOTAL FREE ENERGY PREDICTED BY IDOCK:   -4.76 KCAL/MOL
REMARK 923 INTER-LIGAND FREE ENERGY PREDICTED BY IDOCK:   -4.64 KCAL/MOL
REMARK 924 INTRA-LIGAND FREE ENERGY PREDICTED BY IDOCK:   -0.12 KCAL/MOL
REMARK 927      BINDING AFFINITY PREDICTED BY RF-SCORE:    0.00 PKD
ROOT
ATOM      1  N   PHE A   1     -12.294  10.612  68.771  1.00  0.00    -0.784 NA 
ATOM      2  CA  PHE A   1     -11.108  10.146  67.978  1.00  0.00    -0.240 C  
ATOM      3  H1  PHE A   1     -12.825   9.852  69.196  1.00  0.00     0.000 HD 
ATOM      4  H2  PHE A   1     -12.901  11.200  68.199  1.00  0.00     0.000 HD 
ATOM      5  C   PHE A   1     -10.210   9.326  68.918  1.00  0.00    -0.202 C  
ATOM      6  OXT PHE A   1      -9.029   9.076  68.741  1.00  0.00    -0.135 OA 
ATOM      7  O   PHE A   1     -10.920   8.870  69.986  1.00  0.00    -0.236 OA 
ENDROOT
BRANCH   2   8
ATOM      8  CB  PHE A   1     -10.306  11.290  67.336  1.00  0.00    -0.233 C  
BRANCH   8   9
ATOM      9  CG  PHE A   1     -10.882  11.747  66.017  1.00  0.00    -0.343 A  
ATOM     10  CD1 PHE A   1     -10.466  11.157  64.814  1.00  0.00    -0.388 A  
ATOM     11  CE1 PHE A   1     -10.973  11.607  63.594  1.00  0.00    -0.507 A  
ATOM     12  CZ  PHE A   1     -11.903  12.642  63.563  1.00  0.00    -0.619 A  
ATOM     13  CE2 PHE A   1     -12.331  13.229  64.751  1.00  0.00    -0.454 A  
ATOM     14  CD2 PHE A   1     -11.822  12.786  65.974  1.00  0.00    -0.495 A  
ENDBRANCH   8   9
ENDBRANCH   2   8
TORSDOF 2
ENDMDL
MODEL       54
REMARK 921   NORMALIZED FREE ENERGY PREDICTED BY IDOCK:   -4.08 KCAL/MOL
REMARK 922        TOTAL FREE ENERGY PREDICTED BY IDOCK:   -4.76 KCAL/MOL
REMARK 923 INTER-LIGAND FREE ENERGY PREDICTED BY IDOCK:   -4.70 KCAL/MOL
REMARK 924 INTRA-LIGAND FREE ENERGY PREDICTED BY IDOCK:   -0.06 KCAL/MOL
REMARK 927      BINDING AFFINITY PREDICTED BY RF-SCORE:    0.00 PKD
ROOT
ATOM      1  N   PHE A   1     -12.085  11.211  68.093  1.00  0.00    -0.737 NA 
ATOM      2  CA  PHE A   1     -11.405  12.285  67.295  1.00  0.00    -0.328 C  
ATOM      3  H1  PHE A   1     -11.835  11.215  69.082  1.00  0.00     0.000 HD 
ATOM      4  H2  PHE A   1     -11.913  10.293  67.682  1.00  0.00     0.000 HD 
ATOM      5  C   PHE A   1     -11.763  13.637  67.932  1.00  0.00    -0.360 C  
ATOM      6  OXT PHE A   1     -11.684  14.726  67.388  1.00  0.00    -0.373 OA 
ATOM      7  O   PHE A   1     -12.157  13.472  69.223  1.00  0.00    -0.322 OA 
ENDROOT
BRANCH   2   8
ATOM      8  CB  PHE A   1     -11.782  12.279  65.804  1.00  0.00    -0.445 C  
BRANCH   8   9
ATOM      9  CG  PHE A   1     -10.796  11.520  64.949  1.00  0.00    -0.345 A  
ATOM     10  CD1 PHE A   1     -10.086  10.430  65.476  1.00  0.00    -0.352 A  
ATOM     11  CE1 PHE A   1      -9.148   9.754  64.695  1.00  0.00    -0.294 A  
ATOM     12  CZ  PHE A   1      -8.916  10.151  63.381  1.00  0.00    -0.263 A  
ATOM     13  CE2 PHE A   1      -9.621  11.225  62.844  1.00  0.00    -0.377 A  
ATOM     14  CD2 PHE A   1     -10.556  11.909  63.625  1.00  0.00    -0.500 A  
ENDBRANCH   8   9
ENDBRANCH   2   8
TORSDOF 2
ENDMDL
MODEL       55
REMARK 921   NORMALIZED FREE ENERGY PREDICTED BY IDOCK:   -4.07 KCAL/MOL
REMARK 922        TOTAL FREE ENERGY PREDICTED BY IDOCK:   -4.75 KCAL/MOL
REMARK 923 INTER-LIGAND FREE ENERGY PREDICTED BY IDOCK:   -4.55 KCAL/MOL
REMARK 924 INTRA-LIGAND FREE ENERGY PREDICTED BY IDOCK:   -0.19 KCAL/MOL
REMARK 927      BINDING AFFINITY PREDICTED BY RF-SCORE:    0.00 PKD
ROOT
ATOM      1  N   PHE A   1      -9.110  10.486  69.609  1.00  0.00    -0.405 NA 
ATOM      2  CA  PHE A   1     -10.570  10.190  69.436  1.00  0.00    -0.237 C  
ATOM      3  H1  PHE A   1      -8.550  10.287  68.780  1.00  0.00     0.000 HD 
ATOM      4  H2  PHE A   1      -8.736   9.995  70.422  1.00  0.00     0.000 HD 
ATOM      5  C   PHE A   1     -11.076  11.013  68.240  1.00  0.00    -0.257 C  
ATOM      6  OXT PHE A   1     -12.239  11.295  68.007  1.00  0.00    -0.621 OA 
ATOM      7  O   PHE A   1     -10.042  11.372  67.431  1.00  0.00    -0.181 OA 
ENDROOT
BRANCH   2   8
ATOM      8  CB  PHE A   1     -11.414  10.489  70.686  1.00  0.00    -0.418 C  
BRANCH   8   9
ATOM      9  CG  PHE A   1     -12.278   9.325  71.107  1.00  0.00    -0.373 A  
ATOM     10  CD1 PHE A   1     -11.823   8.006  70.955  1.00  0.00    -0.280 A  
ATOM     11  CE1 PHE A   1     -12.638   6.932  71.311  1.00  0.00    -0.394 A  
ATOM     12  CZ  PHE A   1     -13.911   7.161  71.828  1.00  0.00    -0.406 A  
ATOM     13  CE2 PHE A   1     -14.370   8.465  71.992  1.00  0.00    -0.555 A  
ATOM     14  CD2 PHE A   1     -13.560   9.544  71.631  1.00  0.00    -0.426 A  
ENDBRANCH   8   9
ENDBRANCH   2   8
TORSDOF 2
ENDMDL
MODEL       56
REMARK 921   NORMALIZED FREE ENERGY PREDICTED BY IDOCK:   -4.06 KCAL/MOL
REMARK 922        TOTAL FREE ENERGY PREDICTED BY IDOCK:   -4.74 KCAL/MOL
REMARK 923 INTER-LIGAND FREE ENERGY PREDICTED BY IDOCK:   -4.60 KCAL/MOL
REMARK 924 INTRA-LIGAND FREE ENERGY PREDICTED BY IDOCK:   -0.14 KCAL/MOL
REMARK 927      BINDING AFFINITY PREDICTED BY RF-SCORE:    0.00 PKD
ROOT
ATOM      1  N   PHE A   1     -10.300  15.563  66.887  1.00  0.00    -0.284 NA 
ATOM      2  CA  PHE A   1     -11.521  14.968  67.526  1.00  0.00    -0.328 C  
ATOM      3  H1  PHE A   1     -10.281  16.583  66.913  1.00  0.00     0.000 HD 
ATOM      4  H2  PHE A   1     -10.194  15.225  65.930  1.00  0.00     0.000 HD 
ATOM      5  C   PHE A   1     -11.577  15.468  68.979  1.00  0.00    -0.365 C  
ATOM      6  OXT PHE A   1     -12.208  14.953  69.888  1.00  0.00    -0.310 OA 
ATOM      7  O   PHE A   1     -10.845  16.605  69.126  1.00  0.00    -0.320 OA 
ENDROOT
BRANCH   2   8
ATOM      8  CB  PHE A   1     -11.551  13.432  67.488  1.00  0.00    -0.382 C  
BRANCH   8   9
ATOM      9  CG  PHE A   1     -11.555  12.876  66.084  1.00  0.00    -0.423 A  
ATOM     10  CD1 PHE A   1     -12.465  13.356  65.129  1.00  0.00    -0.509 A  
ATOM     11  CE1 PHE A   1     -12.492  12.816  63.844  1.00  0.00    -0.454 A  
ATOM     12  CZ  PHE A   1     -11.607  11.798  63.495  1.00  0.00    -0.487 A  
ATOM     13  CE2 PHE A   1     -10.693  11.320  64.430  1.00  0.00    -0.407 A  
ATOM     14  CD2 PHE A   1     -10.667  11.855  65.721  1.00  0.00    -0.327 A  
ENDBRANCH   8   9
ENDBRANCH   2   8
TORSDOF 2
ENDMDL
MODEL       57
REMARK 921   NORMALIZED FREE ENERGY PREDICTED BY IDOCK:   -4.06 KCAL/MOL
REMARK 922        TOTAL FREE ENERGY PREDICTED BY IDOCK:   -4.73 KCAL/MOL
REMARK 923 INTER-LIGAND FREE ENERGY PREDICTED BY IDOCK:   -4.95 KCAL/MOL
REMARK 924 INTRA-LIGAND FREE ENERGY PREDICTED BY IDOCK:    0.22 KCAL/MOL
REMARK 927      BINDING AFFINITY PREDICTED BY RF-SCORE:    0.00 PKD
ROOT
ATOM      1  N   PHE A   1     -11.367  16.347  64.142  1.00  0.00    -1.422 NA 
ATOM      2  CA  PHE A   1     -11.034  15.046  64.813  1.00  0.00    -0.373 C  
ATOM      3  H1  PHE A   1     -11.437  16.277  63.126  1.00  0.00     0.000 HD 
ATOM      4  H2  PHE A   1     -10.700  17.071  64.408  1.00  0.00     0.000 HD 
ATOM      5  C   PHE A   1     -12.115  14.027  64.419  1.00  0.00    -0.458 C  
ATOM      6  OXT PHE A   1     -12.374  12.993  65.013  1.00  0.00    -0.422 OA 
ATOM      7  O   PHE A   1     -12.745  14.410  63.275  1.00  0.00    -0.587 OA 
ENDROOT
BRANCH   2   8
ATOM      8  CB  PHE A   1     -10.930  15.150  66.343  1.00  0.00    -0.329 C  
BRANCH   8   9
ATOM      9  CG  PHE A   1     -10.379  13.899  66.984  1.00  0.00    -0.267 A  
ATOM     10  CD1 PHE A   1      -9.192  13.319  66.511  1.00  0.00    -0.182 A  
ATOM     11  CE1 PHE A   1      -8.705  12.142  67.080  1.00  0.00    -0.190 A  
ATOM     12  CZ  PHE A   1      -9.391  11.537  68.130  1.00  0.00    -0.185 A  
ATOM     13  CE2 PHE A   1     -10.565  12.108  68.613  1.00  0.00    -0.248 A  
ATOM     14  CD2 PHE A   1     -11.060  13.283  68.042  1.00  0.00    -0.282 A  
ENDBRANCH   8   9
ENDBRANCH   2   8
TORSDOF 2
ENDMDL
MODEL       58
REMARK 921   NORMALIZED FREE ENERGY PREDICTED BY IDOCK:   -4.04 KCAL/MOL
REMARK 922        TOTAL FREE ENERGY PREDICTED BY IDOCK:   -4.72 KCAL/MOL
REMARK 923 INTER-LIGAND FREE ENERGY PREDICTED BY IDOCK:   -4.52 KCAL/MOL
REMARK 924 INTRA-LIGAND FREE ENERGY PREDICTED BY IDOCK:   -0.20 KCAL/MOL
REMARK 927      BINDING AFFINITY PREDICTED BY RF-SCORE:    0.00 PKD
ROOT
ATOM      1  N   PHE A   1     -11.509  12.174  70.206  1.00  0.00    -0.492 NA 
ATOM      2  CA  PHE A   1     -11.907  10.737  70.377  1.00  0.00    -0.358 C  
ATOM      3  H1  PHE A   1     -12.301  12.808  70.092  1.00  0.00     0.000 HD 
ATOM      4  H2  PHE A   1     -10.852  12.276  69.431  1.00  0.00     0.000 HD 
ATOM      5  C   PHE A   1     -12.839  10.654  71.597  1.00  0.00    -0.465 C  
ATOM      6  OXT PHE A   1     -13.089   9.646  72.238  1.00  0.00    -0.414 OA 
ATOM      7  O   PHE A   1     -13.395  11.867  71.863  1.00  0.00    -0.454 OA 
ENDROOT
BRANCH   2   8
ATOM      8  CB  PHE A   1     -10.715   9.783  70.549  1.00  0.00    -0.381 C  
BRANCH   8   9
ATOM      9  CG  PHE A   1     -10.764   8.602  69.609  1.00  0.00    -0.204 A  
ATOM     10  CD1 PHE A   1     -11.081   7.321  70.088  1.00  0.00    -0.281 A  
ATOM     11  CE1 PHE A   1     -11.089   6.226  69.224  1.00  0.00    -0.461 A  
ATOM     12  CZ  PHE A   1     -10.791   6.397  67.875  1.00  0.00    -0.404 A  
ATOM     13  CE2 PHE A   1     -10.484   7.664  67.386  1.00  0.00    -0.367 A  
ATOM     14  CD2 PHE A   1     -10.468   8.763  68.249  1.00  0.00    -0.236 A  
ENDBRANCH   8   9
ENDBRANCH   2   8
TORSDOF 2
ENDMDL
MODEL       59
REMARK 921   NORMALIZED FREE ENERGY PREDICTED BY IDOCK:   -4.04 KCAL/MOL
REMARK 922        TOTAL FREE ENERGY PREDICTED BY IDOCK:   -4.72 KCAL/MOL
REMARK 923 INTER-LIGAND FREE ENERGY PREDICTED BY IDOCK:   -4.56 KCAL/MOL
REMARK 924 INTRA-LIGAND FREE ENERGY PREDICTED BY IDOCK:   -0.16 KCAL/MOL
REMARK 927      BINDING AFFINITY PREDICTED BY RF-SCORE:    0.00 PKD
ROOT
ATOM      1  N   PHE A   1     -10.117  12.543  68.805  1.00  0.00    -0.412 NA 
ATOM      2  CA  PHE A   1     -10.934  13.272  67.778  1.00  0.00    -0.258 C  
ATOM      3  H1  PHE A   1     -10.674  11.982  69.449  1.00  0.00     0.000 HD 
ATOM      4  H2  PHE A   1      -9.519  13.193  69.317  1.00  0.00     0.000 HD 
ATOM      5  C   PHE A   1     -11.754  12.225  67.006  1.00  0.00    -0.329 C  
ATOM      6  OXT PHE A   1     -12.261  12.384  65.908  1.00  0.00    -0.629 OA 
ATOM      7  O   PHE A   1     -11.877  11.080  67.729  1.00  0.00    -0.605 OA 
ENDROOT
BRANCH   2   8
ATOM      8  CB  PHE A   1     -10.095  14.117  66.807  1.00  0.00    -0.262 C  
BRANCH   8   9
ATOM      9  CG  PHE A   1     -10.251  15.602  67.031  1.00  0.00    -0.274 A  
ATOM     10  CD1 PHE A   1     -10.224  16.494  65.947  1.00  0.00    -0.368 A  
ATOM     11  CE1 PHE A   1     -10.331  17.868  66.160  1.00  0.00    -0.352 A  
ATOM     12  CZ  PHE A   1     -10.475  18.366  67.453  1.00  0.00    -0.443 A  
ATOM     13  CE2 PHE A   1     -10.512  17.491  68.535  1.00  0.00    -0.361 A  
ATOM     14  CD2 PHE A   1     -10.398  16.115  68.327  1.00  0.00    -0.266 A  
ENDBRANCH   8   9
ENDBRANCH   2   8
TORSDOF 2
ENDMDL
MODEL       60
REMARK 921   NORMALIZED FREE ENERGY PREDICTED BY IDOCK:   -4.03 KCAL/MOL
REMARK 922        TOTAL FREE ENERGY PREDICTED BY IDOCK:   -4.70 KCAL/MOL
REMARK 923 INTER-LIGAND FREE ENERGY PREDICTED BY IDOCK:   -4.54 KCAL/MOL
REMARK 924 INTRA-LIGAND FREE ENERGY PREDICTED BY IDOCK:   -0.16 KCAL/MOL
REMARK 927      BINDING AFFINITY PREDICTED BY RF-SCORE:    0.00 PKD
ROOT
ATOM      1  N   PHE A   1     -12.031  10.881  68.178  1.00  0.00    -0.796 NA 
ATOM      2  CA  PHE A   1     -11.642  11.998  69.102  1.00  0.00    -0.312 C  
ATOM      3  H1  PHE A   1     -11.695   9.966  68.478  1.00  0.00     0.000 HD 
ATOM      4  H2  PHE A   1     -11.728  11.081  67.224  1.00  0.00     0.000 HD 
ATOM      5  C   PHE A   1     -12.187  11.659  70.499  1.00  0.00    -0.361 C  
ATOM      6  OXT PHE A   1     -12.366  12.453  71.408  1.00  0.00    -0.181 OA 
ATOM      7  O   PHE A   1     -12.422  10.324  70.614  1.00  0.00    -0.307 OA 
ENDROOT
BRANCH   2   8
ATOM      8  CB  PHE A   1     -12.148  13.378  68.651  1.00  0.00    -0.281 C  
BRANCH   8   9
ATOM      9  CG  PHE A   1     -11.634  13.778  67.288  1.00  0.00    -0.391 A  
ATOM     10  CD1 PHE A   1     -12.507  13.859  66.193  1.00  0.00    -0.478 A  
ATOM     11  CE1 PHE A   1     -12.023  14.193  64.927  1.00  0.00    -0.424 A  
ATOM     12  CZ  PHE A   1     -10.668  14.456  64.744  1.00  0.00    -0.423 A  
ATOM     13  CE2 PHE A   1      -9.794  14.386  65.825  1.00  0.00    -0.330 A  
ATOM     14  CD2 PHE A   1     -10.273  14.047  67.093  1.00  0.00    -0.258 A  
ENDBRANCH   8   9
ENDBRANCH   2   8
TORSDOF 2
ENDMDL
MODEL       61
REMARK 921   NORMALIZED FREE ENERGY PREDICTED BY IDOCK:   -4.00 KCAL/MOL
REMARK 922        TOTAL FREE ENERGY PREDICTED BY IDOCK:   -4.67 KCAL/MOL
REMARK 923 INTER-LIGAND FREE ENERGY PREDICTED BY IDOCK:   -4.58 KCAL/MOL
REMARK 924 INTRA-LIGAND FREE ENERGY PREDICTED BY IDOCK:   -0.10 KCAL/MOL
REMARK 927      BINDING AFFINITY PREDICTED BY RF-SCORE:    0.00 PKD
ROOT
ATOM      1  N   PHE A   1     -12.159  12.907  70.936  1.00  0.00    -0.457 NA 
ATOM      2  CA  PHE A   1     -12.305  14.345  71.341  1.00  0.00    -0.360 C  
ATOM      3  H1  PHE A   1     -12.108  12.263  71.726  1.00  0.00     0.000 HD 
ATOM      4  H2  PHE A   1     -11.355  12.786  70.320  1.00  0.00     0.000 HD 
ATOM      5  C   PHE A   1     -13.569  14.461  72.208  1.00  0.00    -0.454 C  
ATOM      6  OXT PHE A   1     -14.189  15.486  72.435  1.00  0.00    -0.553 OA 
ATOM      7  O   PHE A   1     -13.903  13.252  72.735  1.00  0.00    -0.690 OA 
ENDROOT
BRANCH   2   8
ATOM      8  CB  PHE A   1     -12.382  15.317  70.152  1.00  0.00    -0.392 C  
BRANCH   8   9
ATOM      9  CG  PHE A   1     -11.384  14.998  69.064  1.00  0.00    -0.306 A  
ATOM     10  CD1 PHE A   1     -10.026  15.310  69.228  1.00  0.00    -0.251 A  
ATOM     11  CE1 PHE A   1      -9.113  15.048  68.206  1.00  0.00    -0.182 A  
ATOM     12  CZ  PHE A   1      -9.543  14.467  67.016  1.00  0.00    -0.251 A  
ATOM     13  CE2 PHE A   1     -10.886  14.145  66.845  1.00  0.00    -0.296 A  
ATOM     14  CD2 PHE A   1     -11.805  14.410  67.863  1.00  0.00    -0.384 A  
ENDBRANCH   8   9
ENDBRANCH   2   8
TORSDOF 2
ENDMDL
MODEL       62
REMARK 921   NORMALIZED FREE ENERGY PREDICTED BY IDOCK:   -4.00 KCAL/MOL
REMARK 922        TOTAL FREE ENERGY PREDICTED BY IDOCK:   -4.67 KCAL/MOL
REMARK 923 INTER-LIGAND FREE ENERGY PREDICTED BY IDOCK:   -4.49 KCAL/MOL
REMARK 924 INTRA-LIGAND FREE ENERGY PREDICTED BY IDOCK:   -0.17 KCAL/MOL
REMARK 927      BINDING AFFINITY PREDICTED BY RF-SCORE:    0.00 PKD
ROOT
ATOM      1  N   PHE A   1     -10.579   7.005  74.195  1.00  0.00    -0.535 NA 
ATOM      2  CA  PHE A   1     -11.079   7.448  72.851  1.00  0.00    -0.349 C  
ATOM      3  H1  PHE A   1     -11.251   6.444  74.718  1.00  0.00     0.000 HD 
ATOM      4  H2  PHE A   1     -10.272   7.807  74.747  1.00  0.00     0.000 HD 
ATOM      5  C   PHE A   1     -11.458   6.187  72.056  1.00  0.00    -0.313 C  
ATOM      6  OXT PHE A   1     -11.577   6.116  70.844  1.00  0.00    -0.310 OA 
ATOM      7  O   PHE A   1     -11.684   5.139  72.894  1.00  0.00    -0.283 OA 
ENDROOT
BRANCH   2   8
ATOM      8  CB  PHE A   1     -10.066   8.293  72.063  1.00  0.00    -0.331 C  
BRANCH   8   9
ATOM      9  CG  PHE A   1     -10.718   9.370  71.229  1.00  0.00    -0.421 A  
ATOM     10  CD1 PHE A   1     -11.991   9.858  71.563  1.00  0.00    -0.473 A  
ATOM     11  CE1 PHE A   1     -12.607  10.826  70.769  1.00  0.00    -0.476 A  
ATOM     12  CZ  PHE A   1     -11.958  11.323  69.642  1.00  0.00    -0.423 A  
ATOM     13  CE2 PHE A   1     -10.691  10.853  69.306  1.00  0.00    -0.271 A  
ATOM     14  CD2 PHE A   1     -10.073   9.879  70.094  1.00  0.00    -0.309 A  
ENDBRANCH   8   9
ENDBRANCH   2   8
TORSDOF 2
ENDMDL
MODEL       63
REMARK 921   NORMALIZED FREE ENERGY PREDICTED BY IDOCK:   -4.00 KCAL/MOL
REMARK 922        TOTAL FREE ENERGY PREDICTED BY IDOCK:   -4.67 KCAL/MOL
REMARK 923 INTER-LIGAND FREE ENERGY PREDICTED BY IDOCK:   -4.47 KCAL/MOL
REMARK 924 INTRA-LIGAND FREE ENERGY PREDICTED BY IDOCK:   -0.20 KCAL/MOL
REMARK 927      BINDING AFFINITY PREDICTED BY RF-SCORE:    0.00 PKD
ROOT
ATOM      1  N   PHE A   1     -14.128   8.907  72.958  1.00  0.00    -1.139 NA 
ATOM      2  CA  PHE A   1     -12.761   8.547  72.454  1.00  0.00    -0.337 C  
ATOM      3  H1  PHE A   1     -14.139   9.731  73.560  1.00  0.00     0.000 HD 
ATOM      4  H2  PHE A   1     -14.559   8.112  73.430  1.00  0.00     0.000 HD 
ATOM      5  C   PHE A   1     -12.205   9.766  71.701  1.00  0.00    -0.404 C  
ATOM      6  OXT PHE A   1     -11.298   9.750  70.886  1.00  0.00    -0.307 OA 
ATOM      7  O   PHE A   1     -12.841  10.904  72.090  1.00  0.00    -0.341 OA 
ENDROOT
BRANCH   2   8
ATOM      8  CB  PHE A   1     -12.744   7.305  71.548  1.00  0.00    -0.422 C  
BRANCH   8   9
ATOM      9  CG  PHE A   1     -11.546   6.418  71.785  1.00  0.00    -0.367 A  
ATOM     10  CD1 PHE A   1     -11.146   6.093  73.091  1.00  0.00    -0.214 A  
ATOM     11  CE1 PHE A   1     -10.017   5.303  73.308  1.00  0.00    -0.185 A  
ATOM     12  CZ  PHE A   1      -9.281   4.823  72.228  1.00  0.00    -0.151 A  
ATOM     13  CE2 PHE A   1      -9.674   5.131  70.928  1.00  0.00    -0.252 A  
ATOM     14  CD2 PHE A   1     -10.800   5.927  70.706  1.00  0.00    -0.352 A  
ENDBRANCH   8   9
ENDBRANCH   2   8
TORSDOF 2
ENDMDL
MODEL       64
REMARK 921   NORMALIZED FREE ENERGY PREDICTED BY IDOCK:   -3.96 KCAL/MOL
REMARK 922        TOTAL FREE ENERGY PREDICTED BY IDOCK:   -4.63 KCAL/MOL
REMARK 923 INTER-LIGAND FREE ENERGY PREDICTED BY IDOCK:   -4.65 KCAL/MOL
REMARK 924 INTRA-LIGAND FREE ENERGY PREDICTED BY IDOCK:    0.02 KCAL/MOL
REMARK 927      BINDING AFFINITY PREDICTED BY RF-SCORE:    0.00 PKD
ROOT
ATOM      1  N   PHE A   1     -10.976  16.018  68.163  1.00  0.00    -0.328 NA 
ATOM      2  CA  PHE A   1      -9.684  16.348  67.474  1.00  0.00    -0.231 C  
ATOM      3  H1  PHE A   1     -11.264  16.716  68.849  1.00  0.00     0.000 HD 
ATOM      4  H2  PHE A   1     -10.930  15.092  68.589  1.00  0.00     0.000 HD 
ATOM      5  C   PHE A   1      -9.851  17.721  66.803  1.00  0.00    -0.320 C  
ATOM      6  OXT PHE A   1      -9.165  18.161  65.895  1.00  0.00    -0.514 OA 
ATOM      7  O   PHE A   1     -10.864  18.421  67.383  1.00  0.00    -0.403 OA 
ENDROOT
BRANCH   2   8
ATOM      8  CB  PHE A   1      -9.249  15.297  66.441  1.00  0.00    -0.342 C  
BRANCH   8   9
ATOM      9  CG  PHE A   1     -10.390  14.432  65.962  1.00  0.00    -0.319 A  
ATOM     10  CD1 PHE A   1     -10.701  13.233  66.621  1.00  0.00    -0.284 A  
ATOM     11  CE1 PHE A   1     -11.732  12.417  66.154  1.00  0.00    -0.460 A  
ATOM     12  CZ  PHE A   1     -12.467  12.792  65.033  1.00  0.00    -0.572 A  
ATOM     13  CE2 PHE A   1     -12.174  13.984  64.376  1.00  0.00    -0.457 A  
ATOM     14  CD2 PHE A   1     -11.139  14.801  64.836  1.00  0.00    -0.416 A  
ENDBRANCH   8   9
ENDBRANCH   2   8
TORSDOF 2
ENDMDL
MODEL       65
REMARK 921   NORMALIZED FREE ENERGY PREDICTED BY IDOCK:   -3.95 KCAL/MOL
REMARK 922        TOTAL FREE ENERGY PREDICTED BY IDOCK:   -4.61 KCAL/MOL
REMARK 923 INTER-LIGAND FREE ENERGY PREDICTED BY IDOCK:   -4.42 KCAL/MOL
REMARK 924 INTRA-LIGAND FREE ENERGY PREDICTED BY IDOCK:   -0.19 KCAL/MOL
REMARK 927      BINDING AFFINITY PREDICTED BY RF-SCORE:    0.00 PKD
ROOT
ATOM      1  N   PHE A   1      -9.735  10.097  70.155  1.00  0.00    -0.407 NA 
ATOM      2  CA  PHE A   1     -11.078  10.760  70.063  1.00  0.00    -0.255 C  
ATOM      3  H1  PHE A   1      -9.371  10.038  71.106  1.00  0.00     0.000 HD 
ATOM      4  H2  PHE A   1      -9.063  10.557  69.540  1.00  0.00     0.000 HD 
ATOM      5  C   PHE A   1     -12.049   9.975  70.960  1.00  0.00    -0.373 C  
ATOM      6  OXT PHE A   1     -13.266   9.997  70.886  1.00  0.00    -0.370 OA 
ATOM      7  O   PHE A   1     -11.368   9.256  71.893  1.00  0.00    -0.374 OA 
ENDROOT
BRANCH   2   8
ATOM      8  CB  PHE A   1     -11.627  10.849  68.630  1.00  0.00    -0.373 C  
BRANCH   8   9
ATOM      9  CG  PHE A   1     -11.698  12.265  68.111  1.00  0.00    -0.408 A  
ATOM     10  CD1 PHE A   1     -11.675  12.522  66.732  1.00  0.00    -0.453 A  
ATOM     11  CE1 PHE A   1     -11.703  13.833  66.257  1.00  0.00    -0.400 A  
ATOM     12  CZ  PHE A   1     -11.762  14.900  67.151  1.00  0.00    -0.292 A  
ATOM     13  CE2 PHE A   1     -11.794  14.657  68.521  1.00  0.00    -0.346 A  
ATOM     14  CD2 PHE A   1     -11.760  13.346  69.002  1.00  0.00    -0.368 A  
ENDBRANCH   8   9
ENDBRANCH   2   8
TORSDOF 2
ENDMDL
MODEL       66
REMARK 921   NORMALIZED FREE ENERGY PREDICTED BY IDOCK:   -3.92 KCAL/MOL
REMARK 922        TOTAL FREE ENERGY PREDICTED BY IDOCK:   -4.58 KCAL/MOL
REMARK 923 INTER-LIGAND FREE ENERGY PREDICTED BY IDOCK:   -4.38 KCAL/MOL
REMARK 924 INTRA-LIGAND FREE ENERGY PREDICTED BY IDOCK:   -0.20 KCAL/MOL
REMARK 927      BINDING AFFINITY PREDICTED BY RF-SCORE:    0.00 PKD
ROOT
ATOM      1  N   PHE A   1     -10.281  14.151  65.112  1.00  0.00    -0.473 NA 
ATOM      2  CA  PHE A   1     -10.726  15.005  66.263  1.00  0.00    -0.322 C  
ATOM      3  H1  PHE A   1     -10.879  14.230  64.289  1.00  0.00     0.000 HD 
ATOM      4  H2  PHE A   1     -10.192  13.176  65.399  1.00  0.00     0.000 HD 
ATOM      5  C   PHE A   1     -10.773  16.461  65.774  1.00  0.00    -0.238 C  
ATOM      6  OXT PHE A   1     -10.758  17.454  66.483  1.00  0.00    -0.229 OA 
ATOM      7  O   PHE A   1     -10.870  16.511  64.418  1.00  0.00    -0.801 OA 
ENDROOT
BRANCH   2   8
ATOM      8  CB  PHE A   1      -9.826  14.886  67.504  1.00  0.00    -0.217 C  
BRANCH   8   9
ATOM      9  CG  PHE A   1     -10.603  14.646  68.776  1.00  0.00    -0.248 A  
ATOM     10  CD1 PHE A   1     -11.324  13.455  68.957  1.00  0.00    -0.335 A  
ATOM     11  CE1 PHE A   1     -12.071  13.252  70.118  1.00  0.00    -0.403 A  
ATOM     12  CZ  PHE A   1     -12.100  14.228  71.111  1.00  0.00    -0.409 A  
ATOM     13  CE2 PHE A   1     -11.381  15.409  70.946  1.00  0.00    -0.395 A  
ATOM     14  CD2 PHE A   1     -10.637  15.620  69.783  1.00  0.00    -0.308 A  
ENDBRANCH   8   9
ENDBRANCH   2   8
TORSDOF 2
ENDMDL
MODEL       67
REMARK 921   NORMALIZED FREE ENERGY PREDICTED BY IDOCK:   -3.88 KCAL/MOL
REMARK 922        TOTAL FREE ENERGY PREDICTED BY IDOCK:   -4.54 KCAL/MOL
REMARK 923 INTER-LIGAND FREE ENERGY PREDICTED BY IDOCK:   -4.36 KCAL/MOL
REMARK 924 INTRA-LIGAND FREE ENERGY PREDICTED BY IDOCK:   -0.18 KCAL/MOL
REMARK 927      BINDING AFFINITY PREDICTED BY RF-SCORE:    0.00 PKD
ROOT
ATOM      1  N   PHE A   1     -12.327  13.938  63.780  1.00  0.00    -0.903 NA 
ATOM      2  CA  PHE A   1     -11.662  13.758  65.113  1.00  0.00    -0.343 C  
ATOM      3  H1  PHE A   1     -11.723  13.719  62.988  1.00  0.00     0.000 HD 
ATOM      4  H2  PHE A   1     -12.709  14.880  63.692  1.00  0.00     0.000 HD 
ATOM      5  C   PHE A   1     -11.175  12.302  65.199  1.00  0.00    -0.324 C  
ATOM      6  OXT PHE A   1     -10.901  11.700  66.223  1.00  0.00    -0.267 OA 
ATOM      7  O   PHE A   1     -11.050  11.762  63.956  1.00  0.00    -0.339 OA 
ENDROOT
BRANCH   2   8
ATOM      8  CB  PHE A   1     -12.573  14.088  66.307  1.00  0.00    -0.352 C  
BRANCH   8   9
ATOM      9  CG  PHE A   1     -11.825  14.697  67.469  1.00  0.00    -0.375 A  
ATOM     10  CD1 PHE A   1     -10.959  15.783  67.270  1.00  0.00    -0.259 A  
ATOM     11  CE1 PHE A   1     -10.241  16.320  68.338  1.00  0.00    -0.249 A  
ATOM     12  CZ  PHE A   1     -10.384  15.784  69.616  1.00  0.00    -0.290 A  
ATOM     13  CE2 PHE A   1     -11.247  14.712  69.828  1.00  0.00    -0.296 A  
ATOM     14  CD2 PHE A   1     -11.963  14.168  68.759  1.00  0.00    -0.367 A  
ENDBRANCH   8   9
ENDBRANCH   2   8
TORSDOF 2
ENDMDL
MODEL       68
REMARK 921   NORMALIZED FREE ENERGY PREDICTED BY IDOCK:   -3.84 KCAL/MOL
REMARK 922        TOTAL FREE ENERGY PREDICTED BY IDOCK:   -4.49 KCAL/MOL
REMARK 923 INTER-LIGAND FREE ENERGY PREDICTED BY IDOCK:   -4.33 KCAL/MOL
REMARK 924 INTRA-LIGAND FREE ENERGY PREDICTED BY IDOCK:   -0.16 KCAL/MOL
REMARK 927      BINDING AFFINITY PREDICTED BY RF-SCORE:    0.00 PKD
ROOT
ATOM      1  N   PHE A   1     -10.191  16.602  67.275  1.00  0.00    -0.284 NA 
ATOM      2  CA  PHE A   1     -10.533  15.782  66.065  1.00  0.00    -0.338 C  
ATOM      3  H1  PHE A   1      -9.488  17.320  67.097  1.00  0.00     0.000 HD 
ATOM      4  H2  PHE A   1      -9.905  16.001  68.048  1.00  0.00     0.000 HD 
ATOM      5  C   PHE A   1     -11.017  16.746  64.969  1.00  0.00    -0.108 C  
ATOM      6  OXT PHE A   1     -11.684  16.443  63.994  1.00  0.00    -1.044 OA 
ATOM      7  O   PHE A   1     -10.570  18.009  65.207  1.00  0.00    -0.615 OA 
ENDROOT
BRANCH   2   8
ATOM      8  CB  PHE A   1     -11.593  14.701  66.332  1.00  0.00    -0.343 C  
BRANCH   8   9
ATOM      9  CG  PHE A   1     -11.086  13.581  67.208  1.00  0.00    -0.302 A  
ATOM     10  CD1 PHE A   1      -9.999  12.793  66.801  1.00  0.00    -0.237 A  
ATOM     11  CE1 PHE A   1      -9.556  11.735  67.595  1.00  0.00    -0.184 A  
ATOM     12  CZ  PHE A   1     -10.186  11.458  68.806  1.00  0.00    -0.209 A  
ATOM     13  CE2 PHE A   1     -11.260  12.239  69.225  1.00  0.00    -0.275 A  
ATOM     14  CD2 PHE A   1     -11.711  13.295  68.429  1.00  0.00    -0.389 A  
ENDBRANCH   8   9
ENDBRANCH   2   8
TORSDOF 2
ENDMDL
MODEL       69
REMARK 921   NORMALIZED FREE ENERGY PREDICTED BY IDOCK:   -3.83 KCAL/MOL
REMARK 922        TOTAL FREE ENERGY PREDICTED BY IDOCK:   -4.47 KCAL/MOL
REMARK 923 INTER-LIGAND FREE ENERGY PREDICTED BY IDOCK:   -4.43 KCAL/MOL
REMARK 924 INTRA-LIGAND FREE ENERGY PREDICTED BY IDOCK:   -0.04 KCAL/MOL
REMARK 927      BINDING AFFINITY PREDICTED BY RF-SCORE:    0.00 PKD
ROOT
ATOM      1  N   PHE A   1     -12.261  16.095  71.732  1.00  0.00    -0.599 NA 
ATOM      2  CA  PHE A   1     -12.764  14.873  71.022  1.00  0.00    -0.348 C  
ATOM      3  H1  PHE A   1     -12.953  16.527  72.344  1.00  0.00     0.000 HD 
ATOM      4  H2  PHE A   1     -11.894  16.774  71.065  1.00  0.00     0.000 HD 
ATOM      5  C   PHE A   1     -13.235  13.872  72.090  1.00  0.00    -0.444 C  
ATOM      6  OXT PHE A   1     -13.386  12.672  71.928  1.00  0.00    -0.463 OA 
ATOM      7  O   PHE A   1     -13.504  14.509  73.262  1.00  0.00    -0.581 OA 
ENDROOT
BRANCH   2   8
ATOM      8  CB  PHE A   1     -11.721  14.220  70.100  1.00  0.00    -0.357 C  
BRANCH   8   9
ATOM      9  CG  PHE A   1     -10.859  15.227  69.378  1.00  0.00    -0.263 A  
ATOM     10  CD1 PHE A   1      -9.474  15.270  69.599  1.00  0.00    -0.171 A  
ATOM     11  CE1 PHE A   1      -8.686  16.226  68.958  1.00  0.00    -0.246 A  
ATOM     12  CZ  PHE A   1      -9.268  17.142  68.086  1.00  0.00    -0.261 A  
ATOM     13  CE2 PHE A   1     -10.640  17.104  67.852  1.00  0.00    -0.376 A  
ATOM     14  CD2 PHE A   1     -11.434  16.153  68.496  1.00  0.00    -0.324 A  
ENDBRANCH   8   9
ENDBRANCH   2   8
TORSDOF 2
ENDMDL
MODEL       70
REMARK 921   NORMALIZED FREE ENERGY PREDICTED BY IDOCK:   -3.82 KCAL/MOL
REMARK 922        TOTAL FREE ENERGY PREDICTED BY IDOCK:   -4.47 KCAL/MOL
REMARK 923 INTER-LIGAND FREE ENERGY PREDICTED BY IDOCK:   -4.29 KCAL/MOL
REMARK 924 INTRA-LIGAND FREE ENERGY PREDICTED BY IDOCK:   -0.18 KCAL/MOL
REMARK 927      BINDING AFFINITY PREDICTED BY RF-SCORE:    0.00 PKD
ROOT
ATOM      1  N   PHE A   1      -9.003   9.559  67.527  1.00  0.00    -0.125 NA 
ATOM      2  CA  PHE A   1     -10.328   9.891  68.148  1.00  0.00    -0.195 C  
ATOM      3  H1  PHE A   1      -9.077   9.162  66.590  1.00  0.00     0.000 HD 
ATOM      4  H2  PHE A   1      -8.462   8.945  68.137  1.00  0.00     0.000 HD 
ATOM      5  C   PHE A   1     -11.053  10.867  67.208  1.00  0.00    -0.283 C  
ATOM      6  OXT PHE A   1     -11.974  11.605  67.516  1.00  0.00    -0.622 OA 
ATOM      7  O   PHE A   1     -10.552  10.783  65.946  1.00  0.00    -0.225 OA 
ENDROOT
BRANCH   2   8
ATOM      8  CB  PHE A   1     -10.216  10.490  69.559  1.00  0.00    -0.230 C  
BRANCH   8   9
ATOM      9  CG  PHE A   1     -11.303  10.011  70.492  1.00  0.00    -0.409 A  
ATOM     10  CD1 PHE A   1     -12.247  10.910  71.009  1.00  0.00    -0.464 A  
ATOM     11  CE1 PHE A   1     -13.227  10.472  71.899  1.00  0.00    -0.526 A  
ATOM     12  CZ  PHE A   1     -13.280   9.132  72.277  1.00  0.00    -0.528 A  
ATOM     13  CE2 PHE A   1     -12.354   8.228  71.763  1.00  0.00    -0.366 A  
ATOM     14  CD2 PHE A   1     -11.367   8.664  70.876  1.00  0.00    -0.314 A  
ENDBRANCH   8   9
ENDBRANCH   2   8
TORSDOF 2
ENDMDL
MODEL       71
REMARK 921   NORMALIZED FREE ENERGY PREDICTED BY IDOCK:   -3.82 KCAL/MOL
REMARK 922        TOTAL FREE ENERGY PREDICTED BY IDOCK:   -4.46 KCAL/MOL
REMARK 923 INTER-LIGAND FREE ENERGY PREDICTED BY IDOCK:   -4.81 KCAL/MOL
REMARK 924 INTRA-LIGAND FREE ENERGY PREDICTED BY IDOCK:    0.35 KCAL/MOL
REMARK 927      BINDING AFFINITY PREDICTED BY RF-SCORE:    0.00 PKD
ROOT
ATOM      1  N   PHE A   1      -9.902  12.471  64.080  1.00  0.00    -0.599 NA 
ATOM      2  CA  PHE A   1     -11.068  11.925  64.851  1.00  0.00    -0.307 C  
ATOM      3  H1  PHE A   1      -9.996  12.369  63.069  1.00  0.00     0.000 HD 
ATOM      4  H2  PHE A   1      -9.029  12.056  64.405  1.00  0.00     0.000 HD 
ATOM      5  C   PHE A   1     -12.334  12.643  64.356  1.00  0.00    -0.446 C  
ATOM      6  OXT PHE A   1     -13.394  12.718  64.955  1.00  0.00    -0.736 OA 
ATOM      7  O   PHE A   1     -12.134  13.173  63.118  1.00  0.00    -0.541 OA 
ENDROOT
BRANCH   2   8
ATOM      8  CB  PHE A   1     -10.928  12.079  66.374  1.00  0.00    -0.337 C  
BRANCH   8   9
ATOM      9  CG  PHE A   1     -10.702  13.508  66.805  1.00  0.00    -0.278 A  
ATOM     10  CD1 PHE A   1     -11.653  14.175  67.592  1.00  0.00    -0.394 A  
ATOM     11  CE1 PHE A   1     -11.460  15.507  67.958  1.00  0.00    -0.313 A  
ATOM     12  CZ  PHE A   1     -10.314  16.185  67.549  1.00  0.00    -0.286 A  
ATOM     13  CE2 PHE A   1      -9.359  15.531  66.775  1.00  0.00    -0.267 A  
ATOM     14  CD2 PHE A   1      -9.551  14.199  66.402  1.00  0.00    -0.310 A  
ENDBRANCH   8   9
ENDBRANCH   2   8
TORSDOF 2
ENDMDL
MODEL       72
REMARK 921   NORMALIZED FREE ENERGY PREDICTED BY IDOCK:   -3.81 KCAL/MOL
REMARK 922        TOTAL FREE ENERGY PREDICTED BY IDOCK:   -4.45 KCAL/MOL
REMARK 923 INTER-LIGAND FREE ENERGY PREDICTED BY IDOCK:   -4.34 KCAL/MOL
REMARK 924 INTRA-LIGAND FREE ENERGY PREDICTED BY IDOCK:   -0.12 KCAL/MOL
REMARK 927      BINDING AFFINITY PREDICTED BY RF-SCORE:    0.00 PKD
ROOT
ATOM      1  N   PHE A   1     -11.738  13.132  70.242  1.00  0.00    -0.541 NA 
ATOM      2  CA  PHE A   1     -11.926  11.746  69.700  1.00  0.00    -0.312 C  
ATOM      3  H1  PHE A   1     -12.574  13.516  70.684  1.00  0.00     0.000 HD 
ATOM      4  H2  PHE A   1     -11.394  13.760  69.515  1.00  0.00     0.000 HD 
ATOM      5  C   PHE A   1     -12.378  10.847  70.862  1.00  0.00    -0.400 C  
ATOM      6  OXT PHE A   1     -12.306   9.629  70.894  1.00  0.00    -0.299 OA 
ATOM      7  O   PHE A   1     -12.916  11.591  71.866  1.00  0.00    -0.440 OA 
ENDROOT
BRANCH   2   8
ATOM      8  CB  PHE A   1     -10.667  11.167  69.035  1.00  0.00    -0.265 C  
BRANCH   8   9
ATOM      9  CG  PHE A   1     -10.707  11.245  67.527  1.00  0.00    -0.275 A  
ATOM     10  CD1 PHE A   1      -9.950  10.357  66.747  1.00  0.00    -0.256 A  
ATOM     11  CE1 PHE A   1      -9.960  10.456  65.355  1.00  0.00    -0.362 A  
ATOM     12  CZ  PHE A   1     -10.730  11.432  64.729  1.00  0.00    -0.362 A  
ATOM     13  CE2 PHE A   1     -11.492  12.312  65.492  1.00  0.00    -0.408 A  
ATOM     14  CD2 PHE A   1     -11.480  12.222  66.886  1.00  0.00    -0.418 A  
ENDBRANCH   8   9
ENDBRANCH   2   8
TORSDOF 2
ENDMDL
MODEL       73
REMARK 921   NORMALIZED FREE ENERGY PREDICTED BY IDOCK:   -3.80 KCAL/MOL
REMARK 922        TOTAL FREE ENERGY PREDICTED BY IDOCK:   -4.45 KCAL/MOL
REMARK 923 INTER-LIGAND FREE ENERGY PREDICTED BY IDOCK:   -4.25 KCAL/MOL
REMARK 924 INTRA-LIGAND FREE ENERGY PREDICTED BY IDOCK:   -0.20 KCAL/MOL
REMARK 927      BINDING AFFINITY PREDICTED BY RF-SCORE:    0.00 PKD
ROOT
ATOM      1  N   PHE A   1      -9.341   9.688  69.171  1.00  0.00    -0.163 NA 
ATOM      2  CA  PHE A   1     -10.210  10.071  70.333  1.00  0.00    -0.155 C  
ATOM      3  H1  PHE A   1      -8.377   9.478  69.431  1.00  0.00     0.000 HD 
ATOM      4  H2  PHE A   1      -9.370  10.407  68.447  1.00  0.00     0.000 HD 
ATOM      5  C   PHE A   1     -10.169   8.916  71.347  1.00  0.00    -0.305 C  
ATOM      6  OXT PHE A   1     -10.986   8.711  72.229  1.00  0.00    -0.354 OA 
ATOM      7  O   PHE A   1      -9.063   8.147  71.157  1.00  0.00    -0.142 OA 
ENDROOT
BRANCH   2   8
ATOM      8  CB  PHE A   1     -11.662  10.387  69.941  1.00  0.00    -0.341 C  
BRANCH   8   9
ATOM      9  CG  PHE A   1     -12.182  11.655  70.575  1.00  0.00    -0.451 A  
ATOM     10  CD1 PHE A   1     -12.965  11.602  71.738  1.00  0.00    -0.483 A  
ATOM     11  CE1 PHE A   1     -13.475  12.772  72.301  1.00  0.00    -0.591 A  
ATOM     12  CZ  PHE A   1     -13.203  14.006  71.715  1.00  0.00    -0.454 A  
ATOM     13  CE2 PHE A   1     -12.420  14.072  70.566  1.00  0.00    -0.429 A  
ATOM     14  CD2 PHE A   1     -11.912  12.902  69.995  1.00  0.00    -0.380 A  
ENDBRANCH   8   9
ENDBRANCH   2   8
TORSDOF 2
ENDMDL
MODEL       74
REMARK 921   NORMALIZED FREE ENERGY PREDICTED BY IDOCK:   -3.80 KCAL/MOL
REMARK 922        TOTAL FREE ENERGY PREDICTED BY IDOCK:   -4.44 KCAL/MOL
REMARK 923 INTER-LIGAND FREE ENERGY PREDICTED BY IDOCK:   -4.30 KCAL/MOL
REMARK 924 INTRA-LIGAND FREE ENERGY PREDICTED BY IDOCK:   -0.14 KCAL/MOL
REMARK 927      BINDING AFFINITY PREDICTED BY RF-SCORE:    0.00 PKD
ROOT
ATOM      1  N   PHE A   1     -10.973   9.482  71.622  1.00  0.00    -0.318 NA 
ATOM      2  CA  PHE A   1     -12.152   8.564  71.483  1.00  0.00    -0.304 C  
ATOM      3  H1  PHE A   1     -11.107  10.390  71.176  1.00  0.00     0.000 HD 
ATOM      4  H2  PHE A   1     -10.124   9.033  71.277  1.00  0.00     0.000 HD 
ATOM      5  C   PHE A   1     -13.374   9.280  72.082  1.00  0.00    -0.468 C  
ATOM      6  OXT PHE A   1     -14.406   8.744  72.452  1.00  0.00    -0.509 OA 
ATOM      7  O   PHE A   1     -13.174  10.625  72.120  1.00  0.00    -0.464 OA 
ENDROOT
BRANCH   2   8
ATOM      8  CB  PHE A   1     -11.952   7.196  72.154  1.00  0.00    -0.304 C  
BRANCH   8   9
ATOM      9  CG  PHE A   1     -11.186   6.222  71.291  1.00  0.00    -0.355 A  
ATOM     10  CD1 PHE A   1     -10.475   5.160  71.871  1.00  0.00    -0.272 A  
ATOM     11  CE1 PHE A   1      -9.738   4.284  71.074  1.00  0.00    -0.260 A  
ATOM     12  CZ  PHE A   1      -9.709   4.452  69.692  1.00  0.00    -0.289 A  
ATOM     13  CE2 PHE A   1     -10.418   5.496  69.104  1.00  0.00    -0.315 A  
ATOM     14  CD2 PHE A   1     -11.152   6.380  69.899  1.00  0.00    -0.444 A  
ENDBRANCH   8   9
ENDBRANCH   2   8
TORSDOF 2
ENDMDL
MODEL       75
REMARK 921   NORMALIZED FREE ENERGY PREDICTED BY IDOCK:   -3.79 KCAL/MOL
REMARK 922        TOTAL FREE ENERGY PREDICTED BY IDOCK:   -4.43 KCAL/MOL
REMARK 923 INTER-LIGAND FREE ENERGY PREDICTED BY IDOCK:   -4.24 KCAL/MOL
REMARK 924 INTRA-LIGAND FREE ENERGY PREDICTED BY IDOCK:   -0.19 KCAL/MOL
REMARK 927      BINDING AFFINITY PREDICTED BY RF-SCORE:    0.00 PKD
ROOT
ATOM      1  N   PHE A   1     -10.418   5.236  69.623  1.00  0.00    -0.284 NA 
ATOM      2  CA  PHE A   1     -10.941   6.579  69.204  1.00  0.00    -0.323 C  
ATOM      3  H1  PHE A   1     -10.877   4.454  69.156  1.00  0.00     0.000 HD 
ATOM      4  H2  PHE A   1     -10.469   5.131  70.637  1.00  0.00     0.000 HD 
ATOM      5  C   PHE A   1     -10.771   6.691  67.680  1.00  0.00    -0.302 C  
ATOM      6  OXT PHE A   1     -10.762   7.727  67.036  1.00  0.00    -0.347 OA 
ATOM      7  O   PHE A   1     -10.661   5.458  67.116  1.00  0.00    -0.242 OA 
ENDROOT
BRANCH   2   8
ATOM      8  CB  PHE A   1     -10.250   7.758  69.908  1.00  0.00    -0.213 C  
BRANCH   8   9
ATOM      9  CG  PHE A   1     -11.222   8.688  70.593  1.00  0.00    -0.284 A  
ATOM     10  CD1 PHE A   1     -12.052   8.219  71.623  1.00  0.00    -0.346 A  
ATOM     11  CE1 PHE A   1     -12.976   9.071  72.229  1.00  0.00    -0.490 A  
ATOM     12  CZ  PHE A   1     -13.075  10.399  71.821  1.00  0.00    -0.567 A  
ATOM     13  CE2 PHE A   1     -12.250  10.878  70.807  1.00  0.00    -0.483 A  
ATOM     14  CD2 PHE A   1     -11.328  10.027  70.193  1.00  0.00    -0.357 A  
ENDBRANCH   8   9
ENDBRANCH   2   8
TORSDOF 2
ENDMDL
MODEL       76
REMARK 921   NORMALIZED FREE ENERGY PREDICTED BY IDOCK:   -3.79 KCAL/MOL
REMARK 922        TOTAL FREE ENERGY PREDICTED BY IDOCK:   -4.43 KCAL/MOL
REMARK 923 INTER-LIGAND FREE ENERGY PREDICTED BY IDOCK:   -4.30 KCAL/MOL
REMARK 924 INTRA-LIGAND FREE ENERGY PREDICTED BY IDOCK:   -0.13 KCAL/MOL
REMARK 927      BINDING AFFINITY PREDICTED BY RF-SCORE:    0.00 PKD
ROOT
ATOM      1  N   PHE A   1      -8.299  14.899  66.804  1.00  0.00    -0.383 NA 
ATOM      2  CA  PHE A   1      -9.624  15.516  66.466  1.00  0.00    -0.272 C  
ATOM      3  H1  PHE A   1      -7.504  15.513  66.626  1.00  0.00     0.000 HD 
ATOM      4  H2  PHE A   1      -8.182  14.009  66.318  1.00  0.00     0.000 HD 
ATOM      5  C   PHE A   1      -9.756  16.812  67.283  1.00  0.00    -0.250 C  
ATOM      6  OXT PHE A   1     -10.798  17.396  67.533  1.00  0.00    -0.315 OA 
ATOM      7  O   PHE A   1      -8.533  17.261  67.676  1.00  0.00    -0.205 OA 
ENDROOT
BRANCH   2   8
ATOM      8  CB  PHE A   1     -10.822  14.591  66.734  1.00  0.00    -0.305 C  
BRANCH   8   9
ATOM      9  CG  PHE A   1     -11.110  13.652  65.587  1.00  0.00    -0.300 A  
ATOM     10  CD1 PHE A   1     -11.968  14.040  64.546  1.00  0.00    -0.470 A  
ATOM     11  CE1 PHE A   1     -12.262  13.156  63.507  1.00  0.00    -0.552 A  
ATOM     12  CZ  PHE A   1     -11.698  11.883  63.491  1.00  0.00    -0.550 A  
ATOM     13  CE2 PHE A   1     -10.838  11.491  64.513  1.00  0.00    -0.390 A  
ATOM     14  CD2 PHE A   1     -10.546  12.370  65.559  1.00  0.00    -0.307 A  
ENDBRANCH   8   9
ENDBRANCH   2   8
TORSDOF 2
ENDMDL
MODEL       77
REMARK 921   NORMALIZED FREE ENERGY PREDICTED BY IDOCK:   -3.78 KCAL/MOL
REMARK 922        TOTAL FREE ENERGY PREDICTED BY IDOCK:   -4.42 KCAL/MOL
REMARK 923 INTER-LIGAND FREE ENERGY PREDICTED BY IDOCK:   -4.22 KCAL/MOL
REMARK 924 INTRA-LIGAND FREE ENERGY PREDICTED BY IDOCK:   -0.20 KCAL/MOL
REMARK 927      BINDING AFFINITY PREDICTED BY RF-SCORE:    0.00 PKD
ROOT
ATOM      1  N   PHE A   1     -12.053  12.249  66.339  1.00  0.00    -0.612 NA 
ATOM      2  CA  PHE A   1     -11.462  13.064  67.453  1.00  0.00    -0.332 C  
ATOM      3  H1  PHE A   1     -11.773  11.268  66.357  1.00  0.00     0.000 HD 
ATOM      4  H2  PHE A   1     -11.840  12.668  65.434  1.00  0.00     0.000 HD 
ATOM      5  C   PHE A   1     -11.880  12.412  68.781  1.00  0.00    -0.311 C  
ATOM      6  OXT PHE A   1     -11.882  12.954  69.873  1.00  0.00    -0.323 OA 
ATOM      7  O   PHE A   1     -12.224  11.109  68.591  1.00  0.00    -0.582 OA 
ENDROOT
BRANCH   2   8
ATOM      8  CB  PHE A   1     -11.884  14.542  67.427  1.00  0.00    -0.416 C  
BRANCH   8   9
ATOM      9  CG  PHE A   1     -10.709  15.491  67.450  1.00  0.00    -0.301 A  
ATOM     10  CD1 PHE A   1     -10.208  15.976  68.667  1.00  0.00    -0.231 A  
ATOM     11  CE1 PHE A   1      -9.147  16.882  68.683  1.00  0.00    -0.265 A  
ATOM     12  CZ  PHE A   1      -8.571  17.306  67.488  1.00  0.00    -0.213 A  
ATOM     13  CE2 PHE A   1      -9.055  16.825  66.275  1.00  0.00    -0.320 A  
ATOM     14  CD2 PHE A   1     -10.121  15.923  66.253  1.00  0.00    -0.317 A  
ENDBRANCH   8   9
ENDBRANCH   2   8
TORSDOF 2
ENDMDL
MODEL       78
REMARK 921   NORMALIZED FREE ENERGY PREDICTED BY IDOCK:   -3.78 KCAL/MOL
REMARK 922        TOTAL FREE ENERGY PREDICTED BY IDOCK:   -4.42 KCAL/MOL
REMARK 923 INTER-LIGAND FREE ENERGY PREDICTED BY IDOCK:   -4.24 KCAL/MOL
REMARK 924 INTRA-LIGAND FREE ENERGY PREDICTED BY IDOCK:   -0.18 KCAL/MOL
REMARK 927      BINDING AFFINITY PREDICTED BY RF-SCORE:    0.00 PKD
ROOT
ATOM      1  N   PHE A   1     -10.265  14.425  64.579  1.00  0.00    -0.618 NA 
ATOM      2  CA  PHE A   1     -10.679  14.981  65.910  1.00  0.00    -0.331 C  
ATOM      3  H1  PHE A   1     -10.888  14.687  63.815  1.00  0.00     0.000 HD 
ATOM      4  H2  PHE A   1     -10.163  13.411  64.629  1.00  0.00     0.000 HD 
ATOM      5  C   PHE A   1     -10.747  16.511  65.776  1.00  0.00    -0.225 C  
ATOM      6  OXT PHE A   1     -10.716  17.311  66.696  1.00  0.00    -0.220 OA 
ATOM      7  O   PHE A   1     -10.885  16.875  64.472  1.00  0.00    -0.849 OA 
ENDROOT
BRANCH   2   8
ATOM      8  CB  PHE A   1      -9.741  14.587  67.063  1.00  0.00    -0.247 C  
BRANCH   8   9
ATOM      9  CG  PHE A   1     -10.389  13.653  68.057  1.00  0.00    -0.250 A  
ATOM     10  CD1 PHE A   1     -10.087  12.283  68.050  1.00  0.00    -0.206 A  
ATOM     11  CE1 PHE A   1     -10.715  11.416  68.946  1.00  0.00    -0.248 A  
ATOM     12  CZ  PHE A   1     -11.642  11.908  69.861  1.00  0.00    -0.333 A  
ATOM     13  CE2 PHE A   1     -11.943  13.267  69.883  1.00  0.00    -0.400 A  
ATOM     14  CD2 PHE A   1     -11.322  14.138  68.984  1.00  0.00    -0.310 A  
ENDBRANCH   8   9
ENDBRANCH   2   8
TORSDOF 2
ENDMDL
MODEL       79
REMARK 921   NORMALIZED FREE ENERGY PREDICTED BY IDOCK:   -3.77 KCAL/MOL
REMARK 922        TOTAL FREE ENERGY PREDICTED BY IDOCK:   -4.42 KCAL/MOL
REMARK 923 INTER-LIGAND FREE ENERGY PREDICTED BY IDOCK:   -4.26 KCAL/MOL
REMARK 924 INTRA-LIGAND FREE ENERGY PREDICTED BY IDOCK:   -0.15 KCAL/MOL
REMARK 927      BINDING AFFINITY PREDICTED BY RF-SCORE:    0.00 PKD
ROOT
ATOM      1  N   PHE A   1     -12.306  15.407  70.373  1.00  0.00    -0.379 NA 
ATOM      2  CA  PHE A   1     -12.483  14.019  69.833  1.00  0.00    -0.246 C  
ATOM      3  H1  PHE A   1     -13.107  15.743  70.910  1.00  0.00     0.000 HD 
ATOM      4  H2  PHE A   1     -12.076  16.059  69.623  1.00  0.00     0.000 HD 
ATOM      5  C   PHE A   1     -12.759  13.086  71.023  1.00  0.00    -0.262 C  
ATOM      6  OXT PHE A   1     -12.623  11.873  71.027  1.00  0.00    -0.363 OA 
ATOM      7  O   PHE A   1     -13.219  13.791  72.091  1.00  0.00    -0.383 OA 
ENDROOT
BRANCH   2   8
ATOM      8  CB  PHE A   1     -11.277  13.512  69.025  1.00  0.00    -0.314 C  
BRANCH   8   9
ATOM      9  CG  PHE A   1     -11.466  13.652  67.533  1.00  0.00    -0.360 A  
ATOM     10  CD1 PHE A   1     -11.137  14.851  66.882  1.00  0.00    -0.337 A  
ATOM     11  CE1 PHE A   1     -11.347  14.990  65.510  1.00  0.00    -0.312 A  
ATOM     12  CZ  PHE A   1     -11.878  13.935  64.773  1.00  0.00    -0.414 A  
ATOM     13  CE2 PHE A   1     -12.200  12.738  65.406  1.00  0.00    -0.532 A  
ATOM     14  CD2 PHE A   1     -11.997  12.596  66.781  1.00  0.00    -0.362 A  
ENDBRANCH   8   9
ENDBRANCH   2   8
TORSDOF 2
ENDMDL
MODEL       80
REMARK 921   NORMALIZED FREE ENERGY PREDICTED BY IDOCK:   -3.76 KCAL/MOL
REMARK 922        TOTAL FREE ENERGY PREDICTED BY IDOCK:   -4.40 KCAL/MOL
REMARK 923 INTER-LIGAND FREE ENERGY PREDICTED BY IDOCK:   -4.26 KCAL/MOL
REMARK 924 INTRA-LIGAND FREE ENERGY PREDICTED BY IDOCK:   -0.14 KCAL/MOL
REMARK 927      BINDING AFFINITY PREDICTED BY RF-SCORE:    0.00 PKD
ROOT
ATOM      1  N   PHE A   1     -11.446   6.698  68.029  1.00  0.00    -0.585 NA 
ATOM      2  CA  PHE A   1     -10.599   6.370  69.223  1.00  0.00    -0.259 C  
ATOM      3  H1  PHE A   1     -10.909   6.847  67.174  1.00  0.00     0.000 HD 
ATOM      4  H2  PHE A   1     -12.046   7.500  68.222  1.00  0.00     0.000 HD 
ATOM      5  C   PHE A   1      -9.776   5.117  68.882  1.00  0.00    -0.156 C  
ATOM      6  OXT PHE A   1      -9.244   4.371  69.687  1.00  0.00    -0.107 OA 
ATOM      7  O   PHE A   1      -9.681   4.955  67.535  1.00  0.00    -0.147 OA 
ENDROOT
BRANCH   2   8
ATOM      8  CB  PHE A   1     -11.407   6.145  70.511  1.00  0.00    -0.381 C  
BRANCH   8   9
ATOM      9  CG  PHE A   1     -12.037   7.411  71.042  1.00  0.00    -0.330 A  
ATOM     10  CD1 PHE A   1     -13.338   7.394  71.567  1.00  0.00    -0.435 A  
ATOM     11  CE1 PHE A   1     -13.931   8.572  72.022  1.00  0.00    -0.494 A  
ATOM     12  CZ  PHE A   1     -13.230   9.775  71.967  1.00  0.00    -0.557 A  
ATOM     13  CE2 PHE A   1     -11.935   9.801  71.456  1.00  0.00    -0.488 A  
ATOM     14  CD2 PHE A   1     -11.340   8.626  70.993  1.00  0.00    -0.322 A  
ENDBRANCH   8   9
ENDBRANCH   2   8
TORSDOF 2
ENDMDL
MODEL       81
REMARK 921   NORMALIZED FREE ENERGY PREDICTED BY IDOCK:   -3.75 KCAL/MOL
REMARK 922        TOTAL FREE ENERGY PREDICTED BY IDOCK:   -4.39 KCAL/MOL
REMARK 923 INTER-LIGAND FREE ENERGY PREDICTED BY IDOCK:   -4.24 KCAL/MOL
REMARK 924 INTRA-LIGAND FREE ENERGY PREDICTED BY IDOCK:   -0.15 KCAL/MOL
REMARK 927      BINDING AFFINITY PREDICTED BY RF-SCORE:    0.00 PKD
ROOT
ATOM      1  N   PHE A   1     -12.523  10.587  69.197  1.00  0.00    -0.712 NA 
ATOM      2  CA  PHE A   1     -11.125  10.393  68.686  1.00  0.00    -0.262 C  
ATOM      3  H1  PHE A   1     -12.845  11.554  69.151  1.00  0.00     0.000 HD 
ATOM      4  H2  PHE A   1     -12.614  10.221  70.145  1.00  0.00     0.000 HD 
ATOM      5  C   PHE A   1     -11.083  10.905  67.236  1.00  0.00    -0.283 C  
ATOM      6  OXT PHE A   1     -10.243  10.614  66.400  1.00  0.00    -0.221 OA 
ATOM      7  O   PHE A   1     -12.105  11.771  67.001  1.00  0.00    -0.575 OA 
ENDROOT
BRANCH   2   8
ATOM      8  CB  PHE A   1     -10.639   8.937  68.753  1.00  0.00    -0.185 C  
BRANCH   8   9
ATOM      9  CG  PHE A   1     -10.798   8.324  70.124  1.00  0.00    -0.237 A  
ATOM     10  CD1 PHE A   1     -11.630   7.211  70.316  1.00  0.00    -0.260 A  
ATOM     11  CE1 PHE A   1     -11.805   6.670  71.590  1.00  0.00    -0.383 A  
ATOM     12  CZ  PHE A   1     -11.147   7.228  72.683  1.00  0.00    -0.355 A  
ATOM     13  CE2 PHE A   1     -10.312   8.328  72.504  1.00  0.00    -0.401 A  
ATOM     14  CD2 PHE A   1     -10.139   8.877  71.231  1.00  0.00    -0.365 A  
ENDBRANCH   8   9
ENDBRANCH   2   8
TORSDOF 2
ENDMDL
MODEL       82
REMARK 921   NORMALIZED FREE ENERGY PREDICTED BY IDOCK:   -3.74 KCAL/MOL
REMARK 922        TOTAL FREE ENERGY PREDICTED BY IDOCK:   -4.38 KCAL/MOL
REMARK 923 INTER-LIGAND FREE ENERGY PREDICTED BY IDOCK:   -4.19 KCAL/MOL
REMARK 924 INTRA-LIGAND FREE ENERGY PREDICTED BY IDOCK:   -0.19 KCAL/MOL
REMARK 927      BINDING AFFINITY PREDICTED BY RF-SCORE:    0.00 PKD
ROOT
ATOM      1  N   PHE A   1      -9.612  10.122  66.472  1.00  0.00    -0.179 NA 
ATOM      2  CA  PHE A   1     -10.789  10.717  67.188  1.00  0.00    -0.277 C  
ATOM      3  H1  PHE A   1      -9.854   9.674  65.587  1.00  0.00     0.000 HD 
ATOM      4  H2  PHE A   1      -9.111   9.472  67.079  1.00  0.00     0.000 HD 
ATOM      5  C   PHE A   1     -11.449  11.730  66.238  1.00  0.00    -0.227 C  
ATOM      6  OXT PHE A   1     -12.200  12.634  66.567  1.00  0.00    -0.538 OA 
ATOM      7  O   PHE A   1     -11.113  11.469  64.946  1.00  0.00    -0.284 OA 
ENDROOT
BRANCH   2   8
ATOM      8  CB  PHE A   1     -10.424  11.392  68.520  1.00  0.00    -0.223 C  
BRANCH   8   9
ATOM      9  CG  PHE A   1     -11.064  10.724  69.714  1.00  0.00    -0.346 A  
ATOM     10  CD1 PHE A   1     -10.332   9.829  70.508  1.00  0.00    -0.348 A  
ATOM     11  CE1 PHE A   1     -10.937   9.185  71.588  1.00  0.00    -0.445 A  
ATOM     12  CZ  PHE A   1     -12.273   9.434  71.891  1.00  0.00    -0.440 A  
ATOM     13  CE2 PHE A   1     -13.007  10.327  71.116  1.00  0.00    -0.503 A  
ATOM     14  CD2 PHE A   1     -12.407  10.970  70.030  1.00  0.00    -0.377 A  
ENDBRANCH   8   9
ENDBRANCH   2   8
TORSDOF 2
ENDMDL
MODEL       83
REMARK 921   NORMALIZED FREE ENERGY PREDICTED BY IDOCK:   -3.74 KCAL/MOL
REMARK 922        TOTAL FREE ENERGY PREDICTED BY IDOCK:   -4.37 KCAL/MOL
REMARK 923 INTER-LIGAND FREE ENERGY PREDICTED BY IDOCK:   -4.22 KCAL/MOL
REMARK 924 INTRA-LIGAND FREE ENERGY PREDICTED BY IDOCK:   -0.15 KCAL/MOL
REMARK 927      BINDING AFFINITY PREDICTED BY RF-SCORE:    0.00 PKD
ROOT
ATOM      1  N   PHE A   1     -12.375  10.764  68.840  1.00  0.00    -0.786 NA 
ATOM      2  CA  PHE A   1     -10.962  10.548  68.382  1.00  0.00    -0.261 C  
ATOM      3  H1  PHE A   1     -12.772   9.963  69.332  1.00  0.00     0.000 HD 
ATOM      4  H2  PHE A   1     -12.970  11.037  68.058  1.00  0.00     0.000 HD 
ATOM      5  C   PHE A   1     -10.117  10.207  69.619  1.00  0.00    -0.234 C  
ATOM      6  OXT PHE A   1      -8.903  10.297  69.703  1.00  0.00    -0.175 OA 
ATOM      7  O   PHE A   1     -10.904   9.746  70.629  1.00  0.00    -0.285 OA 
ENDROOT
BRANCH   2   8
ATOM      8  CB  PHE A   1     -10.363  11.754  67.641  1.00  0.00    -0.219 C  
BRANCH   8   9
ATOM      9  CG  PHE A   1     -10.487  11.646  66.140  1.00  0.00    -0.289 A  
ATOM     10  CD1 PHE A   1     -11.453  12.393  65.448  1.00  0.00    -0.402 A  
ATOM     11  CE1 PHE A   1     -11.591  12.263  64.066  1.00  0.00    -0.495 A  
ATOM     12  CZ  PHE A   1     -10.762  11.394  63.360  1.00  0.00    -0.405 A  
ATOM     13  CE2 PHE A   1      -9.794  10.655  64.034  1.00  0.00    -0.399 A  
ATOM     14  CD2 PHE A   1      -9.657  10.777  65.418  1.00  0.00    -0.272 A  
ENDBRANCH   8   9
ENDBRANCH   2   8
TORSDOF 2
ENDMDL
MODEL       84
REMARK 921   NORMALIZED FREE ENERGY PREDICTED BY IDOCK:   -3.70 KCAL/MOL
REMARK 922        TOTAL FREE ENERGY PREDICTED BY IDOCK:   -4.34 KCAL/MOL
REMARK 923 INTER-LIGAND FREE ENERGY PREDICTED BY IDOCK:   -4.38 KCAL/MOL
REMARK 924 INTRA-LIGAND FREE ENERGY PREDICTED BY IDOCK:    0.05 KCAL/MOL
REMARK 927      BINDING AFFINITY PREDICTED BY RF-SCORE:    0.00 PKD
ROOT
ATOM      1  N   PHE A   1      -9.599  16.270  67.738  1.00  0.00    -0.223 NA 
ATOM      2  CA  PHE A   1     -10.614  17.057  66.962  1.00  0.00    -0.226 C  
ATOM      3  H1  PHE A   1      -9.820  15.276  67.811  1.00  0.00     0.000 HD 
ATOM      4  H2  PHE A   1      -9.458  16.676  68.663  1.00  0.00     0.000 HD 
ATOM      5  C   PHE A   1     -10.722  16.428  65.563  1.00  0.00    -0.287 C  
ATOM      6  OXT PHE A   1     -11.171  16.972  64.568  1.00  0.00    -1.091 OA 
ATOM      7  O   PHE A   1     -10.273  15.144  65.576  1.00  0.00    -0.322 OA 
ENDROOT
BRANCH   2   8
ATOM      8  CB  PHE A   1     -10.282  18.554  66.851  1.00  0.00    -0.411 C  
BRANCH   8   9
ATOM      9  CG  PHE A   1      -8.865  18.876  67.263  1.00  0.00    -0.297 A  
ATOM     10  CD1 PHE A   1      -7.816  18.793  66.335  1.00  0.00    -0.297 A  
ATOM     11  CE1 PHE A   1      -6.503  19.055  66.728  1.00  0.00    -0.198 A  
ATOM     12  CZ  PHE A   1      -6.225  19.410  68.046  1.00  0.00    -0.231 A  
ATOM     13  CE2 PHE A   1      -7.259  19.504  68.973  1.00  0.00    -0.397 A  
ATOM     14  CD2 PHE A   1      -8.574  19.236  68.586  1.00  0.00    -0.401 A  
ENDBRANCH   8   9
ENDBRANCH   2   8
TORSDOF 2
ENDMDL
MODEL       85
REMARK 921   NORMALIZED FREE ENERGY PREDICTED BY IDOCK:   -3.68 KCAL/MOL
REMARK 922        TOTAL FREE ENERGY PREDICTED BY IDOCK:   -4.31 KCAL/MOL
REMARK 923 INTER-LIGAND FREE ENERGY PREDICTED BY IDOCK:   -4.14 KCAL/MOL
REMARK 924 INTRA-LIGAND FREE ENERGY PREDICTED BY IDOCK:   -0.17 KCAL/MOL
REMARK 927      BINDING AFFINITY PREDICTED BY RF-SCORE:    0.00 PKD
ROOT
ATOM      1  N   PHE A   1      -8.861  10.528  68.218  1.00  0.00    -0.134 NA 
ATOM      2  CA  PHE A   1     -10.215  11.150  68.037  1.00  0.00    -0.181 C  
ATOM      3  H1  PHE A   1      -8.411  10.776  69.100  1.00  0.00     0.000 HD 
ATOM      4  H2  PHE A   1      -8.253  10.752  67.429  1.00  0.00     0.000 HD 
ATOM      5  C   PHE A   1     -11.090  10.716  69.224  1.00  0.00    -0.252 C  
ATOM      6  OXT PHE A   1     -12.309  10.736  69.257  1.00  0.00    -0.368 OA 
ATOM      7  O   PHE A   1     -10.319  10.328  70.275  1.00  0.00    -0.245 OA 
ENDROOT
BRANCH   2   8
ATOM      8  CB  PHE A   1     -10.893  10.778  66.708  1.00  0.00    -0.256 C  
BRANCH   8   9
ATOM      9  CG  PHE A   1     -11.385  11.981  65.939  1.00  0.00    -0.391 A  
ATOM     10  CD1 PHE A   1     -11.860  13.114  66.617  1.00  0.00    -0.449 A  
ATOM     11  CE1 PHE A   1     -12.350  14.209  65.904  1.00  0.00    -0.486 A  
ATOM     12  CZ  PHE A   1     -12.362  14.188  64.512  1.00  0.00    -0.419 A  
ATOM     13  CE2 PHE A   1     -11.885  13.073  63.829  1.00  0.00    -0.566 A  
ATOM     14  CD2 PHE A   1     -11.400  11.972  64.538  1.00  0.00    -0.393 A  
ENDBRANCH   8   9
ENDBRANCH   2   8
TORSDOF 2
ENDMDL
MODEL       86
REMARK 921   NORMALIZED FREE ENERGY PREDICTED BY IDOCK:   -3.66 KCAL/MOL
REMARK 922        TOTAL FREE ENERGY PREDICTED BY IDOCK:   -4.29 KCAL/MOL
REMARK 923 INTER-LIGAND FREE ENERGY PREDICTED BY IDOCK:   -4.13 KCAL/MOL
REMARK 924 INTRA-LIGAND FREE ENERGY PREDICTED BY IDOCK:   -0.16 KCAL/MOL
REMARK 927      BINDING AFFINITY PREDICTED BY RF-SCORE:    0.00 PKD
ROOT
ATOM      1  N   PHE A   1     -11.535   6.676  67.286  1.00  0.00    -0.749 NA 
ATOM      2  CA  PHE A   1     -10.437   6.046  68.093  1.00  0.00    -0.236 C  
ATOM      3  H1  PHE A   1     -11.273   6.867  66.318  1.00  0.00     0.000 HD 
ATOM      4  H2  PHE A   1     -11.876   7.522  67.741  1.00  0.00     0.000 HD 
ATOM      5  C   PHE A   1     -10.022   4.747  67.383  1.00  0.00    -0.159 C  
ATOM      6  OXT PHE A   1      -9.421   3.816  67.892  1.00  0.00    -0.176 OA 
ATOM      7  O   PHE A   1     -10.386   4.777  66.072  1.00  0.00    -0.262 OA 
ENDROOT
BRANCH   2   8
ATOM      8  CB  PHE A   1     -10.830   5.757  69.550  1.00  0.00    -0.410 C  
BRANCH   8   9
ATOM      9  CG  PHE A   1     -11.205   7.002  70.319  1.00  0.00    -0.339 A  
ATOM     10  CD1 PHE A   1     -10.319   8.088  70.393  1.00  0.00    -0.206 A  
ATOM     11  CE1 PHE A   1     -10.652   9.222  71.134  1.00  0.00    -0.402 A  
ATOM     12  CZ  PHE A   1     -11.872   9.287  71.802  1.00  0.00    -0.454 A  
ATOM     13  CE2 PHE A   1     -12.763   8.220  71.728  1.00  0.00    -0.364 A  
ATOM     14  CD2 PHE A   1     -12.431   7.080  70.992  1.00  0.00    -0.373 A  
ENDBRANCH   8   9
ENDBRANCH   2   8
TORSDOF 2
ENDMDL
MODEL       87
REMARK 921   NORMALIZED FREE ENERGY PREDICTED BY IDOCK:   -3.66 KCAL/MOL
REMARK 922        TOTAL FREE ENERGY PREDICTED BY IDOCK:   -4.29 KCAL/MOL
REMARK 923 INTER-LIGAND FREE ENERGY PREDICTED BY IDOCK:   -4.17 KCAL/MOL
REMARK 924 INTRA-LIGAND FREE ENERGY PREDICTED BY IDOCK:   -0.12 KCAL/MOL
REMARK 927      BINDING AFFINITY PREDICTED BY RF-SCORE:    0.00 PKD
ROOT
ATOM      1  N   PHE A   1     -12.117  10.780  68.557  1.00  0.00    -0.826 NA 
ATOM      2  CA  PHE A   1     -11.800  11.826  69.586  1.00  0.00    -0.339 C  
ATOM      3  H1  PHE A   1     -11.885   9.832  68.853  1.00  0.00     0.000 HD 
ATOM      4  H2  PHE A   1     -11.666  11.001  67.669  1.00  0.00     0.000 HD 
ATOM      5  C   PHE A   1     -12.564  11.464  70.870  1.00  0.00    -0.356 C  
ATOM      6  OXT PHE A   1     -12.825  12.227  71.785  1.00  0.00    -0.331 OA 
ATOM      7  O   PHE A   1     -12.894  10.144  70.879  1.00  0.00    -0.350 OA 
ENDROOT
BRANCH   2   8
ATOM      8  CB  PHE A   1     -12.150  13.255  69.141  1.00  0.00    -0.283 C  
BRANCH   8   9
ATOM      9  CG  PHE A   1     -11.124  13.850  68.206  1.00  0.00    -0.280 A  
ATOM     10  CD1 PHE A   1      -9.998  14.516  68.713  1.00  0.00    -0.232 A  
ATOM     11  CE1 PHE A   1      -9.071  15.096  67.846  1.00  0.00    -0.179 A  
ATOM     12  CZ  PHE A   1      -9.253  15.011  66.468  1.00  0.00    -0.320 A  
ATOM     13  CE2 PHE A   1     -10.361  14.345  65.954  1.00  0.00    -0.327 A  
ATOM     14  CD2 PHE A   1     -11.295  13.767  66.817  1.00  0.00    -0.345 A  
ENDBRANCH   8   9
ENDBRANCH   2   8
TORSDOF 2
ENDMDL
MODEL       88
REMARK 921   NORMALIZED FREE ENERGY PREDICTED BY IDOCK:   -3.64 KCAL/MOL
REMARK 922        TOTAL FREE ENERGY PREDICTED BY IDOCK:   -4.26 KCAL/MOL
REMARK 923 INTER-LIGAND FREE ENERGY PREDICTED BY IDOCK:   -4.28 KCAL/MOL
REMARK 924 INTRA-LIGAND FREE ENERGY PREDICTED BY IDOCK:    0.02 KCAL/MOL
REMARK 927      BINDING AFFINITY PREDICTED BY RF-SCORE:    0.00 PKD
ROOT
ATOM      1  N   PHE A   1      -9.457  17.671  65.835  1.00  0.00    -0.522 NA 
ATOM      2  CA  PHE A   1      -8.380  16.945  66.585  1.00  0.00    -0.253 C  
ATOM      3  H1  PHE A   1      -9.385  18.687  65.895  1.00  0.00     0.000 HD 
ATOM      4  H2  PHE A   1     -10.381  17.358  66.136  1.00  0.00     0.000 HD 
ATOM      5  C   PHE A   1      -7.026  17.418  66.033  1.00  0.00    -0.211 C  
ATOM      6  OXT PHE A   1      -5.963  16.830  66.145  1.00  0.00    -0.165 OA 
ATOM      7  O   PHE A   1      -7.152  18.624  65.415  1.00  0.00    -0.517 OA 
ENDROOT
BRANCH   2   8
ATOM      8  CB  PHE A   1      -8.489  15.414  66.494  1.00  0.00    -0.248 C  
BRANCH   8   9
ATOM      9  CG  PHE A   1      -9.896  14.937  66.224  1.00  0.00    -0.315 A  
ATOM     10  CD1 PHE A   1     -10.806  14.767  67.279  1.00  0.00    -0.309 A  
ATOM     11  CE1 PHE A   1     -12.094  14.291  67.031  1.00  0.00    -0.424 A  
ATOM     12  CZ  PHE A   1     -12.489  13.988  65.730  1.00  0.00    -0.523 A  
ATOM     13  CE2 PHE A   1     -11.598  14.162  64.675  1.00  0.00    -0.414 A  
ATOM     14  CD2 PHE A   1     -10.305  14.632  64.919  1.00  0.00    -0.382 A  
ENDBRANCH   8   9
ENDBRANCH   2   8
TORSDOF 2
ENDMDL
MODEL       89
REMARK 921   NORMALIZED FREE ENERGY PREDICTED BY IDOCK:   -3.63 KCAL/MOL
REMARK 922        TOTAL FREE ENERGY PREDICTED BY IDOCK:   -4.26 KCAL/MOL
REMARK 923 INTER-LIGAND FREE ENERGY PREDICTED BY IDOCK:   -4.10 KCAL/MOL
REMARK 924 INTRA-LIGAND FREE ENERGY PREDICTED BY IDOCK:   -0.16 KCAL/MOL
REMARK 927      BINDING AFFINITY PREDICTED BY RF-SCORE:    0.00 PKD
ROOT
ATOM      1  N   PHE A   1      -8.963  11.953  68.952  1.00  0.00    -0.383 NA 
ATOM      2  CA  PHE A   1     -10.092  11.452  68.100  1.00  0.00    -0.189 C  
ATOM      3  H1  PHE A   1      -8.129  11.367  68.913  1.00  0.00     0.000 HD 
ATOM      4  H2  PHE A   1      -9.269  12.080  69.917  1.00  0.00     0.000 HD 
ATOM      5  C   PHE A   1      -9.578  11.350  66.655  1.00  0.00    -0.191 C  
ATOM      6  OXT PHE A   1     -10.269  11.309  65.652  1.00  0.00    -0.235 OA 
ATOM      7  O   PHE A   1      -8.219  11.274  66.632  1.00  0.00    -0.155 OA 
ENDROOT
BRANCH   2   8
ATOM      8  CB  PHE A   1     -11.349  12.335  68.159  1.00  0.00    -0.349 C  
BRANCH   8   9
ATOM      9  CG  PHE A   1     -12.006  12.338  69.519  1.00  0.00    -0.333 A  
ATOM     10  CD1 PHE A   1     -12.327  13.547  70.154  1.00  0.00    -0.345 A  
ATOM     11  CE1 PHE A   1     -12.898  13.548  71.426  1.00  0.00    -0.440 A  
ATOM     12  CZ  PHE A   1     -13.163  12.344  72.074  1.00  0.00    -0.514 A  
ATOM     13  CE2 PHE A   1     -12.857  11.137  71.451  1.00  0.00    -0.544 A  
ATOM     14  CD2 PHE A   1     -12.279  11.132  70.179  1.00  0.00    -0.417 A  
ENDBRANCH   8   9
ENDBRANCH   2   8
TORSDOF 2
ENDMDL
MODEL       90
REMARK 921   NORMALIZED FREE ENERGY PREDICTED BY IDOCK:   -3.61 KCAL/MOL
REMARK 922        TOTAL FREE ENERGY PREDICTED BY IDOCK:   -4.24 KCAL/MOL
REMARK 923 INTER-LIGAND FREE ENERGY PREDICTED BY IDOCK:   -4.27 KCAL/MOL
REMARK 924 INTRA-LIGAND FREE ENERGY PREDICTED BY IDOCK:    0.03 KCAL/MOL
REMARK 927      BINDING AFFINITY PREDICTED BY RF-SCORE:    0.00 PKD
ROOT
ATOM      1  N   PHE A   1     -11.991   7.071  70.152  1.00  0.00    -0.614 NA 
ATOM      2  CA  PHE A   1     -11.955   7.755  71.488  1.00  0.00    -0.300 C  
ATOM      3  H1  PHE A   1     -12.644   6.288  70.111  1.00  0.00     0.000 HD 
ATOM      4  H2  PHE A   1     -11.055   6.774  69.875  1.00  0.00     0.000 HD 
ATOM      5  C   PHE A   1     -13.382   8.230  71.807  1.00  0.00    -0.352 C  
ATOM      6  OXT PHE A   1     -13.683   9.095  72.612  1.00  0.00    -0.470 OA 
ATOM      7  O   PHE A   1     -14.297   7.527  71.086  1.00  0.00    -0.370 OA 
ENDROOT
BRANCH   2   8
ATOM      8  CB  PHE A   1     -10.972   8.935  71.551  1.00  0.00    -0.398 C  
BRANCH   8   9
ATOM      9  CG  PHE A   1     -10.944   9.749  70.279  1.00  0.00    -0.352 A  
ATOM     10  CD1 PHE A   1      -9.854   9.662  69.400  1.00  0.00    -0.203 A  
ATOM     11  CE1 PHE A   1      -9.814  10.443  68.245  1.00  0.00    -0.169 A  
ATOM     12  CZ  PHE A   1     -10.862  11.311  67.951  1.00  0.00    -0.278 A  
ATOM     13  CE2 PHE A   1     -11.953  11.400  68.812  1.00  0.00    -0.353 A  
ATOM     14  CD2 PHE A   1     -11.995  10.624  69.973  1.00  0.00    -0.408 A  
ENDBRANCH   8   9
ENDBRANCH   2   8
TORSDOF 2
ENDMDL
MODEL       91
REMARK 921   NORMALIZED FREE ENERGY PREDICTED BY IDOCK:   -3.60 KCAL/MOL
REMARK 922        TOTAL FREE ENERGY PREDICTED BY IDOCK:   -4.22 KCAL/MOL
REMARK 923 INTER-LIGAND FREE ENERGY PREDICTED BY IDOCK:   -4.03 KCAL/MOL
REMARK 924 INTRA-LIGAND FREE ENERGY PREDICTED BY IDOCK:   -0.19 KCAL/MOL
REMARK 927      BINDING AFFINITY PREDICTED BY RF-SCORE:    0.00 PKD
ROOT
ATOM      1  N   PHE A   1     -10.795  19.275  67.148  1.00  0.00    -0.477 NA 
ATOM      2  CA  PHE A   1      -9.974  18.241  67.861  1.00  0.00    -0.345 C  
ATOM      3  H1  PHE A   1     -10.672  20.219  67.514  1.00  0.00     0.000 HD 
ATOM      4  H2  PHE A   1     -11.782  19.015  67.148  1.00  0.00     0.000 HD 
ATOM      5  C   PHE A   1      -8.500  18.665  67.762  1.00  0.00    -0.275 C  
ATOM      6  OXT PHE A   1      -7.535  17.935  67.915  1.00  0.00    -0.208 OA 
ATOM      7  O   PHE A   1      -8.398  19.997  67.507  1.00  0.00    -0.316 OA 
ENDROOT
BRANCH   2   8
ATOM      8  CB  PHE A   1     -10.160  16.817  67.310  1.00  0.00    -0.281 C  
BRANCH   8   9
ATOM      9  CG  PHE A   1     -10.899  15.908  68.262  1.00  0.00    -0.315 A  
ATOM     10  CD1 PHE A   1     -11.029  16.247  69.617  1.00  0.00    -0.346 A  
ATOM     11  CE1 PHE A   1     -11.680  15.388  70.502  1.00  0.00    -0.356 A  
ATOM     12  CZ  PHE A   1     -12.215  14.186  70.043  1.00  0.00    -0.418 A  
ATOM     13  CE2 PHE A   1     -12.100  13.843  68.699  1.00  0.00    -0.337 A  
ATOM     14  CD2 PHE A   1     -11.444  14.698  67.811  1.00  0.00    -0.359 A  
ENDBRANCH   8   9
ENDBRANCH   2   8
TORSDOF 2
ENDMDL
MODEL       92
REMARK 921   NORMALIZED FREE ENERGY PREDICTED BY IDOCK:   -3.60 KCAL/MOL
REMARK 922        TOTAL FREE ENERGY PREDICTED BY IDOCK:   -4.22 KCAL/MOL
REMARK 923 INTER-LIGAND FREE ENERGY PREDICTED BY IDOCK:   -4.20 KCAL/MOL
REMARK 924 INTRA-LIGAND FREE ENERGY PREDICTED BY IDOCK:   -0.01 KCAL/MOL
REMARK 927      BINDING AFFINITY PREDICTED BY RF-SCORE:    0.00 PKD
ROOT
ATOM      1  N   PHE A   1      -9.263  17.281  68.117  1.00  0.00    -0.260 NA 
ATOM      2  CA  PHE A   1      -9.177  17.293  66.618  1.00  0.00    -0.257 C  
ATOM      3  H1  PHE A   1      -9.279  18.213  68.533  1.00  0.00     0.000 HD 
ATOM      4  H2  PHE A   1      -8.511  16.720  68.517  1.00  0.00     0.000 HD 
ATOM      5  C   PHE A   1     -10.375  18.097  66.088  1.00  0.00    -0.385 C  
ATOM      6  OXT PHE A   1     -10.825  18.045  64.955  1.00  0.00    -0.738 OA 
ATOM      7  O   PHE A   1     -10.865  18.924  67.051  1.00  0.00    -0.427 OA 
ENDROOT
BRANCH   2   8
ATOM      8  CB  PHE A   1      -9.154  15.890  65.990  1.00  0.00    -0.363 C  
BRANCH   8   9
ATOM      9  CG  PHE A   1      -9.976  14.885  66.761  1.00  0.00    -0.252 A  
ATOM     10  CD1 PHE A   1      -9.367  14.027  67.689  1.00  0.00    -0.203 A  
ATOM     11  CE1 PHE A   1     -10.123  13.074  68.372  1.00  0.00    -0.225 A  
ATOM     12  CZ  PHE A   1     -11.493  12.973  68.143  1.00  0.00    -0.356 A  
ATOM     13  CE2 PHE A   1     -12.110  13.825  67.231  1.00  0.00    -0.393 A  
ATOM     14  CD2 PHE A   1     -11.356  14.776  66.540  1.00  0.00    -0.344 A  
ENDBRANCH   8   9
ENDBRANCH   2   8
TORSDOF 2
ENDMDL
MODEL       93
REMARK 921   NORMALIZED FREE ENERGY PREDICTED BY IDOCK:   -3.59 KCAL/MOL
REMARK 922        TOTAL FREE ENERGY PREDICTED BY IDOCK:   -4.21 KCAL/MOL
REMARK 923 INTER-LIGAND FREE ENERGY PREDICTED BY IDOCK:   -4.02 KCAL/MOL
REMARK 924 INTRA-LIGAND FREE ENERGY PREDICTED BY IDOCK:   -0.18 KCAL/MOL
REMARK 927      BINDING AFFINITY PREDICTED BY RF-SCORE:    0.00 PKD
ROOT
ATOM      1  N   PHE A   1     -10.998  13.267  69.111  1.00  0.00    -0.404 NA 
ATOM      2  CA  PHE A   1     -11.231  14.707  69.465  1.00  0.00    -0.269 C  
ATOM      3  H1  PHE A   1     -10.822  12.670  69.919  1.00  0.00     0.000 HD 
ATOM      4  H2  PHE A   1     -10.244  13.181  68.429  1.00  0.00     0.000 HD 
ATOM      5  C   PHE A   1     -12.419  14.762  70.439  1.00  0.00    -0.349 C  
ATOM      6  OXT PHE A   1     -13.103  15.743  70.677  1.00  0.00    -0.497 OA 
ATOM      7  O   PHE A   1     -12.600  13.558  71.046  1.00  0.00    -0.353 OA 
ENDROOT
BRANCH   2   8
ATOM      8  CB  PHE A   1     -11.496  15.607  68.247  1.00  0.00    -0.353 C  
BRANCH   8   9
ATOM      9  CG  PHE A   1     -10.399  16.618  68.011  1.00  0.00    -0.303 A  
ATOM     10  CD1 PHE A   1      -9.355  16.341  67.115  1.00  0.00    -0.232 A  
ATOM     11  CE1 PHE A   1      -8.324  17.261  66.927  1.00  0.00    -0.253 A  
ATOM     12  CZ  PHE A   1      -8.327  18.467  67.622  1.00  0.00    -0.268 A  
ATOM     13  CE2 PHE A   1      -9.362  18.757  68.507  1.00  0.00    -0.390 A  
ATOM     14  CD2 PHE A   1     -10.394  17.836  68.703  1.00  0.00    -0.351 A  
ENDBRANCH   8   9
ENDBRANCH   2   8
TORSDOF 2
ENDMDL
MODEL       94
REMARK 921   NORMALIZED FREE ENERGY PREDICTED BY IDOCK:   -3.57 KCAL/MOL
REMARK 922        TOTAL FREE ENERGY PREDICTED BY IDOCK:   -4.19 KCAL/MOL
REMARK 923 INTER-LIGAND FREE ENERGY PREDICTED BY IDOCK:   -3.99 KCAL/MOL
REMARK 924 INTRA-LIGAND FREE ENERGY PREDICTED BY IDOCK:   -0.20 KCAL/MOL
REMARK 927      BINDING AFFINITY PREDICTED BY RF-SCORE:    0.00 PKD
ROOT
ATOM      1  N   PHE A   1      -6.838  10.801  65.312  1.00  0.00    -0.360 NA 
ATOM      2  CA  PHE A   1      -8.210  10.446  65.805  1.00  0.00    -0.156 C  
ATOM      3  H1  PHE A   1      -6.161  10.952  66.060  1.00  0.00     0.000 HD 
ATOM      4  H2  PHE A   1      -6.876  11.610  64.691  1.00  0.00     0.000 HD 
ATOM      5  C   PHE A   1      -8.082   9.184  66.675  1.00  0.00    -0.111 C  
ATOM      6  OXT PHE A   1      -8.988   8.420  66.963  1.00  0.00    -0.136 OA 
ATOM      7  O   PHE A   1      -6.807   9.037  67.124  1.00  0.00    -0.072 OA 
ENDROOT
BRANCH   2   8
ATOM      8  CB  PHE A   1      -9.231  10.218  64.679  1.00  0.00    -0.290 C  
BRANCH   8   9
ATOM      9  CG  PHE A   1     -10.413  11.155  64.754  1.00  0.00    -0.388 A  
ATOM     10  CD1 PHE A   1     -11.125  11.500  63.595  1.00  0.00    -0.469 A  
ATOM     11  CE1 PHE A   1     -12.192  12.396  63.662  1.00  0.00    -0.653 A  
ATOM     12  CZ  PHE A   1     -12.565  12.949  64.885  1.00  0.00    -0.525 A  
ATOM     13  CE2 PHE A   1     -11.872  12.607  66.043  1.00  0.00    -0.492 A  
ATOM     14  CD2 PHE A   1     -10.799  11.715  65.980  1.00  0.00    -0.339 A  
ENDBRANCH   8   9
ENDBRANCH   2   8
TORSDOF 2
ENDMDL
MODEL       95
REMARK 921   NORMALIZED FREE ENERGY PREDICTED BY IDOCK:   -3.56 KCAL/MOL
REMARK 922        TOTAL FREE ENERGY PREDICTED BY IDOCK:   -4.17 KCAL/MOL
REMARK 923 INTER-LIGAND FREE ENERGY PREDICTED BY IDOCK:   -4.22 KCAL/MOL
REMARK 924 INTRA-LIGAND FREE ENERGY PREDICTED BY IDOCK:    0.05 KCAL/MOL
REMARK 927      BINDING AFFINITY PREDICTED BY RF-SCORE:    0.00 PKD
ROOT
ATOM      1  N   PHE A   1      -9.894   9.293  69.912  1.00  0.00    -0.187 NA 
ATOM      2  CA  PHE A   1     -10.807   9.663  71.044  1.00  0.00    -0.342 C  
ATOM      3  H1  PHE A   1      -9.010   8.886  70.215  1.00  0.00     0.000 HD 
ATOM      4  H2  PHE A   1      -9.732  10.096  69.304  1.00  0.00     0.000 HD 
ATOM      5  C   PHE A   1     -11.059   8.393  71.874  1.00  0.00    -0.308 C  
ATOM      6  OXT PHE A   1     -11.986   8.217  72.648  1.00  0.00    -0.399 OA 
ATOM      7  O   PHE A   1     -10.077   7.476  71.662  1.00  0.00    -0.180 OA 
ENDROOT
BRANCH   2   8
ATOM      8  CB  PHE A   1     -12.141  10.276  70.588  1.00  0.00    -0.433 C  
BRANCH   8   9
ATOM      9  CG  PHE A   1     -11.964  11.548  69.794  1.00  0.00    -0.415 A  
ATOM     10  CD1 PHE A   1     -12.048  12.800  70.423  1.00  0.00    -0.382 A  
ATOM     11  CE1 PHE A   1     -11.921  13.974  69.681  1.00  0.00    -0.393 A  
ATOM     12  CZ  PHE A   1     -11.702  13.912  68.307  1.00  0.00    -0.396 A  
ATOM     13  CE2 PHE A   1     -11.607  12.677  67.673  1.00  0.00    -0.414 A  
ATOM     14  CD2 PHE A   1     -11.740  11.498  68.411  1.00  0.00    -0.372 A  
ENDBRANCH   8   9
ENDBRANCH   2   8
TORSDOF 2
ENDMDL
MODEL       96
REMARK 921   NORMALIZED FREE ENERGY PREDICTED BY IDOCK:   -3.55 KCAL/MOL
REMARK 922        TOTAL FREE ENERGY PREDICTED BY IDOCK:   -4.17 KCAL/MOL
REMARK 923 INTER-LIGAND FREE ENERGY PREDICTED BY IDOCK:   -4.14 KCAL/MOL
REMARK 924 INTRA-LIGAND FREE ENERGY PREDICTED BY IDOCK:   -0.03 KCAL/MOL
REMARK 927      BINDING AFFINITY PREDICTED BY RF-SCORE:    0.00 PKD
ROOT
ATOM      1  N   PHE A   1      -9.361  13.593  68.939  1.00  0.00    -0.398 NA 
ATOM      2  CA  PHE A   1     -10.342  14.360  68.102  1.00  0.00    -0.231 C  
ATOM      3  H1  PHE A   1      -8.426  14.002  68.953  1.00  0.00     0.000 HD 
ATOM      4  H2  PHE A   1      -9.322  12.616  68.645  1.00  0.00     0.000 HD 
ATOM      5  C   PHE A   1     -10.395  15.797  68.644  1.00  0.00    -0.225 C  
ATOM      6  OXT PHE A   1     -11.294  16.600  68.453  1.00  0.00    -0.321 OA 
ATOM      7  O   PHE A   1      -9.271  16.086  69.355  1.00  0.00    -0.251 OA 
ENDROOT
BRANCH   2   8
ATOM      8  CB  PHE A   1     -11.750  13.743  68.081  1.00  0.00    -0.392 C  
BRANCH   8   9
ATOM      9  CG  PHE A   1     -12.111  13.051  69.373  1.00  0.00    -0.267 A  
ATOM     10  CD1 PHE A   1     -12.031  11.654  69.480  1.00  0.00    -0.383 A  
ATOM     11  CE1 PHE A   1     -12.400  11.014  70.663  1.00  0.00    -0.480 A  
ATOM     12  CZ  PHE A   1     -12.844  11.760  71.752  1.00  0.00    -0.403 A  
ATOM     13  CE2 PHE A   1     -12.919  13.147  71.661  1.00  0.00    -0.429 A  
ATOM     14  CD2 PHE A   1     -12.556  13.792  70.476  1.00  0.00    -0.361 A  
ENDBRANCH   8   9
ENDBRANCH   2   8
TORSDOF 2
ENDMDL
MODEL       97
REMARK 921   NORMALIZED FREE ENERGY PREDICTED BY IDOCK:   -3.55 KCAL/MOL
REMARK 922        TOTAL FREE ENERGY PREDICTED BY IDOCK:   -4.16 KCAL/MOL
REMARK 923 INTER-LIGAND FREE ENERGY PREDICTED BY IDOCK:   -3.97 KCAL/MOL
REMARK 924 INTRA-LIGAND FREE ENERGY PREDICTED BY IDOCK:   -0.19 KCAL/MOL
REMARK 927      BINDING AFFINITY PREDICTED BY RF-SCORE:    0.00 PKD
ROOT
ATOM      1  N   PHE A   1     -11.371   6.144  70.679  1.00  0.00    -0.324 NA 
ATOM      2  CA  PHE A   1     -10.895   7.334  71.460  1.00  0.00    -0.224 C  
ATOM      3  H1  PHE A   1     -10.616   5.535  70.361  1.00  0.00     0.000 HD 
ATOM      4  H2  PHE A   1     -11.952   6.437  69.893  1.00  0.00     0.000 HD 
ATOM      5  C   PHE A   1     -10.086   6.813  72.659  1.00  0.00    -0.174 C  
ATOM      6  OXT PHE A   1      -9.835   7.437  73.676  1.00  0.00    -0.280 OA 
ATOM      7  O   PHE A   1      -9.644   5.547  72.428  1.00  0.00    -0.150 OA 
ENDROOT
BRANCH   2   8
ATOM      8  CB  PHE A   1     -12.031   8.252  71.939  1.00  0.00    -0.383 C  
BRANCH   8   9
ATOM      9  CG  PHE A   1     -12.011   9.610  71.280  1.00  0.00    -0.462 A  
ATOM     10  CD1 PHE A   1     -11.093   9.893  70.256  1.00  0.00    -0.368 A  
ATOM     11  CE1 PHE A   1     -11.051  11.160  69.674  1.00  0.00    -0.297 A  
ATOM     12  CZ  PHE A   1     -11.928  12.154  70.101  1.00  0.00    -0.394 A  
ATOM     13  CE2 PHE A   1     -12.849  11.883  71.109  1.00  0.00    -0.346 A  
ATOM     14  CD2 PHE A   1     -12.890  10.618  71.699  1.00  0.00    -0.570 A  
ENDBRANCH   8   9
ENDBRANCH   2   8
TORSDOF 2
ENDMDL
MODEL       98
REMARK 921   NORMALIZED FREE ENERGY PREDICTED BY IDOCK:   -3.52 KCAL/MOL
REMARK 922        TOTAL FREE ENERGY PREDICTED BY IDOCK:   -4.13 KCAL/MOL
REMARK 923 INTER-LIGAND FREE ENERGY PREDICTED BY IDOCK:   -3.95 KCAL/MOL
REMARK 924 INTRA-LIGAND FREE ENERGY PREDICTED BY IDOCK:   -0.19 KCAL/MOL
REMARK 927      BINDING AFFINITY PREDICTED BY RF-SCORE:    0.00 PKD
ROOT
ATOM      1  N   PHE A   1      -8.477   9.373  69.728  1.00  0.00    -0.147 NA 
ATOM      2  CA  PHE A   1      -9.406   9.053  70.863  1.00  0.00    -0.264 C  
ATOM      3  H1  PHE A   1      -7.818  10.123  69.938  1.00  0.00     0.000 HD 
ATOM      4  H2  PHE A   1      -9.004   9.584  68.880  1.00  0.00     0.000 HD 
ATOM      5  C   PHE A   1      -8.545   8.683  72.081  1.00  0.00    -0.120 C  
ATOM      6  OXT PHE A   1      -8.920   8.054  73.057  1.00  0.00    -0.195 OA 
ATOM      7  O   PHE A   1      -7.287   9.184  71.952  1.00  0.00    -0.334 OA 
ENDROOT
BRANCH   2   8
ATOM      8  CB  PHE A   1     -10.400   7.924  70.547  1.00  0.00    -0.205 C  
BRANCH   8   9
ATOM      9  CG  PHE A   1     -11.774   8.169  71.123  1.00  0.00    -0.309 A  
ATOM     10  CD1 PHE A   1     -12.711   7.127  71.202  1.00  0.00    -0.363 A  
ATOM     11  CE1 PHE A   1     -13.992   7.364  71.700  1.00  0.00    -0.523 A  
ATOM     12  CZ  PHE A   1     -14.349   8.639  72.131  1.00  0.00    -0.518 A  
ATOM     13  CE2 PHE A   1     -13.425   9.679  72.067  1.00  0.00    -0.514 A  
ATOM     14  CD2 PHE A   1     -12.143   9.447  71.563  1.00  0.00    -0.456 A  
ENDBRANCH   8   9
ENDBRANCH   2   8
TORSDOF 2
ENDMDL
MODEL       99
REMARK 921   NORMALIZED FREE ENERGY PREDICTED BY IDOCK:   -3.51 KCAL/MOL
REMARK 922        TOTAL FREE ENERGY PREDICTED BY IDOCK:   -4.13 KCAL/MOL
REMARK 923 INTER-LIGAND FREE ENERGY PREDICTED BY IDOCK:   -4.02 KCAL/MOL
REMARK 924 INTRA-LIGAND FREE ENERGY PREDICTED BY IDOCK:   -0.10 KCAL/MOL
REMARK 927      BINDING AFFINITY PREDICTED BY RF-SCORE:    0.00 PKD
ROOT
ATOM      1  N   PHE A   1     -12.227   8.630  70.502  1.00  0.00    -0.472 NA 
ATOM      2  CA  PHE A   1     -11.958  10.050  70.906  1.00  0.00    -0.361 C  
ATOM      3  H1  PHE A   1     -12.316   7.990  71.291  1.00  0.00     0.000 HD 
ATOM      4  H2  PHE A   1     -11.516   8.301  69.848  1.00  0.00     0.000 HD 
ATOM      5  C   PHE A   1     -13.101  10.497  71.832  1.00  0.00    -0.462 C  
ATOM      6  OXT PHE A   1     -13.408  11.651  72.082  1.00  0.00    -0.491 OA 
ATOM      7  O   PHE A   1     -13.725   9.420  72.380  1.00  0.00    -0.454 OA 
ENDROOT
BRANCH   2   8
ATOM      8  CB  PHE A   1     -11.824  11.016  69.717  1.00  0.00    -0.421 C  
BRANCH   8   9
ATOM      9  CG  PHE A   1     -10.784  10.577  68.714  1.00  0.00    -0.249 A  
ATOM     10  CD1 PHE A   1      -9.493  10.222  69.135  1.00  0.00    -0.225 A  
ATOM     11  CE1 PHE A   1      -8.523   9.853  68.202  1.00  0.00    -0.114 A  
ATOM     12  CZ  PHE A   1      -8.832   9.826  66.845  1.00  0.00    -0.150 A  
ATOM     13  CE2 PHE A   1     -10.112  10.167  66.417  1.00  0.00    -0.300 A  
ATOM     14  CD2 PHE A   1     -11.085  10.543  67.346  1.00  0.00    -0.322 A  
ENDBRANCH   8   9
ENDBRANCH   2   8
TORSDOF 2
ENDMDL
MODEL      100
REMARK 921   NORMALIZED FREE ENERGY PREDICTED BY IDOCK:   -3.48 KCAL/MOL
REMARK 922        TOTAL FREE ENERGY PREDICTED BY IDOCK:   -4.08 KCAL/MOL
REMARK 923 INTER-LIGAND FREE ENERGY PREDICTED BY IDOCK:   -3.90 KCAL/MOL
REMARK 924 INTRA-LIGAND FREE ENERGY PREDICTED BY IDOCK:   -0.19 KCAL/MOL
REMARK 927      BINDING AFFINITY PREDICTED BY RF-SCORE:    0.00 PKD
ROOT
ATOM      1  N   PHE A   1      -9.170   5.440  70.499  1.00  0.00    -0.144 NA 
ATOM      2  CA  PHE A   1     -10.106   6.201  71.391  1.00  0.00    -0.194 C  
ATOM      3  H1  PHE A   1      -8.245   5.295  70.903  1.00  0.00     0.000 HD 
ATOM      4  H2  PHE A   1      -9.098   5.889  69.585  1.00  0.00     0.000 HD 
ATOM      5  C   PHE A   1     -10.215   5.432  72.718  1.00  0.00    -0.187 C  
ATOM      6  OXT PHE A   1     -11.111   5.546  73.538  1.00  0.00    -0.276 OA 
ATOM      7  O   PHE A   1      -9.145   4.610  72.888  1.00  0.00    -0.120 OA 
ENDROOT
BRANCH   2   8
ATOM      8  CB  PHE A   1     -11.500   6.419  70.783  1.00  0.00    -0.415 C  
BRANCH   8   9
ATOM      9  CG  PHE A   1     -12.093   7.764  71.131  1.00  0.00    -0.306 A  
ATOM     10  CD1 PHE A   1     -11.393   8.946  70.848  1.00  0.00    -0.336 A  
ATOM     11  CE1 PHE A   1     -11.926  10.185  71.205  1.00  0.00    -0.480 A  
ATOM     12  CZ  PHE A   1     -13.164  10.258  71.838  1.00  0.00    -0.550 A  
ATOM     13  CE2 PHE A   1     -13.872   9.092  72.115  1.00  0.00    -0.526 A  
ATOM     14  CD2 PHE A   1     -13.339   7.848  71.766  1.00  0.00    -0.364 A  
ENDBRANCH   8   9
ENDBRANCH   2   8
TORSDOF 2
ENDMDL
MODEL      101
REMARK 921   NORMALIZED FREE ENERGY PREDICTED BY IDOCK:   -3.47 KCAL/MOL
REMARK 922        TOTAL FREE ENERGY PREDICTED BY IDOCK:   -4.08 KCAL/MOL
REMARK 923 INTER-LIGAND FREE ENERGY PREDICTED BY IDOCK:   -3.96 KCAL/MOL
REMARK 924 INTRA-LIGAND FREE ENERGY PREDICTED BY IDOCK:   -0.11 KCAL/MOL
REMARK 927      BINDING AFFINITY PREDICTED BY RF-SCORE:    0.00 PKD
ROOT
ATOM      1  N   PHE A   1      -9.344  11.150  69.207  1.00  0.00    -0.404 NA 
ATOM      2  CA  PHE A   1      -9.580  11.816  67.883  1.00  0.00    -0.187 C  
ATOM      3  H1  PHE A   1      -8.361  10.953  69.397  1.00  0.00     0.000 HD 
ATOM      4  H2  PHE A   1      -9.903  10.300  69.288  1.00  0.00     0.000 HD 
ATOM      5  C   PHE A   1      -8.760  13.116  67.862  1.00  0.00    -0.192 C  
ATOM      6  OXT PHE A   1      -8.949  14.068  67.123  1.00  0.00    -0.212 OA 
ATOM      7  O   PHE A   1      -7.747  13.062  68.769  1.00  0.00    -0.094 OA 
ENDROOT
BRANCH   2   8
ATOM      8  CB  PHE A   1     -11.061  12.113  67.597  1.00  0.00    -0.320 C  
BRANCH   8   9
ATOM      9  CG  PHE A   1     -11.375  12.180  66.121  1.00  0.00    -0.414 A  
ATOM     10  CD1 PHE A   1     -10.709  11.343  65.212  1.00  0.00    -0.326 A  
ATOM     11  CE1 PHE A   1     -10.974  11.433  63.845  1.00  0.00    -0.442 A  
ATOM     12  CZ  PHE A   1     -11.909  12.350  63.373  1.00  0.00    -0.571 A  
ATOM     13  CE2 PHE A   1     -12.582  13.179  64.266  1.00  0.00    -0.282 A  
ATOM     14  CD2 PHE A   1     -12.316  13.097  65.635  1.00  0.00    -0.519 A  
ENDBRANCH   8   9
ENDBRANCH   2   8
TORSDOF 2
ENDMDL
MODEL      102
REMARK 921   NORMALIZED FREE ENERGY PREDICTED BY IDOCK:   -3.47 KCAL/MOL
REMARK 922        TOTAL FREE ENERGY PREDICTED BY IDOCK:   -4.08 KCAL/MOL
REMARK 923 INTER-LIGAND FREE ENERGY PREDICTED BY IDOCK:   -4.05 KCAL/MOL
REMARK 924 INTRA-LIGAND FREE ENERGY PREDICTED BY IDOCK:   -0.03 KCAL/MOL
REMARK 927      BINDING AFFINITY PREDICTED BY RF-SCORE:    0.00 PKD
ROOT
ATOM      1  N   PHE A   1      -9.239  12.671  68.479  1.00  0.00    -0.379 NA 
ATOM      2  CA  PHE A   1     -10.063  12.382  67.259  1.00  0.00    -0.208 C  
ATOM      3  H1  PHE A   1      -8.736  13.558  68.433  1.00  0.00     0.000 HD 
ATOM      4  H2  PHE A   1      -8.595  11.902  68.670  1.00  0.00     0.000 HD 
ATOM      5  C   PHE A   1     -11.049  13.547  67.075  1.00  0.00    -0.296 C  
ATOM      6  OXT PHE A   1     -12.077  13.516  66.419  1.00  0.00    -0.399 OA 
ATOM      7  O   PHE A   1     -10.608  14.659  67.723  1.00  0.00    -0.247 OA 
ENDROOT
BRANCH   2   8
ATOM      8  CB  PHE A   1     -10.820  11.046  67.327  1.00  0.00    -0.335 C  
BRANCH   8   9
ATOM      9  CG  PHE A   1     -11.060  10.575  68.741  1.00  0.00    -0.315 A  
ATOM     10  CD1 PHE A   1     -10.207   9.631  69.333  1.00  0.00    -0.220 A  
ATOM     11  CE1 PHE A   1     -10.452   9.169  70.626  1.00  0.00    -0.305 A  
ATOM     12  CZ  PHE A   1     -11.544   9.650  71.345  1.00  0.00    -0.472 A  
ATOM     13  CE2 PHE A   1     -12.392  10.594  70.772  1.00  0.00    -0.472 A  
ATOM     14  CD2 PHE A   1     -12.154  11.054  69.474  1.00  0.00    -0.400 A  
ENDBRANCH   8   9
ENDBRANCH   2   8
TORSDOF 2
ENDMDL
MODEL      103
REMARK 921   NORMALIZED FREE ENERGY PREDICTED BY IDOCK:   -3.47 KCAL/MOL
REMARK 922        TOTAL FREE ENERGY PREDICTED BY IDOCK:   -4.07 KCAL/MOL
REMARK 923 INTER-LIGAND FREE ENERGY PREDICTED BY IDOCK:   -3.97 KCAL/MOL
REMARK 924 INTRA-LIGAND FREE ENERGY PREDICTED BY IDOCK:   -0.10 KCAL/MOL
REMARK 927      BINDING AFFINITY PREDICTED BY RF-SCORE:    0.00 PKD
ROOT
ATOM      1  N   PHE A   1      -9.590   8.940  65.722  1.00  0.00    -0.427 NA 
ATOM      2  CA  PHE A   1      -9.511  10.206  66.525  1.00  0.00    -0.169 C  
ATOM      3  H1  PHE A   1      -8.679   8.561  65.463  1.00  0.00     0.000 HD 
ATOM      4  H2  PHE A   1     -10.173   9.073  64.895  1.00  0.00     0.000 HD 
ATOM      5  C   PHE A   1      -8.678   9.910  67.782  1.00  0.00    -0.129 C  
ATOM      6  OXT PHE A   1      -8.677  10.567  68.810  1.00  0.00    -0.137 OA 
ATOM      7  O   PHE A   1      -7.894   8.814  67.594  1.00  0.00    -0.100 OA 
ENDROOT
BRANCH   2   8
ATOM      8  CB  PHE A   1     -10.884  10.776  66.915  1.00  0.00    -0.288 C  
BRANCH   8   9
ATOM      9  CG  PHE A   1     -11.326  11.912  66.024  1.00  0.00    -0.375 A  
ATOM     10  CD1 PHE A   1     -11.973  13.033  66.565  1.00  0.00    -0.457 A  
ATOM     11  CE1 PHE A   1     -12.414  14.064  65.735  1.00  0.00    -0.523 A  
ATOM     12  CZ  PHE A   1     -12.206  13.992  64.360  1.00  0.00    -0.457 A  
ATOM     13  CE2 PHE A   1     -11.557  12.889  63.812  1.00  0.00    -0.538 A  
ATOM     14  CD2 PHE A   1     -11.120  11.851  64.639  1.00  0.00    -0.373 A  
ENDBRANCH   8   9
ENDBRANCH   2   8
TORSDOF 2
ENDMDL
MODEL      104
REMARK 921   NORMALIZED FREE ENERGY PREDICTED BY IDOCK:   -3.46 KCAL/MOL
REMARK 922        TOTAL FREE ENERGY PREDICTED BY IDOCK:   -4.07 KCAL/MOL
REMARK 923 INTER-LIGAND FREE ENERGY PREDICTED BY IDOCK:   -3.92 KCAL/MOL
REMARK 924 INTRA-LIGAND FREE ENERGY PREDICTED BY IDOCK:   -0.15 KCAL/MOL
REMARK 927      BINDING AFFINITY PREDICTED BY RF-SCORE:    0.00 PKD
ROOT
ATOM      1  N   PHE A   1     -12.224   8.228  70.663  1.00  0.00    -0.489 NA 
ATOM      2  CA  PHE A   1     -11.852   9.620  71.083  1.00  0.00    -0.367 C  
ATOM      3  H1  PHE A   1     -12.488   7.622  71.441  1.00  0.00     0.000 HD 
ATOM      4  H2  PHE A   1     -11.476   7.805  70.115  1.00  0.00     0.000 HD 
ATOM      5  C   PHE A   1     -13.048  10.214  71.844  1.00  0.00    -0.466 C  
ATOM      6  OXT PHE A   1     -13.253  11.401  72.038  1.00  0.00    -0.503 OA 
ATOM      7  O   PHE A   1     -13.857   9.227  72.316  1.00  0.00    -0.453 OA 
ENDROOT
BRANCH   2   8
ATOM      8  CB  PHE A   1     -11.455  10.533  69.912  1.00  0.00    -0.384 C  
BRANCH   8   9
ATOM      9  CG  PHE A   1     -10.409   9.919  69.013  1.00  0.00    -0.224 A  
ATOM     10  CD1 PHE A   1     -10.707   9.617  67.675  1.00  0.00    -0.324 A  
ATOM     11  CE1 PHE A   1      -9.751   9.016  66.857  1.00  0.00    -0.260 A  
ATOM     12  CZ  PHE A   1      -8.488   8.716  67.361  1.00  0.00    -0.123 A  
ATOM     13  CE2 PHE A   1      -8.178   9.018  68.684  1.00  0.00    -0.118 A  
ATOM     14  CD2 PHE A   1      -9.134   9.615  69.509  1.00  0.00    -0.209 A  
ENDBRANCH   8   9
ENDBRANCH   2   8
TORSDOF 2
ENDMDL
MODEL      105
REMARK 921   NORMALIZED FREE ENERGY PREDICTED BY IDOCK:   -3.46 KCAL/MOL
REMARK 922        TOTAL FREE ENERGY PREDICTED BY IDOCK:   -4.06 KCAL/MOL
REMARK 923 INTER-LIGAND FREE ENERGY PREDICTED BY IDOCK:   -3.93 KCAL/MOL
REMARK 924 INTRA-LIGAND FREE ENERGY PREDICTED BY IDOCK:   -0.14 KCAL/MOL
REMARK 927      BINDING AFFINITY PREDICTED BY RF-SCORE:    0.00 PKD
ROOT
ATOM      1  N   PHE A   1      -9.196   8.399  71.868  1.00  0.00    -0.213 NA 
ATOM      2  CA  PHE A   1     -10.473   9.182  71.766  1.00  0.00    -0.291 C  
ATOM      3  H1  PHE A   1      -8.891   8.237  72.827  1.00  0.00     0.000 HD 
ATOM      4  H2  PHE A   1      -8.456   8.844  71.324  1.00  0.00     0.000 HD 
ATOM      5  C   PHE A   1     -11.553   8.419  72.550  1.00  0.00    -0.356 C  
ATOM      6  OXT PHE A   1     -12.758   8.553  72.421  1.00  0.00    -0.369 OA 
ATOM      7  O   PHE A   1     -10.986   7.575  73.454  1.00  0.00    -0.380 OA 
ENDROOT
BRANCH   2   8
ATOM      8  CB  PHE A   1     -10.934   9.427  70.320  1.00  0.00    -0.305 C  
BRANCH   8   9
ATOM      9  CG  PHE A   1     -11.277  10.871  70.046  1.00  0.00    -0.340 A  
ATOM     10  CD1 PHE A   1     -10.683  11.555  68.974  1.00  0.00    -0.233 A  
ATOM     11  CE1 PHE A   1     -10.973  12.900  68.746  1.00  0.00    -0.292 A  
ATOM     12  CZ  PHE A   1     -11.863  13.574  69.578  1.00  0.00    -0.392 A  
ATOM     13  CE2 PHE A   1     -12.465  12.904  70.640  1.00  0.00    -0.333 A  
ATOM     14  CD2 PHE A   1     -12.173  11.559  70.876  1.00  0.00    -0.425 A  
ENDBRANCH   8   9
ENDBRANCH   2   8
TORSDOF 2
ENDMDL
MODEL      106
REMARK 921   NORMALIZED FREE ENERGY PREDICTED BY IDOCK:   -3.46 KCAL/MOL
REMARK 922        TOTAL FREE ENERGY PREDICTED BY IDOCK:   -4.06 KCAL/MOL
REMARK 923 INTER-LIGAND FREE ENERGY PREDICTED BY IDOCK:   -3.90 KCAL/MOL
REMARK 924 INTRA-LIGAND FREE ENERGY PREDICTED BY IDOCK:   -0.16 KCAL/MOL
REMARK 927      BINDING AFFINITY PREDICTED BY RF-SCORE:    0.00 PKD
ROOT
ATOM      1  N   PHE A   1     -12.114  10.982  68.440  1.00  0.00    -0.786 NA 
ATOM      2  CA  PHE A   1     -10.721  10.564  68.067  1.00  0.00    -0.245 C  
ATOM      3  H1  PHE A   1     -12.632  10.267  68.951  1.00  0.00     0.000 HD 
ATOM      4  H2  PHE A   1     -12.633  11.283  67.615  1.00  0.00     0.000 HD 
ATOM      5  C   PHE A   1      -9.983  10.190  69.362  1.00  0.00    -0.228 C  
ATOM      6  OXT PHE A   1      -8.773  10.131  69.503  1.00  0.00    -0.174 OA 
ATOM      7  O   PHE A   1     -10.867   9.891  70.352  1.00  0.00    -0.275 OA 
ENDROOT
BRANCH   2   8
ATOM      8  CB  PHE A   1      -9.939  11.640  67.297  1.00  0.00    -0.210 C  
BRANCH   8   9
ATOM      9  CG  PHE A   1      -9.864  11.368  65.814  1.00  0.00    -0.270 A  
ATOM     10  CD1 PHE A   1      -9.092  10.304  65.322  1.00  0.00    -0.228 A  
ATOM     11  CE1 PHE A   1      -8.995  10.077  63.949  1.00  0.00    -0.271 A  
ATOM     12  CZ  PHE A   1      -9.671  10.902  63.054  1.00  0.00    -0.380 A  
ATOM     13  CE2 PHE A   1     -10.448  11.955  63.531  1.00  0.00    -0.505 A  
ATOM     14  CD2 PHE A   1     -10.543  12.190  64.904  1.00  0.00    -0.332 A  
ENDBRANCH   8   9
ENDBRANCH   2   8
TORSDOF 2
ENDMDL
MODEL      107
REMARK 921   NORMALIZED FREE ENERGY PREDICTED BY IDOCK:   -3.44 KCAL/MOL
REMARK 922        TOTAL FREE ENERGY PREDICTED BY IDOCK:   -4.04 KCAL/MOL
REMARK 923 INTER-LIGAND FREE ENERGY PREDICTED BY IDOCK:   -3.89 KCAL/MOL
REMARK 924 INTRA-LIGAND FREE ENERGY PREDICTED BY IDOCK:   -0.16 KCAL/MOL
REMARK 927      BINDING AFFINITY PREDICTED BY RF-SCORE:    0.00 PKD
ROOT
ATOM      1  N   PHE A   1     -11.003   9.006  69.585  1.00  0.00    -0.377 NA 
ATOM      2  CA  PHE A   1     -11.385  10.391  70.018  1.00  0.00    -0.313 C  
ATOM      3  H1  PHE A   1     -10.496   8.480  70.298  1.00  0.00     0.000 HD 
ATOM      4  H2  PHE A   1     -10.474   9.033  68.714  1.00  0.00     0.000 HD 
ATOM      5  C   PHE A   1     -12.233  10.265  71.294  1.00  0.00    -0.395 C  
ATOM      6  OXT PHE A   1     -12.988  11.114  71.737  1.00  0.00    -0.451 OA 
ATOM      7  O   PHE A   1     -12.008   9.071  71.906  1.00  0.00    -0.338 OA 
ENDROOT
BRANCH   2   8
ATOM      8  CB  PHE A   1     -12.149  11.184  68.945  1.00  0.00    -0.276 C  
BRANCH   8   9
ATOM      9  CG  PHE A   1     -11.288  12.208  68.244  1.00  0.00    -0.343 A  
ATOM     10  CD1 PHE A   1     -11.867  13.166  67.397  1.00  0.00    -0.412 A  
ATOM     11  CE1 PHE A   1     -11.066  14.087  66.722  1.00  0.00    -0.311 A  
ATOM     12  CZ  PHE A   1      -9.683  14.068  66.889  1.00  0.00    -0.272 A  
ATOM     13  CE2 PHE A   1      -9.099  13.127  67.734  1.00  0.00    -0.200 A  
ATOM     14  CD2 PHE A   1      -9.897  12.199  68.407  1.00  0.00    -0.200 A  
ENDBRANCH   8   9
ENDBRANCH   2   8
TORSDOF 2
ENDMDL
MODEL      108
REMARK 921   NORMALIZED FREE ENERGY PREDICTED BY IDOCK:   -3.44 KCAL/MOL
REMARK 922        TOTAL FREE ENERGY PREDICTED BY IDOCK:   -4.04 KCAL/MOL
REMARK 923 INTER-LIGAND FREE ENERGY PREDICTED BY IDOCK:   -3.88 KCAL/MOL
REMARK 924 INTRA-LIGAND FREE ENERGY PREDICTED BY IDOCK:   -0.16 KCAL/MOL
REMARK 927      BINDING AFFINITY PREDICTED BY RF-SCORE:    0.00 PKD
ROOT
ATOM      1  N   PHE A   1     -11.211   6.561  68.427  1.00  0.00    -0.555 NA 
ATOM      2  CA  PHE A   1     -10.204   7.471  69.067  1.00  0.00    -0.205 C  
ATOM      3  H1  PHE A   1     -11.123   6.503  67.412  1.00  0.00     0.000 HD 
ATOM      4  H2  PHE A   1     -12.159   6.829  68.691  1.00  0.00     0.000 HD 
ATOM      5  C   PHE A   1      -8.804   6.966  68.679  1.00  0.00    -0.124 C  
ATOM      6  OXT PHE A   1      -7.764   7.227  69.260  1.00  0.00    -0.103 OA 
ATOM      7  O   PHE A   1      -8.863   6.199  67.556  1.00  0.00    -0.109 OA 
ENDROOT
BRANCH   2   8
ATOM      8  CB  PHE A   1     -10.335   7.558  70.596  1.00  0.00    -0.211 C  
BRANCH   8   9
ATOM      9  CG  PHE A   1     -11.382   8.551  71.043  1.00  0.00    -0.313 A  
ATOM     10  CD1 PHE A   1     -11.517   9.787  70.392  1.00  0.00    -0.347 A  
ATOM     11  CE1 PHE A   1     -12.460  10.717  70.830  1.00  0.00    -0.495 A  
ATOM     12  CZ  PHE A   1     -13.282  10.421  71.915  1.00  0.00    -0.535 A  
ATOM     13  CE2 PHE A   1     -13.164   9.194  72.563  1.00  0.00    -0.464 A  
ATOM     14  CD2 PHE A   1     -12.217   8.263  72.131  1.00  0.00    -0.418 A  
ENDBRANCH   8   9
ENDBRANCH   2   8
TORSDOF 2
ENDMDL
MODEL      109
REMARK 921   NORMALIZED FREE ENERGY PREDICTED BY IDOCK:   -3.44 KCAL/MOL
REMARK 922        TOTAL FREE ENERGY PREDICTED BY IDOCK:   -4.04 KCAL/MOL
REMARK 923 INTER-LIGAND FREE ENERGY PREDICTED BY IDOCK:   -3.96 KCAL/MOL
REMARK 924 INTRA-LIGAND FREE ENERGY PREDICTED BY IDOCK:   -0.08 KCAL/MOL
REMARK 927      BINDING AFFINITY PREDICTED BY RF-SCORE:    0.00 PKD
ROOT
ATOM      1  N   PHE A   1     -11.418  15.050  64.331  1.00  0.00    -0.649 NA 
ATOM      2  CA  PHE A   1     -10.923  13.935  65.206  1.00  0.00    -0.331 C  
ATOM      3  H1  PHE A   1     -11.858  14.729  63.469  1.00  0.00     0.000 HD 
ATOM      4  H2  PHE A   1     -10.667  15.710  64.129  1.00  0.00     0.000 HD 
ATOM      5  C   PHE A   1     -12.120  13.024  65.522  1.00  0.00    -0.452 C  
ATOM      6  OXT PHE A   1     -12.190  12.232  66.448  1.00  0.00    -0.613 OA 
ATOM      7  O   PHE A   1     -13.106  13.186  64.600  1.00  0.00    -0.699 OA 
ENDROOT
BRANCH   2   8
ATOM      8  CB  PHE A   1     -10.260  14.418  66.506  1.00  0.00    -0.276 C  
BRANCH   8   9
ATOM      9  CG  PHE A   1      -8.964  13.703  66.808  1.00  0.00    -0.196 A  
ATOM     10  CD1 PHE A   1      -7.885  14.394  67.380  1.00  0.00    -0.211 A  
ATOM     11  CE1 PHE A   1      -6.677  13.740  67.624  1.00  0.00    -0.189 A  
ATOM     12  CZ  PHE A   1      -6.536  12.391  67.308  1.00  0.00    -0.136 A  
ATOM     13  CE2 PHE A   1      -7.603  11.693  66.748  1.00  0.00    -0.104 A  
ATOM     14  CD2 PHE A   1      -8.812  12.346  66.497  1.00  0.00    -0.106 A  
ENDBRANCH   8   9
ENDBRANCH   2   8
TORSDOF 2
ENDMDL
MODEL      110
REMARK 921   NORMALIZED FREE ENERGY PREDICTED BY IDOCK:   -3.40 KCAL/MOL
REMARK 922        TOTAL FREE ENERGY PREDICTED BY IDOCK:   -4.00 KCAL/MOL
REMARK 923 INTER-LIGAND FREE ENERGY PREDICTED BY IDOCK:   -3.79 KCAL/MOL
REMARK 924 INTRA-LIGAND FREE ENERGY PREDICTED BY IDOCK:   -0.21 KCAL/MOL
REMARK 927      BINDING AFFINITY PREDICTED BY RF-SCORE:    0.00 PKD
ROOT
ATOM      1  N   PHE A   1     -11.217   6.281  66.674  1.00  0.00    -0.753 NA 
ATOM      2  CA  PHE A   1     -10.594   6.697  67.974  1.00  0.00    -0.245 C  
ATOM      3  H1  PHE A   1     -11.612   7.057  66.142  1.00  0.00     0.000 HD 
ATOM      4  H2  PHE A   1     -11.918   5.556  66.826  1.00  0.00     0.000 HD 
ATOM      5  C   PHE A   1      -9.507   7.737  67.659  1.00  0.00    -0.144 C  
ATOM      6  OXT PHE A   1      -8.581   8.047  68.390  1.00  0.00    -0.127 OA 
ATOM      7  O   PHE A   1      -9.727   8.312  66.446  1.00  0.00    -0.236 OA 
ENDROOT
BRANCH   2   8
ATOM      8  CB  PHE A   1      -9.998   5.527  68.775  1.00  0.00    -0.231 C  
BRANCH   8   9
ATOM      9  CG  PHE A   1     -10.462   5.500  70.212  1.00  0.00    -0.365 A  
ATOM     10  CD1 PHE A   1      -9.944   4.555  71.110  1.00  0.00    -0.257 A  
ATOM     11  CE1 PHE A   1     -10.401   4.508  72.428  1.00  0.00    -0.256 A  
ATOM     12  CZ  PHE A   1     -11.371   5.406  72.864  1.00  0.00    -0.365 A  
ATOM     13  CE2 PHE A   1     -11.886   6.355  71.984  1.00  0.00    -0.382 A  
ATOM     14  CD2 PHE A   1     -11.436   6.402  70.662  1.00  0.00    -0.426 A  
ENDBRANCH   8   9
ENDBRANCH   2   8
TORSDOF 2
ENDMDL
MODEL      111
REMARK 921   NORMALIZED FREE ENERGY PREDICTED BY IDOCK:   -3.39 KCAL/MOL
REMARK 922        TOTAL FREE ENERGY PREDICTED BY IDOCK:   -3.99 KCAL/MOL
REMARK 923 INTER-LIGAND FREE ENERGY PREDICTED BY IDOCK:   -4.19 KCAL/MOL
REMARK 924 INTRA-LIGAND FREE ENERGY PREDICTED BY IDOCK:    0.21 KCAL/MOL
REMARK 927      BINDING AFFINITY PREDICTED BY RF-SCORE:    0.00 PKD
ROOT
ATOM      1  N   PHE A   1     -10.357  18.447  68.789  1.00  0.00    -0.434 NA 
ATOM      2  CA  PHE A   1     -10.709  18.937  67.415  1.00  0.00    -0.444 C  
ATOM      3  H1  PHE A   1     -10.928  17.662  69.103  1.00  0.00     0.000 HD 
ATOM      4  H2  PHE A   1     -10.392  19.211  69.464  1.00  0.00     0.000 HD 
ATOM      5  C   PHE A   1     -10.570  17.751  66.446  1.00  0.00    -0.218 C  
ATOM      6  OXT PHE A   1     -10.443  17.829  65.235  1.00  0.00    -0.605 OA 
ATOM      7  O   PHE A   1     -10.640  16.570  67.117  1.00  0.00    -0.314 OA 
ENDROOT
BRANCH   2   8
ATOM      8  CB  PHE A   1      -9.849  20.119  66.941  1.00  0.00    -0.593 C  
BRANCH   8   9
ATOM      9  CG  PHE A   1      -8.369  19.888  67.137  1.00  0.00    -0.367 A  
ATOM     10  CD1 PHE A   1      -7.785  20.045  68.403  1.00  0.00    -0.214 A  
ATOM     11  CE1 PHE A   1      -6.412  19.867  68.574  1.00  0.00    -0.320 A  
ATOM     12  CZ  PHE A   1      -5.610  19.525  67.488  1.00  0.00    -0.173 A  
ATOM     13  CE2 PHE A   1      -6.180  19.358  66.229  1.00  0.00    -0.185 A  
ATOM     14  CD2 PHE A   1      -7.554  19.541  66.052  1.00  0.00    -0.326 A  
ENDBRANCH   8   9
ENDBRANCH   2   8
TORSDOF 2
ENDMDL
MODEL      112
REMARK 921   NORMALIZED FREE ENERGY PREDICTED BY IDOCK:   -3.39 KCAL/MOL
REMARK 922        TOTAL FREE ENERGY PREDICTED BY IDOCK:   -3.98 KCAL/MOL
REMARK 923 INTER-LIGAND FREE ENERGY PREDICTED BY IDOCK:   -3.99 KCAL/MOL
REMARK 924 INTRA-LIGAND FREE ENERGY PREDICTED BY IDOCK:    0.01 KCAL/MOL
REMARK 927      BINDING AFFINITY PREDICTED BY RF-SCORE:    0.00 PKD
ROOT
ATOM      1  N   PHE A   1      -8.944  18.025  68.661  1.00  0.00    -0.295 NA 
ATOM      2  CA  PHE A   1      -8.624  18.724  67.372  1.00  0.00    -0.273 C  
ATOM      3  H1  PHE A   1      -9.190  18.660  69.421  1.00  0.00     0.000 HD 
ATOM      4  H2  PHE A   1      -8.177  17.412  68.938  1.00  0.00     0.000 HD 
ATOM      5  C   PHE A   1      -9.846  19.573  66.986  1.00  0.00    -0.360 C  
ATOM      6  OXT PHE A   1     -10.095  20.001  65.871  1.00  0.00    -0.465 OA 
ATOM      7  O   PHE A   1     -10.622  19.824  68.075  1.00  0.00    -0.418 OA 
ENDROOT
BRANCH   2   8
ATOM      8  CB  PHE A   1      -8.253  17.768  66.227  1.00  0.00    -0.252 C  
BRANCH   8   9
ATOM      9  CG  PHE A   1      -9.009  16.462  66.280  1.00  0.00    -0.368 A  
ATOM     10  CD1 PHE A   1     -10.319  16.376  65.786  1.00  0.00    -0.388 A  
ATOM     11  CE1 PHE A   1     -11.028  15.177  65.870  1.00  0.00    -0.339 A  
ATOM     12  CZ  PHE A   1     -10.436  14.053  66.439  1.00  0.00    -0.284 A  
ATOM     13  CE2 PHE A   1      -9.133  14.124  66.924  1.00  0.00    -0.260 A  
ATOM     14  CD2 PHE A   1      -8.421  15.323  66.848  1.00  0.00    -0.286 A  
ENDBRANCH   8   9
ENDBRANCH   2   8
TORSDOF 2
ENDMDL
MODEL      113
REMARK 921   NORMALIZED FREE ENERGY PREDICTED BY IDOCK:   -3.37 KCAL/MOL
REMARK 922        TOTAL FREE ENERGY PREDICTED BY IDOCK:   -3.97 KCAL/MOL
REMARK 923 INTER-LIGAND FREE ENERGY PREDICTED BY IDOCK:   -3.80 KCAL/MOL
REMARK 924 INTRA-LIGAND FREE ENERGY PREDICTED BY IDOCK:   -0.17 KCAL/MOL
REMARK 927      BINDING AFFINITY PREDICTED BY RF-SCORE:    0.00 PKD
ROOT
ATOM      1  N   PHE A   1     -10.950   5.790  70.834  1.00  0.00    -0.264 NA 
ATOM      2  CA  PHE A   1      -9.806   6.504  71.493  1.00  0.00    -0.168 C  
ATOM      3  H1  PHE A   1     -10.661   5.139  70.104  1.00  0.00     0.000 HD 
ATOM      4  H2  PHE A   1     -11.631   6.458  70.471  1.00  0.00     0.000 HD 
ATOM      5  C   PHE A   1      -8.861   5.438  72.070  1.00  0.00    -0.134 C  
ATOM      6  OXT PHE A   1      -8.028   5.619  72.943  1.00  0.00    -0.100 OA 
ATOM      7  O   PHE A   1      -9.047   4.242  71.449  1.00  0.00    -0.117 OA 
ENDROOT
BRANCH   2   8
ATOM      8  CB  PHE A   1     -10.242   7.485  72.593  1.00  0.00    -0.297 C  
BRANCH   8   9
ATOM      9  CG  PHE A   1     -11.151   8.577  72.084  1.00  0.00    -0.436 A  
ATOM     10  CD1 PHE A   1     -12.472   8.679  72.547  1.00  0.00    -0.372 A  
ATOM     11  CE1 PHE A   1     -13.322   9.666  72.047  1.00  0.00    -0.547 A  
ATOM     12  CZ  PHE A   1     -12.862  10.565  71.088  1.00  0.00    -0.513 A  
ATOM     13  CE2 PHE A   1     -11.551  10.479  70.627  1.00  0.00    -0.445 A  
ATOM     14  CD2 PHE A   1     -10.698   9.488  71.120  1.00  0.00    -0.408 A  
ENDBRANCH   8   9
ENDBRANCH   2   8
TORSDOF 2
ENDMDL
MODEL      114
REMARK 921   NORMALIZED FREE ENERGY PREDICTED BY IDOCK:   -3.37 KCAL/MOL
REMARK 922        TOTAL FREE ENERGY PREDICTED BY IDOCK:   -3.96 KCAL/MOL
REMARK 923 INTER-LIGAND FREE ENERGY PREDICTED BY IDOCK:   -3.78 KCAL/MOL
REMARK 924 INTRA-LIGAND FREE ENERGY PREDICTED BY IDOCK:   -0.18 KCAL/MOL
REMARK 927      BINDING AFFINITY PREDICTED BY RF-SCORE:    0.00 PKD
ROOT
ATOM      1  N   PHE A   1     -11.050   6.159  66.578  1.00  0.00    -0.749 NA 
ATOM      2  CA  PHE A   1     -10.491   7.031  67.664  1.00  0.00    -0.237 C  
ATOM      3  H1  PHE A   1     -11.144   6.634  65.679  1.00  0.00     0.000 HD 
ATOM      4  H2  PHE A   1     -11.941   5.753  66.865  1.00  0.00     0.000 HD 
ATOM      5  C   PHE A   1      -9.125   7.551  67.188  1.00  0.00    -0.127 C  
ATOM      6  OXT PHE A   1      -8.241   7.995  67.903  1.00  0.00    -0.126 OA 
ATOM      7  O   PHE A   1      -9.030   7.486  65.833  1.00  0.00    -0.159 OA 
ENDROOT
BRANCH   2   8
ATOM      8  CB  PHE A   1     -10.350   6.317  69.018  1.00  0.00    -0.251 C  
BRANCH   8   9
ATOM      9  CG  PHE A   1     -10.966   7.090  70.160  1.00  0.00    -0.306 A  
ATOM     10  CD1 PHE A   1     -12.219   6.724  70.675  1.00  0.00    -0.312 A  
ATOM     11  CE1 PHE A   1     -12.802   7.462  71.705  1.00  0.00    -0.406 A  
ATOM     12  CZ  PHE A   1     -12.140   8.566  72.236  1.00  0.00    -0.455 A  
ATOM     13  CE2 PHE A   1     -10.892   8.933  71.739  1.00  0.00    -0.436 A  
ATOM     14  CD2 PHE A   1     -10.307   8.201  70.704  1.00  0.00    -0.214 A  
ENDBRANCH   8   9
ENDBRANCH   2   8
TORSDOF 2
ENDMDL
MODEL      115
REMARK 921   NORMALIZED FREE ENERGY PREDICTED BY IDOCK:   -3.36 KCAL/MOL
REMARK 922        TOTAL FREE ENERGY PREDICTED BY IDOCK:   -3.95 KCAL/MOL
REMARK 923 INTER-LIGAND FREE ENERGY PREDICTED BY IDOCK:   -3.77 KCAL/MOL
REMARK 924 INTRA-LIGAND FREE ENERGY PREDICTED BY IDOCK:   -0.18 KCAL/MOL
REMARK 927      BINDING AFFINITY PREDICTED BY RF-SCORE:    0.00 PKD
ROOT
ATOM      1  N   PHE A   1      -8.165   7.152  70.668  1.00  0.00    -0.116 NA 
ATOM      2  CA  PHE A   1      -9.654   7.297  70.543  1.00  0.00    -0.168 C  
ATOM      3  H1  PHE A   1      -7.877   6.308  71.163  1.00  0.00     0.000 HD 
ATOM      4  H2  PHE A   1      -7.757   7.981  71.101  1.00  0.00     0.000 HD 
ATOM      5  C   PHE A   1     -10.187   6.047  69.825  1.00  0.00    -0.205 C  
ATOM      6  OXT PHE A   1     -11.261   5.954  69.255  1.00  0.00    -0.363 OA 
ATOM      7  O   PHE A   1      -9.305   5.017  69.933  1.00  0.00    -0.123 OA 
ENDROOT
BRANCH   2   8
ATOM      8  CB  PHE A   1     -10.090   8.569  69.797  1.00  0.00    -0.197 C  
BRANCH   8   9
ATOM      9  CG  PHE A   1     -11.169   9.337  70.521  1.00  0.00    -0.315 A  
ATOM     10  CD1 PHE A   1     -11.435  10.675  70.193  1.00  0.00    -0.411 A  
ATOM     11  CE1 PHE A   1     -12.408  11.393  70.889  1.00  0.00    -0.483 A  
ATOM     12  CZ  PHE A   1     -13.130  10.783  71.912  1.00  0.00    -0.557 A  
ATOM     13  CE2 PHE A   1     -12.881   9.454  72.241  1.00  0.00    -0.452 A  
ATOM     14  CD2 PHE A   1     -11.903   8.732  71.551  1.00  0.00    -0.377 A  
ENDBRANCH   8   9
ENDBRANCH   2   8
TORSDOF 2
ENDMDL
MODEL      116
REMARK 921   NORMALIZED FREE ENERGY PREDICTED BY IDOCK:   -3.36 KCAL/MOL
REMARK 922        TOTAL FREE ENERGY PREDICTED BY IDOCK:   -3.95 KCAL/MOL
REMARK 923 INTER-LIGAND FREE ENERGY PREDICTED BY IDOCK:   -3.92 KCAL/MOL
REMARK 924 INTRA-LIGAND FREE ENERGY PREDICTED BY IDOCK:   -0.03 KCAL/MOL
REMARK 927      BINDING AFFINITY PREDICTED BY RF-SCORE:    0.00 PKD
ROOT
ATOM      1  N   PHE A   1      -8.456  12.608  66.686  1.00  0.00    -0.411 NA 
ATOM      2  CA  PHE A   1      -9.101  12.710  68.037  1.00  0.00    -0.207 C  
ATOM      3  H1  PHE A   1      -7.704  11.920  66.643  1.00  0.00     0.000 HD 
ATOM      4  H2  PHE A   1      -8.126  13.522  66.374  1.00  0.00     0.000 HD 
ATOM      5  C   PHE A   1      -9.629  11.316  68.410  1.00  0.00    -0.195 C  
ATOM      6  OXT PHE A   1     -10.484  11.075  69.246  1.00  0.00    -0.219 OA 
ATOM      7  O   PHE A   1      -8.987  10.351  67.697  1.00  0.00    -0.137 OA 
ENDROOT
BRANCH   2   8
ATOM      8  CB  PHE A   1     -10.234  13.747  68.104  1.00  0.00    -0.253 C  
BRANCH   8   9
ATOM      9  CG  PHE A   1     -10.915  13.963  66.773  1.00  0.00    -0.301 A  
ATOM     10  CD1 PHE A   1     -10.590  15.072  65.977  1.00  0.00    -0.329 A  
ATOM     11  CE1 PHE A   1     -11.248  15.289  64.766  1.00  0.00    -0.405 A  
ATOM     12  CZ  PHE A   1     -12.228  14.399  64.334  1.00  0.00    -0.481 A  
ATOM     13  CE2 PHE A   1     -12.553  13.290  65.111  1.00  0.00    -0.512 A  
ATOM     14  CD2 PHE A   1     -11.901  13.073  66.327  1.00  0.00    -0.466 A  
ENDBRANCH   8   9
ENDBRANCH   2   8
TORSDOF 2
ENDMDL
MODEL      117
REMARK 921   NORMALIZED FREE ENERGY PREDICTED BY IDOCK:   -3.35 KCAL/MOL
REMARK 922        TOTAL FREE ENERGY PREDICTED BY IDOCK:   -3.94 KCAL/MOL
REMARK 923 INTER-LIGAND FREE ENERGY PREDICTED BY IDOCK:   -3.74 KCAL/MOL
REMARK 924 INTRA-LIGAND FREE ENERGY PREDICTED BY IDOCK:   -0.20 KCAL/MOL
REMARK 927      BINDING AFFINITY PREDICTED BY RF-SCORE:    0.00 PKD
ROOT
ATOM      1  N   PHE A   1      -7.945   7.281  69.842  1.00  0.00    -0.119 NA 
ATOM      2  CA  PHE A   1      -9.092   8.221  69.609  1.00  0.00    -0.154 C  
ATOM      3  H1  PHE A   1      -7.835   6.580  69.108  1.00  0.00     0.000 HD 
ATOM      4  H2  PHE A   1      -8.024   6.836  70.756  1.00  0.00     0.000 HD 
ATOM      5  C   PHE A   1      -8.870   8.900  68.248  1.00  0.00    -0.134 C  
ATOM      6  OXT PHE A   1      -9.387   9.941  67.877  1.00  0.00    -0.137 OA 
ATOM      7  O   PHE A   1      -8.030   8.163  67.473  1.00  0.00    -0.118 OA 
ENDROOT
BRANCH   2   8
ATOM      8  CB  PHE A   1      -9.258   9.277  70.714  1.00  0.00    -0.316 C  
BRANCH   8   9
ATOM      9  CG  PHE A   1     -10.694   9.461  71.143  1.00  0.00    -0.417 A  
ATOM     10  CD1 PHE A   1     -11.321   8.511  71.964  1.00  0.00    -0.425 A  
ATOM     11  CE1 PHE A   1     -12.659   8.665  72.328  1.00  0.00    -0.457 A  
ATOM     12  CZ  PHE A   1     -13.382   9.769  71.885  1.00  0.00    -0.530 A  
ATOM     13  CE2 PHE A   1     -12.768  10.723  71.077  1.00  0.00    -0.513 A  
ATOM     14  CD2 PHE A   1     -11.431  10.570  70.705  1.00  0.00    -0.418 A  
ENDBRANCH   8   9
ENDBRANCH   2   8
TORSDOF 2
ENDMDL
MODEL      118
REMARK 921   NORMALIZED FREE ENERGY PREDICTED BY IDOCK:   -3.34 KCAL/MOL
REMARK 922        TOTAL FREE ENERGY PREDICTED BY IDOCK:   -3.94 KCAL/MOL
REMARK 923 INTER-LIGAND FREE ENERGY PREDICTED BY IDOCK:   -3.98 KCAL/MOL
REMARK 924 INTRA-LIGAND FREE ENERGY PREDICTED BY IDOCK:    0.05 KCAL/MOL
REMARK 927      BINDING AFFINITY PREDICTED BY RF-SCORE:    0.00 PKD
ROOT
ATOM      1  N   PHE A   1     -10.379  18.406  68.469  1.00  0.00    -0.366 NA 
ATOM      2  CA  PHE A   1      -9.182  17.654  67.966  1.00  0.00    -0.271 C  
ATOM      3  H1  PHE A   1     -10.570  19.265  67.953  1.00  0.00     0.000 HD 
ATOM      4  H2  PHE A   1     -10.290  18.598  69.467  1.00  0.00     0.000 HD 
ATOM      5  C   PHE A   1      -9.417  17.344  66.478  1.00  0.00    -0.273 C  
ATOM      6  OXT PHE A   1      -8.848  16.482  65.829  1.00  0.00    -0.474 OA 
ATOM      7  O   PHE A   1     -10.339  18.193  65.949  1.00  0.00    -0.540 OA 
ENDROOT
BRANCH   2   8
ATOM      8  CB  PHE A   1      -8.895  16.359  68.743  1.00  0.00    -0.246 C  
BRANCH   8   9
ATOM      9  CG  PHE A   1     -10.147  15.687  69.253  1.00  0.00    -0.258 A  
ATOM     10  CD1 PHE A   1     -10.828  14.751  68.460  1.00  0.00    -0.255 A  
ATOM     11  CE1 PHE A   1     -12.005  14.159  68.919  1.00  0.00    -0.376 A  
ATOM     12  CZ  PHE A   1     -12.509  14.488  70.175  1.00  0.00    -0.375 A  
ATOM     13  CE2 PHE A   1     -11.838  15.409  70.974  1.00  0.00    -0.406 A  
ATOM     14  CD2 PHE A   1     -10.662  16.009  70.516  1.00  0.00    -0.143 A  
ENDBRANCH   8   9
ENDBRANCH   2   8
TORSDOF 2
ENDMDL
MODEL      119
REMARK 921   NORMALIZED FREE ENERGY PREDICTED BY IDOCK:   -3.34 KCAL/MOL
REMARK 922        TOTAL FREE ENERGY PREDICTED BY IDOCK:   -3.93 KCAL/MOL
REMARK 923 INTER-LIGAND FREE ENERGY PREDICTED BY IDOCK:   -3.72 KCAL/MOL
REMARK 924 INTRA-LIGAND FREE ENERGY PREDICTED BY IDOCK:   -0.21 KCAL/MOL
REMARK 927      BINDING AFFINITY PREDICTED BY RF-SCORE:    0.00 PKD
ROOT
ATOM      1  N   PHE A   1     -10.778  10.235  70.619  1.00  0.00    -0.406 NA 
ATOM      2  CA  PHE A   1     -11.370   9.038  71.304  1.00  0.00    -0.319 C  
ATOM      3  H1  PHE A   1     -11.385  10.639  69.905  1.00  0.00     0.000 HD 
ATOM      4  H2  PHE A   1      -9.863  10.011  70.230  1.00  0.00     0.000 HD 
ATOM      5  C   PHE A   1     -12.711   9.468  71.921  1.00  0.00    -0.411 C  
ATOM      6  OXT PHE A   1     -13.304   8.889  72.817  1.00  0.00    -0.405 OA 
ATOM      7  O   PHE A   1     -13.187  10.585  71.308  1.00  0.00    -0.365 OA 
ENDROOT
BRANCH   2   8
ATOM      8  CB  PHE A   1     -10.457   8.428  72.381  1.00  0.00    -0.402 C  
BRANCH   8   9
ATOM      9  CG  PHE A   1     -10.336   6.927  72.272  1.00  0.00    -0.219 A  
ATOM     10  CD1 PHE A   1      -9.545   6.346  71.269  1.00  0.00    -0.182 A  
ATOM     11  CE1 PHE A   1      -9.466   4.959  71.147  1.00  0.00    -0.216 A  
ATOM     12  CZ  PHE A   1     -10.166   4.138  72.028  1.00  0.00    -0.200 A  
ATOM     13  CE2 PHE A   1     -10.947   4.703  73.032  1.00  0.00    -0.329 A  
ATOM     14  CD2 PHE A   1     -11.035   6.092  73.154  1.00  0.00    -0.269 A  
ENDBRANCH   8   9
ENDBRANCH   2   8
TORSDOF 2
ENDMDL
MODEL      120
REMARK 921   NORMALIZED FREE ENERGY PREDICTED BY IDOCK:   -3.33 KCAL/MOL
REMARK 922        TOTAL FREE ENERGY PREDICTED BY IDOCK:   -3.92 KCAL/MOL
REMARK 923 INTER-LIGAND FREE ENERGY PREDICTED BY IDOCK:   -4.00 KCAL/MOL
REMARK 924 INTRA-LIGAND FREE ENERGY PREDICTED BY IDOCK:    0.08 KCAL/MOL
REMARK 927      BINDING AFFINITY PREDICTED BY RF-SCORE:    0.00 PKD
ROOT
ATOM      1  N   PHE A   1     -12.710  13.580  65.670  1.00  0.00    -0.472 NA 
ATOM      2  CA  PHE A   1     -11.586  12.790  65.066  1.00  0.00    -0.337 C  
ATOM      3  H1  PHE A   1     -13.414  13.003  66.131  1.00  0.00     0.000 HD 
ATOM      4  H2  PHE A   1     -13.141  14.186  64.971  1.00  0.00     0.000 HD 
ATOM      5  C   PHE A   1     -10.946  11.956  66.187  1.00  0.00    -0.308 C  
ATOM      6  OXT PHE A   1      -9.829  11.464  66.164  1.00  0.00    -0.208 OA 
ATOM      7  O   PHE A   1     -11.811  11.799  67.225  1.00  0.00    -0.596 OA 
ENDROOT
BRANCH   2   8
ATOM      8  CB  PHE A   1     -10.524  13.658  64.372  1.00  0.00    -0.322 C  
BRANCH   8   9
ATOM      9  CG  PHE A   1     -10.213  14.927  65.129  1.00  0.00    -0.409 A  
ATOM     10  CD1 PHE A   1      -9.228  14.938  66.128  1.00  0.00    -0.268 A  
ATOM     11  CE1 PHE A   1      -8.968  16.102  66.851  1.00  0.00    -0.248 A  
ATOM     12  CZ  PHE A   1      -9.681  17.267  66.580  1.00  0.00    -0.295 A  
ATOM     13  CE2 PHE A   1     -10.654  17.271  65.585  1.00  0.00    -0.173 A  
ATOM     14  CD2 PHE A   1     -10.922  16.106  64.862  1.00  0.00    -0.364 A  
ENDBRANCH   8   9
ENDBRANCH   2   8
TORSDOF 2
ENDMDL
MODEL      121
REMARK 921   NORMALIZED FREE ENERGY PREDICTED BY IDOCK:   -3.32 KCAL/MOL
REMARK 922        TOTAL FREE ENERGY PREDICTED BY IDOCK:   -3.91 KCAL/MOL
REMARK 923 INTER-LIGAND FREE ENERGY PREDICTED BY IDOCK:   -3.72 KCAL/MOL
REMARK 924 INTRA-LIGAND FREE ENERGY PREDICTED BY IDOCK:   -0.20 KCAL/MOL
REMARK 927      BINDING AFFINITY PREDICTED BY RF-SCORE:    0.00 PKD
ROOT
ATOM      1  N   PHE A   1      -8.349   7.423  72.154  1.00  0.00    -0.107 NA 
ATOM      2  CA  PHE A   1      -9.755   7.230  71.666  1.00  0.00    -0.154 C  
ATOM      3  H1  PHE A   1      -8.079   6.774  72.893  1.00  0.00     0.000 HD 
ATOM      4  H2  PHE A   1      -8.200   8.388  72.450  1.00  0.00     0.000 HD 
ATOM      5  C   PHE A   1      -9.884   5.778  71.177  1.00  0.00    -0.180 C  
ATOM      6  OXT PHE A   1     -10.742   5.353  70.421  1.00  0.00    -0.274 OA 
ATOM      7  O   PHE A   1      -8.918   4.996  71.730  1.00  0.00    -0.131 OA 
ENDROOT
BRANCH   2   8
ATOM      8  CB  PHE A   1     -10.163   8.208  70.553  1.00  0.00    -0.207 C  
BRANCH   8   9
ATOM      9  CG  PHE A   1     -11.295   9.122  70.956  1.00  0.00    -0.377 A  
ATOM     10  CD1 PHE A   1     -11.361  10.435  70.466  1.00  0.00    -0.424 A  
ATOM     11  CE1 PHE A   1     -12.388  11.289  70.869  1.00  0.00    -0.490 A  
ATOM     12  CZ  PHE A   1     -13.362  10.841  71.757  1.00  0.00    -0.429 A  
ATOM     13  CE2 PHE A   1     -13.313   9.537  72.243  1.00  0.00    -0.526 A  
ATOM     14  CD2 PHE A   1     -12.283   8.680  71.847  1.00  0.00    -0.419 A  
ENDBRANCH   8   9
ENDBRANCH   2   8
TORSDOF 2
ENDMDL
MODEL      122
REMARK 921   NORMALIZED FREE ENERGY PREDICTED BY IDOCK:   -3.29 KCAL/MOL
REMARK 922        TOTAL FREE ENERGY PREDICTED BY IDOCK:   -3.88 KCAL/MOL
REMARK 923 INTER-LIGAND FREE ENERGY PREDICTED BY IDOCK:   -3.69 KCAL/MOL
REMARK 924 INTRA-LIGAND FREE ENERGY PREDICTED BY IDOCK:   -0.19 KCAL/MOL
REMARK 927      BINDING AFFINITY PREDICTED BY RF-SCORE:    0.00 PKD
ROOT
ATOM      1  N   PHE A   1      -8.605  11.501  65.712  1.00  0.00    -0.386 NA 
ATOM      2  CA  PHE A   1      -9.554  12.046  66.738  1.00  0.00    -0.208 C  
ATOM      3  H1  PHE A   1      -8.196  10.602  65.969  1.00  0.00     0.000 HD 
ATOM      4  H2  PHE A   1      -7.874  12.180  65.500  1.00  0.00     0.000 HD 
ATOM      5  C   PHE A   1     -10.659  11.000  66.956  1.00  0.00    -0.256 C  
ATOM      6  OXT PHE A   1     -11.758  11.211  67.441  1.00  0.00    -0.564 OA 
ATOM      7  O   PHE A   1     -10.239   9.767  66.561  1.00  0.00    -0.232 OA 
ENDROOT
BRANCH   2   8
ATOM      8  CB  PHE A   1     -10.169  13.401  66.352  1.00  0.00    -0.293 C  
BRANCH   8   9
ATOM      9  CG  PHE A   1     -10.277  14.354  67.518  1.00  0.00    -0.240 A  
ATOM     10  CD1 PHE A   1     -11.478  15.031  67.777  1.00  0.00    -0.347 A  
ATOM     11  CE1 PHE A   1     -11.564  15.940  68.833  1.00  0.00    -0.392 A  
ATOM     12  CZ  PHE A   1     -10.457  16.176  69.643  1.00  0.00    -0.291 A  
ATOM     13  CE2 PHE A   1      -9.262  15.504  69.401  1.00  0.00    -0.280 A  
ATOM     14  CD2 PHE A   1      -9.170  14.598  68.342  1.00  0.00    -0.197 A  
ENDBRANCH   8   9
ENDBRANCH   2   8
TORSDOF 2
ENDMDL
MODEL      123
REMARK 921   NORMALIZED FREE ENERGY PREDICTED BY IDOCK:   -3.29 KCAL/MOL
REMARK 922        TOTAL FREE ENERGY PREDICTED BY IDOCK:   -3.87 KCAL/MOL
REMARK 923 INTER-LIGAND FREE ENERGY PREDICTED BY IDOCK:   -3.70 KCAL/MOL
REMARK 924 INTRA-LIGAND FREE ENERGY PREDICTED BY IDOCK:   -0.17 KCAL/MOL
REMARK 927      BINDING AFFINITY PREDICTED BY RF-SCORE:    0.00 PKD
ROOT
ATOM      1  N   PHE A   1     -12.646   7.948  70.933  1.00  0.00    -0.518 NA 
ATOM      2  CA  PHE A   1     -11.222   8.406  70.805  1.00  0.00    -0.263 C  
ATOM      3  H1  PHE A   1     -12.739   6.993  71.279  1.00  0.00     0.000 HD 
ATOM      4  H2  PHE A   1     -13.141   8.061  70.048  1.00  0.00     0.000 HD 
ATOM      5  C   PHE A   1     -10.562   8.271  72.187  1.00  0.00    -0.310 C  
ATOM      6  OXT PHE A   1      -9.550   8.843  72.554  1.00  0.00    -0.252 OA 
ATOM      7  O   PHE A   1     -11.245   7.385  72.962  1.00  0.00    -0.336 OA 
ENDROOT
BRANCH   2   8
ATOM      8  CB  PHE A   1     -11.081   9.846  70.283  1.00  0.00    -0.368 C  
BRANCH   8   9
ATOM      9  CG  PHE A   1     -10.738   9.910  68.814  1.00  0.00    -0.247 A  
ATOM     10  CD1 PHE A   1      -9.885   8.956  68.238  1.00  0.00    -0.187 A  
ATOM     11  CE1 PHE A   1      -9.540   9.040  66.889  1.00  0.00    -0.242 A  
ATOM     12  CZ  PHE A   1     -10.048  10.069  66.100  1.00  0.00    -0.317 A  
ATOM     13  CE2 PHE A   1     -10.902  11.016  66.658  1.00  0.00    -0.284 A  
ATOM     14  CD2 PHE A   1     -11.246  10.940  68.010  1.00  0.00    -0.378 A  
ENDBRANCH   8   9
ENDBRANCH   2   8
TORSDOF 2
ENDMDL
MODEL      124
REMARK 921   NORMALIZED FREE ENERGY PREDICTED BY IDOCK:   -3.23 KCAL/MOL
REMARK 922        TOTAL FREE ENERGY PREDICTED BY IDOCK:   -3.81 KCAL/MOL
REMARK 923 INTER-LIGAND FREE ENERGY PREDICTED BY IDOCK:   -3.81 KCAL/MOL
REMARK 924 INTRA-LIGAND FREE ENERGY PREDICTED BY IDOCK:    0.00 KCAL/MOL
REMARK 927      BINDING AFFINITY PREDICTED BY RF-SCORE:    0.00 PKD
ROOT
ATOM      1  N   PHE A   1      -9.558  12.267  67.284  1.00  0.00    -0.184 NA 
ATOM      2  CA  PHE A   1     -10.786  11.831  66.540  1.00  0.00    -0.282 C  
ATOM      3  H1  PHE A   1      -8.797  11.588  67.252  1.00  0.00     0.000 HD 
ATOM      4  H2  PHE A   1      -9.787  12.506  68.249  1.00  0.00     0.000 HD 
ATOM      5  C   PHE A   1     -10.377  11.554  65.084  1.00  0.00    -0.278 C  
ATOM      6  OXT PHE A   1     -11.130  11.512  64.126  1.00  0.00    -0.356 OA 
ATOM      7  O   PHE A   1      -9.039  11.322  64.996  1.00  0.00    -0.173 OA 
ENDROOT
BRANCH   2   8
ATOM      8  CB  PHE A   1     -11.933  12.854  66.588  1.00  0.00    -0.436 C  
BRANCH   8   9
ATOM      9  CG  PHE A   1     -11.454  14.266  66.827  1.00  0.00    -0.380 A  
ATOM     10  CD1 PHE A   1     -10.836  14.993  65.799  1.00  0.00    -0.355 A  
ATOM     11  CE1 PHE A   1     -10.362  16.284  66.034  1.00  0.00    -0.363 A  
ATOM     12  CZ  PHE A   1     -10.506  16.864  67.292  1.00  0.00    -0.301 A  
ATOM     13  CE2 PHE A   1     -11.126  16.155  68.317  1.00  0.00    -0.348 A  
ATOM     14  CD2 PHE A   1     -11.597  14.860  68.088  1.00  0.00    -0.356 A  
ENDBRANCH   8   9
ENDBRANCH   2   8
TORSDOF 2
ENDMDL
MODEL      125
REMARK 921   NORMALIZED FREE ENERGY PREDICTED BY IDOCK:   -3.23 KCAL/MOL
REMARK 922        TOTAL FREE ENERGY PREDICTED BY IDOCK:   -3.80 KCAL/MOL
REMARK 923 INTER-LIGAND FREE ENERGY PREDICTED BY IDOCK:   -3.65 KCAL/MOL
REMARK 924 INTRA-LIGAND FREE ENERGY PREDICTED BY IDOCK:   -0.15 KCAL/MOL
REMARK 927      BINDING AFFINITY PREDICTED BY RF-SCORE:    0.00 PKD
ROOT
ATOM      1  N   PHE A   1     -10.588  11.314  66.788  1.00  0.00    -0.249 NA 
ATOM      2  CA  PHE A   1     -11.245  11.006  68.102  1.00  0.00    -0.302 C  
ATOM      3  H1  PHE A   1     -11.208  11.767  66.116  1.00  0.00     0.000 HD 
ATOM      4  H2  PHE A   1     -10.174  10.473  66.386  1.00  0.00     0.000 HD 
ATOM      5  C   PHE A   1     -11.783  12.327  68.675  1.00  0.00    -0.328 C  
ATOM      6  OXT PHE A   1     -12.067  12.536  69.843  1.00  0.00    -0.304 OA 
ATOM      7  O   PHE A   1     -11.939  13.252  67.690  1.00  0.00    -0.355 OA 
ENDROOT
BRANCH   2   8
ATOM      8  CB  PHE A   1     -10.311  10.324  69.114  1.00  0.00    -0.241 C  
BRANCH   8   9
ATOM      9  CG  PHE A   1     -10.595   8.850  69.279  1.00  0.00    -0.219 A  
ATOM     10  CD1 PHE A   1     -10.387   7.961  68.214  1.00  0.00    -0.239 A  
ATOM     11  CE1 PHE A   1     -10.685   6.605  68.357  1.00  0.00    -0.314 A  
ATOM     12  CZ  PHE A   1     -11.185   6.123  69.564  1.00  0.00    -0.482 A  
ATOM     13  CE2 PHE A   1     -11.387   6.994  70.630  1.00  0.00    -0.349 A  
ATOM     14  CD2 PHE A   1     -11.096   8.353  70.490  1.00  0.00    -0.267 A  
ENDBRANCH   8   9
ENDBRANCH   2   8
TORSDOF 2
ENDMDL
MODEL      126
REMARK 921   NORMALIZED FREE ENERGY PREDICTED BY IDOCK:   -3.22 KCAL/MOL
REMARK 922        TOTAL FREE ENERGY PREDICTED BY IDOCK:   -3.80 KCAL/MOL
REMARK 923 INTER-LIGAND FREE ENERGY PREDICTED BY IDOCK:   -3.60 KCAL/MOL
REMARK 924 INTRA-LIGAND FREE ENERGY PREDICTED BY IDOCK:   -0.20 KCAL/MOL
REMARK 927      BINDING AFFINITY PREDICTED BY RF-SCORE:    0.00 PKD
ROOT
ATOM      1  N   PHE A   1      -8.199   7.012  70.011  1.00  0.00    -0.131 NA 
ATOM      2  CA  PHE A   1      -8.731   7.980  71.027  1.00  0.00    -0.135 C  
ATOM      3  H1  PHE A   1      -7.295   7.282  69.622  1.00  0.00     0.000 HD 
ATOM      4  H2  PHE A   1      -8.880   6.860  69.267  1.00  0.00     0.000 HD 
ATOM      5  C   PHE A   1      -7.683   8.106  72.145  1.00  0.00    -0.118 C  
ATOM      6  OXT PHE A   1      -7.888   8.519  73.274  1.00  0.00    -0.352 OA 
ATOM      7  O   PHE A   1      -6.456   7.721  71.701  1.00  0.00    -0.038 OA 
ENDROOT
BRANCH   2   8
ATOM      8  CB  PHE A   1     -10.092   7.574  71.614  1.00  0.00    -0.204 C  
BRANCH   8   9
ATOM      9  CG  PHE A   1     -11.113   8.686  71.562  1.00  0.00    -0.358 A  
ATOM     10  CD1 PHE A   1     -10.923   9.788  70.714  1.00  0.00    -0.406 A  
ATOM     11  CE1 PHE A   1     -11.849  10.832  70.695  1.00  0.00    -0.460 A  
ATOM     12  CZ  PHE A   1     -12.975  10.783  71.513  1.00  0.00    -0.562 A  
ATOM     13  CE2 PHE A   1     -13.178   9.690  72.352  1.00  0.00    -0.413 A  
ATOM     14  CD2 PHE A   1     -12.250   8.646  72.379  1.00  0.00    -0.419 A  
ENDBRANCH   8   9
ENDBRANCH   2   8
TORSDOF 2
ENDMDL
MODEL      127
REMARK 921   NORMALIZED FREE ENERGY PREDICTED BY IDOCK:   -3.21 KCAL/MOL
REMARK 922        TOTAL FREE ENERGY PREDICTED BY IDOCK:   -3.79 KCAL/MOL
REMARK 923 INTER-LIGAND FREE ENERGY PREDICTED BY IDOCK:   -3.59 KCAL/MOL
REMARK 924 INTRA-LIGAND FREE ENERGY PREDICTED BY IDOCK:   -0.20 KCAL/MOL
REMARK 927      BINDING AFFINITY PREDICTED BY RF-SCORE:    0.00 PKD
ROOT
ATOM      1  N   PHE A   1      -9.837  11.236  69.010  1.00  0.00    -0.389 NA 
ATOM      2  CA  PHE A   1     -10.677  10.252  69.770  1.00  0.00    -0.285 C  
ATOM      3  H1  PHE A   1     -10.363  11.784  68.329  1.00  0.00     0.000 HD 
ATOM      4  H2  PHE A   1      -9.049  10.767  68.563  1.00  0.00     0.000 HD 
ATOM      5  C   PHE A   1     -11.799  11.038  70.469  1.00  0.00    -0.367 C  
ATOM      6  OXT PHE A   1     -12.457  10.651  71.420  1.00  0.00    -0.368 OA 
ATOM      7  O   PHE A   1     -11.999  12.237  69.858  1.00  0.00    -0.324 OA 
ENDROOT
BRANCH   2   8
ATOM      8  CB  PHE A   1      -9.885   9.426  70.796  1.00  0.00    -0.348 C  
BRANCH   8   9
ATOM      9  CG  PHE A   1      -9.965   7.939  70.545  1.00  0.00    -0.191 A  
ATOM     10  CD1 PHE A   1     -11.140   7.364  70.036  1.00  0.00    -0.238 A  
ATOM     11  CE1 PHE A   1     -11.224   5.985  69.839  1.00  0.00    -0.438 A  
ATOM     12  CZ  PHE A   1     -10.137   5.168  70.140  1.00  0.00    -0.342 A  
ATOM     13  CE2 PHE A   1      -8.963   5.729  70.638  1.00  0.00    -0.149 A  
ATOM     14  CD2 PHE A   1      -8.876   7.108  70.841  1.00  0.00    -0.150 A  
ENDBRANCH   8   9
ENDBRANCH   2   8
TORSDOF 2
ENDMDL
MODEL      128
REMARK 921   NORMALIZED FREE ENERGY PREDICTED BY IDOCK:   -3.20 KCAL/MOL
REMARK 922        TOTAL FREE ENERGY PREDICTED BY IDOCK:   -3.77 KCAL/MOL
REMARK 923 INTER-LIGAND FREE ENERGY PREDICTED BY IDOCK:   -3.57 KCAL/MOL
REMARK 924 INTRA-LIGAND FREE ENERGY PREDICTED BY IDOCK:   -0.20 KCAL/MOL
REMARK 927      BINDING AFFINITY PREDICTED BY RF-SCORE:    0.00 PKD
ROOT
ATOM      1  N   PHE A   1      -7.955   8.206  69.196  1.00  0.00    -0.111 NA 
ATOM      2  CA  PHE A   1      -9.277   8.909  69.098  1.00  0.00    -0.144 C  
ATOM      3  H1  PHE A   1      -7.794   7.530  68.449  1.00  0.00     0.000 HD 
ATOM      4  H2  PHE A   1      -7.847   7.766  70.110  1.00  0.00     0.000 HD 
ATOM      5  C   PHE A   1      -9.338   9.601  67.726  1.00  0.00    -0.127 C  
ATOM      6  OXT PHE A   1     -10.080  10.520  67.422  1.00  0.00    -0.182 OA 
ATOM      7  O   PHE A   1      -8.463   9.026  66.857  1.00  0.00    -0.117 OA 
ENDROOT
BRANCH   2   8
ATOM      8  CB  PHE A   1      -9.519   9.928  70.222  1.00  0.00    -0.162 C  
BRANCH   8   9
ATOM      9  CG  PHE A   1     -10.863   9.762  70.890  1.00  0.00    -0.399 A  
ATOM     10  CD1 PHE A   1     -11.908  10.661  70.625  1.00  0.00    -0.463 A  
ATOM     11  CE1 PHE A   1     -13.137  10.526  71.271  1.00  0.00    -0.478 A  
ATOM     12  CZ  PHE A   1     -13.339   9.492  72.182  1.00  0.00    -0.545 A  
ATOM     13  CE2 PHE A   1     -12.312   8.589  72.447  1.00  0.00    -0.424 A  
ATOM     14  CD2 PHE A   1     -11.078   8.723  71.806  1.00  0.00    -0.417 A  
ENDBRANCH   8   9
ENDBRANCH   2   8
TORSDOF 2
ENDMDL
MODEL      129
REMARK 921   NORMALIZED FREE ENERGY PREDICTED BY IDOCK:   -3.19 KCAL/MOL
REMARK 922        TOTAL FREE ENERGY PREDICTED BY IDOCK:   -3.77 KCAL/MOL
REMARK 923 INTER-LIGAND FREE ENERGY PREDICTED BY IDOCK:   -3.74 KCAL/MOL
REMARK 924 INTRA-LIGAND FREE ENERGY PREDICTED BY IDOCK:   -0.03 KCAL/MOL
REMARK 927      BINDING AFFINITY PREDICTED BY RF-SCORE:    0.00 PKD
ROOT
ATOM      1  N   PHE A   1     -10.992   8.735  71.875  1.00  0.00    -0.343 NA 
ATOM      2  CA  PHE A   1     -12.020   8.091  70.991  1.00  0.00    -0.245 C  
ATOM      3  H1  PHE A   1     -11.209   9.701  72.120  1.00  0.00     0.000 HD 
ATOM      4  H2  PHE A   1     -10.064   8.669  71.455  1.00  0.00     0.000 HD 
ATOM      5  C   PHE A   1     -13.373   8.168  71.716  1.00  0.00    -0.345 C  
ATOM      6  OXT PHE A   1     -14.350   7.476  71.482  1.00  0.00    -0.443 OA 
ATOM      7  O   PHE A   1     -13.361   9.152  72.656  1.00  0.00    -0.454 OA 
ENDROOT
BRANCH   2   8
ATOM      8  CB  PHE A   1     -11.693   6.635  70.622  1.00  0.00    -0.452 C  
BRANCH   8   9
ATOM      9  CG  PHE A   1     -10.893   5.922  71.686  1.00  0.00    -0.321 A  
ATOM     10  CD1 PHE A   1      -9.503   5.778  71.557  1.00  0.00    -0.171 A  
ATOM     11  CE1 PHE A   1      -8.771   5.087  72.522  1.00  0.00    -0.120 A  
ATOM     12  CZ  PHE A   1      -9.416   4.540  73.629  1.00  0.00    -0.133 A  
ATOM     13  CE2 PHE A   1     -10.793   4.684  73.773  1.00  0.00    -0.378 A  
ATOM     14  CD2 PHE A   1     -11.530   5.371  72.806  1.00  0.00    -0.333 A  
ENDBRANCH   8   9
ENDBRANCH   2   8
TORSDOF 2
ENDMDL
MODEL      130
REMARK 921   NORMALIZED FREE ENERGY PREDICTED BY IDOCK:   -3.18 KCAL/MOL
REMARK 922        TOTAL FREE ENERGY PREDICTED BY IDOCK:   -3.75 KCAL/MOL
REMARK 923 INTER-LIGAND FREE ENERGY PREDICTED BY IDOCK:   -3.81 KCAL/MOL
REMARK 924 INTRA-LIGAND FREE ENERGY PREDICTED BY IDOCK:    0.06 KCAL/MOL
REMARK 927      BINDING AFFINITY PREDICTED BY RF-SCORE:    0.00 PKD
ROOT
ATOM      1  N   PHE A   1     -11.962  11.627  67.740  1.00  0.00    -0.623 NA 
ATOM      2  CA  PHE A   1     -10.806  10.670  67.711  1.00  0.00    -0.286 C  
ATOM      3  H1  PHE A   1     -12.707  11.350  68.379  1.00  0.00     0.000 HD 
ATOM      4  H2  PHE A   1     -12.330  11.775  66.800  1.00  0.00     0.000 HD 
ATOM      5  C   PHE A   1     -10.264  10.549  69.145  1.00  0.00    -0.224 C  
ATOM      6  OXT PHE A   1      -9.157  10.147  69.458  1.00  0.00    -0.199 OA 
ATOM      7  O   PHE A   1     -11.209  10.925  70.050  1.00  0.00    -0.281 OA 
ENDROOT
BRANCH   2   8
ATOM      8  CB  PHE A   1      -9.683  11.087  66.748  1.00  0.00    -0.222 C  
BRANCH   8   9
ATOM      9  CG  PHE A   1      -9.871  12.476  66.188  1.00  0.00    -0.266 A  
ATOM     10  CD1 PHE A   1     -10.593  12.676  65.002  1.00  0.00    -0.329 A  
ATOM     11  CE1 PHE A   1     -10.733  13.957  64.467  1.00  0.00    -0.382 A  
ATOM     12  CZ  PHE A   1     -10.163  15.050  65.113  1.00  0.00    -0.399 A  
ATOM     13  CE2 PHE A   1      -9.451  14.866  66.296  1.00  0.00    -0.339 A  
ATOM     14  CD2 PHE A   1      -9.303  13.585  66.832  1.00  0.00    -0.255 A  
ENDBRANCH   8   9
ENDBRANCH   2   8
TORSDOF 2
ENDMDL
MODEL      131
REMARK 921   NORMALIZED FREE ENERGY PREDICTED BY IDOCK:   -3.17 KCAL/MOL
REMARK 922        TOTAL FREE ENERGY PREDICTED BY IDOCK:   -3.74 KCAL/MOL
REMARK 923 INTER-LIGAND FREE ENERGY PREDICTED BY IDOCK:   -3.55 KCAL/MOL
REMARK 924 INTRA-LIGAND FREE ENERGY PREDICTED BY IDOCK:   -0.19 KCAL/MOL
REMARK 927      BINDING AFFINITY PREDICTED BY RF-SCORE:    0.00 PKD
ROOT
ATOM      1  N   PHE A   1     -11.147   7.224  67.538  1.00  0.00    -0.562 NA 
ATOM      2  CA  PHE A   1     -10.592   6.580  68.775  1.00  0.00    -0.243 C  
ATOM      3  H1  PHE A   1     -10.472   7.297  66.776  1.00  0.00     0.000 HD 
ATOM      4  H2  PHE A   1     -11.545   8.138  67.756  1.00  0.00     0.000 HD 
ATOM      5  C   PHE A   1     -10.074   5.186  68.383  1.00  0.00    -0.138 C  
ATOM      6  OXT PHE A   1      -9.871   4.258  69.148  1.00  0.00    -0.177 OA 
ATOM      7  O   PHE A   1      -9.830   5.121  67.046  1.00  0.00    -0.148 OA 
ENDROOT
BRANCH   2   8
ATOM      8  CB  PHE A   1     -11.608   6.469  69.923  1.00  0.00    -0.433 C  
BRANCH   8   9
ATOM      9  CG  PHE A   1     -10.993   6.708  71.281  1.00  0.00    -0.296 A  
ATOM     10  CD1 PHE A   1     -11.197   5.795  72.327  1.00  0.00    -0.333 A  
ATOM     11  CE1 PHE A   1     -10.658   6.037  73.591  1.00  0.00    -0.281 A  
ATOM     12  CZ  PHE A   1      -9.905   7.185  73.822  1.00  0.00    -0.355 A  
ATOM     13  CE2 PHE A   1      -9.689   8.094  72.790  1.00  0.00    -0.351 A  
ATOM     14  CD2 PHE A   1     -10.231   7.859  71.524  1.00  0.00    -0.232 A  
ENDBRANCH   8   9
ENDBRANCH   2   8
TORSDOF 2
ENDMDL
MODEL      132
REMARK 921   NORMALIZED FREE ENERGY PREDICTED BY IDOCK:   -3.15 KCAL/MOL
REMARK 922        TOTAL FREE ENERGY PREDICTED BY IDOCK:   -3.72 KCAL/MOL
REMARK 923 INTER-LIGAND FREE ENERGY PREDICTED BY IDOCK:   -3.53 KCAL/MOL
REMARK 924 INTRA-LIGAND FREE ENERGY PREDICTED BY IDOCK:   -0.19 KCAL/MOL
REMARK 927      BINDING AFFINITY PREDICTED BY RF-SCORE:    0.00 PKD
ROOT
ATOM      1  N   PHE A   1      -7.976   8.910  66.384  1.00  0.00    -0.102 NA 
ATOM      2  CA  PHE A   1      -8.848   9.372  65.252  1.00  0.00    -0.190 C  
ATOM      3  H1  PHE A   1      -7.999   7.901  66.534  1.00  0.00     0.000 HD 
ATOM      4  H2  PHE A   1      -8.208   9.408  67.244  1.00  0.00     0.000 HD 
ATOM      5  C   PHE A   1      -8.396   8.631  63.983  1.00  0.00    -0.120 C  
ATOM      6  OXT PHE A   1      -8.626   8.975  62.835  1.00  0.00    -0.208 OA 
ATOM      7  O   PHE A   1      -7.719   7.495  64.303  1.00  0.00    -0.114 OA 
ENDROOT
BRANCH   2   8
ATOM      8  CB  PHE A   1      -8.812  10.892  65.026  1.00  0.00    -0.151 C  
BRANCH   8   9
ATOM      9  CG  PHE A   1     -10.188  11.502  64.904  1.00  0.00    -0.324 A  
ATOM     10  CD1 PHE A   1     -10.855  11.990  66.039  1.00  0.00    -0.329 A  
ATOM     11  CE1 PHE A   1     -12.141  12.519  65.929  1.00  0.00    -0.420 A  
ATOM     12  CZ  PHE A   1     -12.771  12.575  64.688  1.00  0.00    -0.434 A  
ATOM     13  CE2 PHE A   1     -12.116  12.103  63.554  1.00  0.00    -0.649 A  
ATOM     14  CD2 PHE A   1     -10.830  11.566  63.660  1.00  0.00    -0.488 A  
ENDBRANCH   8   9
ENDBRANCH   2   8
TORSDOF 2
ENDMDL
MODEL      133
REMARK 921   NORMALIZED FREE ENERGY PREDICTED BY IDOCK:   -3.14 KCAL/MOL
REMARK 922        TOTAL FREE ENERGY PREDICTED BY IDOCK:   -3.71 KCAL/MOL
REMARK 923 INTER-LIGAND FREE ENERGY PREDICTED BY IDOCK:   -3.51 KCAL/MOL
REMARK 924 INTRA-LIGAND FREE ENERGY PREDICTED BY IDOCK:   -0.20 KCAL/MOL
REMARK 927      BINDING AFFINITY PREDICTED BY RF-SCORE:    0.00 PKD
ROOT
ATOM      1  N   PHE A   1      -8.236  11.042  69.483  1.00  0.00    -0.372 NA 
ATOM      2  CA  PHE A   1      -9.381  10.196  69.008  1.00  0.00    -0.188 C  
ATOM      3  H1  PHE A   1      -7.352  10.832  69.018  1.00  0.00     0.000 HD 
ATOM      4  H2  PHE A   1      -8.135  10.976  70.496  1.00  0.00     0.000 HD 
ATOM      5  C   PHE A   1      -9.513  10.398  67.489  1.00  0.00    -0.149 C  
ATOM      6  OXT PHE A   1     -10.503  10.156  66.820  1.00  0.00    -0.232 OA 
ATOM      7  O   PHE A   1      -8.347  10.862  66.962  1.00  0.00    -0.126 OA 
ENDROOT
BRANCH   2   8
ATOM      8  CB  PHE A   1     -10.713  10.511  69.707  1.00  0.00    -0.314 C  
BRANCH   8   9
ATOM      9  CG  PHE A   1     -11.246   9.350  70.513  1.00  0.00    -0.329 A  
ATOM     10  CD1 PHE A   1     -12.006   9.575  71.671  1.00  0.00    -0.474 A  
ATOM     11  CE1 PHE A   1     -12.465   8.501  72.434  1.00  0.00    -0.416 A  
ATOM     12  CZ  PHE A   1     -12.179   7.194  72.046  1.00  0.00    -0.314 A  
ATOM     13  CE2 PHE A   1     -11.433   6.959  70.893  1.00  0.00    -0.368 A  
ATOM     14  CD2 PHE A   1     -10.966   8.031  70.130  1.00  0.00    -0.226 A  
ENDBRANCH   8   9
ENDBRANCH   2   8
TORSDOF 2
ENDMDL
MODEL      134
REMARK 921   NORMALIZED FREE ENERGY PREDICTED BY IDOCK:   -3.13 KCAL/MOL
REMARK 922        TOTAL FREE ENERGY PREDICTED BY IDOCK:   -3.70 KCAL/MOL
REMARK 923 INTER-LIGAND FREE ENERGY PREDICTED BY IDOCK:   -3.72 KCAL/MOL
REMARK 924 INTRA-LIGAND FREE ENERGY PREDICTED BY IDOCK:    0.02 KCAL/MOL
REMARK 927      BINDING AFFINITY PREDICTED BY RF-SCORE:    0.00 PKD
ROOT
ATOM      1  N   PHE A   1     -11.713  15.366  66.132  1.00  0.00     0.099 NA 
ATOM      2  CA  PHE A   1     -10.332  14.783  66.203  1.00  0.00    -0.304 C  
ATOM      3  H1  PHE A   1     -12.452  14.665  66.090  1.00  0.00     0.000 HD 
ATOM      4  H2  PHE A   1     -11.789  16.017  65.350  1.00  0.00     0.000 HD 
ATOM      5  C   PHE A   1     -10.274  13.869  67.438  1.00  0.00    -0.252 C  
ATOM      6  OXT PHE A   1      -9.260  13.499  68.006  1.00  0.00    -0.194 OA 
ATOM      7  O   PHE A   1     -11.524  13.486  67.813  1.00  0.00    -0.280 OA 
ENDROOT
BRANCH   2   8
ATOM      8  CB  PHE A   1      -9.218  15.840  66.266  1.00  0.00    -0.368 C  
BRANCH   8   9
ATOM      9  CG  PHE A   1      -9.683  17.154  66.847  1.00  0.00    -0.270 A  
ATOM     10  CD1 PHE A   1     -10.203  18.157  66.015  1.00  0.00    -0.325 A  
ATOM     11  CE1 PHE A   1     -10.597  19.384  66.549  1.00  0.00    -0.554 A  
ATOM     12  CZ  PHE A   1     -10.484  19.620  67.916  1.00  0.00    -0.556 A  
ATOM     13  CE2 PHE A   1      -9.978  18.629  68.753  1.00  0.00    -0.427 A  
ATOM     14  CD2 PHE A   1      -9.576  17.401  68.222  1.00  0.00    -0.292 A  
ENDBRANCH   8   9
ENDBRANCH   2   8
TORSDOF 2
ENDMDL
MODEL      135
REMARK 921   NORMALIZED FREE ENERGY PREDICTED BY IDOCK:   -3.09 KCAL/MOL
REMARK 922        TOTAL FREE ENERGY PREDICTED BY IDOCK:   -3.65 KCAL/MOL
REMARK 923 INTER-LIGAND FREE ENERGY PREDICTED BY IDOCK:   -3.64 KCAL/MOL
REMARK 924 INTRA-LIGAND FREE ENERGY PREDICTED BY IDOCK:   -0.01 KCAL/MOL
REMARK 927      BINDING AFFINITY PREDICTED BY RF-SCORE:    0.00 PKD
ROOT
ATOM      1  N   PHE A   1     -12.325   9.403  70.453  1.00  0.00    -0.466 NA 
ATOM      2  CA  PHE A   1     -10.995  10.089  70.343  1.00  0.00    -0.320 C  
ATOM      3  H1  PHE A   1     -13.104  10.043  70.612  1.00  0.00     0.000 HD 
ATOM      4  H2  PHE A   1     -12.299   8.681  71.174  1.00  0.00     0.000 HD 
ATOM      5  C   PHE A   1     -11.090  11.111  69.198  1.00  0.00    -0.248 C  
ATOM      6  OXT PHE A   1     -10.148  11.603  68.599  1.00  0.00    -0.211 OA 
ATOM      7  O   PHE A   1     -12.388  11.435  68.948  1.00  0.00    -0.446 OA 
ENDROOT
BRANCH   2   8
ATOM      8  CB  PHE A   1      -9.821   9.126  70.103  1.00  0.00    -0.229 C  
BRANCH   8   9
ATOM      9  CG  PHE A   1     -10.191   7.949  69.232  1.00  0.00    -0.216 A  
ATOM     10  CD1 PHE A   1     -10.430   6.689  69.800  1.00  0.00    -0.248 A  
ATOM     11  CE1 PHE A   1     -10.735   5.595  68.990  1.00  0.00    -0.307 A  
ATOM     12  CZ  PHE A   1     -10.813   5.749  67.608  1.00  0.00    -0.264 A  
ATOM     13  CE2 PHE A   1     -10.586   6.997  67.033  1.00  0.00    -0.412 A  
ATOM     14  CD2 PHE A   1     -10.274   8.093  67.841  1.00  0.00    -0.274 A  
ENDBRANCH   8   9
ENDBRANCH   2   8
TORSDOF 2
ENDMDL
MODEL      136
REMARK 921   NORMALIZED FREE ENERGY PREDICTED BY IDOCK:   -3.08 KCAL/MOL
REMARK 922        TOTAL FREE ENERGY PREDICTED BY IDOCK:   -3.64 KCAL/MOL
REMARK 923 INTER-LIGAND FREE ENERGY PREDICTED BY IDOCK:   -3.44 KCAL/MOL
REMARK 924 INTRA-LIGAND FREE ENERGY PREDICTED BY IDOCK:   -0.19 KCAL/MOL
REMARK 927      BINDING AFFINITY PREDICTED BY RF-SCORE:    0.00 PKD
ROOT
ATOM      1  N   PHE A   1      -8.257  10.983  66.091  1.00  0.00    -0.191 NA 
ATOM      2  CA  PHE A   1      -9.660  10.554  66.406  1.00  0.00    -0.177 C  
ATOM      3  H1  PHE A   1      -8.107  11.202  65.106  1.00  0.00     0.000 HD 
ATOM      4  H2  PHE A   1      -7.586  10.283  66.411  1.00  0.00     0.000 HD 
ATOM      5  C   PHE A   1     -10.605  11.681  65.959  1.00  0.00    -0.258 C  
ATOM      6  OXT PHE A   1     -11.750  11.849  66.343  1.00  0.00    -0.522 OA 
ATOM      7  O   PHE A   1     -10.003  12.474  65.030  1.00  0.00    -0.255 OA 
ENDROOT
BRANCH   2   8
ATOM      8  CB  PHE A   1      -9.887  10.224  67.890  1.00  0.00    -0.181 C  
BRANCH   8   9
ATOM      9  CG  PHE A   1     -10.221   8.770  68.128  1.00  0.00    -0.250 A  
ATOM     10  CD1 PHE A   1     -10.117   8.215  69.412  1.00  0.00    -0.194 A  
ATOM     11  CE1 PHE A   1     -10.390   6.863  69.622  1.00  0.00    -0.224 A  
ATOM     12  CZ  PHE A   1     -10.776   6.055  68.556  1.00  0.00    -0.354 A  
ATOM     13  CE2 PHE A   1     -10.891   6.596  67.278  1.00  0.00    -0.456 A  
ATOM     14  CD2 PHE A   1     -10.613   7.948  67.063  1.00  0.00    -0.381 A  
ENDBRANCH   8   9
ENDBRANCH   2   8
TORSDOF 2
ENDMDL
MODEL      137
REMARK 921   NORMALIZED FREE ENERGY PREDICTED BY IDOCK:   -3.06 KCAL/MOL
REMARK 922        TOTAL FREE ENERGY PREDICTED BY IDOCK:   -3.62 KCAL/MOL
REMARK 923 INTER-LIGAND FREE ENERGY PREDICTED BY IDOCK:   -3.60 KCAL/MOL
REMARK 924 INTRA-LIGAND FREE ENERGY PREDICTED BY IDOCK:   -0.02 KCAL/MOL
REMARK 927      BINDING AFFINITY PREDICTED BY RF-SCORE:    0.00 PKD
ROOT
ATOM      1  N   PHE A   1      -7.963  19.599  68.478  1.00  0.00    -0.337 NA 
ATOM      2  CA  PHE A   1      -8.386  19.902  67.070  1.00  0.00    -0.319 C  
ATOM      3  H1  PHE A   1      -8.310  20.271  69.163  1.00  0.00     0.000 HD 
ATOM      4  H2  PHE A   1      -6.949  19.514  68.539  1.00  0.00     0.000 HD 
ATOM      5  C   PHE A   1      -9.922  19.950  67.043  1.00  0.00    -0.428 C  
ATOM      6  OXT PHE A   1     -10.623  19.834  66.051  1.00  0.00    -0.495 OA 
ATOM      7  O   PHE A   1     -10.419  20.176  68.289  1.00  0.00    -0.373 OA 
ENDROOT
BRANCH   2   8
ATOM      8  CB  PHE A   1      -7.864  18.890  66.037  1.00  0.00    -0.214 C  
BRANCH   8   9
ATOM      9  CG  PHE A   1      -7.769  17.486  66.583  1.00  0.00    -0.289 A  
ATOM     10  CD1 PHE A   1      -6.530  16.951  66.967  1.00  0.00    -0.235 A  
ATOM     11  CE1 PHE A   1      -6.440  15.641  67.436  1.00  0.00    -0.172 A  
ATOM     12  CZ  PHE A   1      -7.585  14.853  67.533  1.00  0.00    -0.218 A  
ATOM     13  CE2 PHE A   1      -8.821  15.375  67.163  1.00  0.00    -0.234 A  
ATOM     14  CD2 PHE A   1      -8.915  16.685  66.688  1.00  0.00    -0.285 A  
ENDBRANCH   8   9
ENDBRANCH   2   8
TORSDOF 2
ENDMDL
MODEL      138
REMARK 921   NORMALIZED FREE ENERGY PREDICTED BY IDOCK:   -3.04 KCAL/MOL
REMARK 922        TOTAL FREE ENERGY PREDICTED BY IDOCK:   -3.60 KCAL/MOL
REMARK 923 INTER-LIGAND FREE ENERGY PREDICTED BY IDOCK:   -3.48 KCAL/MOL
REMARK 924 INTRA-LIGAND FREE ENERGY PREDICTED BY IDOCK:   -0.11 KCAL/MOL
REMARK 927      BINDING AFFINITY PREDICTED BY RF-SCORE:    0.00 PKD
ROOT
ATOM      1  N   PHE A   1     -12.696   8.174  72.601  1.00  0.00    -0.596 NA 
ATOM      2  CA  PHE A   1     -11.257   8.361  72.219  1.00  0.00    -0.376 C  
ATOM      3  H1  PHE A   1     -13.123   9.006  73.008  1.00  0.00     0.000 HD 
ATOM      4  H2  PHE A   1     -12.802   7.373  73.225  1.00  0.00     0.000 HD 
ATOM      5  C   PHE A   1     -11.185   9.536  71.231  1.00  0.00    -0.382 C  
ATOM      6  OXT PHE A   1     -10.268   9.766  70.460  1.00  0.00    -0.274 OA 
ATOM      7  O   PHE A   1     -12.283  10.332  71.348  1.00  0.00    -0.363 OA 
ENDROOT
BRANCH   2   8
ATOM      8  CB  PHE A   1     -10.613   7.107  71.606  1.00  0.00    -0.229 C  
BRANCH   8   9
ATOM      9  CG  PHE A   1     -10.336   6.027  72.624  1.00  0.00    -0.222 A  
ATOM     10  CD1 PHE A   1     -11.249   4.979  72.819  1.00  0.00    -0.295 A  
ATOM     11  CE1 PHE A   1     -11.009   4.004  73.787  1.00  0.00    -0.326 A  
ATOM     12  CZ  PHE A   1      -9.853   4.058  74.563  1.00  0.00    -0.179 A  
ATOM     13  CE2 PHE A   1      -8.936   5.088  74.373  1.00  0.00    -0.111 A  
ATOM     14  CD2 PHE A   1      -9.176   6.071  73.409  1.00  0.00    -0.131 A  
ENDBRANCH   8   9
ENDBRANCH   2   8
TORSDOF 2
ENDMDL
MODEL      139
REMARK 921   NORMALIZED FREE ENERGY PREDICTED BY IDOCK:   -3.04 KCAL/MOL
REMARK 922        TOTAL FREE ENERGY PREDICTED BY IDOCK:   -3.59 KCAL/MOL
REMARK 923 INTER-LIGAND FREE ENERGY PREDICTED BY IDOCK:   -3.64 KCAL/MOL
REMARK 924 INTRA-LIGAND FREE ENERGY PREDICTED BY IDOCK:    0.05 KCAL/MOL
REMARK 927      BINDING AFFINITY PREDICTED BY RF-SCORE:    0.00 PKD
ROOT
ATOM      1  N   PHE A   1      -7.003  16.669  66.636  1.00  0.00    -0.228 NA 
ATOM      2  CA  PHE A   1      -7.116  16.319  68.091  1.00  0.00    -0.135 C  
ATOM      3  H1  PHE A   1      -6.914  15.856  66.025  1.00  0.00     0.000 HD 
ATOM      4  H2  PHE A   1      -6.234  17.321  66.481  1.00  0.00     0.000 HD 
ATOM      5  C   PHE A   1      -8.331  15.391  68.255  1.00  0.00    -0.150 C  
ATOM      6  OXT PHE A   1      -8.930  15.177  69.296  1.00  0.00    -0.218 OA 
ATOM      7  O   PHE A   1      -8.645  14.795  67.073  1.00  0.00    -0.215 OA 
ENDROOT
BRANCH   2   8
ATOM      8  CB  PHE A   1      -7.250  17.543  69.011  1.00  0.00    -0.215 C  
BRANCH   8   9
ATOM      9  CG  PHE A   1      -8.099  18.640  68.415  1.00  0.00    -0.360 A  
ATOM     10  CD1 PHE A   1      -9.494  18.625  68.569  1.00  0.00    -0.386 A  
ATOM     11  CE1 PHE A   1     -10.280  19.619  67.986  1.00  0.00    -0.579 A  
ATOM     12  CZ  PHE A   1      -9.683  20.641  67.251  1.00  0.00    -0.562 A  
ATOM     13  CE2 PHE A   1      -8.300  20.671  67.098  1.00  0.00    -0.292 A  
ATOM     14  CD2 PHE A   1      -7.509  19.674  67.676  1.00  0.00    -0.304 A  
ENDBRANCH   8   9
ENDBRANCH   2   8
TORSDOF 2
ENDMDL
MODEL      140
REMARK 921   NORMALIZED FREE ENERGY PREDICTED BY IDOCK:   -3.02 KCAL/MOL
REMARK 922        TOTAL FREE ENERGY PREDICTED BY IDOCK:   -3.58 KCAL/MOL
REMARK 923 INTER-LIGAND FREE ENERGY PREDICTED BY IDOCK:   -3.40 KCAL/MOL
REMARK 924 INTRA-LIGAND FREE ENERGY PREDICTED BY IDOCK:   -0.18 KCAL/MOL
REMARK 927      BINDING AFFINITY PREDICTED BY RF-SCORE:    0.00 PKD
ROOT
ATOM      1  N   PHE A   1      -9.788   4.669  71.331  1.00  0.00    -0.185 NA 
ATOM      2  CA  PHE A   1     -10.490   5.935  70.935  1.00  0.00    -0.244 C  
ATOM      3  H1  PHE A   1      -9.508   4.646  72.312  1.00  0.00     0.000 HD 
ATOM      4  H2  PHE A   1      -8.988   4.495  70.723  1.00  0.00     0.000 HD 
ATOM      5  C   PHE A   1     -11.718   6.094  71.847  1.00  0.00    -0.279 C  
ATOM      6  OXT PHE A   1     -12.692   6.790  71.618  1.00  0.00    -0.366 OA 
ATOM      7  O   PHE A   1     -11.567   5.368  72.988  1.00  0.00    -0.296 OA 
ENDROOT
BRANCH   2   8
ATOM      8  CB  PHE A   1     -10.913   5.970  69.457  1.00  0.00    -0.467 C  
BRANCH   8   9
ATOM      9  CG  PHE A   1     -10.542   7.260  68.767  1.00  0.00    -0.202 A  
ATOM     10  CD1 PHE A   1     -10.175   8.389  69.516  1.00  0.00    -0.207 A  
ATOM     11  CE1 PHE A   1      -9.868   9.591  68.877  1.00  0.00    -0.179 A  
ATOM     12  CZ  PHE A   1      -9.917   9.677  67.488  1.00  0.00    -0.231 A  
ATOM     13  CE2 PHE A   1     -10.271   8.561  66.734  1.00  0.00    -0.370 A  
ATOM     14  CD2 PHE A   1     -10.584   7.357  67.370  1.00  0.00    -0.371 A  
ENDBRANCH   8   9
ENDBRANCH   2   8
TORSDOF 2
ENDMDL
MODEL      141
REMARK 921   NORMALIZED FREE ENERGY PREDICTED BY IDOCK:   -3.02 KCAL/MOL
REMARK 922        TOTAL FREE ENERGY PREDICTED BY IDOCK:   -3.58 KCAL/MOL
REMARK 923 INTER-LIGAND FREE ENERGY PREDICTED BY IDOCK:   -3.41 KCAL/MOL
REMARK 924 INTRA-LIGAND FREE ENERGY PREDICTED BY IDOCK:   -0.16 KCAL/MOL
REMARK 927      BINDING AFFINITY PREDICTED BY RF-SCORE:    0.00 PKD
ROOT
ATOM      1  N   PHE A   1     -11.581   6.787  70.590  1.00  0.00    -0.349 NA 
ATOM      2  CA  PHE A   1     -11.738   7.643  71.814  1.00  0.00    -0.283 C  
ATOM      3  H1  PHE A   1     -12.231   6.002  70.554  1.00  0.00     0.000 HD 
ATOM      4  H2  PHE A   1     -10.618   6.462  70.499  1.00  0.00     0.000 HD 
ATOM      5  C   PHE A   1     -13.190   8.147  71.848  1.00  0.00    -0.325 C  
ATOM      6  OXT PHE A   1     -13.597   9.109  72.477  1.00  0.00    -0.470 OA 
ATOM      7  O   PHE A   1     -13.995   7.349  71.096  1.00  0.00    -0.327 OA 
ENDROOT
BRANCH   2   8
ATOM      8  CB  PHE A   1     -10.759   8.826  71.869  1.00  0.00    -0.429 C  
BRANCH   8   9
ATOM      9  CG  PHE A   1      -9.399   8.443  72.403  1.00  0.00    -0.356 A  
ATOM     10  CD1 PHE A   1      -8.238   8.730  71.669  1.00  0.00    -0.171 A  
ATOM     11  CE1 PHE A   1      -6.986   8.342  72.148  1.00  0.00    -0.098 A  
ATOM     12  CZ  PHE A   1      -6.879   7.672  73.364  1.00  0.00    -0.085 A  
ATOM     13  CE2 PHE A   1      -8.024   7.390  74.105  1.00  0.00    -0.178 A  
ATOM     14  CD2 PHE A   1      -9.280   7.772  73.627  1.00  0.00    -0.344 A  
ENDBRANCH   8   9
ENDBRANCH   2   8
TORSDOF 2
ENDMDL
MODEL      142
REMARK 921   NORMALIZED FREE ENERGY PREDICTED BY IDOCK:   -3.01 KCAL/MOL
REMARK 922        TOTAL FREE ENERGY PREDICTED BY IDOCK:   -3.57 KCAL/MOL
REMARK 923 INTER-LIGAND FREE ENERGY PREDICTED BY IDOCK:   -3.36 KCAL/MOL
REMARK 924 INTRA-LIGAND FREE ENERGY PREDICTED BY IDOCK:   -0.20 KCAL/MOL
REMARK 927      BINDING AFFINITY PREDICTED BY RF-SCORE:    0.00 PKD
ROOT
ATOM      1  N   PHE A   1     -12.076  10.758  68.431  1.00  0.00    -0.827 NA 
ATOM      2  CA  PHE A   1     -11.130   9.646  68.777  1.00  0.00    -0.049 C  
ATOM      3  H1  PHE A   1     -12.855  10.852  69.083  1.00  0.00     0.000 HD 
ATOM      4  H2  PHE A   1     -12.418  10.656  67.475  1.00  0.00     0.000 HD 
ATOM      5  C   PHE A   1     -10.608   9.903  70.200  1.00  0.00    -0.297 C  
ATOM      6  OXT PHE A   1      -9.597   9.425  70.688  1.00  0.00    -0.250 OA 
ATOM      7  O   PHE A   1     -11.451  10.725  70.881  1.00  0.00    -0.260 OA 
ENDROOT
BRANCH   2   8
ATOM      8  CB  PHE A   1      -9.957   9.504  67.794  1.00  0.00    -0.216 C  
BRANCH   8   9
ATOM      9  CG  PHE A   1      -9.852   8.122  67.195  1.00  0.00    -0.281 A  
ATOM     10  CD1 PHE A   1     -10.828   7.151  67.468  1.00  0.00    -0.311 A  
ATOM     11  CE1 PHE A   1     -10.709   5.864  66.943  1.00  0.00    -0.395 A  
ATOM     12  CZ  PHE A   1      -9.623   5.535  66.135  1.00  0.00    -0.158 A  
ATOM     13  CE2 PHE A   1      -8.654   6.493  65.850  1.00  0.00    -0.153 A  
ATOM     14  CD2 PHE A   1      -8.765   7.782  66.379  1.00  0.00    -0.167 A  
ENDBRANCH   8   9
ENDBRANCH   2   8
TORSDOF 2
ENDMDL
MODEL      143
REMARK 921   NORMALIZED FREE ENERGY PREDICTED BY IDOCK:   -2.98 KCAL/MOL
REMARK 922        TOTAL FREE ENERGY PREDICTED BY IDOCK:   -3.53 KCAL/MOL
REMARK 923 INTER-LIGAND FREE ENERGY PREDICTED BY IDOCK:   -3.34 KCAL/MOL
REMARK 924 INTRA-LIGAND FREE ENERGY PREDICTED BY IDOCK:   -0.19 KCAL/MOL
REMARK 927      BINDING AFFINITY PREDICTED BY RF-SCORE:    0.00 PKD
ROOT
ATOM      1  N   PHE A   1     -10.583  10.316  70.503  1.00  0.00    -0.421 NA 
ATOM      2  CA  PHE A   1     -11.198   9.163  71.241  1.00  0.00    -0.337 C  
ATOM      3  H1  PHE A   1     -11.164  10.673  69.744  1.00  0.00     0.000 HD 
ATOM      4  H2  PHE A   1      -9.654  10.069  70.160  1.00  0.00     0.000 HD 
ATOM      5  C   PHE A   1     -12.559   9.629  71.783  1.00  0.00    -0.409 C  
ATOM      6  OXT PHE A   1     -13.183   9.107  72.692  1.00  0.00    -0.436 OA 
ATOM      7  O   PHE A   1     -13.014  10.705  71.085  1.00  0.00    -0.365 OA 
ENDROOT
BRANCH   2   8
ATOM      8  CB  PHE A   1     -10.323   8.625  72.385  1.00  0.00    -0.317 C  
BRANCH   8   9
ATOM      9  CG  PHE A   1      -9.903   7.189  72.180  1.00  0.00    -0.171 A  
ATOM     10  CD1 PHE A   1     -10.818   6.238  71.703  1.00  0.00    -0.298 A  
ATOM     11  CE1 PHE A   1     -10.438   4.905  71.550  1.00  0.00    -0.179 A  
ATOM     12  CZ  PHE A   1      -9.140   4.508  71.863  1.00  0.00    -0.164 A  
ATOM     13  CE2 PHE A   1      -8.220   5.444  72.328  1.00  0.00    -0.115 A  
ATOM     14  CD2 PHE A   1      -8.599   6.779  72.489  1.00  0.00    -0.127 A  
ENDBRANCH   8   9
ENDBRANCH   2   8
TORSDOF 2
ENDMDL
MODEL      144
REMARK 921   NORMALIZED FREE ENERGY PREDICTED BY IDOCK:   -2.94 KCAL/MOL
REMARK 922        TOTAL FREE ENERGY PREDICTED BY IDOCK:   -3.49 KCAL/MOL
REMARK 923 INTER-LIGAND FREE ENERGY PREDICTED BY IDOCK:   -3.31 KCAL/MOL
REMARK 924 INTRA-LIGAND FREE ENERGY PREDICTED BY IDOCK:   -0.18 KCAL/MOL
REMARK 927      BINDING AFFINITY PREDICTED BY RF-SCORE:    0.00 PKD
ROOT
ATOM      1  N   PHE A   1     -11.739  13.446  66.175  1.00  0.00    -0.351 NA 
ATOM      2  CA  PHE A   1     -10.359  13.719  66.697  1.00  0.00    -0.279 C  
ATOM      3  H1  PHE A   1     -11.763  12.758  65.422  1.00  0.00     0.000 HD 
ATOM      4  H2  PHE A   1     -12.192  14.313  65.886  1.00  0.00     0.000 HD 
ATOM      5  C   PHE A   1      -9.767  12.382  67.174  1.00  0.00    -0.207 C  
ATOM      6  OXT PHE A   1      -8.833  12.250  67.947  1.00  0.00    -0.163 OA 
ATOM      7  O   PHE A   1     -10.408  11.335  66.587  1.00  0.00    -0.221 OA 
ENDROOT
BRANCH   2   8
ATOM      8  CB  PHE A   1     -10.321  14.756  67.832  1.00  0.00    -0.240 C  
BRANCH   8   9
ATOM      9  CG  PHE A   1      -9.702  16.068  67.412  1.00  0.00    -0.232 A  
ATOM     10  CD1 PHE A   1     -10.300  17.285  67.771  1.00  0.00    -0.356 A  
ATOM     11  CE1 PHE A   1      -9.747  18.495  67.350  1.00  0.00    -0.318 A  
ATOM     12  CZ  PHE A   1      -8.589  18.503  66.576  1.00  0.00    -0.289 A  
ATOM     13  CE2 PHE A   1      -7.982  17.301  66.222  1.00  0.00    -0.330 A  
ATOM     14  CD2 PHE A   1      -8.536  16.087  66.635  1.00  0.00    -0.323 A  
ENDBRANCH   8   9
ENDBRANCH   2   8
TORSDOF 2
ENDMDL
MODEL      145
REMARK 921   NORMALIZED FREE ENERGY PREDICTED BY IDOCK:   -2.93 KCAL/MOL
REMARK 922        TOTAL FREE ENERGY PREDICTED BY IDOCK:   -3.48 KCAL/MOL
REMARK 923 INTER-LIGAND FREE ENERGY PREDICTED BY IDOCK:   -3.27 KCAL/MOL
REMARK 924 INTRA-LIGAND FREE ENERGY PREDICTED BY IDOCK:   -0.20 KCAL/MOL
REMARK 927      BINDING AFFINITY PREDICTED BY RF-SCORE:    0.00 PKD
ROOT
ATOM      1  N   PHE A   1      -7.474  10.569  65.088  1.00  0.00    -0.302 NA 
ATOM      2  CA  PHE A   1      -8.767  10.830  65.805  1.00  0.00    -0.186 C  
ATOM      3  H1  PHE A   1      -6.769  10.115  65.669  1.00  0.00     0.000 HD 
ATOM      4  H2  PHE A   1      -7.107  11.430  64.683  1.00  0.00     0.000 HD 
ATOM      5  C   PHE A   1      -9.290   9.482  66.328  1.00  0.00    -0.188 C  
ATOM      6  OXT PHE A   1     -10.441   9.240  66.653  1.00  0.00    -0.237 OA 
ATOM      7  O   PHE A   1      -8.280   8.576  66.421  1.00  0.00    -0.104 OA 
ENDROOT
BRANCH   2   8
ATOM      8  CB  PHE A   1      -9.830  11.514  64.931  1.00  0.00    -0.289 C  
BRANCH   8   9
ATOM      9  CG  PHE A   1     -10.540  12.642  65.640  1.00  0.00    -0.299 A  
ATOM     10  CD1 PHE A   1      -9.813  13.715  66.180  1.00  0.00    -0.304 A  
ATOM     11  CE1 PHE A   1     -10.468  14.737  66.867  1.00  0.00    -0.277 A  
ATOM     12  CZ  PHE A   1     -11.853  14.705  67.015  1.00  0.00    -0.358 A  
ATOM     13  CE2 PHE A   1     -12.585  13.651  66.476  1.00  0.00    -0.225 A  
ATOM     14  CD2 PHE A   1     -11.933  12.622  65.792  1.00  0.00    -0.503 A  
ENDBRANCH   8   9
ENDBRANCH   2   8
TORSDOF 2
ENDMDL
MODEL      146
REMARK 921   NORMALIZED FREE ENERGY PREDICTED BY IDOCK:   -2.93 KCAL/MOL
REMARK 922        TOTAL FREE ENERGY PREDICTED BY IDOCK:   -3.47 KCAL/MOL
REMARK 923 INTER-LIGAND FREE ENERGY PREDICTED BY IDOCK:   -3.84 KCAL/MOL
REMARK 924 INTRA-LIGAND FREE ENERGY PREDICTED BY IDOCK:    0.37 KCAL/MOL
REMARK 927      BINDING AFFINITY PREDICTED BY RF-SCORE:    0.00 PKD
ROOT
ATOM      1  N   PHE A   1      -9.753  12.521  68.813  1.00  0.00    -0.416 NA 
ATOM      2  CA  PHE A   1     -10.521  11.381  68.210  1.00  0.00    -0.198 C  
ATOM      3  H1  PHE A   1      -8.849  12.248  69.197  1.00  0.00     0.000 HD 
ATOM      4  H2  PHE A   1     -10.314  13.000  69.518  1.00  0.00     0.000 HD 
ATOM      5  C   PHE A   1      -9.642  10.754  67.116  1.00  0.00    -0.161 C  
ATOM      6  OXT PHE A   1     -10.034  10.048  66.201  1.00  0.00    -0.229 OA 
ATOM      7  O   PHE A   1      -8.332  11.061  67.315  1.00  0.00    -0.121 OA 
ENDROOT
BRANCH   2   8
ATOM      8  CB  PHE A   1     -11.884  11.793  67.630  1.00  0.00    -0.241 C  
BRANCH   8   9
ATOM      9  CG  PHE A   1     -11.772  12.824  66.533  1.00  0.00    -0.463 A  
ATOM     10  CD1 PHE A   1     -12.164  12.515  65.221  1.00  0.00    -0.493 A  
ATOM     11  CE1 PHE A   1     -12.024  13.457  64.202  1.00  0.00    -0.505 A  
ATOM     12  CZ  PHE A   1     -11.500  14.717  64.481  1.00  0.00    -0.340 A  
ATOM     13  CE2 PHE A   1     -11.116  15.038  65.780  1.00  0.00    -0.346 A  
ATOM     14  CD2 PHE A   1     -11.249  14.096  66.803  1.00  0.00    -0.330 A  
ENDBRANCH   8   9
ENDBRANCH   2   8
TORSDOF 2
ENDMDL
MODEL      147
REMARK 921   NORMALIZED FREE ENERGY PREDICTED BY IDOCK:   -2.91 KCAL/MOL
REMARK 922        TOTAL FREE ENERGY PREDICTED BY IDOCK:   -3.45 KCAL/MOL
REMARK 923 INTER-LIGAND FREE ENERGY PREDICTED BY IDOCK:   -3.26 KCAL/MOL
REMARK 924 INTRA-LIGAND FREE ENERGY PREDICTED BY IDOCK:   -0.20 KCAL/MOL
REMARK 927      BINDING AFFINITY PREDICTED BY RF-SCORE:    0.00 PKD
ROOT
ATOM      1  N   PHE A   1      -7.368  16.237  67.120  1.00  0.00    -0.187 NA 
ATOM      2  CA  PHE A   1      -8.038  15.194  67.966  1.00  0.00    -0.135 C  
ATOM      3  H1  PHE A   1      -6.382  16.373  67.343  1.00  0.00     0.000 HD 
ATOM      4  H2  PHE A   1      -7.874  17.122  67.172  1.00  0.00     0.000 HD 
ATOM      5  C   PHE A   1      -7.264  13.879  67.785  1.00  0.00    -0.164 C  
ATOM      6  OXT PHE A   1      -7.686  12.761  68.031  1.00  0.00    -0.113 OA 
ATOM      7  O   PHE A   1      -6.002  14.120  67.338  1.00  0.00    -0.348 OA 
ENDROOT
BRANCH   2   8
ATOM      8  CB  PHE A   1      -9.525  14.989  67.631  1.00  0.00    -0.195 C  
BRANCH   8   9
ATOM      9  CG  PHE A   1     -10.391  14.841  68.859  1.00  0.00    -0.243 A  
ATOM     10  CD1 PHE A   1     -11.231  13.727  69.009  1.00  0.00    -0.313 A  
ATOM     11  CE1 PHE A   1     -12.058  13.611  70.127  1.00  0.00    -0.431 A  
ATOM     12  CZ  PHE A   1     -12.049  14.599  71.109  1.00  0.00    -0.403 A  
ATOM     13  CE2 PHE A   1     -11.214  15.704  70.975  1.00  0.00    -0.411 A  
ATOM     14  CD2 PHE A   1     -10.389  15.828  69.855  1.00  0.00    -0.313 A  
ENDBRANCH   8   9
ENDBRANCH   2   8
TORSDOF 2
ENDMDL
MODEL      148
REMARK 921   NORMALIZED FREE ENERGY PREDICTED BY IDOCK:   -2.90 KCAL/MOL
REMARK 922        TOTAL FREE ENERGY PREDICTED BY IDOCK:   -3.44 KCAL/MOL
REMARK 923 INTER-LIGAND FREE ENERGY PREDICTED BY IDOCK:   -3.28 KCAL/MOL
REMARK 924 INTRA-LIGAND FREE ENERGY PREDICTED BY IDOCK:   -0.17 KCAL/MOL
REMARK 927      BINDING AFFINITY PREDICTED BY RF-SCORE:    0.00 PKD
ROOT
ATOM      1  N   PHE A   1      -9.737   9.581  64.002  1.00  0.00    -0.356 NA 
ATOM      2  CA  PHE A   1      -9.174  10.804  64.665  1.00  0.00    -0.219 C  
ATOM      3  H1  PHE A   1      -9.110   9.162  63.315  1.00  0.00     0.000 HD 
ATOM      4  H2  PHE A   1     -10.646   9.784  63.584  1.00  0.00     0.000 HD 
ATOM      5  C   PHE A   1      -7.844  10.406  65.326  1.00  0.00    -0.137 C  
ATOM      6  OXT PHE A   1      -7.279  11.017  66.218  1.00  0.00    -0.138 OA 
ATOM      7  O   PHE A   1      -7.343   9.275  64.759  1.00  0.00    -0.099 OA 
ENDROOT
BRANCH   2   8
ATOM      8  CB  PHE A   1     -10.118  11.436  65.700  1.00  0.00    -0.293 C  
BRANCH   8   9
ATOM      9  CG  PHE A   1     -10.677  12.766  65.255  1.00  0.00    -0.319 A  
ATOM     10  CD1 PHE A   1     -11.651  12.829  64.247  1.00  0.00    -0.433 A  
ATOM     11  CE1 PHE A   1     -12.139  14.062  63.812  1.00  0.00    -0.265 A  
ATOM     12  CZ  PHE A   1     -11.666  15.241  64.381  1.00  0.00    -0.289 A  
ATOM     13  CE2 PHE A   1     -10.706  15.191  65.388  1.00  0.00    -0.396 A  
ATOM     14  CD2 PHE A   1     -10.211  13.959  65.823  1.00  0.00    -0.331 A  
ENDBRANCH   8   9
ENDBRANCH   2   8
TORSDOF 2
ENDMDL
MODEL      149
REMARK 921   NORMALIZED FREE ENERGY PREDICTED BY IDOCK:   -2.90 KCAL/MOL
REMARK 922        TOTAL FREE ENERGY PREDICTED BY IDOCK:   -3.43 KCAL/MOL
REMARK 923 INTER-LIGAND FREE ENERGY PREDICTED BY IDOCK:   -3.24 KCAL/MOL
REMARK 924 INTRA-LIGAND FREE ENERGY PREDICTED BY IDOCK:   -0.19 KCAL/MOL
REMARK 927      BINDING AFFINITY PREDICTED BY RF-SCORE:    0.00 PKD
ROOT
ATOM      1  N   PHE A   1      -8.083   8.383  67.719  1.00  0.00    -0.121 NA 
ATOM      2  CA  PHE A   1      -9.290   7.601  68.146  1.00  0.00    -0.144 C  
ATOM      3  H1  PHE A   1      -7.387   7.824  67.225  1.00  0.00     0.000 HD 
ATOM      4  H2  PHE A   1      -7.662   8.860  68.517  1.00  0.00     0.000 HD 
ATOM      5  C   PHE A   1      -9.906   6.968  66.887  1.00  0.00    -0.199 C  
ATOM      6  OXT PHE A   1     -11.049   6.557  66.781  1.00  0.00    -0.362 OA 
ATOM      7  O   PHE A   1      -8.986   6.890  65.888  1.00  0.00    -0.145 OA 
ENDROOT
BRANCH   2   8
ATOM      8  CB  PHE A   1     -10.340   8.442  68.890  1.00  0.00    -0.231 C  
BRANCH   8   9
ATOM      9  CG  PHE A   1     -10.577   7.972  70.306  1.00  0.00    -0.231 A  
ATOM     10  CD1 PHE A   1     -11.475   6.927  70.570  1.00  0.00    -0.390 A  
ATOM     11  CE1 PHE A   1     -11.720   6.520  71.881  1.00  0.00    -0.371 A  
ATOM     12  CZ  PHE A   1     -11.067   7.145  72.941  1.00  0.00    -0.338 A  
ATOM     13  CE2 PHE A   1     -10.167   8.177  72.691  1.00  0.00    -0.388 A  
ATOM     14  CD2 PHE A   1      -9.923   8.592  71.379  1.00  0.00    -0.324 A  
ENDBRANCH   8   9
ENDBRANCH   2   8
TORSDOF 2
ENDMDL
MODEL      150
REMARK 921   NORMALIZED FREE ENERGY PREDICTED BY IDOCK:   -2.87 KCAL/MOL
REMARK 922        TOTAL FREE ENERGY PREDICTED BY IDOCK:   -3.41 KCAL/MOL
REMARK 923 INTER-LIGAND FREE ENERGY PREDICTED BY IDOCK:   -3.37 KCAL/MOL
REMARK 924 INTRA-LIGAND FREE ENERGY PREDICTED BY IDOCK:   -0.03 KCAL/MOL
REMARK 927      BINDING AFFINITY PREDICTED BY RF-SCORE:    0.00 PKD
ROOT
ATOM      1  N   PHE A   1      -9.393   6.590  69.816  1.00  0.00    -0.148 NA 
ATOM      2  CA  PHE A   1      -9.205   5.730  71.031  1.00  0.00    -0.149 C  
ATOM      3  H1  PHE A   1      -8.972   6.203  68.971  1.00  0.00     0.000 HD 
ATOM      4  H2  PHE A   1      -9.052   7.536  69.987  1.00  0.00     0.000 HD 
ATOM      5  C   PHE A   1      -9.800   4.347  70.722  1.00  0.00    -0.203 C  
ATOM      6  OXT PHE A   1     -10.134   3.512  71.546  1.00  0.00    -0.142 OA 
ATOM      7  O   PHE A   1      -9.881   4.147  69.378  1.00  0.00    -0.197 OA 
ENDROOT
BRANCH   2   8
ATOM      8  CB  PHE A   1      -9.840   6.313  72.304  1.00  0.00    -0.175 C  
BRANCH   8   9
ATOM      9  CG  PHE A   1     -11.027   7.201  72.018  1.00  0.00    -0.267 A  
ATOM     10  CD1 PHE A   1     -10.897   8.598  72.052  1.00  0.00    -0.430 A  
ATOM     11  CE1 PHE A   1     -12.004   9.416  71.824  1.00  0.00    -0.452 A  
ATOM     12  CZ  PHE A   1     -13.247   8.851  71.553  1.00  0.00    -0.375 A  
ATOM     13  CE2 PHE A   1     -13.387   7.466  71.508  1.00  0.00    -0.435 A  
ATOM     14  CD2 PHE A   1     -12.282   6.643  71.742  1.00  0.00    -0.400 A  
ENDBRANCH   8   9
ENDBRANCH   2   8
TORSDOF 2
ENDMDL
MODEL      151
REMARK 921   NORMALIZED FREE ENERGY PREDICTED BY IDOCK:   -2.85 KCAL/MOL
REMARK 922        TOTAL FREE ENERGY PREDICTED BY IDOCK:   -3.39 KCAL/MOL
REMARK 923 INTER-LIGAND FREE ENERGY PREDICTED BY IDOCK:   -3.36 KCAL/MOL
REMARK 924 INTRA-LIGAND FREE ENERGY PREDICTED BY IDOCK:   -0.03 KCAL/MOL
REMARK 927      BINDING AFFINITY PREDICTED BY RF-SCORE:    0.00 PKD
ROOT
ATOM      1  N   PHE A   1     -12.334   7.035  70.905  1.00  0.00    -0.520 NA 
ATOM      2  CA  PHE A   1     -12.166   8.005  72.037  1.00  0.00    -0.331 C  
ATOM      3  H1  PHE A   1     -13.281   6.663  70.821  1.00  0.00     0.000 HD 
ATOM      4  H2  PHE A   1     -11.655   6.277  70.977  1.00  0.00     0.000 HD 
ATOM      5  C   PHE A   1     -13.173   9.148  71.826  1.00  0.00    -0.396 C  
ATOM      6  OXT PHE A   1     -13.110  10.258  72.328  1.00  0.00    -0.396 OA 
ATOM      7  O   PHE A   1     -14.189   8.750  71.014  1.00  0.00    -0.173 OA 
ENDROOT
BRANCH   2   8
ATOM      8  CB  PHE A   1     -10.740   8.566  72.164  1.00  0.00    -0.426 C  
BRANCH   8   9
ATOM      9  CG  PHE A   1     -10.023   8.659  70.838  1.00  0.00    -0.257 A  
ATOM     10  CD1 PHE A   1      -9.038   7.721  70.493  1.00  0.00    -0.154 A  
ATOM     11  CE1 PHE A   1      -8.350   7.831  69.284  1.00  0.00    -0.136 A  
ATOM     12  CZ  PHE A   1      -8.643   8.871  68.405  1.00  0.00    -0.134 A  
ATOM     13  CE2 PHE A   1      -9.625   9.803  68.733  1.00  0.00    -0.155 A  
ATOM     14  CD2 PHE A   1     -10.311   9.700  69.946  1.00  0.00    -0.282 A  
ENDBRANCH   8   9
ENDBRANCH   2   8
TORSDOF 2
ENDMDL
MODEL      152
REMARK 921   NORMALIZED FREE ENERGY PREDICTED BY IDOCK:   -2.83 KCAL/MOL
REMARK 922        TOTAL FREE ENERGY PREDICTED BY IDOCK:   -3.36 KCAL/MOL
REMARK 923 INTER-LIGAND FREE ENERGY PREDICTED BY IDOCK:   -3.16 KCAL/MOL
REMARK 924 INTRA-LIGAND FREE ENERGY PREDICTED BY IDOCK:   -0.20 KCAL/MOL
REMARK 927      BINDING AFFINITY PREDICTED BY RF-SCORE:    0.00 PKD
ROOT
ATOM      1  N   PHE A   1      -9.932  10.538  69.608  1.00  0.00    -0.403 NA 
ATOM      2  CA  PHE A   1      -9.314  11.422  68.565  1.00  0.00    -0.180 C  
ATOM      3  H1  PHE A   1      -9.549   9.593  69.623  1.00  0.00     0.000 HD 
ATOM      4  H2  PHE A   1     -10.947  10.514  69.506  1.00  0.00     0.000 HD 
ATOM      5  C   PHE A   1      -7.799  11.462  68.823  1.00  0.00    -0.128 C  
ATOM      6  OXT PHE A   1      -7.027  12.312  68.413  1.00  0.00    -0.070 OA 
ATOM      7  O   PHE A   1      -7.407  10.386  69.558  1.00  0.00    -0.112 OA 
ENDROOT
BRANCH   2   8
ATOM      8  CB  PHE A   1      -9.891  12.847  68.542  1.00  0.00    -0.147 C  
BRANCH   8   9
ATOM      9  CG  PHE A   1     -10.441  13.240  67.192  1.00  0.00    -0.248 A  
ATOM     10  CD1 PHE A   1     -11.808  13.100  66.910  1.00  0.00    -0.444 A  
ATOM     11  CE1 PHE A   1     -12.307  13.429  65.649  1.00  0.00    -0.521 A  
ATOM     12  CZ  PHE A   1     -11.450  13.907  64.661  1.00  0.00    -0.386 A  
ATOM     13  CE2 PHE A   1     -10.093  14.058  64.932  1.00  0.00    -0.288 A  
ATOM     14  CD2 PHE A   1      -9.588  13.725  66.191  1.00  0.00    -0.234 A  
ENDBRANCH   8   9
ENDBRANCH   2   8
TORSDOF 2
ENDMDL
MODEL      153
REMARK 921   NORMALIZED FREE ENERGY PREDICTED BY IDOCK:   -2.78 KCAL/MOL
REMARK 922        TOTAL FREE ENERGY PREDICTED BY IDOCK:   -3.31 KCAL/MOL
REMARK 923 INTER-LIGAND FREE ENERGY PREDICTED BY IDOCK:   -3.15 KCAL/MOL
REMARK 924 INTRA-LIGAND FREE ENERGY PREDICTED BY IDOCK:   -0.16 KCAL/MOL
REMARK 927      BINDING AFFINITY PREDICTED BY RF-SCORE:    0.00 PKD
ROOT
ATOM      1  N   PHE A   1      -8.745   5.408  71.476  1.00  0.00    -0.134 NA 
ATOM      2  CA  PHE A   1      -9.671   6.588  71.532  1.00  0.00    -0.168 C  
ATOM      3  H1  PHE A   1      -7.911   5.514  72.054  1.00  0.00     0.000 HD 
ATOM      4  H2  PHE A   1      -8.490   5.196  70.511  1.00  0.00     0.000 HD 
ATOM      5  C   PHE A   1     -10.063   6.804  73.003  1.00  0.00    -0.191 C  
ATOM      6  OXT PHE A   1     -11.034   7.427  73.400  1.00  0.00    -0.378 OA 
ATOM      7  O   PHE A   1      -9.153   6.227  73.834  1.00  0.00    -0.126 OA 
ENDROOT
BRANCH   2   8
ATOM      8  CB  PHE A   1     -10.928   6.429  70.661  1.00  0.00    -0.355 C  
BRANCH   8   9
ATOM      9  CG  PHE A   1     -10.726   6.902  69.242  1.00  0.00    -0.265 A  
ATOM     10  CD1 PHE A   1     -10.779   5.994  68.173  1.00  0.00    -0.353 A  
ATOM     11  CE1 PHE A   1     -10.555   6.428  66.866  1.00  0.00    -0.379 A  
ATOM     12  CZ  PHE A   1     -10.285   7.771  66.611  1.00  0.00    -0.288 A  
ATOM     13  CE2 PHE A   1     -10.240   8.682  67.663  1.00  0.00    -0.300 A  
ATOM     14  CD2 PHE A   1     -10.457   8.251  68.974  1.00  0.00    -0.212 A  
ENDBRANCH   8   9
ENDBRANCH   2   8
TORSDOF 2
ENDMDL
MODEL      154
REMARK 921   NORMALIZED FREE ENERGY PREDICTED BY IDOCK:   -2.77 KCAL/MOL
REMARK 922        TOTAL FREE ENERGY PREDICTED BY IDOCK:   -3.29 KCAL/MOL
REMARK 923 INTER-LIGAND FREE ENERGY PREDICTED BY IDOCK:   -3.82 KCAL/MOL
REMARK 924 INTRA-LIGAND FREE ENERGY PREDICTED BY IDOCK:    0.53 KCAL/MOL
REMARK 927      BINDING AFFINITY PREDICTED BY RF-SCORE:    0.00 PKD
ROOT
ATOM      1  N   PHE A   1     -10.746  17.358  67.763  1.00  0.00    -0.365 NA 
ATOM      2  CA  PHE A   1     -10.667  16.180  68.690  1.00  0.00    -0.295 C  
ATOM      3  H1  PHE A   1     -10.003  18.043  67.907  1.00  0.00     0.000 HD 
ATOM      4  H2  PHE A   1     -11.662  17.803  67.823  1.00  0.00     0.000 HD 
ATOM      5  C   PHE A   1      -9.289  15.525  68.496  1.00  0.00    -0.197 C  
ATOM      6  OXT PHE A   1      -8.990  14.385  68.809  1.00  0.00    -0.185 OA 
ATOM      7  O   PHE A   1      -8.409  16.406  67.949  1.00  0.00    -0.168 OA 
ENDROOT
BRANCH   2   8
ATOM      8  CB  PHE A   1     -11.785  15.148  68.474  1.00  0.00    -0.347 C  
BRANCH   8   9
ATOM      9  CG  PHE A   1     -11.647  14.392  67.174  1.00  0.00    -0.406 A  
ATOM     10  CD1 PHE A   1     -11.458  15.079  65.966  1.00  0.00    -0.221 A  
ATOM     11  CE1 PHE A   1     -11.368  14.380  64.762  1.00  0.00    -0.388 A  
ATOM     12  CZ  PHE A   1     -11.457  12.990  64.752  1.00  0.00    -0.363 A  
ATOM     13  CE2 PHE A   1     -11.636  12.297  65.946  1.00  0.00    -0.450 A  
ATOM     14  CD2 PHE A   1     -11.733  12.993  67.153  1.00  0.00    -0.439 A  
ENDBRANCH   8   9
ENDBRANCH   2   8
TORSDOF 2
ENDMDL
MODEL      155
REMARK 921   NORMALIZED FREE ENERGY PREDICTED BY IDOCK:   -2.77 KCAL/MOL
REMARK 922        TOTAL FREE ENERGY PREDICTED BY IDOCK:   -3.29 KCAL/MOL
REMARK 923 INTER-LIGAND FREE ENERGY PREDICTED BY IDOCK:   -3.29 KCAL/MOL
REMARK 924 INTRA-LIGAND FREE ENERGY PREDICTED BY IDOCK:   -0.00 KCAL/MOL
REMARK 927      BINDING AFFINITY PREDICTED BY RF-SCORE:    0.00 PKD
ROOT
ATOM      1  N   PHE A   1     -12.125   6.730  69.860  1.00  0.00    -0.625 NA 
ATOM      2  CA  PHE A   1     -11.002   6.804  70.852  1.00  0.00    -0.260 C  
ATOM      3  H1  PHE A   1     -13.036   6.556  70.284  1.00  0.00     0.000 HD 
ATOM      4  H2  PHE A   1     -11.925   6.036  69.139  1.00  0.00     0.000 HD 
ATOM      5  C   PHE A   1     -11.343   7.912  71.862  1.00  0.00    -0.276 C  
ATOM      6  OXT PHE A   1     -10.549   8.484  72.590  1.00  0.00    -0.304 OA 
ATOM      7  O   PHE A   1     -12.680   8.162  71.870  1.00  0.00    -0.313 OA 
ENDROOT
BRANCH   2   8
ATOM      8  CB  PHE A   1      -9.629   7.067  70.213  1.00  0.00    -0.168 C  
BRANCH   8   9
ATOM      9  CG  PHE A   1      -9.718   7.845  68.922  1.00  0.00    -0.158 A  
ATOM     10  CD1 PHE A   1      -9.454   7.221  67.693  1.00  0.00    -0.149 A  
ATOM     11  CE1 PHE A   1      -9.501   7.952  66.505  1.00  0.00    -0.277 A  
ATOM     12  CZ  PHE A   1      -9.819   9.307  66.530  1.00  0.00    -0.331 A  
ATOM     13  CE2 PHE A   1     -10.093   9.935  67.742  1.00  0.00    -0.221 A  
ATOM     14  CD2 PHE A   1     -10.041   9.209  68.935  1.00  0.00    -0.209 A  
ENDBRANCH   8   9
ENDBRANCH   2   8
TORSDOF 2
ENDMDL
MODEL      156
REMARK 921   NORMALIZED FREE ENERGY PREDICTED BY IDOCK:   -2.71 KCAL/MOL
REMARK 922        TOTAL FREE ENERGY PREDICTED BY IDOCK:   -3.23 KCAL/MOL
REMARK 923 INTER-LIGAND FREE ENERGY PREDICTED BY IDOCK:   -3.05 KCAL/MOL
REMARK 924 INTRA-LIGAND FREE ENERGY PREDICTED BY IDOCK:   -0.17 KCAL/MOL
REMARK 927      BINDING AFFINITY PREDICTED BY RF-SCORE:    0.00 PKD
ROOT
ATOM      1  N   PHE A   1      -7.028   8.066  72.176  1.00  0.00    -0.071 NA 
ATOM      2  CA  PHE A   1      -8.014   7.694  71.108  1.00  0.00    -0.091 C  
ATOM      3  H1  PHE A   1      -6.550   7.265  72.589  1.00  0.00     0.000 HD 
ATOM      4  H2  PHE A   1      -7.475   8.631  72.899  1.00  0.00     0.000 HD 
ATOM      5  C   PHE A   1      -7.256   6.907  70.026  1.00  0.00    -0.080 C  
ATOM      6  OXT PHE A   1      -7.626   6.735  68.877  1.00  0.00    -0.100 OA 
ATOM      7  O   PHE A   1      -6.107   6.382  70.530  1.00  0.00    -0.029 OA 
ENDROOT
BRANCH   2   8
ATOM      8  CB  PHE A   1      -8.734   8.901  70.485  1.00  0.00    -0.213 C  
BRANCH   8   9
ATOM      9  CG  PHE A   1     -10.139   9.084  71.007  1.00  0.00    -0.352 A  
ATOM     10  CD1 PHE A   1     -10.911  10.185  70.606  1.00  0.00    -0.357 A  
ATOM     11  CE1 PHE A   1     -12.195  10.371  71.118  1.00  0.00    -0.498 A  
ATOM     12  CZ  PHE A   1     -12.725   9.459  72.028  1.00  0.00    -0.483 A  
ATOM     13  CE2 PHE A   1     -11.972   8.358  72.426  1.00  0.00    -0.451 A  
ATOM     14  CD2 PHE A   1     -10.683   8.171  71.920  1.00  0.00    -0.329 A  
ENDBRANCH   8   9
ENDBRANCH   2   8
TORSDOF 2
ENDMDL
MODEL      157
REMARK 921   NORMALIZED FREE ENERGY PREDICTED BY IDOCK:   -2.71 KCAL/MOL
REMARK 922        TOTAL FREE ENERGY PREDICTED BY IDOCK:   -3.22 KCAL/MOL
REMARK 923 INTER-LIGAND FREE ENERGY PREDICTED BY IDOCK:   -3.18 KCAL/MOL
REMARK 924 INTRA-LIGAND FREE ENERGY PREDICTED BY IDOCK:   -0.05 KCAL/MOL
REMARK 927      BINDING AFFINITY PREDICTED BY RF-SCORE:    0.00 PKD
ROOT
ATOM      1  N   PHE A   1      -8.243   8.829  72.496  1.00  0.00    -0.391 NA 
ATOM      2  CA  PHE A   1      -7.856   8.594  71.065  1.00  0.00    -0.111 C  
ATOM      3  H1  PHE A   1      -7.471   8.717  73.153  1.00  0.00     0.000 HD 
ATOM      4  H2  PHE A   1      -9.029   8.233  72.759  1.00  0.00     0.000 HD 
ATOM      5  C   PHE A   1      -6.717   9.569  70.724  1.00  0.00    -0.105 C  
ATOM      6  OXT PHE A   1      -6.379   9.908  69.602  1.00  0.00    -0.043 OA 
ATOM      7  O   PHE A   1      -6.093   9.995  71.855  1.00  0.00    -0.296 OA 
ENDROOT
BRANCH   2   8
ATOM      8  CB  PHE A   1      -9.019   8.763  70.075  1.00  0.00    -0.162 C  
BRANCH   8   9
ATOM      9  CG  PHE A   1     -10.345   8.310  70.639  1.00  0.00    -0.220 A  
ATOM     10  CD1 PHE A   1     -10.668   6.945  70.692  1.00  0.00    -0.267 A  
ATOM     11  CE1 PHE A   1     -11.908   6.532  71.179  1.00  0.00    -0.383 A  
ATOM     12  CZ  PHE A   1     -12.834   7.472  71.624  1.00  0.00    -0.392 A  
ATOM     13  CE2 PHE A   1     -12.521   8.828  71.584  1.00  0.00    -0.392 A  
ATOM     14  CD2 PHE A   1     -11.282   9.247  71.092  1.00  0.00    -0.413 A  
ENDBRANCH   8   9
ENDBRANCH   2   8
TORSDOF 2
ENDMDL
MODEL      158
REMARK 921   NORMALIZED FREE ENERGY PREDICTED BY IDOCK:   -2.70 KCAL/MOL
REMARK 922        TOTAL FREE ENERGY PREDICTED BY IDOCK:   -3.21 KCAL/MOL
REMARK 923 INTER-LIGAND FREE ENERGY PREDICTED BY IDOCK:   -3.09 KCAL/MOL
REMARK 924 INTRA-LIGAND FREE ENERGY PREDICTED BY IDOCK:   -0.12 KCAL/MOL
REMARK 927      BINDING AFFINITY PREDICTED BY RF-SCORE:    0.00 PKD
ROOT
ATOM      1  N   PHE A   1     -12.495  10.728  68.739  1.00  0.00    -0.721 NA 
ATOM      2  CA  PHE A   1     -11.128  10.218  68.387  1.00  0.00    -0.247 C  
ATOM      3  H1  PHE A   1     -12.980  10.155  69.431  1.00  0.00     0.000 HD 
ATOM      4  H2  PHE A   1     -13.065  10.839  67.901  1.00  0.00     0.000 HD 
ATOM      5  C   PHE A   1     -10.310  10.140  69.686  1.00  0.00    -0.247 C  
ATOM      6  OXT PHE A   1      -9.093  10.100  69.762  1.00  0.00    -0.203 OA 
ATOM      7  O   PHE A   1     -11.130  10.087  70.770  1.00  0.00    -0.311 OA 
ENDROOT
BRANCH   2   8
ATOM      8  CB  PHE A   1     -10.397  11.080  67.345  1.00  0.00    -0.242 C  
BRANCH   8   9
ATOM      9  CG  PHE A   1      -9.399  10.297  66.527  1.00  0.00    -0.200 A  
ATOM     10  CD1 PHE A   1      -8.203  10.894  66.098  1.00  0.00    -0.168 A  
ATOM     11  CE1 PHE A   1      -7.299  10.180  65.311  1.00  0.00    -0.141 A  
ATOM     12  CZ  PHE A   1      -7.574   8.863  64.951  1.00  0.00    -0.108 A  
ATOM     13  CE2 PHE A   1      -8.753   8.257  65.378  1.00  0.00    -0.147 A  
ATOM     14  CD2 PHE A   1      -9.664   8.970  66.161  1.00  0.00    -0.354 A  
ENDBRANCH   8   9
ENDBRANCH   2   8
TORSDOF 2
ENDMDL
MODEL      159
REMARK 921   NORMALIZED FREE ENERGY PREDICTED BY IDOCK:   -2.68 KCAL/MOL
REMARK 922        TOTAL FREE ENERGY PREDICTED BY IDOCK:   -3.19 KCAL/MOL
REMARK 923 INTER-LIGAND FREE ENERGY PREDICTED BY IDOCK:   -3.28 KCAL/MOL
REMARK 924 INTRA-LIGAND FREE ENERGY PREDICTED BY IDOCK:    0.09 KCAL/MOL
REMARK 927      BINDING AFFINITY PREDICTED BY RF-SCORE:    0.00 PKD
ROOT
ATOM      1  N   PHE A   1     -10.342   5.244  69.543  1.00  0.00    -0.269 NA 
ATOM      2  CA  PHE A   1     -11.081   6.550  69.518  1.00  0.00    -0.365 C  
ATOM      3  H1  PHE A   1      -9.719   5.111  68.746  1.00  0.00     0.000 HD 
ATOM      4  H2  PHE A   1     -10.993   4.463  69.625  1.00  0.00     0.000 HD 
ATOM      5  C   PHE A   1     -10.037   7.677  69.461  1.00  0.00    -0.192 C  
ATOM      6  OXT PHE A   1     -10.227   8.843  69.762  1.00  0.00    -0.190 OA 
ATOM      7  O   PHE A   1      -8.849   7.210  68.989  1.00  0.00    -0.132 OA 
ENDROOT
BRANCH   2   8
ATOM      8  CB  PHE A   1     -12.020   6.751  70.718  1.00  0.00    -0.433 C  
BRANCH   8   9
ATOM      9  CG  PHE A   1     -11.417   6.288  72.023  1.00  0.00    -0.359 A  
ATOM     10  CD1 PHE A   1     -10.603   7.148  72.777  1.00  0.00    -0.303 A  
ATOM     11  CE1 PHE A   1     -10.017   6.705  73.964  1.00  0.00    -0.346 A  
ATOM     12  CZ  PHE A   1     -10.243   5.407  74.413  1.00  0.00    -0.299 A  
ATOM     13  CE2 PHE A   1     -11.055   4.548  73.678  1.00  0.00    -0.369 A  
ATOM     14  CD2 PHE A   1     -11.639   4.984  72.486  1.00  0.00    -0.023 A  
ENDBRANCH   8   9
ENDBRANCH   2   8
TORSDOF 2
ENDMDL
MODEL      160
REMARK 921   NORMALIZED FREE ENERGY PREDICTED BY IDOCK:   -2.63 KCAL/MOL
REMARK 922        TOTAL FREE ENERGY PREDICTED BY IDOCK:   -3.14 KCAL/MOL
REMARK 923 INTER-LIGAND FREE ENERGY PREDICTED BY IDOCK:   -2.99 KCAL/MOL
REMARK 924 INTRA-LIGAND FREE ENERGY PREDICTED BY IDOCK:   -0.14 KCAL/MOL
REMARK 927      BINDING AFFINITY PREDICTED BY RF-SCORE:    0.00 PKD
ROOT
ATOM      1  N   PHE A   1      -8.829   7.333  65.272  1.00  0.00    -0.367 NA 
ATOM      2  CA  PHE A   1      -9.313   6.576  66.474  1.00  0.00    -0.159 C  
ATOM      3  H1  PHE A   1      -7.908   7.039  64.946  1.00  0.00     0.000 HD 
ATOM      4  H2  PHE A   1      -8.845   8.338  65.448  1.00  0.00     0.000 HD 
ATOM      5  C   PHE A   1      -9.325   5.082  66.112  1.00  0.00    -0.153 C  
ATOM      6  OXT PHE A   1      -9.957   4.212  66.688  1.00  0.00    -0.221 OA 
ATOM      7  O   PHE A   1      -8.496   4.835  65.061  1.00  0.00    -0.125 OA 
ENDROOT
BRANCH   2   8
ATOM      8  CB  PHE A   1     -10.701   7.019  66.965  1.00  0.00    -0.423 C  
BRANCH   8   9
ATOM      9  CG  PHE A   1     -10.640   8.145  67.970  1.00  0.00    -0.188 A  
ATOM     10  CD1 PHE A   1     -10.480   7.872  69.337  1.00  0.00    -0.222 A  
ATOM     11  CE1 PHE A   1     -10.462   8.912  70.267  1.00  0.00    -0.239 A  
ATOM     12  CZ  PHE A   1     -10.594  10.232  69.843  1.00  0.00    -0.324 A  
ATOM     13  CE2 PHE A   1     -10.744  10.515  68.488  1.00  0.00    -0.259 A  
ATOM     14  CD2 PHE A   1     -10.769   9.476  67.554  1.00  0.00    -0.311 A  
ENDBRANCH   8   9
ENDBRANCH   2   8
TORSDOF 2
ENDMDL
MODEL      161
REMARK 921   NORMALIZED FREE ENERGY PREDICTED BY IDOCK:   -2.62 KCAL/MOL
REMARK 922        TOTAL FREE ENERGY PREDICTED BY IDOCK:   -3.13 KCAL/MOL
REMARK 923 INTER-LIGAND FREE ENERGY PREDICTED BY IDOCK:   -3.06 KCAL/MOL
REMARK 924 INTRA-LIGAND FREE ENERGY PREDICTED BY IDOCK:   -0.07 KCAL/MOL
REMARK 927      BINDING AFFINITY PREDICTED BY RF-SCORE:    0.00 PKD
ROOT
ATOM      1  N   PHE A   1      -8.861   9.473  67.098  1.00  0.00    -0.131 NA 
ATOM      2  CA  PHE A   1      -9.576  10.255  66.036  1.00  0.00    -0.206 C  
ATOM      3  H1  PHE A   1      -9.065   8.473  67.078  1.00  0.00     0.000 HD 
ATOM      4  H2  PHE A   1      -9.052   9.861  68.022  1.00  0.00     0.000 HD 
ATOM      5  C   PHE A   1      -9.188   9.656  64.674  1.00  0.00    -0.234 C  
ATOM      6  OXT PHE A   1      -9.291  10.212  63.593  1.00  0.00    -0.267 OA 
ATOM      7  O   PHE A   1      -8.734   8.382  64.820  1.00  0.00    -0.110 OA 
ENDROOT
BRANCH   2   8
ATOM      8  CB  PHE A   1      -9.269  11.761  66.065  1.00  0.00    -0.202 C  
BRANCH   8   9
ATOM      9  CG  PHE A   1     -10.260  12.549  66.887  1.00  0.00    -0.237 A  
ATOM     10  CD1 PHE A   1     -10.387  12.318  68.265  1.00  0.00    -0.227 A  
ATOM     11  CE1 PHE A   1     -11.329  13.022  69.016  1.00  0.00    -0.340 A  
ATOM     12  CZ  PHE A   1     -12.148  13.967  68.402  1.00  0.00    -0.327 A  
ATOM     13  CE2 PHE A   1     -12.025  14.211  67.037  1.00  0.00    -0.471 A  
ATOM     14  CD2 PHE A   1     -11.087  13.504  66.280  1.00  0.00    -0.308 A  
ENDBRANCH   8   9
ENDBRANCH   2   8
TORSDOF 2
ENDMDL
MODEL      162
REMARK 921   NORMALIZED FREE ENERGY PREDICTED BY IDOCK:   -2.62 KCAL/MOL
REMARK 922        TOTAL FREE ENERGY PREDICTED BY IDOCK:   -3.12 KCAL/MOL
REMARK 923 INTER-LIGAND FREE ENERGY PREDICTED BY IDOCK:   -2.93 KCAL/MOL
REMARK 924 INTRA-LIGAND FREE ENERGY PREDICTED BY IDOCK:   -0.20 KCAL/MOL
REMARK 927      BINDING AFFINITY PREDICTED BY RF-SCORE:    0.00 PKD
ROOT
ATOM      1  N   PHE A   1     -12.147  12.477  67.765  1.00  0.00    -0.398 NA 
ATOM      2  CA  PHE A   1     -11.210  12.134  66.645  1.00  0.00    -0.324 C  
ATOM      3  H1  PHE A   1     -12.313  13.478  67.869  1.00  0.00     0.000 HD 
ATOM      4  H2  PHE A   1     -11.822  12.073  68.644  1.00  0.00     0.000 HD 
ATOM      5  C   PHE A   1     -11.798  12.716  65.349  1.00  0.00    -0.427 C  
ATOM      6  OXT PHE A   1     -11.513  12.367  64.215  1.00  0.00    -0.323 OA 
ATOM      7  O   PHE A   1     -12.675  13.719  65.626  1.00  0.00    -0.509 OA 
ENDROOT
BRANCH   2   8
ATOM      8  CB  PHE A   1     -10.959  10.626  66.488  1.00  0.00    -0.098 C  
BRANCH   8   9
ATOM      9  CG  PHE A   1      -9.510  10.245  66.674  1.00  0.00    -0.203 A  
ATOM     10  CD1 PHE A   1      -9.163   9.072  67.361  1.00  0.00    -0.158 A  
ATOM     11  CE1 PHE A   1      -7.822   8.743  67.563  1.00  0.00    -0.102 A  
ATOM     12  CZ  PHE A   1      -6.816   9.574  67.076  1.00  0.00    -0.084 A  
ATOM     13  CE2 PHE A   1      -7.149  10.736  66.385  1.00  0.00    -0.134 A  
ATOM     14  CD2 PHE A   1      -8.490  11.073  66.186  1.00  0.00    -0.168 A  
ENDBRANCH   8   9
ENDBRANCH   2   8
TORSDOF 2
ENDMDL
MODEL      163
REMARK 921   NORMALIZED FREE ENERGY PREDICTED BY IDOCK:   -2.60 KCAL/MOL
REMARK 922        TOTAL FREE ENERGY PREDICTED BY IDOCK:   -3.11 KCAL/MOL
REMARK 923 INTER-LIGAND FREE ENERGY PREDICTED BY IDOCK:   -3.09 KCAL/MOL
REMARK 924 INTRA-LIGAND FREE ENERGY PREDICTED BY IDOCK:   -0.02 KCAL/MOL
REMARK 927      BINDING AFFINITY PREDICTED BY RF-SCORE:    0.00 PKD
ROOT
ATOM      1  N   PHE A   1      -6.128  15.762  67.391  1.00  0.00    -0.285 NA 
ATOM      2  CA  PHE A   1      -7.402  15.162  67.909  1.00  0.00    -0.139 C  
ATOM      3  H1  PHE A   1      -5.291  15.406  67.853  1.00  0.00     0.000 HD 
ATOM      4  H2  PHE A   1      -6.162  16.780  67.443  1.00  0.00     0.000 HD 
ATOM      5  C   PHE A   1      -7.305  13.638  67.738  1.00  0.00    -0.166 C  
ATOM      6  OXT PHE A   1      -8.243  12.858  67.725  1.00  0.00    -0.147 OA 
ATOM      7  O   PHE A   1      -6.005  13.247  67.633  1.00  0.00    -0.160 OA 
ENDROOT
BRANCH   2   8
ATOM      8  CB  PHE A   1      -8.664  15.699  67.213  1.00  0.00    -0.213 C  
BRANCH   8   9
ATOM      9  CG  PHE A   1      -8.781  17.203  67.280  1.00  0.00    -0.213 A  
ATOM     10  CD1 PHE A   1      -8.285  18.003  66.240  1.00  0.00    -0.242 A  
ATOM     11  CE1 PHE A   1      -8.361  19.394  66.321  1.00  0.00    -0.346 A  
ATOM     12  CZ  PHE A   1      -8.938  19.999  67.435  1.00  0.00    -0.440 A  
ATOM     13  CE2 PHE A   1      -9.441  19.215  68.469  1.00  0.00    -0.444 A  
ATOM     14  CD2 PHE A   1      -9.362  17.822  68.395  1.00  0.00    -0.294 A  
ENDBRANCH   8   9
ENDBRANCH   2   8
TORSDOF 2
ENDMDL
MODEL      164
REMARK 921   NORMALIZED FREE ENERGY PREDICTED BY IDOCK:   -2.60 KCAL/MOL
REMARK 922        TOTAL FREE ENERGY PREDICTED BY IDOCK:   -3.10 KCAL/MOL
REMARK 923 INTER-LIGAND FREE ENERGY PREDICTED BY IDOCK:   -2.92 KCAL/MOL
REMARK 924 INTRA-LIGAND FREE ENERGY PREDICTED BY IDOCK:   -0.18 KCAL/MOL
REMARK 927      BINDING AFFINITY PREDICTED BY RF-SCORE:    0.00 PKD
ROOT
ATOM      1  N   PHE A   1     -11.133   8.527  69.266  1.00  0.00    -0.432 NA 
ATOM      2  CA  PHE A   1     -11.140   7.725  70.535  1.00  0.00    -0.257 C  
ATOM      3  H1  PHE A   1     -12.065   8.744  68.914  1.00  0.00     0.000 HD 
ATOM      4  H2  PHE A   1     -10.576   8.061  68.549  1.00  0.00     0.000 HD 
ATOM      5  C   PHE A   1     -11.937   8.518  71.584  1.00  0.00    -0.316 C  
ATOM      6  OXT PHE A   1     -11.879   8.363  72.792  1.00  0.00    -0.371 OA 
ATOM      7  O   PHE A   1     -12.764   9.416  70.983  1.00  0.00    -0.287 OA 
ENDROOT
BRANCH   2   8
ATOM      8  CB  PHE A   1      -9.736   7.397  71.067  1.00  0.00    -0.164 C  
BRANCH   8   9
ATOM      9  CG  PHE A   1      -9.452   5.914  71.109  1.00  0.00    -0.183 A  
ATOM     10  CD1 PHE A   1      -9.961   5.062  70.116  1.00  0.00    -0.328 A  
ATOM     11  CE1 PHE A   1      -9.729   3.688  70.178  1.00  0.00    -0.188 A  
ATOM     12  CZ  PHE A   1      -8.982   3.151  71.223  1.00  0.00    -0.160 A  
ATOM     13  CE2 PHE A   1      -8.464   3.988  72.209  1.00  0.00    -0.105 A  
ATOM     14  CD2 PHE A   1      -8.699   5.364  72.154  1.00  0.00    -0.130 A  
ENDBRANCH   8   9
ENDBRANCH   2   8
TORSDOF 2
ENDMDL
MODEL      165
REMARK 921   NORMALIZED FREE ENERGY PREDICTED BY IDOCK:   -2.59 KCAL/MOL
REMARK 922        TOTAL FREE ENERGY PREDICTED BY IDOCK:   -3.10 KCAL/MOL
REMARK 923 INTER-LIGAND FREE ENERGY PREDICTED BY IDOCK:   -3.10 KCAL/MOL
REMARK 924 INTRA-LIGAND FREE ENERGY PREDICTED BY IDOCK:    0.00 KCAL/MOL
REMARK 927      BINDING AFFINITY PREDICTED BY RF-SCORE:    0.00 PKD
ROOT
ATOM      1  N   PHE A   1      -9.103   9.278  69.266  1.00  0.00    -0.147 NA 
ATOM      2  CA  PHE A   1      -9.677  10.132  68.174  1.00  0.00    -0.139 C  
ATOM      3  H1  PHE A   1      -9.060   9.746  70.172  1.00  0.00     0.000 HD 
ATOM      4  H2  PHE A   1      -8.184   8.923  69.001  1.00  0.00     0.000 HD 
ATOM      5  C   PHE A   1     -11.082  10.573  68.616  1.00  0.00    -0.267 C  
ATOM      6  OXT PHE A   1     -11.967  10.978  67.881  1.00  0.00    -0.620 OA 
ATOM      7  O   PHE A   1     -11.212  10.486  69.967  1.00  0.00    -0.273 OA 
ENDROOT
BRANCH   2   8
ATOM      8  CB  PHE A   1      -9.741   9.429  66.809  1.00  0.00    -0.257 C  
BRANCH   8   9
ATOM      9  CG  PHE A   1      -9.650   7.925  66.915  1.00  0.00    -0.263 A  
ATOM     10  CD1 PHE A   1      -8.413   7.275  66.796  1.00  0.00    -0.121 A  
ATOM     11  CE1 PHE A   1      -8.337   5.883  66.858  1.00  0.00    -0.108 A  
ATOM     12  CZ  PHE A   1      -9.491   5.128  67.046  1.00  0.00    -0.143 A  
ATOM     13  CE2 PHE A   1     -10.724   5.762  67.175  1.00  0.00    -0.358 A  
ATOM     14  CD2 PHE A   1     -10.805   7.155  67.108  1.00  0.00    -0.403 A  
ENDBRANCH   8   9
ENDBRANCH   2   8
TORSDOF 2
ENDMDL
MODEL      166
REMARK 921   NORMALIZED FREE ENERGY PREDICTED BY IDOCK:   -2.59 KCAL/MOL
REMARK 922        TOTAL FREE ENERGY PREDICTED BY IDOCK:   -3.09 KCAL/MOL
REMARK 923 INTER-LIGAND FREE ENERGY PREDICTED BY IDOCK:   -2.92 KCAL/MOL
REMARK 924 INTRA-LIGAND FREE ENERGY PREDICTED BY IDOCK:   -0.17 KCAL/MOL
REMARK 927      BINDING AFFINITY PREDICTED BY RF-SCORE:    0.00 PKD
ROOT
ATOM      1  N   PHE A   1     -11.478   7.446  73.349  1.00  0.00    -0.580 NA 
ATOM      2  CA  PHE A   1     -10.808   7.377  72.008  1.00  0.00    -0.227 C  
ATOM      3  H1  PHE A   1     -11.275   8.302  73.864  1.00  0.00     0.000 HD 
ATOM      4  H2  PHE A   1     -11.248   6.625  73.909  1.00  0.00     0.000 HD 
ATOM      5  C   PHE A   1     -11.254   8.606  71.199  1.00  0.00    -0.272 C  
ATOM      6  OXT PHE A   1     -11.196   8.723  69.987  1.00  0.00    -0.215 OA 
ATOM      7  O   PHE A   1     -11.701   9.590  72.026  1.00  0.00    -0.331 OA 
ENDROOT
BRANCH   2   8
ATOM      8  CB  PHE A   1     -11.114   6.086  71.230  1.00  0.00    -0.337 C  
BRANCH   8   9
ATOM      9  CG  PHE A   1      -9.961   5.630  70.368  1.00  0.00    -0.267 A  
ATOM     10  CD1 PHE A   1      -8.667   5.529  70.902  1.00  0.00    -0.140 A  
ATOM     11  CE1 PHE A   1      -7.598   5.143  70.093  1.00  0.00    -0.070 A  
ATOM     12  CZ  PHE A   1      -7.809   4.847  68.749  1.00  0.00    -0.077 A  
ATOM     13  CE2 PHE A   1      -9.089   4.935  68.210  1.00  0.00    -0.138 A  
ATOM     14  CD2 PHE A   1     -10.162   5.327  69.015  1.00  0.00    -0.269 A  
ENDBRANCH   8   9
ENDBRANCH   2   8
TORSDOF 2
ENDMDL
MODEL      167
REMARK 921   NORMALIZED FREE ENERGY PREDICTED BY IDOCK:   -2.58 KCAL/MOL
REMARK 922        TOTAL FREE ENERGY PREDICTED BY IDOCK:   -3.09 KCAL/MOL
REMARK 923 INTER-LIGAND FREE ENERGY PREDICTED BY IDOCK:   -2.92 KCAL/MOL
REMARK 924 INTRA-LIGAND FREE ENERGY PREDICTED BY IDOCK:   -0.16 KCAL/MOL
REMARK 927      BINDING AFFINITY PREDICTED BY RF-SCORE:    0.00 PKD
ROOT
ATOM      1  N   PHE A   1     -11.056   7.699  69.695  1.00  0.00    -0.435 NA 
ATOM      2  CA  PHE A   1     -10.437   7.494  68.343  1.00  0.00    -0.175 C  
ATOM      3  H1  PHE A   1     -10.584   8.406  70.259  1.00  0.00     0.000 HD 
ATOM      4  H2  PHE A   1     -11.115   6.815  70.202  1.00  0.00     0.000 HD 
ATOM      5  C   PHE A   1     -10.443   8.849  67.617  1.00  0.00    -0.255 C  
ATOM      6  OXT PHE A   1     -10.341   9.015  66.413  1.00  0.00    -0.261 OA 
ATOM      7  O   PHE A   1     -10.545   9.873  68.508  1.00  0.00    -0.199 OA 
ENDROOT
BRANCH   2   8
ATOM      8  CB  PHE A   1     -11.148   6.428  67.493  1.00  0.00    -0.401 C  
BRANCH   8   9
ATOM      9  CG  PHE A   1     -10.308   5.193  67.273  1.00  0.00    -0.225 A  
ATOM     10  CD1 PHE A   1     -10.128   4.673  65.982  1.00  0.00    -0.287 A  
ATOM     11  CE1 PHE A   1      -9.383   3.510  65.786  1.00  0.00    -0.157 A  
ATOM     12  CZ  PHE A   1      -8.804   2.859  66.872  1.00  0.00    -0.157 A  
ATOM     13  CE2 PHE A   1      -8.968   3.370  68.157  1.00  0.00    -0.182 A  
ATOM     14  CD2 PHE A   1      -9.718   4.531  68.359  1.00  0.00    -0.188 A  
ENDBRANCH   8   9
ENDBRANCH   2   8
TORSDOF 2
ENDMDL
MODEL      168
REMARK 921   NORMALIZED FREE ENERGY PREDICTED BY IDOCK:   -2.58 KCAL/MOL
REMARK 922        TOTAL FREE ENERGY PREDICTED BY IDOCK:   -3.08 KCAL/MOL
REMARK 923 INTER-LIGAND FREE ENERGY PREDICTED BY IDOCK:   -3.15 KCAL/MOL
REMARK 924 INTRA-LIGAND FREE ENERGY PREDICTED BY IDOCK:    0.07 KCAL/MOL
REMARK 927      BINDING AFFINITY PREDICTED BY RF-SCORE:    0.00 PKD
ROOT
ATOM      1  N   PHE A   1      -7.458  14.868  66.774  1.00  0.00    -0.266 NA 
ATOM      2  CA  PHE A   1      -7.873  14.039  67.955  1.00  0.00    -0.160 C  
ATOM      3  H1  PHE A   1      -6.448  14.971  66.681  1.00  0.00     0.000 HD 
ATOM      4  H2  PHE A   1      -7.912  15.782  66.798  1.00  0.00     0.000 HD 
ATOM      5  C   PHE A   1      -7.206  12.661  67.815  1.00  0.00    -0.127 C  
ATOM      6  OXT PHE A   1      -7.558  11.637  68.375  1.00  0.00    -0.111 OA 
ATOM      7  O   PHE A   1      -6.123  12.731  66.994  1.00  0.00    -0.282 OA 
ENDROOT
BRANCH   2   8
ATOM      8  CB  PHE A   1      -9.396  13.884  68.096  1.00  0.00    -0.203 C  
BRANCH   8   9
ATOM      9  CG  PHE A   1     -10.095  13.694  66.771  1.00  0.00    -0.269 A  
ATOM     10  CD1 PHE A   1     -10.219  12.414  66.208  1.00  0.00    -0.258 A  
ATOM     11  CE1 PHE A   1     -10.833  12.246  64.966  1.00  0.00    -0.337 A  
ATOM     12  CZ  PHE A   1     -11.335  13.348  64.279  1.00  0.00    -0.420 A  
ATOM     13  CE2 PHE A   1     -11.225  14.621  64.832  1.00  0.00    -0.400 A  
ATOM     14  CD2 PHE A   1     -10.606  14.795  66.072  1.00  0.00    -0.318 A  
ENDBRANCH   8   9
ENDBRANCH   2   8
TORSDOF 2
ENDMDL
MODEL      169
REMARK 921   NORMALIZED FREE ENERGY PREDICTED BY IDOCK:   -2.56 KCAL/MOL
REMARK 922        TOTAL FREE ENERGY PREDICTED BY IDOCK:   -3.06 KCAL/MOL
REMARK 923 INTER-LIGAND FREE ENERGY PREDICTED BY IDOCK:   -2.85 KCAL/MOL
REMARK 924 INTRA-LIGAND FREE ENERGY PREDICTED BY IDOCK:   -0.21 KCAL/MOL
REMARK 927      BINDING AFFINITY PREDICTED BY RF-SCORE:    0.00 PKD
ROOT
ATOM      1  N   PHE A   1     -12.299  10.721  68.698  1.00  0.00    -0.786 NA 
ATOM      2  CA  PHE A   1     -11.273   9.868  69.386  1.00  0.00    -0.153 C  
ATOM      3  H1  PHE A   1     -13.250  10.361  68.776  1.00  0.00     0.000 HD 
ATOM      4  H2  PHE A   1     -12.048  10.868  67.720  1.00  0.00     0.000 HD 
ATOM      5  C   PHE A   1     -11.682   9.747  70.863  1.00  0.00    -0.347 C  
ATOM      6  OXT PHE A   1     -10.947   9.430  71.784  1.00  0.00    -0.363 OA 
ATOM      7  O   PHE A   1     -13.007  10.010  71.020  1.00  0.00    -0.358 OA 
ENDROOT
BRANCH   2   8
ATOM      8  CB  PHE A   1      -9.840  10.411  69.270  1.00  0.00    -0.243 C  
BRANCH   8   9
ATOM      9  CG  PHE A   1      -8.837   9.350  68.884  1.00  0.00    -0.136 A  
ATOM     10  CD1 PHE A   1      -7.470   9.657  68.803  1.00  0.00    -0.075 A  
ATOM     11  CE1 PHE A   1      -6.550   8.685  68.410  1.00  0.00    -0.060 A  
ATOM     12  CZ  PHE A   1      -6.981   7.397  68.102  1.00  0.00    -0.075 A  
ATOM     13  CE2 PHE A   1      -8.334   7.079  68.187  1.00  0.00    -0.123 A  
ATOM     14  CD2 PHE A   1      -9.260   8.050  68.575  1.00  0.00    -0.135 A  
ENDBRANCH   8   9
ENDBRANCH   2   8
TORSDOF 2
ENDMDL
MODEL      170
REMARK 921   NORMALIZED FREE ENERGY PREDICTED BY IDOCK:   -2.56 KCAL/MOL
REMARK 922        TOTAL FREE ENERGY PREDICTED BY IDOCK:   -3.06 KCAL/MOL
REMARK 923 INTER-LIGAND FREE ENERGY PREDICTED BY IDOCK:   -3.10 KCAL/MOL
REMARK 924 INTRA-LIGAND FREE ENERGY PREDICTED BY IDOCK:    0.04 KCAL/MOL
REMARK 927      BINDING AFFINITY PREDICTED BY RF-SCORE:    0.00 PKD
ROOT
ATOM      1  N   PHE A   1      -8.791   8.639  71.519  1.00  0.00    -0.201 NA 
ATOM      2  CA  PHE A   1     -10.198   9.073  71.810  1.00  0.00    -0.319 C  
ATOM      3  H1  PHE A   1      -8.203   8.575  72.349  1.00  0.00     0.000 HD 
ATOM      4  H2  PHE A   1      -8.364   9.248  70.820  1.00  0.00     0.000 HD 
ATOM      5  C   PHE A   1     -10.796   8.074  72.815  1.00  0.00    -0.369 C  
ATOM      6  OXT PHE A   1     -11.985   7.898  73.026  1.00  0.00    -0.187 OA 
ATOM      7  O   PHE A   1      -9.811   7.416  73.484  1.00  0.00    -0.259 OA 
ENDROOT
BRANCH   2   8
ATOM      8  CB  PHE A   1     -11.087   9.169  70.559  1.00  0.00    -0.308 C  
BRANCH   8   9
ATOM      9  CG  PHE A   1     -10.786   8.097  69.538  1.00  0.00    -0.128 A  
ATOM     10  CD1 PHE A   1     -11.135   6.761  69.784  1.00  0.00    -0.368 A  
ATOM     11  CE1 PHE A   1     -10.823   5.767  68.855  1.00  0.00    -0.305 A  
ATOM     12  CZ  PHE A   1     -10.168   6.098  67.671  1.00  0.00    -0.214 A  
ATOM     13  CE2 PHE A   1      -9.825   7.422  67.413  1.00  0.00    -0.219 A  
ATOM     14  CD2 PHE A   1     -10.130   8.419  68.342  1.00  0.00    -0.224 A  
ENDBRANCH   8   9
ENDBRANCH   2   8
TORSDOF 2
ENDMDL
MODEL      171
REMARK 921   NORMALIZED FREE ENERGY PREDICTED BY IDOCK:   -2.54 KCAL/MOL
REMARK 922        TOTAL FREE ENERGY PREDICTED BY IDOCK:   -3.04 KCAL/MOL
REMARK 923 INTER-LIGAND FREE ENERGY PREDICTED BY IDOCK:   -2.92 KCAL/MOL
REMARK 924 INTRA-LIGAND FREE ENERGY PREDICTED BY IDOCK:   -0.12 KCAL/MOL
REMARK 927      BINDING AFFINITY PREDICTED BY RF-SCORE:    0.00 PKD
ROOT
ATOM      1  N   PHE A   1     -10.825   8.326  68.327  1.00  0.00    -0.448 NA 
ATOM      2  CA  PHE A   1     -10.778   8.017  69.795  1.00  0.00    -0.231 C  
ATOM      3  H1  PHE A   1     -11.516   9.034  68.080  1.00  0.00     0.000 HD 
ATOM      4  H2  PHE A   1     -10.971   7.475  67.784  1.00  0.00     0.000 HD 
ATOM      5  C   PHE A   1     -10.489   9.331  70.540  1.00  0.00    -0.255 C  
ATOM      6  OXT PHE A   1     -10.053   9.428  71.675  1.00  0.00    -0.256 OA 
ATOM      7  O   PHE A   1     -10.819  10.403  69.770  1.00  0.00    -0.255 OA 
ENDROOT
BRANCH   2   8
ATOM      8  CB  PHE A   1      -9.736   6.950  70.169  1.00  0.00    -0.175 C  
BRANCH   8   9
ATOM      9  CG  PHE A   1     -10.109   6.170  71.407  1.00  0.00    -0.230 A  
ATOM     10  CD1 PHE A   1      -9.114   5.633  72.237  1.00  0.00    -0.144 A  
ATOM     11  CE1 PHE A   1      -9.461   4.881  73.360  1.00  0.00    -0.141 A  
ATOM     12  CZ  PHE A   1     -10.801   4.664  73.670  1.00  0.00    -0.375 A  
ATOM     13  CE2 PHE A   1     -11.797   5.200  72.858  1.00  0.00    -0.147 A  
ATOM     14  CD2 PHE A   1     -11.454   5.948  71.729  1.00  0.00    -0.262 A  
ENDBRANCH   8   9
ENDBRANCH   2   8
TORSDOF 2
ENDMDL
MODEL      172
REMARK 921   NORMALIZED FREE ENERGY PREDICTED BY IDOCK:   -2.53 KCAL/MOL
REMARK 922        TOTAL FREE ENERGY PREDICTED BY IDOCK:   -3.03 KCAL/MOL
REMARK 923 INTER-LIGAND FREE ENERGY PREDICTED BY IDOCK:   -2.83 KCAL/MOL
REMARK 924 INTRA-LIGAND FREE ENERGY PREDICTED BY IDOCK:   -0.20 KCAL/MOL
REMARK 927      BINDING AFFINITY PREDICTED BY RF-SCORE:    0.00 PKD
ROOT
ATOM      1  N   PHE A   1     -11.413   6.492  67.393  1.00  0.00    -0.731 NA 
ATOM      2  CA  PHE A   1     -10.132   6.707  66.640  1.00  0.00    -0.135 C  
ATOM      3  H1  PHE A   1     -11.904   5.637  67.129  1.00  0.00     0.000 HD 
ATOM      4  H2  PHE A   1     -12.026   7.302  67.300  1.00  0.00     0.000 HD 
ATOM      5  C   PHE A   1      -9.238   5.479  66.880  1.00  0.00    -0.119 C  
ATOM      6  OXT PHE A   1      -8.029   5.434  66.723  1.00  0.00    -0.100 OA 
ATOM      7  O   PHE A   1      -9.983   4.409  67.269  1.00  0.00    -0.183 OA 
ENDROOT
BRANCH   2   8
ATOM      8  CB  PHE A   1      -9.392   7.994  67.036  1.00  0.00    -0.197 C  
BRANCH   8   9
ATOM      9  CG  PHE A   1      -9.052   8.868  65.853  1.00  0.00    -0.271 A  
ATOM     10  CD1 PHE A   1      -9.976   9.807  65.370  1.00  0.00    -0.302 A  
ATOM     11  CE1 PHE A   1      -9.674  10.586  64.254  1.00  0.00    -0.391 A  
ATOM     12  CZ  PHE A   1      -8.446  10.443  63.613  1.00  0.00    -0.168 A  
ATOM     13  CE2 PHE A   1      -7.518   9.521  64.087  1.00  0.00    -0.122 A  
ATOM     14  CD2 PHE A   1      -7.818   8.734  65.202  1.00  0.00    -0.108 A  
ENDBRANCH   8   9
ENDBRANCH   2   8
TORSDOF 2
ENDMDL
MODEL      173
REMARK 921   NORMALIZED FREE ENERGY PREDICTED BY IDOCK:   -2.52 KCAL/MOL
REMARK 922        TOTAL FREE ENERGY PREDICTED BY IDOCK:   -3.02 KCAL/MOL
REMARK 923 INTER-LIGAND FREE ENERGY PREDICTED BY IDOCK:   -3.14 KCAL/MOL
REMARK 924 INTRA-LIGAND FREE ENERGY PREDICTED BY IDOCK:    0.12 KCAL/MOL
REMARK 927      BINDING AFFINITY PREDICTED BY RF-SCORE:    0.00 PKD
ROOT
ATOM      1  N   PHE A   1     -11.631   8.397  69.884  1.00  0.00    -0.416 NA 
ATOM      2  CA  PHE A   1     -10.152   8.169  69.993  1.00  0.00    -0.196 C  
ATOM      3  H1  PHE A   1     -12.158   8.055  70.688  1.00  0.00     0.000 HD 
ATOM      4  H2  PHE A   1     -11.995   7.997  69.019  1.00  0.00     0.000 HD 
ATOM      5  C   PHE A   1      -9.667   8.853  71.282  1.00  0.00    -0.289 C  
ATOM      6  OXT PHE A   1      -8.517   9.172  71.532  1.00  0.00    -0.333 OA 
ATOM      7  O   PHE A   1     -10.700   9.037  72.148  1.00  0.00    -0.332 OA 
ENDROOT
BRANCH   2   8
ATOM      8  CB  PHE A   1      -9.357   8.684  68.782  1.00  0.00    -0.142 C  
BRANCH   8   9
ATOM      9  CG  PHE A   1      -9.811  10.046  68.315  1.00  0.00    -0.163 A  
ATOM     10  CD1 PHE A   1     -10.887  10.172  67.424  1.00  0.00    -0.323 A  
ATOM     11  CE1 PHE A   1     -11.280  11.429  66.964  1.00  0.00    -0.350 A  
ATOM     12  CZ  PHE A   1     -10.610  12.572  67.394  1.00  0.00    -0.242 A  
ATOM     13  CE2 PHE A   1      -9.546  12.460  68.285  1.00  0.00    -0.211 A  
ATOM     14  CD2 PHE A   1      -9.145  11.203  68.743  1.00  0.00    -0.144 A  
ENDBRANCH   8   9
ENDBRANCH   2   8
TORSDOF 2
ENDMDL
MODEL      174
REMARK 921   NORMALIZED FREE ENERGY PREDICTED BY IDOCK:   -2.51 KCAL/MOL
REMARK 922        TOTAL FREE ENERGY PREDICTED BY IDOCK:   -3.00 KCAL/MOL
REMARK 923 INTER-LIGAND FREE ENERGY PREDICTED BY IDOCK:   -2.81 KCAL/MOL
REMARK 924 INTRA-LIGAND FREE ENERGY PREDICTED BY IDOCK:   -0.19 KCAL/MOL
REMARK 927      BINDING AFFINITY PREDICTED BY RF-SCORE:    0.00 PKD
ROOT
ATOM      1  N   PHE A   1     -12.857   6.613  72.267  1.00  0.00    -0.546 NA 
ATOM      2  CA  PHE A   1     -11.435   7.064  72.430  1.00  0.00    -0.261 C  
ATOM      3  H1  PHE A   1     -13.521   7.135  72.839  1.00  0.00     0.000 HD 
ATOM      4  H2  PHE A   1     -12.939   5.611  72.444  1.00  0.00     0.000 HD 
ATOM      5  C   PHE A   1     -11.378   8.561  72.084  1.00  0.00    -0.372 C  
ATOM      6  OXT PHE A   1     -10.376   9.186  71.778  1.00  0.00    -0.344 OA 
ATOM      7  O   PHE A   1     -12.609   9.129  72.195  1.00  0.00    -0.369 OA 
ENDROOT
BRANCH   2   8
ATOM      8  CB  PHE A   1     -10.434   6.277  71.569  1.00  0.00    -0.266 C  
BRANCH   8   9
ATOM      9  CG  PHE A   1      -9.260   5.752  72.360  1.00  0.00    -0.149 A  
ATOM     10  CD1 PHE A   1      -7.992   5.646  71.769  1.00  0.00    -0.114 A  
ATOM     11  CE1 PHE A   1      -6.918   5.125  72.491  1.00  0.00    -0.084 A  
ATOM     12  CZ  PHE A   1      -7.095   4.713  73.809  1.00  0.00    -0.072 A  
ATOM     13  CE2 PHE A   1      -8.346   4.822  74.409  1.00  0.00    -0.101 A  
ATOM     14  CD2 PHE A   1      -9.427   5.337  73.689  1.00  0.00    -0.133 A  
ENDBRANCH   8   9
ENDBRANCH   2   8
TORSDOF 2
ENDMDL
MODEL      175
REMARK 921   NORMALIZED FREE ENERGY PREDICTED BY IDOCK:   -2.50 KCAL/MOL
REMARK 922        TOTAL FREE ENERGY PREDICTED BY IDOCK:   -3.00 KCAL/MOL
REMARK 923 INTER-LIGAND FREE ENERGY PREDICTED BY IDOCK:   -3.01 KCAL/MOL
REMARK 924 INTRA-LIGAND FREE ENERGY PREDICTED BY IDOCK:    0.01 KCAL/MOL
REMARK 927      BINDING AFFINITY PREDICTED BY RF-SCORE:    0.00 PKD
ROOT
ATOM      1  N   PHE A   1     -10.156   8.575  72.579  1.00  0.00    -0.287 NA 
ATOM      2  CA  PHE A   1      -9.926   7.415  73.503  1.00  0.00    -0.326 C  
ATOM      3  H1  PHE A   1      -9.995   9.484  73.015  1.00  0.00     0.000 HD 
ATOM      4  H2  PHE A   1     -11.090   8.531  72.171  1.00  0.00     0.000 HD 
ATOM      5  C   PHE A   1      -8.482   7.512  74.024  1.00  0.00    -0.215 C  
ATOM      6  OXT PHE A   1      -7.835   6.599  74.510  1.00  0.00    -0.114 OA 
ATOM      7  O   PHE A   1      -8.011   8.783  73.905  1.00  0.00    -0.394 OA 
ENDROOT
BRANCH   2   8
ATOM      8  CB  PHE A   1     -10.167   6.046  72.846  1.00  0.00    -0.207 C  
BRANCH   8   9
ATOM      9  CG  PHE A   1     -10.156   6.105  71.338  1.00  0.00    -0.230 A  
ATOM     10  CD1 PHE A   1      -8.943   6.108  70.632  1.00  0.00    -0.148 A  
ATOM     11  CE1 PHE A   1      -8.936   6.200  69.240  1.00  0.00    -0.123 A  
ATOM     12  CZ  PHE A   1     -10.136   6.281  68.538  1.00  0.00    -0.182 A  
ATOM     13  CE2 PHE A   1     -11.346   6.270  69.227  1.00  0.00    -0.411 A  
ATOM     14  CD2 PHE A   1     -11.358   6.184  70.621  1.00  0.00    -0.368 A  
ENDBRANCH   8   9
ENDBRANCH   2   8
TORSDOF 2
ENDMDL
MODEL      176
REMARK 921   NORMALIZED FREE ENERGY PREDICTED BY IDOCK:   -2.46 KCAL/MOL
REMARK 922        TOTAL FREE ENERGY PREDICTED BY IDOCK:   -2.95 KCAL/MOL
REMARK 923 INTER-LIGAND FREE ENERGY PREDICTED BY IDOCK:   -2.92 KCAL/MOL
REMARK 924 INTRA-LIGAND FREE ENERGY PREDICTED BY IDOCK:   -0.03 KCAL/MOL
REMARK 927      BINDING AFFINITY PREDICTED BY RF-SCORE:    0.00 PKD
ROOT
ATOM      1  N   PHE A   1     -11.483   6.812  69.344  1.00  0.00    -0.598 NA 
ATOM      2  CA  PHE A   1     -11.119   6.231  68.009  1.00  0.00    -0.265 C  
ATOM      3  H1  PHE A   1     -11.814   6.119  70.015  1.00  0.00     0.000 HD 
ATOM      4  H2  PHE A   1     -12.166   7.563  69.236  1.00  0.00     0.000 HD 
ATOM      5  C   PHE A   1     -10.042   5.159  68.245  1.00  0.00    -0.134 C  
ATOM      6  OXT PHE A   1      -9.275   4.720  67.404  1.00  0.00    -0.120 OA 
ATOM      7  O   PHE A   1     -10.072   4.722  69.533  1.00  0.00    -0.226 OA 
ENDROOT
BRANCH   2   8
ATOM      8  CB  PHE A   1     -10.621   7.275  66.996  1.00  0.00    -0.415 C  
BRANCH   8   9
ATOM      9  CG  PHE A   1     -10.084   8.525  67.652  1.00  0.00    -0.271 A  
ATOM     10  CD1 PHE A   1     -10.860   9.693  67.705  1.00  0.00    -0.276 A  
ATOM     11  CE1 PHE A   1     -10.348  10.856  68.278  1.00  0.00    -0.194 A  
ATOM     12  CZ  PHE A   1      -9.062  10.865  68.812  1.00  0.00    -0.174 A  
ATOM     13  CE2 PHE A   1      -8.285   9.710  68.774  1.00  0.00    -0.106 A  
ATOM     14  CD2 PHE A   1      -8.792   8.544  68.195  1.00  0.00    -0.142 A  
ENDBRANCH   8   9
ENDBRANCH   2   8
TORSDOF 2
ENDMDL
MODEL      177
REMARK 921   NORMALIZED FREE ENERGY PREDICTED BY IDOCK:   -2.44 KCAL/MOL
REMARK 922        TOTAL FREE ENERGY PREDICTED BY IDOCK:   -2.93 KCAL/MOL
REMARK 923 INTER-LIGAND FREE ENERGY PREDICTED BY IDOCK:   -3.07 KCAL/MOL
REMARK 924 INTRA-LIGAND FREE ENERGY PREDICTED BY IDOCK:    0.14 KCAL/MOL
REMARK 927      BINDING AFFINITY PREDICTED BY RF-SCORE:    0.00 PKD
ROOT
ATOM      1  N   PHE A   1      -7.941  18.643  68.531  1.00  0.00    -0.329 NA 
ATOM      2  CA  PHE A   1      -6.895  17.567  68.580  1.00  0.00    -0.227 C  
ATOM      3  H1  PHE A   1      -7.594  19.534  68.176  1.00  0.00     0.000 HD 
ATOM      4  H2  PHE A   1      -8.376  18.764  69.446  1.00  0.00     0.000 HD 
ATOM      5  C   PHE A   1      -6.335  17.395  67.159  1.00  0.00    -0.158 C  
ATOM      6  OXT PHE A   1      -5.735  16.419  66.741  1.00  0.00    -0.340 OA 
ATOM      7  O   PHE A   1      -6.565  18.509  66.412  1.00  0.00    -0.182 OA 
ENDROOT
BRANCH   2   8
ATOM      8  CB  PHE A   1      -7.417  16.223  69.115  1.00  0.00    -0.218 C  
BRANCH   8   9
ATOM      9  CG  PHE A   1      -8.766  15.846  68.550  1.00  0.00    -0.194 A  
ATOM     10  CD1 PHE A   1      -9.944  16.363  69.111  1.00  0.00    -0.273 A  
ATOM     11  CE1 PHE A   1     -11.189  15.984  68.611  1.00  0.00    -0.366 A  
ATOM     12  CZ  PHE A   1     -11.273  15.094  67.543  1.00  0.00    -0.331 A  
ATOM     13  CE2 PHE A   1     -10.111  14.582  66.973  1.00  0.00    -0.254 A  
ATOM     14  CD2 PHE A   1      -8.861  14.953  67.474  1.00  0.00    -0.195 A  
ENDBRANCH   8   9
ENDBRANCH   2   8
TORSDOF 2
ENDMDL
MODEL      178
REMARK 921   NORMALIZED FREE ENERGY PREDICTED BY IDOCK:   -2.40 KCAL/MOL
REMARK 922        TOTAL FREE ENERGY PREDICTED BY IDOCK:   -2.88 KCAL/MOL
REMARK 923 INTER-LIGAND FREE ENERGY PREDICTED BY IDOCK:   -2.90 KCAL/MOL
REMARK 924 INTRA-LIGAND FREE ENERGY PREDICTED BY IDOCK:    0.02 KCAL/MOL
REMARK 927      BINDING AFFINITY PREDICTED BY RF-SCORE:    0.00 PKD
ROOT
ATOM      1  N   PHE A   1     -11.545   8.619  72.082  1.00  0.00    -0.364 NA 
ATOM      2  CA  PHE A   1     -11.943   7.200  71.797  1.00  0.00    -0.313 C  
ATOM      3  H1  PHE A   1     -11.686   8.896  73.054  1.00  0.00     0.000 HD 
ATOM      4  H2  PHE A   1     -12.025   9.261  71.451  1.00  0.00     0.000 HD 
ATOM      5  C   PHE A   1     -11.134   6.290  72.736  1.00  0.00    -0.251 C  
ATOM      6  OXT PHE A   1     -10.932   5.098  72.578  1.00  0.00    -0.234 OA 
ATOM      7  O   PHE A   1     -10.685   6.989  73.814  1.00  0.00    -0.360 OA 
ENDROOT
BRANCH   2   8
ATOM      8  CB  PHE A   1     -11.731   6.781  70.334  1.00  0.00    -0.418 C  
BRANCH   8   9
ATOM      9  CG  PHE A   1     -10.507   7.409  69.711  1.00  0.00    -0.235 A  
ATOM     10  CD1 PHE A   1      -9.223   6.954  70.047  1.00  0.00    -0.155 A  
ATOM     11  CE1 PHE A   1      -8.093   7.561  69.498  1.00  0.00    -0.128 A  
ATOM     12  CZ  PHE A   1      -8.232   8.620  68.605  1.00  0.00    -0.121 A  
ATOM     13  CE2 PHE A   1      -9.501   9.074  68.258  1.00  0.00    -0.156 A  
ATOM     14  CD2 PHE A   1     -10.636   8.474  68.809  1.00  0.00    -0.162 A  
ENDBRANCH   8   9
ENDBRANCH   2   8
TORSDOF 2
ENDMDL
MODEL      179
REMARK 921   NORMALIZED FREE ENERGY PREDICTED BY IDOCK:   -2.36 KCAL/MOL
REMARK 922        TOTAL FREE ENERGY PREDICTED BY IDOCK:   -2.84 KCAL/MOL
REMARK 923 INTER-LIGAND FREE ENERGY PREDICTED BY IDOCK:   -2.65 KCAL/MOL
REMARK 924 INTRA-LIGAND FREE ENERGY PREDICTED BY IDOCK:   -0.19 KCAL/MOL
REMARK 927      BINDING AFFINITY PREDICTED BY RF-SCORE:    0.00 PKD
ROOT
ATOM      1  N   PHE A   1      -7.037   7.619  72.526  1.00  0.00    -0.070 NA 
ATOM      2  CA  PHE A   1      -8.230   6.887  73.069  1.00  0.00    -0.107 C  
ATOM      3  H1  PHE A   1      -6.443   8.026  73.248  1.00  0.00     0.000 HD 
ATOM      4  H2  PHE A   1      -7.326   8.330  71.854  1.00  0.00     0.000 HD 
ATOM      5  C   PHE A   1      -7.714   5.793  74.018  1.00  0.00    -0.099 C  
ATOM      6  OXT PHE A   1      -8.335   4.806  74.375  1.00  0.00    -0.101 OA 
ATOM      7  O   PHE A   1      -6.457   6.084  74.451  1.00  0.00    -0.073 OA 
ENDROOT
BRANCH   2   8
ATOM      8  CB  PHE A   1      -9.126   6.273  71.982  1.00  0.00    -0.142 C  
BRANCH   8   9
ATOM      9  CG  PHE A   1     -10.502   6.893  71.931  1.00  0.00    -0.224 A  
ATOM     10  CD1 PHE A   1     -11.522   6.304  71.169  1.00  0.00    -0.362 A  
ATOM     11  CE1 PHE A   1     -12.781   6.899  71.094  1.00  0.00    -0.331 A  
ATOM     12  CZ  PHE A   1     -13.038   8.082  71.782  1.00  0.00    -0.360 A  
ATOM     13  CE2 PHE A   1     -12.036   8.672  72.548  1.00  0.00    -0.358 A  
ATOM     14  CD2 PHE A   1     -10.772   8.082  72.622  1.00  0.00    -0.426 A  
ENDBRANCH   8   9
ENDBRANCH   2   8
TORSDOF 2
ENDMDL
MODEL      180
REMARK 921   NORMALIZED FREE ENERGY PREDICTED BY IDOCK:   -2.36 KCAL/MOL
REMARK 922        TOTAL FREE ENERGY PREDICTED BY IDOCK:   -2.84 KCAL/MOL
REMARK 923 INTER-LIGAND FREE ENERGY PREDICTED BY IDOCK:   -2.64 KCAL/MOL
REMARK 924 INTRA-LIGAND FREE ENERGY PREDICTED BY IDOCK:   -0.20 KCAL/MOL
REMARK 927      BINDING AFFINITY PREDICTED BY RF-SCORE:    0.00 PKD
ROOT
ATOM      1  N   PHE A   1     -11.511  10.008  69.577  1.00  0.00    -0.419 NA 
ATOM      2  CA  PHE A   1     -10.963   8.932  70.469  1.00  0.00    -0.241 C  
ATOM      3  H1  PHE A   1     -12.478   9.851  69.293  1.00  0.00     0.000 HD 
ATOM      4  H2  PHE A   1     -10.912  10.140  68.762  1.00  0.00     0.000 HD 
ATOM      5  C   PHE A   1     -11.876   8.838  71.702  1.00  0.00    -0.330 C  
ATOM      6  OXT PHE A   1     -11.579   8.338  72.775  1.00  0.00    -0.395 OA 
ATOM      7  O   PHE A   1     -13.102   9.366  71.436  1.00  0.00    -0.341 OA 
ENDROOT
BRANCH   2   8
ATOM      8  CB  PHE A   1      -9.506   9.169  70.899  1.00  0.00    -0.343 C  
BRANCH   8   9
ATOM      9  CG  PHE A   1      -8.597   8.011  70.563  1.00  0.00    -0.134 A  
ATOM     10  CD1 PHE A   1      -9.026   6.995  69.696  1.00  0.00    -0.141 A  
ATOM     11  CE1 PHE A   1      -8.198   5.907  69.417  1.00  0.00    -0.113 A  
ATOM     12  CZ  PHE A   1      -6.933   5.826  69.993  1.00  0.00    -0.065 A  
ATOM     13  CE2 PHE A   1      -6.493   6.833  70.848  1.00  0.00    -0.052 A  
ATOM     14  CD2 PHE A   1      -7.321   7.920  71.135  1.00  0.00    -0.063 A  
ENDBRANCH   8   9
ENDBRANCH   2   8
TORSDOF 2
ENDMDL
MODEL      181
REMARK 921   NORMALIZED FREE ENERGY PREDICTED BY IDOCK:   -2.31 KCAL/MOL
REMARK 922        TOTAL FREE ENERGY PREDICTED BY IDOCK:   -2.78 KCAL/MOL
REMARK 923 INTER-LIGAND FREE ENERGY PREDICTED BY IDOCK:   -2.62 KCAL/MOL
REMARK 924 INTRA-LIGAND FREE ENERGY PREDICTED BY IDOCK:   -0.16 KCAL/MOL
REMARK 927      BINDING AFFINITY PREDICTED BY RF-SCORE:    0.00 PKD
ROOT
ATOM      1  N   PHE A   1      -8.719   4.853  72.526  1.00  0.00    -0.119 NA 
ATOM      2  CA  PHE A   1      -9.775   5.862  72.179  1.00  0.00    -0.155 C  
ATOM      3  H1  PHE A   1      -8.572   4.743  73.529  1.00  0.00     0.000 HD 
ATOM      4  H2  PHE A   1      -7.841   5.073  72.054  1.00  0.00     0.000 HD 
ATOM      5  C   PHE A   1     -11.079   5.429  72.868  1.00  0.00    -0.305 C  
ATOM      6  OXT PHE A   1     -12.203   5.789  72.560  1.00  0.00    -0.196 OA 
ATOM      7  O   PHE A   1     -10.819   4.597  73.912  1.00  0.00    -0.274 OA 
ENDROOT
BRANCH   2   8
ATOM      8  CB  PHE A   1      -9.998   6.027  70.667  1.00  0.00    -0.232 C  
BRANCH   8   9
ATOM      9  CG  PHE A   1      -9.949   7.468  70.217  1.00  0.00    -0.192 A  
ATOM     10  CD1 PHE A   1      -9.177   7.843  69.107  1.00  0.00    -0.144 A  
ATOM     11  CE1 PHE A   1      -9.104   9.180  68.717  1.00  0.00    -0.136 A  
ATOM     12  CZ  PHE A   1      -9.805  10.154  69.423  1.00  0.00    -0.247 A  
ATOM     13  CE2 PHE A   1     -10.582   9.793  70.520  1.00  0.00    -0.376 A  
ATOM     14  CD2 PHE A   1     -10.653   8.456  70.919  1.00  0.00    -0.243 A  
ENDBRANCH   8   9
ENDBRANCH   2   8
TORSDOF 2
ENDMDL
MODEL      182
REMARK 921   NORMALIZED FREE ENERGY PREDICTED BY IDOCK:   -2.29 KCAL/MOL
REMARK 922        TOTAL FREE ENERGY PREDICTED BY IDOCK:   -2.76 KCAL/MOL
REMARK 923 INTER-LIGAND FREE ENERGY PREDICTED BY IDOCK:   -2.73 KCAL/MOL
REMARK 924 INTRA-LIGAND FREE ENERGY PREDICTED BY IDOCK:   -0.03 KCAL/MOL
REMARK 927      BINDING AFFINITY PREDICTED BY RF-SCORE:    0.00 PKD
ROOT
ATOM      1  N   PHE A   1     -11.041   7.844  69.222  1.00  0.00    -0.436 NA 
ATOM      2  CA  PHE A   1     -11.437   6.559  69.888  1.00  0.00    -0.403 C  
ATOM      3  H1  PHE A   1     -11.812   8.501  69.109  1.00  0.00     0.000 HD 
ATOM      4  H2  PHE A   1     -10.590   7.660  68.325  1.00  0.00     0.000 HD 
ATOM      5  C   PHE A   1     -12.045   6.910  71.255  1.00  0.00    -0.373 C  
ATOM      6  OXT PHE A   1     -12.167   6.148  72.200  1.00  0.00    -0.319 OA 
ATOM      7  O   PHE A   1     -12.475   8.201  71.274  1.00  0.00    -0.307 OA 
ENDROOT
BRANCH   2   8
ATOM      8  CB  PHE A   1     -10.275   5.567  70.058  1.00  0.00    -0.337 C  
BRANCH   8   9
ATOM      9  CG  PHE A   1      -8.938   6.249  70.228  1.00  0.00    -0.154 A  
ATOM     10  CD1 PHE A   1      -8.045   6.346  69.150  1.00  0.00    -0.111 A  
ATOM     11  CE1 PHE A   1      -6.795   6.943  69.320  1.00  0.00    -0.058 A  
ATOM     12  CZ  PHE A   1      -6.428   7.456  70.562  1.00  0.00    -0.039 A  
ATOM     13  CE2 PHE A   1      -7.309   7.373  71.636  1.00  0.00    -0.075 A  
ATOM     14  CD2 PHE A   1      -8.559   6.770  71.473  1.00  0.00    -0.120 A  
ENDBRANCH   8   9
ENDBRANCH   2   8
TORSDOF 2
ENDMDL
MODEL      183
REMARK 921   NORMALIZED FREE ENERGY PREDICTED BY IDOCK:   -2.29 KCAL/MOL
REMARK 922        TOTAL FREE ENERGY PREDICTED BY IDOCK:   -2.76 KCAL/MOL
REMARK 923 INTER-LIGAND FREE ENERGY PREDICTED BY IDOCK:   -2.81 KCAL/MOL
REMARK 924 INTRA-LIGAND FREE ENERGY PREDICTED BY IDOCK:    0.05 KCAL/MOL
REMARK 927      BINDING AFFINITY PREDICTED BY RF-SCORE:    0.00 PKD
ROOT
ATOM      1  N   PHE A   1     -10.990   7.721  68.767  1.00  0.00    -0.421 NA 
ATOM      2  CA  PHE A   1     -11.372   6.671  69.769  1.00  0.00    -0.354 C  
ATOM      3  H1  PHE A   1     -11.626   8.519  68.748  1.00  0.00     0.000 HD 
ATOM      4  H2  PHE A   1     -10.897   7.314  67.836  1.00  0.00     0.000 HD 
ATOM      5  C   PHE A   1     -11.428   7.343  71.151  1.00  0.00    -0.279 C  
ATOM      6  OXT PHE A   1     -11.370   6.770  72.226  1.00  0.00    -0.255 OA 
ATOM      7  O   PHE A   1     -11.588   8.688  71.026  1.00  0.00    -0.275 OA 
ENDROOT
BRANCH   2   8
ATOM      8  CB  PHE A   1     -10.415   5.468  69.797  1.00  0.00    -0.389 C  
BRANCH   8   9
ATOM      9  CG  PHE A   1      -9.601   5.332  68.533  1.00  0.00    -0.180 A  
ATOM     10  CD1 PHE A   1      -8.285   5.817  68.477  1.00  0.00    -0.108 A  
ATOM     11  CE1 PHE A   1      -7.548   5.723  67.296  1.00  0.00    -0.096 A  
ATOM     12  CZ  PHE A   1      -8.111   5.139  66.165  1.00  0.00    -0.108 A  
ATOM     13  CE2 PHE A   1      -9.412   4.646  66.211  1.00  0.00    -0.167 A  
ATOM     14  CD2 PHE A   1     -10.156   4.743  67.389  1.00  0.00    -0.177 A  
ENDBRANCH   8   9
ENDBRANCH   2   8
TORSDOF 2
ENDMDL
MODEL      184
REMARK 921   NORMALIZED FREE ENERGY PREDICTED BY IDOCK:   -2.29 KCAL/MOL
REMARK 922        TOTAL FREE ENERGY PREDICTED BY IDOCK:   -2.76 KCAL/MOL
REMARK 923 INTER-LIGAND FREE ENERGY PREDICTED BY IDOCK:   -3.15 KCAL/MOL
REMARK 924 INTRA-LIGAND FREE ENERGY PREDICTED BY IDOCK:    0.39 KCAL/MOL
REMARK 927      BINDING AFFINITY PREDICTED BY RF-SCORE:    0.00 PKD
ROOT
ATOM      1  N   PHE A   1      -8.377   8.103  68.267  1.00  0.00    -0.125 NA 
ATOM      2  CA  PHE A   1      -8.368   9.267  69.214  1.00  0.00    -0.124 C  
ATOM      3  H1  PHE A   1      -7.445   7.791  67.994  1.00  0.00     0.000 HD 
ATOM      4  H2  PHE A   1      -8.943   8.312  67.444  1.00  0.00     0.000 HD 
ATOM      5  C   PHE A   1      -7.557   8.856  70.453  1.00  0.00    -0.088 C  
ATOM      6  OXT PHE A   1      -7.608   9.387  71.549  1.00  0.00    -0.329 OA 
ATOM      7  O   PHE A   1      -6.726   7.818  70.162  1.00  0.00    -0.040 OA 
ENDROOT
BRANCH   2   8
ATOM      8  CB  PHE A   1      -9.772   9.739  69.626  1.00  0.00    -0.242 C  
BRANCH   8   9
ATOM      9  CG  PHE A   1     -10.556   8.681  70.366  1.00  0.00    -0.244 A  
ATOM     10  CD1 PHE A   1     -10.967   8.894  71.691  1.00  0.00    -0.415 A  
ATOM     11  CE1 PHE A   1     -11.659   7.900  72.384  1.00  0.00    -0.436 A  
ATOM     12  CZ  PHE A   1     -11.954   6.690  71.762  1.00  0.00    -0.391 A  
ATOM     13  CE2 PHE A   1     -11.559   6.471  70.445  1.00  0.00    -0.470 A  
ATOM     14  CD2 PHE A   1     -10.861   7.460  69.749  1.00  0.00    -0.246 A  
ENDBRANCH   8   9
ENDBRANCH   2   8
TORSDOF 2
ENDMDL
MODEL      185
REMARK 921   NORMALIZED FREE ENERGY PREDICTED BY IDOCK:   -2.28 KCAL/MOL
REMARK 922        TOTAL FREE ENERGY PREDICTED BY IDOCK:   -2.75 KCAL/MOL
REMARK 923 INTER-LIGAND FREE ENERGY PREDICTED BY IDOCK:   -2.80 KCAL/MOL
REMARK 924 INTRA-LIGAND FREE ENERGY PREDICTED BY IDOCK:    0.05 KCAL/MOL
REMARK 927      BINDING AFFINITY PREDICTED BY RF-SCORE:    0.00 PKD
ROOT
ATOM      1  N   PHE A   1      -8.941   4.383  67.876  1.00  0.00    -0.113 NA 
ATOM      2  CA  PHE A   1      -9.489   4.924  66.588  1.00  0.00    -0.150 C  
ATOM      3  H1  PHE A   1      -8.083   3.843  67.762  1.00  0.00     0.000 HD 
ATOM      4  H2  PHE A   1      -9.649   3.835  68.366  1.00  0.00     0.000 HD 
ATOM      5  C   PHE A   1      -8.394   5.789  65.942  1.00  0.00    -0.130 C  
ATOM      6  OXT PHE A   1      -8.568   6.643  65.089  1.00  0.00    -0.089 OA 
ATOM      7  O   PHE A   1      -7.167   5.454  66.426  1.00  0.00    -0.074 OA 
ENDROOT
BRANCH   2   8
ATOM      8  CB  PHE A   1     -10.781   5.738  66.760  1.00  0.00    -0.369 C  
BRANCH   8   9
ATOM      9  CG  PHE A   1     -10.771   6.609  67.993  1.00  0.00    -0.330 A  
ATOM     10  CD1 PHE A   1     -11.284   6.131  69.208  1.00  0.00    -0.438 A  
ATOM     11  CE1 PHE A   1     -11.308   6.950  70.337  1.00  0.00    -0.376 A  
ATOM     12  CZ  PHE A   1     -10.813   8.250  70.267  1.00  0.00    -0.241 A  
ATOM     13  CE2 PHE A   1     -10.292   8.733  69.069  1.00  0.00    -0.227 A  
ATOM     14  CD2 PHE A   1     -10.273   7.917  67.935  1.00  0.00    -0.263 A  
ENDBRANCH   8   9
ENDBRANCH   2   8
TORSDOF 2
ENDMDL
MODEL      186
REMARK 921   NORMALIZED FREE ENERGY PREDICTED BY IDOCK:   -2.27 KCAL/MOL
REMARK 922        TOTAL FREE ENERGY PREDICTED BY IDOCK:   -2.74 KCAL/MOL
REMARK 923 INTER-LIGAND FREE ENERGY PREDICTED BY IDOCK:   -2.57 KCAL/MOL
REMARK 924 INTRA-LIGAND FREE ENERGY PREDICTED BY IDOCK:   -0.17 KCAL/MOL
REMARK 927      BINDING AFFINITY PREDICTED BY RF-SCORE:    0.00 PKD
ROOT
ATOM      1  N   PHE A   1     -11.200   8.313  69.349  1.00  0.00    -0.425 NA 
ATOM      2  CA  PHE A   1     -10.396   8.795  68.177  1.00  0.00    -0.216 C  
ATOM      3  H1  PHE A   1     -11.182   8.948  70.147  1.00  0.00     0.000 HD 
ATOM      4  H2  PHE A   1     -10.906   7.377  69.628  1.00  0.00     0.000 HD 
ATOM      5  C   PHE A   1     -10.939  10.175  67.775  1.00  0.00    -0.277 C  
ATOM      6  OXT PHE A   1     -10.779  10.719  66.694  1.00  0.00    -0.249 OA 
ATOM      7  O   PHE A   1     -11.611  10.749  68.809  1.00  0.00    -0.282 OA 
ENDROOT
BRANCH   2   8
ATOM      8  CB  PHE A   1     -10.423   7.838  66.975  1.00  0.00    -0.419 C  
BRANCH   8   9
ATOM      9  CG  PHE A   1      -9.215   6.933  66.913  1.00  0.00    -0.167 A  
ATOM     10  CD1 PHE A   1      -9.257   5.737  66.180  1.00  0.00    -0.169 A  
ATOM     11  CE1 PHE A   1      -8.152   4.885  66.156  1.00  0.00    -0.107 A  
ATOM     12  CZ  PHE A   1      -6.995   5.221  66.853  1.00  0.00    -0.065 A  
ATOM     13  CE2 PHE A   1      -6.939   6.409  67.576  1.00  0.00    -0.078 A  
ATOM     14  CD2 PHE A   1      -8.044   7.262  67.609  1.00  0.00    -0.114 A  
ENDBRANCH   8   9
ENDBRANCH   2   8
TORSDOF 2
ENDMDL
MODEL      187
REMARK 921   NORMALIZED FREE ENERGY PREDICTED BY IDOCK:   -2.26 KCAL/MOL
REMARK 922        TOTAL FREE ENERGY PREDICTED BY IDOCK:   -2.72 KCAL/MOL
REMARK 923 INTER-LIGAND FREE ENERGY PREDICTED BY IDOCK:   -2.71 KCAL/MOL
REMARK 924 INTRA-LIGAND FREE ENERGY PREDICTED BY IDOCK:   -0.01 KCAL/MOL
REMARK 927      BINDING AFFINITY PREDICTED BY RF-SCORE:    0.00 PKD
ROOT
ATOM      1  N   PHE A   1     -10.671   9.673  69.947  1.00  0.00    -0.235 NA 
ATOM      2  CA  PHE A   1     -10.184   8.958  68.721  1.00  0.00    -0.206 C  
ATOM      3  H1  PHE A   1     -10.617   9.111  70.797  1.00  0.00     0.000 HD 
ATOM      4  H2  PHE A   1     -11.619  10.024  69.806  1.00  0.00     0.000 HD 
ATOM      5  C   PHE A   1      -8.734   8.519  68.981  1.00  0.00    -0.134 C  
ATOM      6  OXT PHE A   1      -7.913   8.222  68.129  1.00  0.00    -0.119 OA 
ATOM      7  O   PHE A   1      -8.479   8.467  70.317  1.00  0.00    -0.119 OA 
ENDROOT
BRANCH   2   8
ATOM      8  CB  PHE A   1     -10.265   9.803  67.439  1.00  0.00    -0.284 C  
BRANCH   8   9
ATOM      9  CG  PHE A   1     -10.317  11.287  67.714  1.00  0.00    -0.208 A  
ATOM     10  CD1 PHE A   1     -11.548  11.959  67.773  1.00  0.00    -0.393 A  
ATOM     11  CE1 PHE A   1     -11.591  13.336  67.990  1.00  0.00    -0.371 A  
ATOM     12  CZ  PHE A   1     -10.410  14.055  68.158  1.00  0.00    -0.241 A  
ATOM     13  CE2 PHE A   1      -9.184  13.398  68.111  1.00  0.00    -0.215 A  
ATOM     14  CD2 PHE A   1      -9.135  12.020  67.888  1.00  0.00    -0.183 A  
ENDBRANCH   8   9
ENDBRANCH   2   8
TORSDOF 2
ENDMDL
MODEL      188
REMARK 921   NORMALIZED FREE ENERGY PREDICTED BY IDOCK:   -2.25 KCAL/MOL
REMARK 922        TOTAL FREE ENERGY PREDICTED BY IDOCK:   -2.72 KCAL/MOL
REMARK 923 INTER-LIGAND FREE ENERGY PREDICTED BY IDOCK:   -2.69 KCAL/MOL
REMARK 924 INTRA-LIGAND FREE ENERGY PREDICTED BY IDOCK:   -0.02 KCAL/MOL
REMARK 927      BINDING AFFINITY PREDICTED BY RF-SCORE:    0.00 PKD
ROOT
ATOM      1  N   PHE A   1      -9.379   5.040  63.296  1.00  0.00    -0.348 NA 
ATOM      2  CA  PHE A   1      -8.533   4.076  64.076  1.00  0.00    -0.096 C  
ATOM      3  H1  PHE A   1      -9.687   4.677  62.394  1.00  0.00     0.000 HD 
ATOM      4  H2  PHE A   1      -8.896   5.931  63.180  1.00  0.00     0.000 HD 
ATOM      5  C   PHE A   1      -9.348   2.787  64.267  1.00  0.00    -0.131 C  
ATOM      6  OXT PHE A   1      -9.143   1.931  65.111  1.00  0.00    -0.126 OA 
ATOM      7  O   PHE A   1     -10.335   2.698  63.335  1.00  0.00    -0.154 OA 
ENDROOT
BRANCH   2   8
ATOM      8  CB  PHE A   1      -8.068   4.622  65.435  1.00  0.00    -0.107 C  
BRANCH   8   9
ATOM      9  CG  PHE A   1      -8.939   5.743  65.950  1.00  0.00    -0.158 A  
ATOM     10  CD1 PHE A   1      -8.527   7.079  65.830  1.00  0.00    -0.154 A  
ATOM     11  CE1 PHE A   1      -9.316   8.111  66.339  1.00  0.00    -0.269 A  
ATOM     12  CZ  PHE A   1     -10.525   7.821  66.966  1.00  0.00    -0.419 A  
ATOM     13  CE2 PHE A   1     -10.949   6.500  67.083  1.00  0.00    -0.480 A  
ATOM     14  CD2 PHE A   1     -10.159   5.464  66.580  1.00  0.00    -0.250 A  
ENDBRANCH   8   9
ENDBRANCH   2   8
TORSDOF 2
ENDMDL
MODEL      189
REMARK 921   NORMALIZED FREE ENERGY PREDICTED BY IDOCK:   -2.25 KCAL/MOL
REMARK 922        TOTAL FREE ENERGY PREDICTED BY IDOCK:   -2.71 KCAL/MOL
REMARK 923 INTER-LIGAND FREE ENERGY PREDICTED BY IDOCK:   -3.03 KCAL/MOL
REMARK 924 INTRA-LIGAND FREE ENERGY PREDICTED BY IDOCK:    0.32 KCAL/MOL
REMARK 927      BINDING AFFINITY PREDICTED BY RF-SCORE:    0.00 PKD
ROOT
ATOM      1  N   PHE A   1      -7.755  13.592  66.978  1.00  0.00    -0.362 NA 
ATOM      2  CA  PHE A   1      -8.481  13.935  68.245  1.00  0.00    -0.169 C  
ATOM      3  H1  PHE A   1      -8.074  12.725  66.545  1.00  0.00     0.000 HD 
ATOM      4  H2  PHE A   1      -6.747  13.566  67.136  1.00  0.00     0.000 HD 
ATOM      5  C   PHE A   1      -9.981  14.021  67.916  1.00  0.00    -0.237 C  
ATOM      6  OXT PHE A   1     -10.827  14.592  68.583  1.00  0.00    -0.240 OA 
ATOM      7  O   PHE A   1     -10.263  13.336  66.775  1.00  0.00    -0.247 OA 
ENDROOT
BRANCH   2   8
ATOM      8  CB  PHE A   1      -8.001  15.242  68.898  1.00  0.00    -0.176 C  
BRANCH   8   9
ATOM      9  CG  PHE A   1      -8.141  16.441  67.991  1.00  0.00    -0.159 A  
ATOM     10  CD1 PHE A   1      -7.277  16.612  66.898  1.00  0.00    -0.261 A  
ATOM     11  CE1 PHE A   1      -7.385  17.740  66.083  1.00  0.00    -0.335 A  
ATOM     12  CZ  PHE A   1      -8.357  18.702  66.345  1.00  0.00    -0.292 A  
ATOM     13  CE2 PHE A   1      -9.225  18.538  67.421  1.00  0.00    -0.286 A  
ATOM     14  CD2 PHE A   1      -9.118  17.413  68.243  1.00  0.00    -0.272 A  
ENDBRANCH   8   9
ENDBRANCH   2   8
TORSDOF 2
ENDMDL
MODEL      190
REMARK 921   NORMALIZED FREE ENERGY PREDICTED BY IDOCK:   -2.19 KCAL/MOL
REMARK 922        TOTAL FREE ENERGY PREDICTED BY IDOCK:   -2.65 KCAL/MOL
REMARK 923 INTER-LIGAND FREE ENERGY PREDICTED BY IDOCK:   -2.68 KCAL/MOL
REMARK 924 INTRA-LIGAND FREE ENERGY PREDICTED BY IDOCK:    0.03 KCAL/MOL
REMARK 927      BINDING AFFINITY PREDICTED BY RF-SCORE:    0.00 PKD
ROOT
ATOM      1  N   PHE A   1      -9.134  18.050  68.838  1.00  0.00    -0.192 NA 
ATOM      2  CA  PHE A   1      -8.809  18.196  67.380  1.00  0.00    -0.256 C  
ATOM      3  H1  PHE A   1     -10.106  18.262  69.064  1.00  0.00     0.000 HD 
ATOM      4  H2  PHE A   1      -8.502  18.615  69.406  1.00  0.00     0.000 HD 
ATOM      5  C   PHE A   1      -9.754  17.270  66.597  1.00  0.00    -0.288 C  
ATOM      6  OXT PHE A   1      -9.578  16.865  65.460  1.00  0.00    -0.519 OA 
ATOM      7  O   PHE A   1     -10.859  16.974  67.334  1.00  0.00    -0.281 OA 
ENDROOT
BRANCH   2   8
ATOM      8  CB  PHE A   1      -7.345  17.878  67.039  1.00  0.00    -0.218 C  
BRANCH   8   9
ATOM      9  CG  PHE A   1      -6.657  17.053  68.101  1.00  0.00    -0.149 A  
ATOM     10  CD1 PHE A   1      -5.993  17.676  69.169  1.00  0.00    -0.212 A  
ATOM     11  CE1 PHE A   1      -5.326  16.913  70.128  1.00  0.00    -0.205 A  
ATOM     12  CZ  PHE A   1      -5.323  15.524  70.037  1.00  0.00    -0.117 A  
ATOM     13  CE2 PHE A   1      -5.986  14.894  68.988  1.00  0.00    -0.096 A  
ATOM     14  CD2 PHE A   1      -6.649  15.654  68.021  1.00  0.00    -0.152 A  
ENDBRANCH   8   9
ENDBRANCH   2   8
TORSDOF 2
ENDMDL
MODEL      191
REMARK 921   NORMALIZED FREE ENERGY PREDICTED BY IDOCK:   -2.18 KCAL/MOL
REMARK 922        TOTAL FREE ENERGY PREDICTED BY IDOCK:   -2.64 KCAL/MOL
REMARK 923 INTER-LIGAND FREE ENERGY PREDICTED BY IDOCK:   -2.62 KCAL/MOL
REMARK 924 INTRA-LIGAND FREE ENERGY PREDICTED BY IDOCK:   -0.02 KCAL/MOL
REMARK 927      BINDING AFFINITY PREDICTED BY RF-SCORE:    0.00 PKD
ROOT
ATOM      1  N   PHE A   1     -10.220   5.812  69.825  1.00  0.00    -0.213 NA 
ATOM      2  CA  PHE A   1     -10.755   7.128  69.343  1.00  0.00    -0.231 C  
ATOM      3  H1  PHE A   1     -10.777   5.010  69.529  1.00  0.00     0.000 HD 
ATOM      4  H2  PHE A   1     -10.107   5.818  70.839  1.00  0.00     0.000 HD 
ATOM      5  C   PHE A   1     -10.835   7.067  67.809  1.00  0.00    -0.206 C  
ATOM      6  OXT PHE A   1     -10.895   8.026  67.057  1.00  0.00    -0.283 OA 
ATOM      7  O   PHE A   1     -10.865   5.776  67.379  1.00  0.00    -0.268 OA 
ENDROOT
BRANCH   2   8
ATOM      8  CB  PHE A   1      -9.915   8.336  69.787  1.00  0.00    -0.191 C  
BRANCH   8   9
ATOM      9  CG  PHE A   1      -9.238   8.126  71.120  1.00  0.00    -0.185 A  
ATOM     10  CD1 PHE A   1      -9.994   8.042  72.299  1.00  0.00    -0.304 A  
ATOM     11  CE1 PHE A   1      -9.363   7.885  73.533  1.00  0.00    -0.333 A  
ATOM     12  CZ  PHE A   1      -7.975   7.803  73.604  1.00  0.00    -0.215 A  
ATOM     13  CE2 PHE A   1      -7.215   7.877  72.440  1.00  0.00    -0.100 A  
ATOM     14  CD2 PHE A   1      -7.842   8.040  71.202  1.00  0.00    -0.089 A  
ENDBRANCH   8   9
ENDBRANCH   2   8
TORSDOF 2
ENDMDL
MODEL      192
REMARK 921   NORMALIZED FREE ENERGY PREDICTED BY IDOCK:   -2.18 KCAL/MOL
REMARK 922        TOTAL FREE ENERGY PREDICTED BY IDOCK:   -2.64 KCAL/MOL
REMARK 923 INTER-LIGAND FREE ENERGY PREDICTED BY IDOCK:   -2.66 KCAL/MOL
REMARK 924 INTRA-LIGAND FREE ENERGY PREDICTED BY IDOCK:    0.02 KCAL/MOL
REMARK 927      BINDING AFFINITY PREDICTED BY RF-SCORE:    0.00 PKD
ROOT
ATOM      1  N   PHE A   1      -7.668   5.168  67.725  1.00  0.00    -0.087 NA 
ATOM      2  CA  PHE A   1      -8.614   4.176  67.114  1.00  0.00    -0.104 C  
ATOM      3  H1  PHE A   1      -7.058   5.624  67.046  1.00  0.00     0.000 HD 
ATOM      4  H2  PHE A   1      -7.120   4.733  68.467  1.00  0.00     0.000 HD 
ATOM      5  C   PHE A   1      -9.448   4.916  66.056  1.00  0.00    -0.163 C  
ATOM      6  OXT PHE A   1     -10.518   4.546  65.602  1.00  0.00    -0.280 OA 
ATOM      7  O   PHE A   1      -8.816   6.051  65.651  1.00  0.00    -0.156 OA 
ENDROOT
BRANCH   2   8
ATOM      8  CB  PHE A   1      -9.533   3.489  68.136  1.00  0.00    -0.215 C  
BRANCH   8   9
ATOM      9  CG  PHE A   1      -9.870   4.372  69.314  1.00  0.00    -0.218 A  
ATOM     10  CD1 PHE A   1      -9.378   4.073  70.593  1.00  0.00    -0.217 A  
ATOM     11  CE1 PHE A   1      -9.721   4.869  71.686  1.00  0.00    -0.231 A  
ATOM     12  CZ  PHE A   1     -10.551   5.974  71.513  1.00  0.00    -0.295 A  
ATOM     13  CE2 PHE A   1     -11.039   6.286  70.247  1.00  0.00    -0.430 A  
ATOM     14  CD2 PHE A   1     -10.703   5.488  69.150  1.00  0.00    -0.260 A  
ENDBRANCH   8   9
ENDBRANCH   2   8
TORSDOF 2
ENDMDL
MODEL      193
REMARK 921   NORMALIZED FREE ENERGY PREDICTED BY IDOCK:   -2.13 KCAL/MOL
REMARK 922        TOTAL FREE ENERGY PREDICTED BY IDOCK:   -2.58 KCAL/MOL
REMARK 923 INTER-LIGAND FREE ENERGY PREDICTED BY IDOCK:   -2.61 KCAL/MOL
REMARK 924 INTRA-LIGAND FREE ENERGY PREDICTED BY IDOCK:    0.03 KCAL/MOL
REMARK 927      BINDING AFFINITY PREDICTED BY RF-SCORE:    0.00 PKD
ROOT
ATOM      1  N   PHE A   1     -10.641  10.469  66.529  1.00  0.00    -0.209 NA 
ATOM      2  CA  PHE A   1     -11.441  11.400  67.392  1.00  0.00    -0.251 C  
ATOM      3  H1  PHE A   1     -11.107  10.217  65.657  1.00  0.00     0.000 HD 
ATOM      4  H2  PHE A   1     -10.376   9.633  67.050  1.00  0.00     0.000 HD 
ATOM      5  C   PHE A   1     -11.745  12.659  66.564  1.00  0.00    -0.400 C  
ATOM      6  OXT PHE A   1     -12.068  13.747  67.010  1.00  0.00    -0.406 OA 
ATOM      7  O   PHE A   1     -11.641  12.397  65.233  1.00  0.00    -0.344 OA 
ENDROOT
BRANCH   2   8
ATOM      8  CB  PHE A   1     -10.740  11.781  68.706  1.00  0.00    -0.255 C  
BRANCH   8   9
ATOM      9  CG  PHE A   1      -9.237  11.839  68.577  1.00  0.00    -0.152 A  
ATOM     10  CD1 PHE A   1      -8.602  13.020  68.162  1.00  0.00    -0.188 A  
ATOM     11  CE1 PHE A   1      -7.216  13.060  68.008  1.00  0.00    -0.119 A  
ATOM     12  CZ  PHE A   1      -6.450  11.927  68.274  1.00  0.00    -0.052 A  
ATOM     13  CE2 PHE A   1      -7.068  10.753  68.694  1.00  0.00    -0.078 A  
ATOM     14  CD2 PHE A   1      -8.456  10.706  68.844  1.00  0.00    -0.154 A  
ENDBRANCH   8   9
ENDBRANCH   2   8
TORSDOF 2
ENDMDL
MODEL      194
REMARK 921   NORMALIZED FREE ENERGY PREDICTED BY IDOCK:   -2.09 KCAL/MOL
REMARK 922        TOTAL FREE ENERGY PREDICTED BY IDOCK:   -2.53 KCAL/MOL
REMARK 923 INTER-LIGAND FREE ENERGY PREDICTED BY IDOCK:   -2.59 KCAL/MOL
REMARK 924 INTRA-LIGAND FREE ENERGY PREDICTED BY IDOCK:    0.06 KCAL/MOL
REMARK 927      BINDING AFFINITY PREDICTED BY RF-SCORE:    0.00 PKD
ROOT
ATOM      1  N   PHE A   1     -10.776   8.627  72.106  1.00  0.00    -0.348 NA 
ATOM      2  CA  PHE A   1     -11.280   8.294  70.732  1.00  0.00    -0.264 C  
ATOM      3  H1  PHE A   1     -11.391   8.309  72.855  1.00  0.00     0.000 HD 
ATOM      4  H2  PHE A   1     -10.593   9.627  72.190  1.00  0.00     0.000 HD 
ATOM      5  C   PHE A   1     -11.469   6.770  70.660  1.00  0.00    -0.351 C  
ATOM      6  OXT PHE A   1     -11.535   6.106  69.639  1.00  0.00    -0.429 OA 
ATOM      7  O   PHE A   1     -11.590   6.240  71.907  1.00  0.00    -0.296 OA 
ENDROOT
BRANCH   2   8
ATOM      8  CB  PHE A   1     -10.354   8.772  69.602  1.00  0.00    -0.213 C  
BRANCH   8   9
ATOM      9  CG  PHE A   1      -8.895   8.759  69.989  1.00  0.00    -0.149 A  
ATOM     10  CD1 PHE A   1      -8.167   9.956  70.069  1.00  0.00    -0.187 A  
ATOM     11  CE1 PHE A   1      -6.810   9.938  70.391  1.00  0.00    -0.141 A  
ATOM     12  CZ  PHE A   1      -6.168   8.728  70.643  1.00  0.00    -0.039 A  
ATOM     13  CE2 PHE A   1      -6.881   7.535  70.575  1.00  0.00    -0.047 A  
ATOM     14  CD2 PHE A   1      -8.239   7.548  70.248  1.00  0.00    -0.128 A  
ENDBRANCH   8   9
ENDBRANCH   2   8
TORSDOF 2
ENDMDL
MODEL      195
REMARK 921   NORMALIZED FREE ENERGY PREDICTED BY IDOCK:   -2.02 KCAL/MOL
REMARK 922        TOTAL FREE ENERGY PREDICTED BY IDOCK:   -2.46 KCAL/MOL
REMARK 923 INTER-LIGAND FREE ENERGY PREDICTED BY IDOCK:   -2.27 KCAL/MOL
REMARK 924 INTRA-LIGAND FREE ENERGY PREDICTED BY IDOCK:   -0.19 KCAL/MOL
REMARK 927      BINDING AFFINITY PREDICTED BY RF-SCORE:    0.00 PKD
ROOT
ATOM      1  N   PHE A   1     -11.504   8.296  72.754  1.00  0.00    -0.355 NA 
ATOM      2  CA  PHE A   1     -10.162   8.578  72.143  1.00  0.00    -0.333 C  
ATOM      3  H1  PHE A   1     -11.986   9.132  73.086  1.00  0.00     0.000 HD 
ATOM      4  H2  PHE A   1     -11.422   7.607  73.502  1.00  0.00     0.000 HD 
ATOM      5  C   PHE A   1     -10.374   9.568  70.987  1.00  0.00    -0.283 C  
ATOM      6  OXT PHE A   1      -9.601   9.766  70.064  1.00  0.00    -0.224 OA 
ATOM      7  O   PHE A   1     -11.547  10.242  71.138  1.00  0.00    -0.355 OA 
ENDROOT
BRANCH   2   8
ATOM      8  CB  PHE A   1      -9.436   7.319  71.642  1.00  0.00    -0.161 C  
BRANCH   8   9
ATOM      9  CG  PHE A   1      -8.105   7.097  72.320  1.00  0.00    -0.103 A  
ATOM     10  CD1 PHE A   1      -7.746   7.847  73.450  1.00  0.00    -0.194 A  
ATOM     11  CE1 PHE A   1      -6.500   7.666  74.052  1.00  0.00    -0.088 A  
ATOM     12  CZ  PHE A   1      -5.605   6.731  73.538  1.00  0.00    -0.046 A  
ATOM     13  CE2 PHE A   1      -5.953   5.974  72.423  1.00  0.00    -0.037 A  
ATOM     14  CD2 PHE A   1      -7.197   6.157  71.813  1.00  0.00    -0.087 A  
ENDBRANCH   8   9
ENDBRANCH   2   8
TORSDOF 2
ENDMDL
MODEL      196
REMARK 921   NORMALIZED FREE ENERGY PREDICTED BY IDOCK:   -1.97 KCAL/MOL
REMARK 922        TOTAL FREE ENERGY PREDICTED BY IDOCK:   -2.41 KCAL/MOL
REMARK 923 INTER-LIGAND FREE ENERGY PREDICTED BY IDOCK:   -2.38 KCAL/MOL
REMARK 924 INTRA-LIGAND FREE ENERGY PREDICTED BY IDOCK:   -0.03 KCAL/MOL
REMARK 927      BINDING AFFINITY PREDICTED BY RF-SCORE:    0.00 PKD
ROOT
ATOM      1  N   PHE A   1      -9.494  11.270  66.792  1.00  0.00    -0.176 NA 
ATOM      2  CA  PHE A   1      -8.446  10.336  66.263  1.00  0.00    -0.135 C  
ATOM      3  H1  PHE A   1      -9.873  11.902  66.086  1.00  0.00     0.000 HD 
ATOM      4  H2  PHE A   1      -9.138  11.795  67.591  1.00  0.00     0.000 HD 
ATOM      5  C   PHE A   1      -9.073   9.535  65.110  1.00  0.00    -0.228 C  
ATOM      6  OXT PHE A   1      -8.660   8.476  64.668  1.00  0.00    -0.150 OA 
ATOM      7  O   PHE A   1     -10.156  10.186  64.605  1.00  0.00    -0.321 OA 
ENDROOT
BRANCH   2   8
ATOM      8  CB  PHE A   1      -7.874   9.384  67.326  1.00  0.00    -0.099 C  
BRANCH   8   9
ATOM      9  CG  PHE A   1      -8.875   9.025  68.397  1.00  0.00    -0.134 A  
ATOM     10  CD1 PHE A   1      -8.824   9.643  69.656  1.00  0.00    -0.212 A  
ATOM     11  CE1 PHE A   1      -9.728   9.283  70.657  1.00  0.00    -0.334 A  
ATOM     12  CZ  PHE A   1     -10.694   8.312  70.410  1.00  0.00    -0.239 A  
ATOM     13  CE2 PHE A   1     -10.760   7.698  69.162  1.00  0.00    -0.153 A  
ATOM     14  CD2 PHE A   1      -9.854   8.051  68.159  1.00  0.00    -0.195 A  
ENDBRANCH   8   9
ENDBRANCH   2   8
TORSDOF 2
ENDMDL
MODEL      197
REMARK 921   NORMALIZED FREE ENERGY PREDICTED BY IDOCK:   -1.95 KCAL/MOL
REMARK 922        TOTAL FREE ENERGY PREDICTED BY IDOCK:   -2.38 KCAL/MOL
REMARK 923 INTER-LIGAND FREE ENERGY PREDICTED BY IDOCK:   -2.56 KCAL/MOL
REMARK 924 INTRA-LIGAND FREE ENERGY PREDICTED BY IDOCK:    0.18 KCAL/MOL
REMARK 927      BINDING AFFINITY PREDICTED BY RF-SCORE:    0.00 PKD
ROOT
ATOM      1  N   PHE A   1      -7.619   6.252  66.831  1.00  0.00    -0.097 NA 
ATOM      2  CA  PHE A   1      -7.865   4.918  66.187  1.00  0.00    -0.099 C  
ATOM      3  H1  PHE A   1      -7.034   6.874  66.272  1.00  0.00     0.000 HD 
ATOM      4  H2  PHE A   1      -7.228   6.134  67.766  1.00  0.00     0.000 HD 
ATOM      5  C   PHE A   1      -8.513   5.174  64.816  1.00  0.00    -0.150 C  
ATOM      6  OXT PHE A   1      -9.151   4.364  64.165  1.00  0.00    -0.148 OA 
ATOM      7  O   PHE A   1      -8.253   6.439  64.389  1.00  0.00    -0.106 OA 
ENDROOT
BRANCH   2   8
ATOM      8  CB  PHE A   1      -8.746   3.980  67.028  1.00  0.00    -0.116 C  
BRANCH   8   9
ATOM      9  CG  PHE A   1      -9.577   4.713  68.054  1.00  0.00    -0.207 A  
ATOM     10  CD1 PHE A   1     -10.518   5.674  67.655  1.00  0.00    -0.284 A  
ATOM     11  CE1 PHE A   1     -11.258   6.376  68.607  1.00  0.00    -0.338 A  
ATOM     12  CZ  PHE A   1     -11.072   6.121  69.964  1.00  0.00    -0.462 A  
ATOM     13  CE2 PHE A   1     -10.148   5.164  70.371  1.00  0.00    -0.333 A  
ATOM     14  CD2 PHE A   1      -9.401   4.463  69.422  1.00  0.00    -0.225 A  
ENDBRANCH   8   9
ENDBRANCH   2   8
TORSDOF 2
ENDMDL
MODEL      198
REMARK 921   NORMALIZED FREE ENERGY PREDICTED BY IDOCK:   -1.94 KCAL/MOL
REMARK 922        TOTAL FREE ENERGY PREDICTED BY IDOCK:   -2.37 KCAL/MOL
REMARK 923 INTER-LIGAND FREE ENERGY PREDICTED BY IDOCK:   -2.20 KCAL/MOL
REMARK 924 INTRA-LIGAND FREE ENERGY PREDICTED BY IDOCK:   -0.17 KCAL/MOL
REMARK 927      BINDING AFFINITY PREDICTED BY RF-SCORE:    0.00 PKD
ROOT
ATOM      1  N   PHE A   1     -11.179   8.247  69.406  1.00  0.00    -0.425 NA 
ATOM      2  CA  PHE A   1      -9.947   9.015  69.786  1.00  0.00    -0.196 C  
ATOM      3  H1  PHE A   1     -12.030   8.811  69.408  1.00  0.00     0.000 HD 
ATOM      4  H2  PHE A   1     -11.290   7.426  70.002  1.00  0.00     0.000 HD 
ATOM      5  C   PHE A   1      -9.810  10.193  68.808  1.00  0.00    -0.175 C  
ATOM      6  OXT PHE A   1      -8.789  10.822  68.586  1.00  0.00    -0.139 OA 
ATOM      7  O   PHE A   1     -11.007  10.479  68.228  1.00  0.00    -0.224 OA 
ENDROOT
BRANCH   2   8
ATOM      8  CB  PHE A   1      -8.665   8.165  69.784  1.00  0.00    -0.135 C  
BRANCH   8   9
ATOM      9  CG  PHE A   1      -8.271   7.688  71.161  1.00  0.00    -0.100 A  
ATOM     10  CD1 PHE A   1      -7.455   6.557  71.317  1.00  0.00    -0.089 A  
ATOM     11  CE1 PHE A   1      -7.122   6.097  72.591  1.00  0.00    -0.080 A  
ATOM     12  CZ  PHE A   1      -7.593   6.762  73.720  1.00  0.00    -0.085 A  
ATOM     13  CE2 PHE A   1      -8.396   7.890  73.578  1.00  0.00    -0.271 A  
ATOM     14  CD2 PHE A   1      -8.737   8.352  72.304  1.00  0.00    -0.277 A  
ENDBRANCH   8   9
ENDBRANCH   2   8
TORSDOF 2
ENDMDL
MODEL      199
REMARK 921   NORMALIZED FREE ENERGY PREDICTED BY IDOCK:   -1.92 KCAL/MOL
REMARK 922        TOTAL FREE ENERGY PREDICTED BY IDOCK:   -2.35 KCAL/MOL
REMARK 923 INTER-LIGAND FREE ENERGY PREDICTED BY IDOCK:   -2.75 KCAL/MOL
REMARK 924 INTRA-LIGAND FREE ENERGY PREDICTED BY IDOCK:    0.41 KCAL/MOL
REMARK 927      BINDING AFFINITY PREDICTED BY RF-SCORE:    0.00 PKD
ROOT
ATOM      1  N   PHE A   1      -7.083   6.921  69.960  1.00  0.00    -0.072 NA 
ATOM      2  CA  PHE A   1      -7.068   8.223  70.706  1.00  0.00    -0.044 C  
ATOM      3  H1  PHE A   1      -6.247   6.356  70.107  1.00  0.00     0.000 HD 
ATOM      4  H2  PHE A   1      -7.241   7.079  68.964  1.00  0.00     0.000 HD 
ATOM      5  C   PHE A   1      -6.894   7.904  72.200  1.00  0.00    -0.065 C  
ATOM      6  OXT PHE A   1      -7.167   8.648  73.127  1.00  0.00    -0.316 OA 
ATOM      7  O   PHE A   1      -6.351   6.667  72.368  1.00  0.00    -0.052 OA 
ENDROOT
BRANCH   2   8
ATOM      8  CB  PHE A   1      -8.328   9.076  70.486  1.00  0.00    -0.205 C  
BRANCH   8   9
ATOM      9  CG  PHE A   1      -9.600   8.361  70.873  1.00  0.00    -0.212 A  
ATOM     10  CD1 PHE A   1      -9.924   7.120  70.303  1.00  0.00    -0.191 A  
ATOM     11  CE1 PHE A   1     -11.117   6.480  70.635  1.00  0.00    -0.364 A  
ATOM     12  CZ  PHE A   1     -11.995   7.064  71.544  1.00  0.00    -0.372 A  
ATOM     13  CE2 PHE A   1     -11.681   8.291  72.123  1.00  0.00    -0.429 A  
ATOM     14  CD2 PHE A   1     -10.490   8.939  71.789  1.00  0.00    -0.431 A  
ENDBRANCH   8   9
ENDBRANCH   2   8
TORSDOF 2
ENDMDL
MODEL      200
REMARK 921   NORMALIZED FREE ENERGY PREDICTED BY IDOCK:   -1.87 KCAL/MOL
REMARK 922        TOTAL FREE ENERGY PREDICTED BY IDOCK:   -2.29 KCAL/MOL
REMARK 923 INTER-LIGAND FREE ENERGY PREDICTED BY IDOCK:   -2.76 KCAL/MOL
REMARK 924 INTRA-LIGAND FREE ENERGY PREDICTED BY IDOCK:    0.47 KCAL/MOL
REMARK 927      BINDING AFFINITY PREDICTED BY RF-SCORE:    0.00 PKD
ROOT
ATOM      1  N   PHE A   1      -9.926   7.240  69.081  1.00  0.00    -0.167 NA 
ATOM      2  CA  PHE A   1      -9.396   7.687  67.750  1.00  0.00    -0.142 C  
ATOM      3  H1  PHE A   1      -9.242   6.734  69.645  1.00  0.00     0.000 HD 
ATOM      4  H2  PHE A   1     -10.775   6.687  68.963  1.00  0.00     0.000 HD 
ATOM      5  C   PHE A   1      -8.161   8.566  68.011  1.00  0.00    -0.120 C  
ATOM      6  OXT PHE A   1      -7.675   9.365  67.228  1.00  0.00    -0.091 OA 
ATOM      7  O   PHE A   1      -7.641   8.313  69.242  1.00  0.00    -0.089 OA 
ENDROOT
BRANCH   2   8
ATOM      8  CB  PHE A   1     -10.425   8.450  66.900  1.00  0.00    -0.359 C  
BRANCH   8   9
ATOM      9  CG  PHE A   1     -10.836   9.767  67.512  1.00  0.00    -0.286 A  
ATOM     10  CD1 PHE A   1     -11.283   9.827  68.841  1.00  0.00    -0.076 A  
ATOM     11  CE1 PHE A   1     -11.698  11.040  69.393  1.00  0.00    -0.394 A  
ATOM     12  CZ  PHE A   1     -11.664  12.203  68.629  1.00  0.00    -0.382 A  
ATOM     13  CE2 PHE A   1     -11.215  12.158  67.312  1.00  0.00    -0.366 A  
ATOM     14  CD2 PHE A   1     -10.804  10.945  66.754  1.00  0.00    -0.283 A  
ENDBRANCH   8   9
ENDBRANCH   2   8
TORSDOF 2
ENDMDL
MODEL      201
REMARK 921   NORMALIZED FREE ENERGY PREDICTED BY IDOCK:   -1.81 KCAL/MOL
REMARK 922        TOTAL FREE ENERGY PREDICTED BY IDOCK:   -2.22 KCAL/MOL
REMARK 923 INTER-LIGAND FREE ENERGY PREDICTED BY IDOCK:   -2.23 KCAL/MOL
REMARK 924 INTRA-LIGAND FREE ENERGY PREDICTED BY IDOCK:    0.01 KCAL/MOL
REMARK 927      BINDING AFFINITY PREDICTED BY RF-SCORE:    0.00 PKD
ROOT
ATOM      1  N   PHE A   1     -11.623  11.473  68.123  1.00  0.00    -0.418 NA 
ATOM      2  CA  PHE A   1     -11.338  10.206  68.875  1.00  0.00    -0.120 C  
ATOM      3  H1  PHE A   1     -12.505  11.914  68.383  1.00  0.00     0.000 HD 
ATOM      4  H2  PHE A   1     -11.585  11.310  67.117  1.00  0.00     0.000 HD 
ATOM      5  C   PHE A   1     -11.347  10.542  70.376  1.00  0.00    -0.328 C  
ATOM      6  OXT PHE A   1     -10.838   9.873  71.260  1.00  0.00    -0.289 OA 
ATOM      7  O   PHE A   1     -12.039  11.690  70.609  1.00  0.00    -0.368 OA 
ENDROOT
BRANCH   2   8
ATOM      8  CB  PHE A   1     -10.009   9.540  68.484  1.00  0.00    -0.184 C  
BRANCH   8   9
ATOM      9  CG  PHE A   1      -8.922  10.537  68.161  1.00  0.00    -0.138 A  
ATOM     10  CD1 PHE A   1      -8.688  10.933  66.836  1.00  0.00    -0.144 A  
ATOM     11  CE1 PHE A   1      -7.659  11.826  66.537  1.00  0.00     0.072 A  
ATOM     12  CZ  PHE A   1      -6.859  12.338  67.555  1.00  0.00    -0.135 A  
ATOM     13  CE2 PHE A   1      -7.087  11.959  68.875  1.00  0.00    -0.110 A  
ATOM     14  CD2 PHE A   1      -8.113  11.060  69.179  1.00  0.00    -0.066 A  
ENDBRANCH   8   9
ENDBRANCH   2   8
TORSDOF 2
ENDMDL
MODEL      202
REMARK 921   NORMALIZED FREE ENERGY PREDICTED BY IDOCK:   -1.72 KCAL/MOL
REMARK 922        TOTAL FREE ENERGY PREDICTED BY IDOCK:   -2.13 KCAL/MOL
REMARK 923 INTER-LIGAND FREE ENERGY PREDICTED BY IDOCK:   -1.97 KCAL/MOL
REMARK 924 INTRA-LIGAND FREE ENERGY PREDICTED BY IDOCK:   -0.16 KCAL/MOL
REMARK 927      BINDING AFFINITY PREDICTED BY RF-SCORE:    0.00 PKD
ROOT
ATOM      1  N   PHE A   1      -7.041   8.408  71.649  1.00  0.00    -0.082 NA 
ATOM      2  CA  PHE A   1      -8.474   7.963  71.691  1.00  0.00    -0.116 C  
ATOM      3  H1  PHE A   1      -6.715   8.823  72.522  1.00  0.00     0.000 HD 
ATOM      4  H2  PHE A   1      -6.884   9.045  70.868  1.00  0.00     0.000 HD 
ATOM      5  C   PHE A   1      -8.617   6.959  72.847  1.00  0.00    -0.115 C  
ATOM      6  OXT PHE A   1      -9.517   6.147  72.980  1.00  0.00    -0.144 OA 
ATOM      7  O   PHE A   1      -7.608   7.113  73.746  1.00  0.00    -0.101 OA 
ENDROOT
BRANCH   2   8
ATOM      8  CB  PHE A   1      -8.965   7.338  70.376  1.00  0.00    -0.151 C  
BRANCH   8   9
ATOM      9  CG  PHE A   1      -9.559   8.351  69.426  1.00  0.00    -0.170 A  
ATOM     10  CD1 PHE A   1     -10.632   9.161  69.829  1.00  0.00    -0.240 A  
ATOM     11  CE1 PHE A   1     -11.203  10.070  68.938  1.00  0.00    -0.179 A  
ATOM     12  CZ  PHE A   1     -10.707  10.185  67.642  1.00  0.00    -0.339 A  
ATOM     13  CE2 PHE A   1      -9.637   9.393  67.234  1.00  0.00    -0.194 A  
ATOM     14  CD2 PHE A   1      -9.066   8.477  68.121  1.00  0.00    -0.138 A  
ENDBRANCH   8   9
ENDBRANCH   2   8
TORSDOF 2
ENDMDL
MODEL      203
REMARK 921   NORMALIZED FREE ENERGY PREDICTED BY IDOCK:   -1.60 KCAL/MOL
REMARK 922        TOTAL FREE ENERGY PREDICTED BY IDOCK:   -1.99 KCAL/MOL
REMARK 923 INTER-LIGAND FREE ENERGY PREDICTED BY IDOCK:   -1.96 KCAL/MOL
REMARK 924 INTRA-LIGAND FREE ENERGY PREDICTED BY IDOCK:   -0.02 KCAL/MOL
REMARK 927      BINDING AFFINITY PREDICTED BY RF-SCORE:    0.00 PKD
ROOT
ATOM      1  N   PHE A   1      -7.809   6.416  71.930  1.00  0.00    -0.100 NA 
ATOM      2  CA  PHE A   1      -6.985   7.453  71.225  1.00  0.00    -0.055 C  
ATOM      3  H1  PHE A   1      -7.830   6.529  72.944  1.00  0.00     0.000 HD 
ATOM      4  H2  PHE A   1      -7.498   5.477  71.680  1.00  0.00     0.000 HD 
ATOM      5  C   PHE A   1      -7.552   8.833  71.598  1.00  0.00    -0.070 C  
ATOM      6  OXT PHE A   1      -7.375   9.869  70.979  1.00  0.00    -0.312 OA 
ATOM      7  O   PHE A   1      -8.268   8.763  72.753  1.00  0.00    -0.407 OA 
ENDROOT
BRANCH   2   8
ATOM      8  CB  PHE A   1      -6.952   7.283  69.698  1.00  0.00    -0.054 C  
BRANCH   8   9
ATOM      9  CG  PHE A   1      -8.162   6.557  69.159  1.00  0.00    -0.116 A  
ATOM     10  CD1 PHE A   1      -8.066   5.219  68.749  1.00  0.00    -0.090 A  
ATOM     11  CE1 PHE A   1      -9.176   4.562  68.217  1.00  0.00    -0.174 A  
ATOM     12  CZ  PHE A   1     -10.392   5.230  68.096  1.00  0.00    -0.181 A  
ATOM     13  CE2 PHE A   1     -10.501   6.555  68.508  1.00  0.00    -0.257 A  
ATOM     14  CD2 PHE A   1      -9.391   7.219  69.036  1.00  0.00    -0.148 A  
ENDBRANCH   8   9
ENDBRANCH   2   8
TORSDOF 2
ENDMDL
MODEL      204
REMARK 921   NORMALIZED FREE ENERGY PREDICTED BY IDOCK:   -1.59 KCAL/MOL
REMARK 922        TOTAL FREE ENERGY PREDICTED BY IDOCK:   -1.97 KCAL/MOL
REMARK 923 INTER-LIGAND FREE ENERGY PREDICTED BY IDOCK:   -2.00 KCAL/MOL
REMARK 924 INTRA-LIGAND FREE ENERGY PREDICTED BY IDOCK:    0.03 KCAL/MOL
REMARK 927      BINDING AFFINITY PREDICTED BY RF-SCORE:    0.00 PKD
ROOT
ATOM      1  N   PHE A   1      -9.614   8.286  67.067  1.00  0.00    -0.175 NA 
ATOM      2  CA  PHE A   1     -10.668   7.294  67.461  1.00  0.00    -0.256 C  
ATOM      3  H1  PHE A   1      -9.771   9.222  67.441  1.00  0.00     0.000 HD 
ATOM      4  H2  PHE A   1      -9.509   8.317  66.052  1.00  0.00     0.000 HD 
ATOM      5  C   PHE A   1     -10.721   7.255  68.997  1.00  0.00    -0.166 C  
ATOM      6  OXT PHE A   1     -11.194   6.356  69.673  1.00  0.00    -0.358 OA 
ATOM      7  O   PHE A   1     -10.192   8.391  69.527  1.00  0.00    -0.197 OA 
ENDROOT
BRANCH   2   8
ATOM      8  CB  PHE A   1     -10.431   5.883  66.898  1.00  0.00    -0.349 C  
BRANCH   8   9
ATOM      9  CG  PHE A   1      -8.967   5.533  66.782  1.00  0.00    -0.114 A  
ATOM     10  CD1 PHE A   1      -8.195   5.306  67.932  1.00  0.00    -0.099 A  
ATOM     11  CE1 PHE A   1      -6.834   5.019  67.823  1.00  0.00    -0.060 A  
ATOM     12  CZ  PHE A   1      -6.232   4.947  66.570  1.00  0.00    -0.032 A  
ATOM     13  CE2 PHE A   1      -6.990   5.162  65.422  1.00  0.00    -0.062 A  
ATOM     14  CD2 PHE A   1      -8.351   5.456  65.526  1.00  0.00    -0.133 A  
ENDBRANCH   8   9
ENDBRANCH   2   8
TORSDOF 2
ENDMDL
MODEL      205
REMARK 921   NORMALIZED FREE ENERGY PREDICTED BY IDOCK:   -1.57 KCAL/MOL
REMARK 922        TOTAL FREE ENERGY PREDICTED BY IDOCK:   -1.96 KCAL/MOL
REMARK 923 INTER-LIGAND FREE ENERGY PREDICTED BY IDOCK:   -1.77 KCAL/MOL
REMARK 924 INTRA-LIGAND FREE ENERGY PREDICTED BY IDOCK:   -0.18 KCAL/MOL
REMARK 927      BINDING AFFINITY PREDICTED BY RF-SCORE:    0.00 PKD
ROOT
ATOM      1  N   PHE A   1      -8.984   7.960  68.804  1.00  0.00    -0.141 NA 
ATOM      2  CA  PHE A   1      -8.877   7.518  67.374  1.00  0.00    -0.127 C  
ATOM      3  H1  PHE A   1      -8.221   8.569  69.103  1.00  0.00     0.000 HD 
ATOM      4  H2  PHE A   1      -9.066   7.155  69.425  1.00  0.00     0.000 HD 
ATOM      5  C   PHE A   1      -8.824   8.780  66.498  1.00  0.00    -0.131 C  
ATOM      6  OXT PHE A   1      -9.072   8.832  65.304  1.00  0.00    -0.186 OA 
ATOM      7  O   PHE A   1      -8.423   9.857  67.227  1.00  0.00    -0.121 OA 
ENDROOT
BRANCH   2   8
ATOM      8  CB  PHE A   1     -10.026   6.602  66.923  1.00  0.00    -0.238 C  
BRANCH   8   9
ATOM      9  CG  PHE A   1      -9.550   5.252  66.442  1.00  0.00    -0.171 A  
ATOM     10  CD1 PHE A   1      -8.414   4.653  67.006  1.00  0.00    -0.105 A  
ATOM     11  CE1 PHE A   1      -7.955   3.423  66.534  1.00  0.00    -0.084 A  
ATOM     12  CZ  PHE A   1      -8.628   2.776  65.501  1.00  0.00    -0.110 A  
ATOM     13  CE2 PHE A   1      -9.762   3.356  64.940  1.00  0.00    -0.135 A  
ATOM     14  CD2 PHE A   1     -10.222   4.590  65.405  1.00  0.00    -0.224 A  
ENDBRANCH   8   9
ENDBRANCH   2   8
TORSDOF 2
ENDMDL
MODEL      206
REMARK 921   NORMALIZED FREE ENERGY PREDICTED BY IDOCK:   -1.55 KCAL/MOL
REMARK 922        TOTAL FREE ENERGY PREDICTED BY IDOCK:   -1.94 KCAL/MOL
REMARK 923 INTER-LIGAND FREE ENERGY PREDICTED BY IDOCK:   -2.06 KCAL/MOL
REMARK 924 INTRA-LIGAND FREE ENERGY PREDICTED BY IDOCK:    0.12 KCAL/MOL
REMARK 927      BINDING AFFINITY PREDICTED BY RF-SCORE:    0.00 PKD
ROOT
ATOM      1  N   PHE A   1      -6.464  14.640  69.065  1.00  0.00    -0.092 NA 
ATOM      2  CA  PHE A   1      -7.788  14.622  68.359  1.00  0.00    -0.131 C  
ATOM      3  H1  PHE A   1      -6.340  13.871  69.724  1.00  0.00     0.000 HD 
ATOM      4  H2  PHE A   1      -6.315  15.537  69.527  1.00  0.00     0.000 HD 
ATOM      5  C   PHE A   1      -7.912  13.272  67.634  1.00  0.00    -0.176 C  
ATOM      6  OXT PHE A   1      -8.666  13.025  66.707  1.00  0.00    -0.188 OA 
ATOM      7  O   PHE A   1      -7.080  12.349  68.189  1.00  0.00    -0.080 OA 
ENDROOT
BRANCH   2   8
ATOM      8  CB  PHE A   1      -7.975  15.781  67.366  1.00  0.00    -0.194 C  
BRANCH   8   9
ATOM      9  CG  PHE A   1      -7.190  17.014  67.744  1.00  0.00    -0.165 A  
ATOM     10  CD1 PHE A   1      -6.237  17.550  66.864  1.00  0.00    -0.206 A  
ATOM     11  CE1 PHE A   1      -5.486  18.667  67.231  1.00  0.00    -0.137 A  
ATOM     12  CZ  PHE A   1      -5.683  19.265  68.474  1.00  0.00    -0.226 A  
ATOM     13  CE2 PHE A   1      -6.632  18.747  69.352  1.00  0.00    -0.271 A  
ATOM     14  CD2 PHE A   1      -7.382  17.625  68.991  1.00  0.00    -0.194 A  
ENDBRANCH   8   9
ENDBRANCH   2   8
TORSDOF 2
ENDMDL
MODEL      207
REMARK 921   NORMALIZED FREE ENERGY PREDICTED BY IDOCK:   -1.53 KCAL/MOL
REMARK 922        TOTAL FREE ENERGY PREDICTED BY IDOCK:   -1.91 KCAL/MOL
REMARK 923 INTER-LIGAND FREE ENERGY PREDICTED BY IDOCK:   -1.75 KCAL/MOL
REMARK 924 INTRA-LIGAND FREE ENERGY PREDICTED BY IDOCK:   -0.16 KCAL/MOL
REMARK 927      BINDING AFFINITY PREDICTED BY RF-SCORE:    0.00 PKD
ROOT
ATOM      1  N   PHE A   1      -9.464   4.815  71.479  1.00  0.00    -0.146 NA 
ATOM      2  CA  PHE A   1      -9.635   6.240  71.042  1.00  0.00    -0.175 C  
ATOM      3  H1  PHE A   1      -9.332   4.708  72.485  1.00  0.00     0.000 HD 
ATOM      4  H2  PHE A   1      -8.702   4.370  70.966  1.00  0.00     0.000 HD 
ATOM      5  C   PHE A   1     -10.837   6.821  71.804  1.00  0.00    -0.229 C  
ATOM      6  OXT PHE A   1     -11.478   7.808  71.483  1.00  0.00    -0.254 OA 
ATOM      7  O   PHE A   1     -11.086   6.101  72.931  1.00  0.00    -0.254 OA 
ENDROOT
BRANCH   2   8
ATOM      8  CB  PHE A   1      -9.834   6.402  69.526  1.00  0.00    -0.176 C  
BRANCH   8   9
ATOM      9  CG  PHE A   1      -8.561   6.768  68.800  1.00  0.00    -0.123 A  
ATOM     10  CD1 PHE A   1      -7.728   7.786  69.288  1.00  0.00    -0.100 A  
ATOM     11  CE1 PHE A   1      -6.573   8.147  68.595  1.00  0.00    -0.058 A  
ATOM     12  CZ  PHE A   1      -6.232   7.492  67.414  1.00  0.00    -0.049 A  
ATOM     13  CE2 PHE A   1      -7.046   6.474  66.924  1.00  0.00    -0.073 A  
ATOM     14  CD2 PHE A   1      -8.208   6.114  67.612  1.00  0.00    -0.113 A  
ENDBRANCH   8   9
ENDBRANCH   2   8
TORSDOF 2
ENDMDL
MODEL      208
REMARK 921   NORMALIZED FREE ENERGY PREDICTED BY IDOCK:   -1.53 KCAL/MOL
REMARK 922        TOTAL FREE ENERGY PREDICTED BY IDOCK:   -1.90 KCAL/MOL
REMARK 923 INTER-LIGAND FREE ENERGY PREDICTED BY IDOCK:   -1.98 KCAL/MOL
REMARK 924 INTRA-LIGAND FREE ENERGY PREDICTED BY IDOCK:    0.08 KCAL/MOL
REMARK 927      BINDING AFFINITY PREDICTED BY RF-SCORE:    0.00 PKD
ROOT
ATOM      1  N   PHE A   1      -8.317   6.928  64.341  1.00  0.00    -0.335 NA 
ATOM      2  CA  PHE A   1      -7.610   5.656  64.705  1.00  0.00    -0.084 C  
ATOM      3  H1  PHE A   1      -8.299   7.135  63.342  1.00  0.00     0.000 HD 
ATOM      4  H2  PHE A   1      -7.947   7.713  64.877  1.00  0.00     0.000 HD 
ATOM      5  C   PHE A   1      -8.264   4.514  63.911  1.00  0.00    -0.103 C  
ATOM      6  OXT PHE A   1      -8.197   3.326  64.180  1.00  0.00    -0.088 OA 
ATOM      7  O   PHE A   1      -8.917   4.998  62.820  1.00  0.00    -0.116 OA 
ENDROOT
BRANCH   2   8
ATOM      8  CB  PHE A   1      -7.636   5.344  66.210  1.00  0.00    -0.087 C  
BRANCH   8   9
ATOM      9  CG  PHE A   1      -8.695   6.120  66.955  1.00  0.00    -0.107 A  
ATOM     10  CD1 PHE A   1     -10.056   5.838  66.761  1.00  0.00    -0.235 A  
ATOM     11  CE1 PHE A   1     -11.034   6.581  67.422  1.00  0.00    -0.458 A  
ATOM     12  CZ  PHE A   1     -10.665   7.607  68.289  1.00  0.00    -0.107 A  
ATOM     13  CE2 PHE A   1      -9.318   7.891  68.497  1.00  0.00    -0.141 A  
ATOM     14  CD2 PHE A   1      -8.336   7.153  67.832  1.00  0.00    -0.118 A  
ENDBRANCH   8   9
ENDBRANCH   2   8
TORSDOF 2
ENDMDL
MODEL      209
REMARK 921   NORMALIZED FREE ENERGY PREDICTED BY IDOCK:   -1.51 KCAL/MOL
REMARK 922        TOTAL FREE ENERGY PREDICTED BY IDOCK:   -1.88 KCAL/MOL
REMARK 923 INTER-LIGAND FREE ENERGY PREDICTED BY IDOCK:   -1.76 KCAL/MOL
REMARK 924 INTRA-LIGAND FREE ENERGY PREDICTED BY IDOCK:   -0.12 KCAL/MOL
REMARK 927      BINDING AFFINITY PREDICTED BY RF-SCORE:    0.00 PKD
ROOT
ATOM      1  N   PHE A   1      -8.246   5.259  72.132  1.00  0.00    -0.113 NA 
ATOM      2  CA  PHE A   1      -8.424   6.713  71.807  1.00  0.00    -0.119 C  
ATOM      3  H1  PHE A   1      -7.583   5.086  72.889  1.00  0.00     0.000 HD 
ATOM      4  H2  PHE A   1      -7.985   4.732  71.298  1.00  0.00     0.000 HD 
ATOM      5  C   PHE A   1      -8.879   7.426  73.090  1.00  0.00    -0.149 C  
ATOM      6  OXT PHE A   1      -9.436   8.510  73.146  1.00  0.00    -0.176 OA 
ATOM      7  O   PHE A   1      -8.546   6.698  74.190  1.00  0.00    -0.128 OA 
ENDROOT
BRANCH   2   8
ATOM      8  CB  PHE A   1      -9.422   6.973  70.667  1.00  0.00    -0.165 C  
BRANCH   8   9
ATOM      9  CG  PHE A   1      -9.096   6.204  69.409  1.00  0.00    -0.135 A  
ATOM     10  CD1 PHE A   1      -9.858   5.085  69.039  1.00  0.00    -0.252 A  
ATOM     11  CE1 PHE A   1      -9.531   4.354  67.897  1.00  0.00    -0.209 A  
ATOM     12  CZ  PHE A   1      -8.448   4.736  67.109  1.00  0.00    -0.105 A  
ATOM     13  CE2 PHE A   1      -7.690   5.849  67.461  1.00  0.00    -0.097 A  
ATOM     14  CD2 PHE A   1      -8.010   6.580  68.608  1.00  0.00    -0.114 A  
ENDBRANCH   8   9
ENDBRANCH   2   8
TORSDOF 2
ENDMDL
MODEL      210
REMARK 921   NORMALIZED FREE ENERGY PREDICTED BY IDOCK:   -1.46 KCAL/MOL
REMARK 922        TOTAL FREE ENERGY PREDICTED BY IDOCK:   -1.83 KCAL/MOL
REMARK 923 INTER-LIGAND FREE ENERGY PREDICTED BY IDOCK:   -2.27 KCAL/MOL
REMARK 924 INTRA-LIGAND FREE ENERGY PREDICTED BY IDOCK:    0.43 KCAL/MOL
REMARK 927      BINDING AFFINITY PREDICTED BY RF-SCORE:    0.00 PKD
ROOT
ATOM      1  N   PHE A   1      -7.324   5.327  72.825  1.00  0.00    -0.093 NA 
ATOM      2  CA  PHE A   1      -6.928   6.685  72.323  1.00  0.00    -0.068 C  
ATOM      3  H1  PHE A   1      -7.092   5.170  73.806  1.00  0.00     0.000 HD 
ATOM      4  H2  PHE A   1      -6.923   4.595  72.238  1.00  0.00     0.000 HD 
ATOM      5  C   PHE A   1      -7.620   7.731  73.212  1.00  0.00    -0.118 C  
ATOM      6  OXT PHE A   1      -7.813   8.900  72.922  1.00  0.00    -0.370 OA 
ATOM      7  O   PHE A   1      -7.973   7.189  74.409  1.00  0.00    -0.124 OA 
ENDROOT
BRANCH   2   8
ATOM      8  CB  PHE A   1      -7.277   6.923  70.845  1.00  0.00    -0.072 C  
BRANCH   8   9
ATOM      9  CG  PHE A   1      -8.755   6.804  70.562  1.00  0.00    -0.147 A  
ATOM     10  CD1 PHE A   1      -9.453   7.859  69.954  1.00  0.00    -0.160 A  
ATOM     11  CE1 PHE A   1     -10.825   7.761  69.727  1.00  0.00    -0.211 A  
ATOM     12  CZ  PHE A   1     -11.514   6.608  70.095  1.00  0.00    -0.444 A  
ATOM     13  CE2 PHE A   1     -10.832   5.551  70.690  1.00  0.00    -0.257 A  
ATOM     14  CD2 PHE A   1      -9.458   5.647  70.925  1.00  0.00    -0.202 A  
ENDBRANCH   8   9
ENDBRANCH   2   8
TORSDOF 2
ENDMDL
MODEL      211
REMARK 921   NORMALIZED FREE ENERGY PREDICTED BY IDOCK:   -1.43 KCAL/MOL
REMARK 922        TOTAL FREE ENERGY PREDICTED BY IDOCK:   -1.80 KCAL/MOL
REMARK 923 INTER-LIGAND FREE ENERGY PREDICTED BY IDOCK:   -1.61 KCAL/MOL
REMARK 924 INTRA-LIGAND FREE ENERGY PREDICTED BY IDOCK:   -0.19 KCAL/MOL
REMARK 927      BINDING AFFINITY PREDICTED BY RF-SCORE:    0.00 PKD
ROOT
ATOM      1  N   PHE A   1      -6.505   8.085  65.688  1.00  0.00    -0.042 NA 
ATOM      2  CA  PHE A   1      -7.509   7.596  66.691  1.00  0.00    -0.093 C  
ATOM      3  H1  PHE A   1      -5.699   7.469  65.582  1.00  0.00     0.000 HD 
ATOM      4  H2  PHE A   1      -6.205   9.034  65.913  1.00  0.00     0.000 HD 
ATOM      5  C   PHE A   1      -7.962   6.193  66.251  1.00  0.00    -0.106 C  
ATOM      6  OXT PHE A   1      -8.983   5.629  66.605  1.00  0.00    -0.116 OA 
ATOM      7  O   PHE A   1      -7.042   5.628  65.423  1.00  0.00    -0.063 OA 
ENDROOT
BRANCH   2   8
ATOM      8  CB  PHE A   1      -8.724   8.524  66.852  1.00  0.00    -0.137 C  
BRANCH   8   9
ATOM      9  CG  PHE A   1      -9.218   8.607  68.276  1.00  0.00    -0.140 A  
ATOM     10  CD1 PHE A   1     -10.579   8.436  68.570  1.00  0.00    -0.149 A  
ATOM     11  CE1 PHE A   1     -11.039   8.550  69.882  1.00  0.00    -0.114 A  
ATOM     12  CZ  PHE A   1     -10.145   8.828  70.914  1.00  0.00    -0.276 A  
ATOM     13  CE2 PHE A   1      -8.791   8.991  70.636  1.00  0.00    -0.259 A  
ATOM     14  CD2 PHE A   1      -8.328   8.884  69.322  1.00  0.00    -0.119 A  
ENDBRANCH   8   9
ENDBRANCH   2   8
TORSDOF 2
ENDMDL
MODEL      212
REMARK 921   NORMALIZED FREE ENERGY PREDICTED BY IDOCK:   -1.24 KCAL/MOL
REMARK 922        TOTAL FREE ENERGY PREDICTED BY IDOCK:   -1.59 KCAL/MOL
REMARK 923 INTER-LIGAND FREE ENERGY PREDICTED BY IDOCK:   -1.41 KCAL/MOL
REMARK 924 INTRA-LIGAND FREE ENERGY PREDICTED BY IDOCK:   -0.18 KCAL/MOL
REMARK 927      BINDING AFFINITY PREDICTED BY RF-SCORE:    0.00 PKD
ROOT
ATOM      1  N   PHE A   1      -7.214  10.178  65.228  1.00  0.00    -0.137 NA 
ATOM      2  CA  PHE A   1      -8.072  10.515  66.413  1.00  0.00    -0.135 C  
ATOM      3  H1  PHE A   1      -7.720   9.708  64.477  1.00  0.00     0.000 HD 
ATOM      4  H2  PHE A   1      -6.403   9.630  65.514  1.00  0.00     0.000 HD 
ATOM      5  C   PHE A   1      -9.231  11.394  65.916  1.00  0.00    -0.216 C  
ATOM      6  OXT PHE A   1      -9.921  12.124  66.607  1.00  0.00    -0.201 OA 
ATOM      7  O   PHE A   1      -9.422  11.228  64.579  1.00  0.00    -0.228 OA 
ENDROOT
BRANCH   2   8
ATOM      8  CB  PHE A   1      -7.310  11.224  67.544  1.00  0.00    -0.105 C  
BRANCH   8   9
ATOM      9  CG  PHE A   1      -7.095  10.344  68.752  1.00  0.00    -0.074 A  
ATOM     10  CD1 PHE A   1      -6.523  10.867  69.922  1.00  0.00    -0.144 A  
ATOM     11  CE1 PHE A   1      -6.291  10.043  71.024  1.00  0.00     0.027 A  
ATOM     12  CZ  PHE A   1      -6.633   8.694  70.973  1.00  0.00    -0.053 A  
ATOM     13  CE2 PHE A   1      -7.210   8.167  69.821  1.00  0.00    -0.064 A  
ATOM     14  CD2 PHE A   1      -7.438   8.986  68.713  1.00  0.00    -0.076 A  
ENDBRANCH   8   9
ENDBRANCH   2   8
TORSDOF 2
ENDMDL
MODEL      213
REMARK 921   NORMALIZED FREE ENERGY PREDICTED BY IDOCK:   -1.11 KCAL/MOL
REMARK 922        TOTAL FREE ENERGY PREDICTED BY IDOCK:   -1.45 KCAL/MOL
REMARK 923 INTER-LIGAND FREE ENERGY PREDICTED BY IDOCK:   -1.89 KCAL/MOL
REMARK 924 INTRA-LIGAND FREE ENERGY PREDICTED BY IDOCK:    0.44 KCAL/MOL
REMARK 927      BINDING AFFINITY PREDICTED BY RF-SCORE:    0.00 PKD
ROOT
ATOM      1  N   PHE A   1      -6.617   8.093  65.699  1.00  0.00    -0.049 NA 
ATOM      2  CA  PHE A   1      -7.359   7.384  66.794  1.00  0.00    -0.092 C  
ATOM      3  H1  PHE A   1      -5.668   7.746  65.556  1.00  0.00     0.000 HD 
ATOM      4  H2  PHE A   1      -6.611   9.100  65.861  1.00  0.00     0.000 HD 
ATOM      5  C   PHE A   1      -7.383   5.887  66.449  1.00  0.00    -0.078 C  
ATOM      6  OXT PHE A   1      -8.158   5.061  66.903  1.00  0.00    -0.107 OA 
ATOM      7  O   PHE A   1      -6.386   5.577  65.577  1.00  0.00    -0.036 OA 
ENDROOT
BRANCH   2   8
ATOM      8  CB  PHE A   1      -8.789   7.907  67.010  1.00  0.00    -0.140 C  
BRANCH   8   9
ATOM      9  CG  PHE A   1      -9.105   9.123  66.172  1.00  0.00    -0.234 A  
ATOM     10  CD1 PHE A   1      -9.414  10.348  66.782  1.00  0.00    -0.198 A  
ATOM     11  CE1 PHE A   1      -9.743  11.460  66.007  1.00  0.00    -0.253 A  
ATOM     12  CZ  PHE A   1      -9.758  11.364  64.618  1.00  0.00    -0.275 A  
ATOM     13  CE2 PHE A   1      -9.445  10.156  64.001  1.00  0.00    -0.341 A  
ATOM     14  CD2 PHE A   1      -9.121   9.038  64.774  1.00  0.00    -0.088 A  
ENDBRANCH   8   9
ENDBRANCH   2   8
TORSDOF 2
ENDMDL
MODEL      214
REMARK 921   NORMALIZED FREE ENERGY PREDICTED BY IDOCK:   -0.52 KCAL/MOL
REMARK 922        TOTAL FREE ENERGY PREDICTED BY IDOCK:   -0.78 KCAL/MOL
REMARK 923 INTER-LIGAND FREE ENERGY PREDICTED BY IDOCK:   -1.81 KCAL/MOL
REMARK 924 INTRA-LIGAND FREE ENERGY PREDICTED BY IDOCK:    1.03 KCAL/MOL
REMARK 927      BINDING AFFINITY PREDICTED BY RF-SCORE:    0.00 PKD
ROOT
ATOM      1  N   PHE A   1      -9.822   7.278  69.025  1.00  0.00    -0.162 NA 
ATOM      2  CA  PHE A   1      -9.121   6.981  67.731  1.00  0.00    -0.126 C  
ATOM      3  H1  PHE A   1      -9.635   6.593  69.758  1.00  0.00     0.000 HD 
ATOM      4  H2  PHE A   1     -10.826   7.381  68.876  1.00  0.00     0.000 HD 
ATOM      5  C   PHE A   1      -7.614   6.907  68.023  1.00  0.00    -0.108 C  
ATOM      6  OXT PHE A   1      -6.720   7.020  67.201  1.00  0.00    -0.055 OA 
ATOM      7  O   PHE A   1      -7.390   6.659  69.342  1.00  0.00    -0.087 OA 
ENDROOT
BRANCH   2   8
ATOM      8  CB  PHE A   1      -9.402   8.013  66.627  1.00  0.00    -0.249 C  
BRANCH   8   9
ATOM      9  CG  PHE A   1      -9.201   9.437  67.085  1.00  0.00    -0.159 A  
ATOM     10  CD1 PHE A   1      -8.705   9.711  68.368  1.00  0.00    -0.120 A  
ATOM     11  CE1 PHE A   1      -8.555  11.028  68.802  1.00  0.00    -0.144 A  
ATOM     12  CZ  PHE A   1      -8.891  12.084  67.959  1.00  0.00    -0.179 A  
ATOM     13  CE2 PHE A   1      -9.376  11.826  66.680  1.00  0.00    -0.205 A  
ATOM     14  CD2 PHE A   1      -9.533  10.508  66.243  1.00  0.00    -0.217 A  
ENDBRANCH   8   9
ENDBRANCH   2   8
TORSDOF 2
ENDMDL
MODEL      215
REMARK 921   NORMALIZED FREE ENERGY PREDICTED BY IDOCK:    0.62 KCAL/MOL
REMARK 922        TOTAL FREE ENERGY PREDICTED BY IDOCK:    0.49 KCAL/MOL
REMARK 923 INTER-LIGAND FREE ENERGY PREDICTED BY IDOCK:   -1.40 KCAL/MOL
REMARK 924 INTRA-LIGAND FREE ENERGY PREDICTED BY IDOCK:    1.89 KCAL/MOL
REMARK 927      BINDING AFFINITY PREDICTED BY RF-SCORE:    0.00 PKD
ROOT
ATOM      1  N   PHE A   1     -11.276   5.864  71.689  1.00  0.00    -0.263 NA 
ATOM      2  CA  PHE A   1      -9.828   6.252  71.761  1.00  0.00    -0.163 C  
ATOM      3  H1  PHE A   1     -11.897   6.505  72.182  1.00  0.00     0.000 HD 
ATOM      4  H2  PHE A   1     -11.409   4.908  72.020  1.00  0.00     0.000 HD 
ATOM      5  C   PHE A   1      -9.697   7.672  71.187  1.00  0.00    -0.162 C  
ATOM      6  OXT PHE A   1      -8.669   8.184  70.774  1.00  0.00    -0.131 OA 
ATOM      7  O   PHE A   1     -10.892   8.320  71.226  1.00  0.00    -0.226 OA 
ENDROOT
BRANCH   2   8
ATOM      8  CB  PHE A   1      -8.891   5.286  71.018  1.00  0.00    -0.148 C  
BRANCH   8   9
ATOM      9  CG  PHE A   1      -7.573   5.916  70.640  1.00  0.00    -0.092 A  
ATOM     10  CD1 PHE A   1      -6.669   6.330  71.630  1.00  0.00    -0.063 A  
ATOM     11  CE1 PHE A   1      -5.468   6.946  71.278  1.00  0.00    -0.028 A  
ATOM     12  CZ  PHE A   1      -5.153   7.149  69.937  1.00  0.00    -0.015 A  
ATOM     13  CE2 PHE A   1      -6.037   6.735  68.945  1.00  0.00    -0.026 A  
ATOM     14  CD2 PHE A   1      -7.244   6.123  69.293  1.00  0.00    -0.082 A  
ENDBRANCH   8   9
ENDBRANCH   2   8
TORSDOF 2
ENDMDL
MODEL      216
REMARK 921   NORMALIZED FREE ENERGY PREDICTED BY IDOCK:    1.01 KCAL/MOL
REMARK 922        TOTAL FREE ENERGY PREDICTED BY IDOCK:    0.93 KCAL/MOL
REMARK 923 INTER-LIGAND FREE ENERGY PREDICTED BY IDOCK:   -1.91 KCAL/MOL
REMARK 924 INTRA-LIGAND FREE ENERGY PREDICTED BY IDOCK:    2.83 KCAL/MOL
REMARK 927      BINDING AFFINITY PREDICTED BY RF-SCORE:    0.00 PKD
ROOT
ATOM      1  N   PHE A   1     -11.804   6.346  71.121  1.00  0.00    -0.316 NA 
ATOM      2  CA  PHE A   1     -10.536   5.770  70.564  1.00  0.00    -0.263 C  
ATOM      3  H1  PHE A   1     -11.800   6.438  72.137  1.00  0.00     0.000 HD 
ATOM      4  H2  PHE A   1     -12.612   5.806  70.811  1.00  0.00     0.000 HD 
ATOM      5  C   PHE A   1      -9.375   6.671  71.015  1.00  0.00    -0.160 C  
ATOM      6  OXT PHE A   1      -8.271   6.726  70.501  1.00  0.00    -0.114 OA 
ATOM      7  O   PHE A   1      -9.727   7.398  72.111  1.00  0.00    -0.149 OA 
ENDROOT
BRANCH   2   8
ATOM      8  CB  PHE A   1     -10.541   5.632  69.033  1.00  0.00    -0.316 C  
BRANCH   8   9
ATOM      9  CG  PHE A   1      -9.231   6.036  68.399  1.00  0.00    -0.114 A  
ATOM     10  CD1 PHE A   1      -8.184   5.110  68.274  1.00  0.00    -0.093 A  
ATOM     11  CE1 PHE A   1      -6.962   5.496  67.723  1.00  0.00    -0.066 A  
ATOM     12  CZ  PHE A   1      -6.775   6.804  67.284  1.00  0.00    -0.067 A  
ATOM     13  CE2 PHE A   1      -7.809   7.729  67.394  1.00  0.00    -0.118 A  
ATOM     14  CD2 PHE A   1      -9.033   7.349  67.951  1.00  0.00    -0.131 A  
ENDBRANCH   8   9
ENDBRANCH   2   8
TORSDOF 2
ENDMDL
MODEL      217
REMARK 921   NORMALIZED FREE ENERGY PREDICTED BY IDOCK:    5.81 KCAL/MOL
REMARK 922        TOTAL FREE ENERGY PREDICTED BY IDOCK:    6.29 KCAL/MOL
REMARK 923 INTER-LIGAND FREE ENERGY PREDICTED BY IDOCK:    5.82 KCAL/MOL
REMARK 924 INTRA-LIGAND FREE ENERGY PREDICTED BY IDOCK:    0.47 KCAL/MOL
REMARK 927      BINDING AFFINITY PREDICTED BY RF-SCORE:    0.00 PKD
ROOT
ATOM      1  N   PHE A   1      -6.728  15.935  70.295  1.00  0.00     0.172 NA 
ATOM      2  CA  PHE A   1      -5.606  16.625  71.013  1.00  0.00     0.194 C  
ATOM      3  H1  PHE A   1      -6.811  14.944  70.521  1.00  0.00     0.000 HD 
ATOM      4  H2  PHE A   1      -6.647  16.069  69.287  1.00  0.00     0.000 HD 
ATOM      5  C   PHE A   1      -5.832  16.437  72.522  1.00  0.00     2.067 C  
ATOM      6  OXT PHE A   1      -5.340  17.116  73.408  1.00  0.00     2.543 OA 
ATOM      7  O   PHE A   1      -6.643  15.370  72.759  1.00  0.00     2.331 OA 
ENDROOT
BRANCH   2   8
ATOM      8  CB  PHE A   1      -5.480  18.119  70.673  1.00  0.00    -0.218 C  
BRANCH   8   9
ATOM      9  CG  PHE A   1      -6.325  18.528  69.490  1.00  0.00    -0.257 A  
ATOM     10  CD1 PHE A   1      -7.245  19.581  69.601  1.00  0.00    -0.136 A  
ATOM     11  CE1 PHE A   1      -8.051  19.932  68.517  1.00  0.00    -0.203 A  
ATOM     12  CZ  PHE A   1      -7.941  19.243  67.312  1.00  0.00    -0.285 A  
ATOM     13  CE2 PHE A   1      -7.025  18.202  67.187  1.00  0.00    -0.211 A  
ATOM     14  CD2 PHE A   1      -6.221  17.843  68.272  1.00  0.00    -0.178 A  
ENDBRANCH   8   9
ENDBRANCH   2   8
TORSDOF 2
ENDMDL
