MODEL        1
REMARK 921   NORMALIZED FREE ENERGY PREDICTED BY IDOCK:   -6.73 KCAL/MOL
REMARK 922        TOTAL FREE ENERGY PREDICTED BY IDOCK:   -7.56 KCAL/MOL
REMARK 923 INTER-LIGAND FREE ENERGY PREDICTED BY IDOCK:   -7.51 KCAL/MOL
REMARK 924 INTRA-LIGAND FREE ENERGY PREDICTED BY IDOCK:   -0.05 KCAL/MOL
REMARK 927      BINDING AFFINITY PREDICTED BY RF-SCORE:    0.00 PKD
ROOT
HETATM    1  C   UNL     1     -11.653  14.988  68.157  1.00  0.00    -0.360 C  
HETATM    2  C   UNL     1     -12.007  13.623  67.572  1.00  0.00    -0.393 C  
ENDROOT
BRANCH   2   3
HETATM    3  C   UNL     1     -11.349  13.204  66.211  1.00  0.00    -0.348 C  
HETATM    4  C   UNL     1     -12.402  13.356  65.103  1.00  0.00    -0.456 C  
HETATM    5  O   UNL     1      -9.058  14.036  66.483  1.00  0.00    -0.232 OA 
HETATM    6  C   UNL     1     -10.176  14.175  65.990  1.00  0.00    -0.308 C  
HETATM    7  N   UNL     1     -12.497  14.584  64.505  1.00  0.00    -0.647 N  
HETATM    8  O   UNL     1     -13.194  12.474  64.774  1.00  0.00    -0.839 OA 
HETATM    9  H   UNL     1      -9.731  16.043  65.292  1.00  0.00     0.000 HD 
HETATM   10  C   UNL     1     -11.528  15.538  64.485  1.00  0.00    -0.308 C  
HETATM   11  H   UNL     1     -13.372  14.803  64.031  1.00  0.00     0.000 HD 
HETATM   12  O   UNL     1     -11.613  16.530  63.772  1.00  0.00    -1.109 OA 
HETATM   13  N   UNL     1     -10.433  15.303  65.256  1.00  0.00    -0.390 N  
BRANCH   3  14
HETATM   14  C   UNL     1     -10.868  11.722  66.274  1.00  0.00    -0.325 A  
HETATM   15  C   UNL     1      -9.775   9.788  65.247  1.00  0.00    -0.371 A  
HETATM   16  C   UNL     1     -10.607   9.608  67.493  1.00  0.00    -0.339 A  
HETATM   17  C   UNL     1     -11.070  10.926  67.422  1.00  0.00    -0.373 A  
HETATM   18  C   UNL     1     -10.241  11.108  65.176  1.00  0.00    -0.347 A  
HETATM   19  C   UNL     1      -9.945   9.044  66.412  1.00  0.00    -0.370 A  
ENDBRANCH   3  14
ENDBRANCH   2   3
TORSDOF 2
ENDMDL
MODEL        2
REMARK 921   NORMALIZED FREE ENERGY PREDICTED BY IDOCK:   -6.49 KCAL/MOL
REMARK 922        TOTAL FREE ENERGY PREDICTED BY IDOCK:   -7.29 KCAL/MOL
REMARK 923 INTER-LIGAND FREE ENERGY PREDICTED BY IDOCK:   -7.25 KCAL/MOL
REMARK 924 INTRA-LIGAND FREE ENERGY PREDICTED BY IDOCK:   -0.04 KCAL/MOL
REMARK 927      BINDING AFFINITY PREDICTED BY RF-SCORE:    0.00 PKD
ROOT
HETATM    1  C   UNL     1     -10.988  11.596  63.463  1.00  0.00    -0.485 C  
HETATM    2  C   UNL     1     -10.165  12.222  64.586  1.00  0.00    -0.311 C  
ENDROOT
BRANCH   2   3
HETATM    3  C   UNL     1     -10.914  13.066  65.675  1.00  0.00    -0.296 C  
HETATM    4  C   UNL     1     -10.051  14.293  66.007  1.00  0.00    -0.318 C  
HETATM    5  O   UNL     1     -13.257  12.785  65.006  1.00  0.00    -0.768 OA 
HETATM    6  C   UNL     1     -12.250  13.490  65.039  1.00  0.00    -0.419 C  
HETATM    7  N   UNL     1     -10.239  15.408  65.232  1.00  0.00    -0.366 N  
HETATM    8  O   UNL     1      -9.174  14.311  66.869  1.00  0.00    -0.233 OA 
HETATM    9  H   UNL     1     -13.083  14.889  63.805  1.00  0.00     0.000 HD 
HETATM   10  C   UNL     1     -11.346  15.690  64.495  1.00  0.00    -0.320 C  
HETATM   11  H   UNL     1      -9.479  16.087  65.207  1.00  0.00     0.000 HD 
HETATM   12  O   UNL     1     -11.518  16.789  63.983  1.00  0.00    -1.198 OA 
HETATM   13  N   UNL     1     -12.279  14.705  64.405  1.00  0.00    -0.494 N  
BRANCH   3  14
HETATM   14  C   UNL     1     -11.132  12.217  66.964  1.00  0.00    -0.339 A  
HETATM   15  C   UNL     1     -10.899  10.119  68.203  1.00  0.00    -0.310 A  
HETATM   16  C   UNL     1     -11.929  12.005  69.276  1.00  0.00    -0.329 A  
HETATM   17  C   UNL     1     -11.765  12.754  68.106  1.00  0.00    -0.392 A  
HETATM   18  C   UNL     1     -10.737  10.870  67.031  1.00  0.00    -0.323 A  
HETATM   19  C   UNL     1     -11.482  10.692  69.330  1.00  0.00    -0.356 A  
ENDBRANCH   3  14
ENDBRANCH   2   3
TORSDOF 2
ENDMDL
MODEL        3
REMARK 921   NORMALIZED FREE ENERGY PREDICTED BY IDOCK:   -5.75 KCAL/MOL
REMARK 922        TOTAL FREE ENERGY PREDICTED BY IDOCK:   -6.47 KCAL/MOL
REMARK 923 INTER-LIGAND FREE ENERGY PREDICTED BY IDOCK:   -6.80 KCAL/MOL
REMARK 924 INTRA-LIGAND FREE ENERGY PREDICTED BY IDOCK:    0.33 KCAL/MOL
REMARK 927      BINDING AFFINITY PREDICTED BY RF-SCORE:    0.00 PKD
ROOT
HETATM    1  C   UNL     1      -8.468  12.745  66.958  1.00  0.00    -0.154 C  
HETATM    2  C   UNL     1      -9.751  12.849  66.138  1.00  0.00    -0.250 C  
ENDROOT
BRANCH   2   3
HETATM    3  C   UNL     1     -10.935  13.701  66.715  1.00  0.00    -0.297 C  
HETATM    4  C   UNL     1     -10.426  15.132  66.946  1.00  0.00    -0.282 C  
HETATM    5  O   UNL     1     -12.859  12.770  65.512  1.00  0.00    -0.531 OA 
HETATM    6  C   UNL     1     -12.038  13.677  65.643  1.00  0.00    -0.425 C  
HETATM    7  N   UNL     1     -10.519  15.999  65.889  1.00  0.00    -0.346 N  
HETATM    8  O   UNL     1      -9.892  15.519  67.984  1.00  0.00    -0.211 OA 
HETATM    9  H   UNL     1     -12.626  14.577  63.905  1.00  0.00     0.000 HD 
HETATM   10  C   UNL     1     -11.354  15.871  64.824  1.00  0.00    -0.309 C  
HETATM   11  H   UNL     1      -9.906  16.813  65.903  1.00  0.00     0.000 HD 
HETATM   12  O   UNL     1     -11.515  16.778  64.018  1.00  0.00    -1.198 OA 
HETATM   13  N   UNL     1     -12.044  14.703  64.734  1.00  0.00    -0.431 N  
BRANCH   3  14
HETATM   14  C   UNL     1     -11.430  13.099  68.066  1.00  0.00    -0.346 A  
HETATM   15  C   UNL     1     -11.908  11.169  69.494  1.00  0.00    -0.423 A  
HETATM   16  C   UNL     1     -12.270  13.382  70.354  1.00  0.00    -0.415 A  
HETATM   17  C   UNL     1     -11.861  13.920  69.130  1.00  0.00    -0.401 A  
HETATM   18  C   UNL     1     -11.499  11.709  68.267  1.00  0.00    -0.369 A  
HETATM   19  C   UNL     1     -12.279  12.007  70.542  1.00  0.00    -0.414 A  
ENDBRANCH   3  14
ENDBRANCH   2   3
TORSDOF 2
ENDMDL
MODEL        4
REMARK 921   NORMALIZED FREE ENERGY PREDICTED BY IDOCK:   -5.69 KCAL/MOL
REMARK 922        TOTAL FREE ENERGY PREDICTED BY IDOCK:   -6.40 KCAL/MOL
REMARK 923 INTER-LIGAND FREE ENERGY PREDICTED BY IDOCK:   -6.33 KCAL/MOL
REMARK 924 INTRA-LIGAND FREE ENERGY PREDICTED BY IDOCK:   -0.07 KCAL/MOL
REMARK 927      BINDING AFFINITY PREDICTED BY RF-SCORE:    0.00 PKD
ROOT
HETATM    1  C   UNL     1     -11.610  12.098  67.823  1.00  0.00    -0.410 C  
HETATM    2  C   UNL     1     -12.141  13.110  66.811  1.00  0.00    -0.389 C  
ENDROOT
BRANCH   2   3
HETATM    3  C   UNL     1     -11.106  13.883  65.920  1.00  0.00    -0.291 C  
HETATM    4  C   UNL     1      -9.800  13.074  65.891  1.00  0.00    -0.237 C  
HETATM    5  O   UNL     1     -12.548  14.818  64.170  1.00  0.00    -0.784 OA 
HETATM    6  C   UNL     1     -11.731  13.965  64.516  1.00  0.00    -0.410 C  
HETATM    7  N   UNL     1      -9.689  12.115  64.920  1.00  0.00    -0.444 N  
HETATM    8  O   UNL     1      -8.893  13.192  66.714  1.00  0.00    -0.207 OA 
HETATM    9  H   UNL     1     -11.978  12.902  62.790  1.00  0.00     0.000 HD 
HETATM   10  C   UNL     1     -10.397  12.068  63.760  1.00  0.00    -0.426 C  
HETATM   11  H   UNL     1      -9.015  11.368  65.081  1.00  0.00     0.000 HD 
HETATM   12  O   UNL     1     -10.110  11.291  62.858  1.00  0.00    -0.282 OA 
HETATM   13  N   UNL     1     -11.406  12.972  63.631  1.00  0.00    -0.394 N  
BRANCH   3  14
HETATM   14  C   UNL     1     -10.830  15.298  66.513  1.00  0.00    -0.311 A  
HETATM   15  C   UNL     1     -10.909  16.884  68.376  1.00  0.00    -0.347 A  
HETATM   16  C   UNL     1      -9.958  17.581  66.283  1.00  0.00    -0.316 A  
HETATM   17  C   UNL     1     -10.240  16.322  65.742  1.00  0.00    -0.390 A  
HETATM   18  C   UNL     1     -11.191  15.623  67.833  1.00  0.00    -0.328 A  
HETATM   19  C   UNL     1     -10.278  17.857  67.605  1.00  0.00    -0.369 A  
ENDBRANCH   3  14
ENDBRANCH   2   3
TORSDOF 2
ENDMDL
MODEL        5
REMARK 921   NORMALIZED FREE ENERGY PREDICTED BY IDOCK:   -5.64 KCAL/MOL
REMARK 922        TOTAL FREE ENERGY PREDICTED BY IDOCK:   -6.35 KCAL/MOL
REMARK 923 INTER-LIGAND FREE ENERGY PREDICTED BY IDOCK:   -6.20 KCAL/MOL
REMARK 924 INTRA-LIGAND FREE ENERGY PREDICTED BY IDOCK:   -0.14 KCAL/MOL
REMARK 927      BINDING AFFINITY PREDICTED BY RF-SCORE:    0.00 PKD
ROOT
HETATM    1  C   UNL     1     -11.544  12.108  67.823  1.00  0.00    -0.410 C  
HETATM    2  C   UNL     1     -12.097  13.117  66.819  1.00  0.00    -0.389 C  
ENDROOT
BRANCH   2   3
HETATM    3  C   UNL     1     -11.082  13.890  65.907  1.00  0.00    -0.291 C  
HETATM    4  C   UNL     1      -9.773  13.086  65.857  1.00  0.00    -0.178 C  
HETATM    5  O   UNL     1     -12.560  14.811  64.179  1.00  0.00    -0.784 OA 
HETATM    6  C   UNL     1     -11.733  13.963  64.514  1.00  0.00    -0.410 C  
HETATM    7  N   UNL     1      -9.676  12.123  64.888  1.00  0.00    -0.444 N  
HETATM    8  O   UNL     1      -8.852  13.212  66.663  1.00  0.00    -0.174 OA 
HETATM    9  H   UNL     1     -12.007  12.891  62.797  1.00  0.00     0.000 HD 
HETATM   10  C   UNL     1     -10.405  12.069  63.741  1.00  0.00    -0.426 C  
HETATM   11  H   UNL     1      -8.996  11.380  65.041  1.00  0.00     0.000 HD 
HETATM   12  O   UNL     1     -10.131  11.289  62.839  1.00  0.00    -0.282 OA 
HETATM   13  N   UNL     1     -11.420  12.967  63.628  1.00  0.00    -0.457 N  
BRANCH   3  14
HETATM   14  C   UNL     1     -10.801  15.309  66.488  1.00  0.00    -0.311 A  
HETATM   15  C   UNL     1      -9.853  17.555  66.271  1.00  0.00    -0.295 A  
HETATM   16  C   UNL     1     -11.017  16.965  68.287  1.00  0.00    -0.298 A  
HETATM   17  C   UNL     1     -11.236  15.680  67.778  1.00  0.00    -0.297 A  
HETATM   18  C   UNL     1     -10.072  16.268  65.762  1.00  0.00    -0.373 A  
HETATM   19  C   UNL     1     -10.339  17.908  67.527  1.00  0.00    -0.383 A  
ENDBRANCH   3  14
ENDBRANCH   2   3
TORSDOF 2
ENDMDL
MODEL        6
REMARK 921   NORMALIZED FREE ENERGY PREDICTED BY IDOCK:   -5.60 KCAL/MOL
REMARK 922        TOTAL FREE ENERGY PREDICTED BY IDOCK:   -6.30 KCAL/MOL
REMARK 923 INTER-LIGAND FREE ENERGY PREDICTED BY IDOCK:   -7.56 KCAL/MOL
REMARK 924 INTRA-LIGAND FREE ENERGY PREDICTED BY IDOCK:    1.26 KCAL/MOL
REMARK 927      BINDING AFFINITY PREDICTED BY RF-SCORE:    0.00 PKD
ROOT
HETATM    1  C   UNL     1      -8.083  15.637  66.873  1.00  0.00    -0.290 C  
HETATM    2  C   UNL     1      -9.191  15.267  65.890  1.00  0.00    -0.236 C  
ENDROOT
BRANCH   2   3
HETATM    3  C   UNL     1     -10.620  15.874  66.117  1.00  0.00    -0.310 C  
HETATM    4  C   UNL     1     -11.351  15.897  64.767  1.00  0.00    -0.309 C  
HETATM    5  O   UNL     1     -11.197  14.987  68.330  1.00  0.00    -0.267 OA 
HETATM    6  C   UNL     1     -11.328  14.933  67.108  1.00  0.00    -0.343 C  
HETATM    7  N   UNL     1     -12.051  14.770  64.423  1.00  0.00    -0.590 N  
HETATM    8  O   UNL     1     -11.292  16.826  63.962  1.00  0.00    -1.153 OA 
HETATM    9  H   UNL     1     -12.377  13.184  67.211  1.00  0.00     0.000 HD 
HETATM   10  C   UNL     1     -12.503  13.819  65.284  1.00  0.00    -0.480 C  
HETATM   11  H   UNL     1     -12.250  14.633  63.433  1.00  0.00     0.000 HD 
HETATM   12  O   UNL     1     -13.281  12.944  64.927  1.00  0.00    -0.782 OA 
HETATM   13  N   UNL     1     -12.090  13.927  66.575  1.00  0.00    -0.439 N  
BRANCH   3  14
HETATM   14  C   UNL     1     -10.510  17.325  66.677  1.00  0.00    -0.257 A  
HETATM   15  C   UNL     1     -10.448  19.747  66.328  1.00  0.00    -0.614 A  
HETATM   16  C   UNL     1     -10.313  18.881  68.564  1.00  0.00    -0.312 A  
HETATM   17  C   UNL     1     -10.375  17.578  68.058  1.00  0.00    -0.368 A  
HETATM   18  C   UNL     1     -10.509  18.442  65.822  1.00  0.00    -0.250 A  
HETATM   19  C   UNL     1     -10.366  19.966  67.701  1.00  0.00    -0.557 A  
ENDBRANCH   3  14
ENDBRANCH   2   3
TORSDOF 2
ENDMDL
MODEL        7
REMARK 921   NORMALIZED FREE ENERGY PREDICTED BY IDOCK:   -5.53 KCAL/MOL
REMARK 922        TOTAL FREE ENERGY PREDICTED BY IDOCK:   -6.22 KCAL/MOL
REMARK 923 INTER-LIGAND FREE ENERGY PREDICTED BY IDOCK:   -6.06 KCAL/MOL
REMARK 924 INTRA-LIGAND FREE ENERGY PREDICTED BY IDOCK:   -0.16 KCAL/MOL
REMARK 927      BINDING AFFINITY PREDICTED BY RF-SCORE:    0.00 PKD
ROOT
HETATM    1  C   UNL     1     -11.264  16.150  64.627  1.00  0.00    -0.307 C  
HETATM    2  C   UNL     1     -10.401  15.371  65.616  1.00  0.00    -0.395 C  
ENDROOT
BRANCH   2   3
HETATM    3  C   UNL     1     -10.992  14.062  66.248  1.00  0.00    -0.300 C  
HETATM    4  C   UNL     1     -12.247  13.670  65.454  1.00  0.00    -0.444 C  
HETATM    5  O   UNL     1      -8.958  12.851  66.890  1.00  0.00    -0.215 OA 
HETATM    6  C   UNL     1      -9.897  12.990  66.107  1.00  0.00    -0.273 C  
HETATM    7  N   UNL     1     -12.059  12.873  64.356  1.00  0.00    -0.385 N  
HETATM    8  O   UNL     1     -13.381  14.077  65.704  1.00  0.00    -0.636 OA 
HETATM    9  H   UNL     1      -9.110  11.645  64.787  1.00  0.00     0.000 HD 
HETATM   10  C   UNL     1     -10.984  12.073  64.125  1.00  0.00    -0.360 C  
HETATM   11  H   UNL     1     -12.793  12.880  63.647  1.00  0.00     0.000 HD 
HETATM   12  O   UNL     1     -10.974  11.250  63.220  1.00  0.00    -0.301 OA 
HETATM   13  N   UNL     1      -9.943  12.198  64.990  1.00  0.00    -0.248 N  
BRANCH   3  14
HETATM   14  C   UNL     1     -11.373  14.305  67.740  1.00  0.00    -0.329 A  
HETATM   15  C   UNL     1     -11.706  15.813  69.640  1.00  0.00    -0.363 A  
HETATM   16  C   UNL     1     -12.125  13.465  69.920  1.00  0.00    -0.389 A  
HETATM   17  C   UNL     1     -11.748  13.243  68.592  1.00  0.00    -0.376 A  
HETATM   18  C   UNL     1     -11.327  15.590  68.309  1.00  0.00    -0.360 A  
HETATM   19  C   UNL     1     -12.120  14.751  70.440  1.00  0.00    -0.381 A  
ENDBRANCH   3  14
ENDBRANCH   2   3
TORSDOF 2
ENDMDL
MODEL        8
REMARK 921   NORMALIZED FREE ENERGY PREDICTED BY IDOCK:   -5.52 KCAL/MOL
REMARK 922        TOTAL FREE ENERGY PREDICTED BY IDOCK:   -6.22 KCAL/MOL
REMARK 923 INTER-LIGAND FREE ENERGY PREDICTED BY IDOCK:   -6.16 KCAL/MOL
REMARK 924 INTRA-LIGAND FREE ENERGY PREDICTED BY IDOCK:   -0.06 KCAL/MOL
REMARK 927      BINDING AFFINITY PREDICTED BY RF-SCORE:    0.00 PKD
ROOT
HETATM    1  C   UNL     1      -7.354  15.939  67.137  1.00  0.00    -0.258 C  
HETATM    2  C   UNL     1      -8.435  16.296  66.120  1.00  0.00    -0.313 C  
ENDROOT
BRANCH   2   3
HETATM    3  C   UNL     1      -9.924  16.356  66.609  1.00  0.00    -0.281 C  
HETATM    4  C   UNL     1      -9.922  16.640  68.119  1.00  0.00    -0.259 C  
HETATM    5  O   UNL     1     -11.040  17.412  64.697  1.00  0.00    -1.029 OA 
HETATM    6  C   UNL     1     -10.580  17.512  65.834  1.00  0.00    -0.203 C  
HETATM    7  N   UNL     1      -9.905  17.956  68.499  1.00  0.00    -0.348 N  
HETATM    8  O   UNL     1      -9.871  15.772  68.988  1.00  0.00    -0.211 OA 
HETATM    9  H   UNL     1     -10.806  19.542  65.840  1.00  0.00     0.000 HD 
HETATM   10  C   UNL     1     -10.291  19.013  67.735  1.00  0.00    -0.417 C  
HETATM   11  H   UNL     1      -9.572  18.162  69.440  1.00  0.00     0.000 HD 
HETATM   12  O   UNL     1     -10.427  20.134  68.206  1.00  0.00    -0.373 OA 
HETATM   13  N   UNL     1     -10.574  18.744  66.432  1.00  0.00    -0.405 N  
BRANCH   3  14
HETATM   14  C   UNL     1     -10.640  14.998  66.335  1.00  0.00    -0.310 A  
HETATM   15  C   UNL     1     -12.531  13.478  66.663  1.00  0.00    -0.263 A  
HETATM   16  C   UNL     1     -10.727  12.812  65.222  1.00  0.00    -0.319 A  
HETATM   17  C   UNL     1     -10.070  14.015  65.498  1.00  0.00    -0.343 A  
HETATM   18  C   UNL     1     -11.870  14.682  66.939  1.00  0.00    -0.345 A  
HETATM   19  C   UNL     1     -11.965  12.549  65.792  1.00  0.00    -0.482 A  
ENDBRANCH   3  14
ENDBRANCH   2   3
TORSDOF 2
ENDMDL
MODEL        9
REMARK 921   NORMALIZED FREE ENERGY PREDICTED BY IDOCK:   -5.51 KCAL/MOL
REMARK 922        TOTAL FREE ENERGY PREDICTED BY IDOCK:   -6.20 KCAL/MOL
REMARK 923 INTER-LIGAND FREE ENERGY PREDICTED BY IDOCK:   -6.20 KCAL/MOL
REMARK 924 INTRA-LIGAND FREE ENERGY PREDICTED BY IDOCK:    0.00 KCAL/MOL
REMARK 927      BINDING AFFINITY PREDICTED BY RF-SCORE:    0.00 PKD
ROOT
HETATM    1  C   UNL     1      -8.411  14.363  67.140  1.00  0.00    -0.214 C  
HETATM    2  C   UNL     1      -8.808  15.510  66.215  1.00  0.00    -0.338 C  
ENDROOT
BRANCH   2   3
HETATM    3  C   UNL     1     -10.190  16.212  66.452  1.00  0.00    -0.315 C  
HETATM    4  C   UNL     1     -11.048  16.019  65.192  1.00  0.00    -0.283 C  
HETATM    5  O   UNL     1     -10.574  15.775  68.835  1.00  0.00    -0.214 OA 
HETATM    6  C   UNL     1     -10.825  15.503  67.661  1.00  0.00    -0.306 C  
HETATM    7  N   UNL     1     -11.808  14.881  65.131  1.00  0.00    -0.303 N  
HETATM    8  O   UNL     1     -11.042  16.780  64.226  1.00  0.00    -1.106 OA 
HETATM    9  H   UNL     1     -11.907  13.852  68.185  1.00  0.00     0.000 HD 
HETATM   10  C   UNL     1     -12.202  14.127  66.192  1.00  0.00    -0.442 C  
HETATM   11  H   UNL     1     -12.107  14.573  64.206  1.00  0.00     0.000 HD 
HETATM   12  O   UNL     1     -13.034  13.237  66.077  1.00  0.00    -0.223 OA 
HETATM   13  N   UNL     1     -11.663  14.452  67.397  1.00  0.00    -0.381 N  
BRANCH   3  14
HETATM   14  C   UNL     1      -9.987  17.735  66.717  1.00  0.00    -0.333 A  
HETATM   15  C   UNL     1     -10.828  19.895  67.501  1.00  0.00    -0.335 A  
HETATM   16  C   UNL     1      -8.572  19.740  66.694  1.00  0.00    -0.380 A  
HETATM   17  C   UNL     1      -8.767  18.382  66.423  1.00  0.00    -0.263 A  
HETATM   18  C   UNL     1     -11.024  18.535  67.229  1.00  0.00    -0.184 A  
HETATM   19  C   UNL     1      -9.597  20.494  67.248  1.00  0.00    -0.580 A  
ENDBRANCH   3  14
ENDBRANCH   2   3
TORSDOF 2
ENDMDL
MODEL       10
REMARK 921   NORMALIZED FREE ENERGY PREDICTED BY IDOCK:   -5.50 KCAL/MOL
REMARK 922        TOTAL FREE ENERGY PREDICTED BY IDOCK:   -6.19 KCAL/MOL
REMARK 923 INTER-LIGAND FREE ENERGY PREDICTED BY IDOCK:   -6.03 KCAL/MOL
REMARK 924 INTRA-LIGAND FREE ENERGY PREDICTED BY IDOCK:   -0.16 KCAL/MOL
REMARK 927      BINDING AFFINITY PREDICTED BY RF-SCORE:    0.00 PKD
ROOT
HETATM    1  C   UNL     1      -9.027  12.012  68.381  1.00  0.00    -0.153 C  
HETATM    2  C   UNL     1      -9.386  13.279  67.609  1.00  0.00    -0.212 C  
ENDROOT
BRANCH   2   3
HETATM    3  C   UNL     1     -10.888  13.511  67.220  1.00  0.00    -0.285 C  
HETATM    4  C   UNL     1     -11.768  12.810  68.265  1.00  0.00    -0.344 C  
HETATM    5  O   UNL     1     -10.828  15.795  66.327  1.00  0.00    -0.306 OA 
HETATM    6  C   UNL     1     -11.105  15.035  67.254  1.00  0.00    -0.334 C  
HETATM    7  N   UNL     1     -12.103  13.535  69.378  1.00  0.00    -0.313 N  
HETATM    8  O   UNL     1     -12.129  11.636  68.192  1.00  0.00    -0.577 OA 
HETATM    9  H   UNL     1     -11.500  16.585  68.523  1.00  0.00     0.000 HD 
HETATM   10  C   UNL     1     -12.095  14.891  69.478  1.00  0.00    -0.279 C  
HETATM   11  H   UNL     1     -12.384  13.010  70.206  1.00  0.00     0.000 HD 
HETATM   12  O   UNL     1     -12.587  15.470  70.438  1.00  0.00    -0.419 OA 
HETATM   13  N   UNL     1     -11.564  15.571  68.428  1.00  0.00    -0.367 N  
BRANCH   3  14
HETATM   14  C   UNL     1     -11.180  12.918  65.808  1.00  0.00    -0.324 A  
HETATM   15  C   UNL     1     -10.439  11.749  63.789  1.00  0.00    -0.466 A  
HETATM   16  C   UNL     1     -12.736  12.427  63.975  1.00  0.00    -0.450 A  
HETATM   17  C   UNL     1     -12.464  12.990  65.225  1.00  0.00    -0.555 A  
HETATM   18  C   UNL     1     -10.167  12.316  65.041  1.00  0.00    -0.312 A  
HETATM   19  C   UNL     1     -11.728  11.792  63.263  1.00  0.00    -0.340 A  
ENDBRANCH   3  14
ENDBRANCH   2   3
TORSDOF 2
ENDMDL
MODEL       11
REMARK 921   NORMALIZED FREE ENERGY PREDICTED BY IDOCK:   -5.49 KCAL/MOL
REMARK 922        TOTAL FREE ENERGY PREDICTED BY IDOCK:   -6.18 KCAL/MOL
REMARK 923 INTER-LIGAND FREE ENERGY PREDICTED BY IDOCK:   -6.05 KCAL/MOL
REMARK 924 INTRA-LIGAND FREE ENERGY PREDICTED BY IDOCK:   -0.13 KCAL/MOL
REMARK 927      BINDING AFFINITY PREDICTED BY RF-SCORE:    0.00 PKD
ROOT
HETATM    1  C   UNL     1     -10.895  10.390  67.449  1.00  0.00    -0.344 C  
HETATM    2  C   UNL     1     -11.786  11.627  67.375  1.00  0.00    -0.278 C  
ENDROOT
BRANCH   2   3
HETATM    3  C   UNL     1     -11.206  12.922  66.706  1.00  0.00    -0.337 C  
HETATM    4  C   UNL     1      -9.742  12.652  66.328  1.00  0.00    -0.259 C  
HETATM    5  O   UNL     1     -13.144  13.751  65.452  1.00  0.00    -0.727 OA 
HETATM    6  C   UNL     1     -12.059  13.170  65.450  1.00  0.00    -0.433 C  
HETATM    7  N   UNL     1      -9.513  12.098  65.097  1.00  0.00    -0.439 N  
HETATM    8  O   UNL     1      -8.786  12.841  67.079  1.00  0.00    -0.202 OA 
HETATM    9  H   UNL     1     -12.265  12.608  63.496  1.00  0.00     0.000 HD 
HETATM   10  C   UNL     1     -10.363  12.134  64.036  1.00  0.00    -0.385 C  
HETATM   11  H   UNL     1      -8.626  11.614  64.964  1.00  0.00     0.000 HD 
HETATM   12  O   UNL     1     -10.013  11.784  62.916  1.00  0.00    -0.336 OA 
HETATM   13  N   UNL     1     -11.605  12.635  64.273  1.00  0.00    -0.348 N  
BRANCH   3  14
HETATM   14  C   UNL     1     -11.276  14.124  67.698  1.00  0.00    -0.315 A  
HETATM   15  C   UNL     1     -11.707  15.023  69.933  1.00  0.00    -0.343 A  
HETATM   16  C   UNL     1     -10.999  16.513  68.187  1.00  0.00    -0.336 A  
HETATM   17  C   UNL     1     -10.971  15.440  67.290  1.00  0.00    -0.317 A  
HETATM   18  C   UNL     1     -11.680  13.949  69.033  1.00  0.00    -0.378 A  
HETATM   19  C   UNL     1     -11.351  16.302  69.512  1.00  0.00    -0.276 A  
ENDBRANCH   3  14
ENDBRANCH   2   3
TORSDOF 2
ENDMDL
MODEL       12
REMARK 921   NORMALIZED FREE ENERGY PREDICTED BY IDOCK:   -5.41 KCAL/MOL
REMARK 922        TOTAL FREE ENERGY PREDICTED BY IDOCK:   -6.09 KCAL/MOL
REMARK 923 INTER-LIGAND FREE ENERGY PREDICTED BY IDOCK:   -5.98 KCAL/MOL
REMARK 924 INTRA-LIGAND FREE ENERGY PREDICTED BY IDOCK:   -0.12 KCAL/MOL
REMARK 927      BINDING AFFINITY PREDICTED BY RF-SCORE:    0.00 PKD
ROOT
HETATM    1  C   UNL     1      -8.992  11.981  68.307  1.00  0.00    -0.186 C  
HETATM    2  C   UNL     1      -9.374  13.272  67.588  1.00  0.00    -0.212 C  
ENDROOT
BRANCH   2   3
HETATM    3  C   UNL     1     -10.886  13.511  67.244  1.00  0.00    -0.285 C  
HETATM    4  C   UNL     1     -11.737  12.849  68.337  1.00  0.00    -0.345 C  
HETATM    5  O   UNL     1     -10.832  15.768  66.285  1.00  0.00    -0.306 OA 
HETATM    6  C   UNL     1     -11.085  15.037  67.242  1.00  0.00    -0.334 C  
HETATM    7  N   UNL     1     -12.026  13.609  69.440  1.00  0.00    -0.334 N  
HETATM    8  O   UNL     1     -12.113  11.678  68.310  1.00  0.00    -0.552 OA 
HETATM    9  H   UNL     1     -11.420  16.627  68.480  1.00  0.00     0.000 HD 
HETATM   10  C   UNL     1     -12.000  14.967  69.502  1.00  0.00    -0.313 C  
HETATM   11  H   UNL     1     -12.284  13.111  70.291  1.00  0.00     0.000 HD 
HETATM   12  O   UNL     1     -12.453  15.578  70.461  1.00  0.00    -0.399 OA 
HETATM   13  N   UNL     1     -11.498  15.612  68.415  1.00  0.00    -0.367 N  
BRANCH   3  14
HETATM   14  C   UNL     1     -11.233  12.882  65.859  1.00  0.00    -0.323 A  
HETATM   15  C   UNL     1     -12.828  12.440  64.056  1.00  0.00    -0.371 A  
HETATM   16  C   UNL     1     -10.575  11.635  63.851  1.00  0.00    -0.446 A  
HETATM   17  C   UNL     1     -10.275  12.168  65.109  1.00  0.00    -0.308 A  
HETATM   18  C   UNL     1     -12.527  12.973  65.317  1.00  0.00    -0.555 A  
HETATM   19  C   UNL     1     -11.847  11.784  63.317  1.00  0.00    -0.342 A  
ENDBRANCH   3  14
ENDBRANCH   2   3
TORSDOF 2
ENDMDL
MODEL       13
REMARK 921   NORMALIZED FREE ENERGY PREDICTED BY IDOCK:   -5.33 KCAL/MOL
REMARK 922        TOTAL FREE ENERGY PREDICTED BY IDOCK:   -6.00 KCAL/MOL
REMARK 923 INTER-LIGAND FREE ENERGY PREDICTED BY IDOCK:   -6.01 KCAL/MOL
REMARK 924 INTRA-LIGAND FREE ENERGY PREDICTED BY IDOCK:    0.01 KCAL/MOL
REMARK 927      BINDING AFFINITY PREDICTED BY RF-SCORE:    0.00 PKD
ROOT
HETATM    1  C   UNL     1     -11.171   6.317  69.244  1.00  0.00    -0.458 C  
HETATM    2  C   UNL     1     -10.457   7.370  70.087  1.00  0.00    -0.228 C  
ENDROOT
BRANCH   2   3
HETATM    3  C   UNL     1     -11.179   7.907  71.372  1.00  0.00    -0.280 C  
HETATM    4  C   UNL     1     -12.355   6.970  71.689  1.00  0.00    -0.368 C  
HETATM    5  O   UNL     1      -9.293   8.749  72.695  1.00  0.00    -0.300 OA 
HETATM    6  C   UNL     1     -10.129   7.869  72.497  1.00  0.00    -0.261 C  
HETATM    7  N   UNL     1     -12.084   5.885  72.479  1.00  0.00    -0.499 N  
HETATM    8  O   UNL     1     -13.488   7.100  71.228  1.00  0.00    -0.362 OA 
HETATM    9  H   UNL     1      -9.266   6.619  73.863  1.00  0.00     0.000 HD 
HETATM   10  C   UNL     1     -11.030   5.760  73.330  1.00  0.00    -0.253 C  
HETATM   11  H   UNL     1     -12.732   5.100  72.426  1.00  0.00     0.000 HD 
HETATM   12  O   UNL     1     -10.959   4.846  74.140  1.00  0.00    -0.310 OA 
HETATM   13  N   UNL     1     -10.088   6.739  73.271  1.00  0.00    -0.197 N  
BRANCH   3  14
HETATM   14  C   UNL     1     -11.714   9.352  71.131  1.00  0.00    -0.418 A  
HETATM   15  C   UNL     1     -13.136  11.237  71.776  1.00  0.00    -0.527 A  
HETATM   16  C   UNL     1     -11.723  11.442  69.845  1.00  0.00    -0.424 A  
HETATM   17  C   UNL     1     -11.272  10.133  70.042  1.00  0.00    -0.361 A  
HETATM   18  C   UNL     1     -12.685   9.924  71.972  1.00  0.00    -0.456 A  
HETATM   19  C   UNL     1     -12.644  12.000  70.721  1.00  0.00    -0.312 A  
ENDBRANCH   3  14
ENDBRANCH   2   3
TORSDOF 2
ENDMDL
MODEL       14
REMARK 921   NORMALIZED FREE ENERGY PREDICTED BY IDOCK:   -5.32 KCAL/MOL
REMARK 922        TOTAL FREE ENERGY PREDICTED BY IDOCK:   -5.99 KCAL/MOL
REMARK 923 INTER-LIGAND FREE ENERGY PREDICTED BY IDOCK:   -5.84 KCAL/MOL
REMARK 924 INTRA-LIGAND FREE ENERGY PREDICTED BY IDOCK:   -0.15 KCAL/MOL
REMARK 927      BINDING AFFINITY PREDICTED BY RF-SCORE:    0.00 PKD
ROOT
HETATM    1  C   UNL     1     -11.678  14.431  68.408  1.00  0.00    -0.367 C  
HETATM    2  C   UNL     1     -11.622  15.563  67.386  1.00  0.00    -0.063 C  
ENDROOT
BRANCH   2   3
HETATM    3  C   UNL     1     -10.351  15.680  66.475  1.00  0.00    -0.296 C  
HETATM    4  C   UNL     1      -9.496  14.421  66.681  1.00  0.00    -0.283 C  
HETATM    5  O   UNL     1     -11.258  16.793  64.486  1.00  0.00    -0.997 OA 
HETATM    6  C   UNL     1     -10.871  15.759  65.028  1.00  0.00    -0.443 C  
HETATM    7  N   UNL     1      -9.780  13.344  65.885  1.00  0.00    -0.451 N  
HETATM    8  O   UNL     1      -8.631  14.305  67.548  1.00  0.00    -0.172 OA 
HETATM    9  H   UNL     1     -11.515  14.599  63.475  1.00  0.00     0.000 HD 
HETATM   10  C   UNL     1     -10.431  13.383  64.691  1.00  0.00    -0.411 C  
HETATM   11  H   UNL     1      -9.476  12.429  66.217  1.00  0.00     0.000 HD 
HETATM   12  O   UNL     1     -10.479  12.410  63.950  1.00  0.00    -0.381 OA 
HETATM   13  N   UNL     1     -10.974  14.579  64.340  1.00  0.00    -0.224 N  
BRANCH   3  14
HETATM   14  C   UNL     1      -9.522  16.943  66.860  1.00  0.00    -0.261 A  
HETATM   15  C   UNL     1      -9.187  18.937  68.239  1.00  0.00    -0.373 A  
HETATM   16  C   UNL     1      -7.561  18.389  66.559  1.00  0.00    -0.267 A  
HETATM   17  C   UNL     1      -8.325  17.276  66.190  1.00  0.00    -0.238 A  
HETATM   18  C   UNL     1      -9.952  17.823  67.869  1.00  0.00    -0.322 A  
HETATM   19  C   UNL     1      -7.984  19.211  67.594  1.00  0.00    -0.290 A  
ENDBRANCH   3  14
ENDBRANCH   2   3
TORSDOF 2
ENDMDL
MODEL       15
REMARK 921   NORMALIZED FREE ENERGY PREDICTED BY IDOCK:   -5.29 KCAL/MOL
REMARK 922        TOTAL FREE ENERGY PREDICTED BY IDOCK:   -5.95 KCAL/MOL
REMARK 923 INTER-LIGAND FREE ENERGY PREDICTED BY IDOCK:   -5.99 KCAL/MOL
REMARK 924 INTRA-LIGAND FREE ENERGY PREDICTED BY IDOCK:    0.04 KCAL/MOL
REMARK 927      BINDING AFFINITY PREDICTED BY RF-SCORE:    0.00 PKD
ROOT
HETATM    1  C   UNL     1      -9.086  11.737  66.651  1.00  0.00    -0.194 C  
HETATM    2  C   UNL     1      -9.204  13.216  66.293  1.00  0.00    -0.074 C  
ENDROOT
BRANCH   2   3
HETATM    3  C   UNL     1     -10.602  13.909  66.449  1.00  0.00    -0.280 C  
HETATM    4  C   UNL     1     -10.789  14.882  65.275  1.00  0.00    -0.386 C  
HETATM    5  O   UNL     1     -11.968  12.087  67.361  1.00  0.00    -0.583 OA 
HETATM    6  C   UNL     1     -11.646  12.779  66.396  1.00  0.00    -0.378 C  
HETATM    7  N   UNL     1     -11.341  14.370  64.130  1.00  0.00    -0.611 N  
HETATM    8  O   UNL     1     -10.419  16.055  65.281  1.00  0.00    -0.447 OA 
HETATM    9  H   UNL     1     -12.700  11.610  65.094  1.00  0.00     0.000 HD 
HETATM   10  C   UNL     1     -12.098  13.244  64.044  1.00  0.00    -0.447 C  
HETATM   11  H   UNL     1     -11.168  14.880  63.264  1.00  0.00     0.000 HD 
HETATM   12  O   UNL     1     -12.712  12.955  63.025  1.00  0.00    -0.503 OA 
HETATM   13  N   UNL     1     -12.183  12.486  65.170  1.00  0.00    -0.465 N  
BRANCH   3  14
HETATM   14  C   UNL     1     -10.671  14.695  67.794  1.00  0.00    -0.265 A  
HETATM   15  C   UNL     1      -9.568  15.803  69.677  1.00  0.00    -0.233 A  
HETATM   16  C   UNL     1     -11.967  15.776  69.575  1.00  0.00    -0.326 A  
HETATM   17  C   UNL     1     -11.904  15.040  68.388  1.00  0.00    -0.298 A  
HETATM   18  C   UNL     1      -9.505  15.064  68.488  1.00  0.00    -0.203 A  
HETATM   19  C   UNL     1     -10.799  16.172  70.212  1.00  0.00    -0.300 A  
ENDBRANCH   3  14
ENDBRANCH   2   3
TORSDOF 2
ENDMDL
MODEL       16
REMARK 921   NORMALIZED FREE ENERGY PREDICTED BY IDOCK:   -5.28 KCAL/MOL
REMARK 922        TOTAL FREE ENERGY PREDICTED BY IDOCK:   -5.95 KCAL/MOL
REMARK 923 INTER-LIGAND FREE ENERGY PREDICTED BY IDOCK:   -5.82 KCAL/MOL
REMARK 924 INTRA-LIGAND FREE ENERGY PREDICTED BY IDOCK:   -0.12 KCAL/MOL
REMARK 927      BINDING AFFINITY PREDICTED BY RF-SCORE:    0.00 PKD
ROOT
HETATM    1  C   UNL     1      -9.170  15.132  68.546  1.00  0.00    -0.192 C  
HETATM    2  C   UNL     1      -9.912  14.348  69.624  1.00  0.00     0.301 C  
ENDROOT
BRANCH   2   3
HETATM    3  C   UNL     1     -11.472  14.227  69.514  1.00  0.00    -0.336 C  
HETATM    4  C   UNL     1     -11.928  15.013  68.276  1.00  0.00    -0.183 C  
HETATM    5  O   UNL     1     -11.855  11.931  70.287  1.00  0.00    -0.331 OA 
HETATM    6  C   UNL     1     -11.772  12.726  69.352  1.00  0.00    -0.319 C  
HETATM    7  N   UNL     1     -11.944  14.336  67.086  1.00  0.00    -0.451 N  
HETATM    8  O   UNL     1     -12.211  16.210  68.280  1.00  0.00     0.201 OA 
HETATM    9  H   UNL     1     -11.854  11.234  67.960  1.00  0.00     0.000 HD 
HETATM   10  C   UNL     1     -11.999  12.985  66.937  1.00  0.00    -0.352 C  
HETATM   11  H   UNL     1     -11.912  14.895  66.234  1.00  0.00     0.000 HD 
HETATM   12  O   UNL     1     -12.202  12.463  65.849  1.00  0.00    -0.629 OA 
HETATM   13  N   UNL     1     -11.874  12.247  68.073  1.00  0.00    -0.348 N  
BRANCH   3  14
HETATM   14  C   UNL     1     -12.154  14.817  70.787  1.00  0.00    -0.374 A  
HETATM   15  C   UNL     1     -12.035  16.085  72.877  1.00  0.00    -0.611 A  
HETATM   16  C   UNL     1     -14.150  15.200  72.162  1.00  0.00    -0.654 A  
HETATM   17  C   UNL     1     -13.531  14.640  71.040  1.00  0.00    -0.375 A  
HETATM   18  C   UNL     1     -11.415  15.523  71.753  1.00  0.00    -0.504 A  
HETATM   19  C   UNL     1     -13.405  15.936  73.073  1.00  0.00    -0.663 A  
ENDBRANCH   3  14
ENDBRANCH   2   3
TORSDOF 2
ENDMDL
MODEL       17
REMARK 921   NORMALIZED FREE ENERGY PREDICTED BY IDOCK:   -5.28 KCAL/MOL
REMARK 922        TOTAL FREE ENERGY PREDICTED BY IDOCK:   -5.94 KCAL/MOL
REMARK 923 INTER-LIGAND FREE ENERGY PREDICTED BY IDOCK:   -5.79 KCAL/MOL
REMARK 924 INTRA-LIGAND FREE ENERGY PREDICTED BY IDOCK:   -0.15 KCAL/MOL
REMARK 927      BINDING AFFINITY PREDICTED BY RF-SCORE:    0.00 PKD
ROOT
HETATM    1  C   UNL     1     -12.406  14.267  64.218  1.00  0.00    -0.407 C  
HETATM    2  C   UNL     1     -12.475  13.213  65.320  1.00  0.00    -0.550 C  
ENDROOT
BRANCH   2   3
HETATM    3  C   UNL     1     -11.242  13.053  66.275  1.00  0.00    -0.332 C  
HETATM    4  C   UNL     1     -10.537  14.413  66.380  1.00  0.00    -0.297 C  
HETATM    5  O   UNL     1     -12.096  11.465  67.938  1.00  0.00    -0.646 OA 
HETATM    6  C   UNL     1     -11.813  12.624  67.638  1.00  0.00    -0.329 C  
HETATM    7  N   UNL     1     -10.986  15.268  67.352  1.00  0.00    -0.316 N  
HETATM    8  O   UNL     1      -9.654  14.798  65.615  1.00  0.00    -0.312 OA 
HETATM    9  H   UNL     1     -12.663  13.364  69.342  1.00  0.00     0.000 HD 
HETATM   10  C   UNL     1     -11.680  14.914  68.467  1.00  0.00    -0.310 C  
HETATM   11  H   UNL     1     -10.780  16.259  67.229  1.00  0.00     0.000 HD 
HETATM   12  O   UNL     1     -11.880  15.704  69.380  1.00  0.00    -0.355 OA 
HETATM   13  N   UNL     1     -12.090  13.620  68.537  1.00  0.00    -0.350 N  
BRANCH   3  14
HETATM   14  C   UNL     1     -10.249  11.993  65.706  1.00  0.00    -0.274 A  
HETATM   15  C   UNL     1      -9.627  10.350  64.002  1.00  0.00    -0.376 A  
HETATM   16  C   UNL     1      -8.130  10.762  65.834  1.00  0.00    -0.148 A  
HETATM   17  C   UNL     1      -9.038  11.685  66.363  1.00  0.00    -0.209 A  
HETATM   18  C   UNL     1     -10.536  11.275  64.532  1.00  0.00    -0.401 A  
HETATM   19  C   UNL     1      -8.416  10.106  64.646  1.00  0.00    -0.178 A  
ENDBRANCH   3  14
ENDBRANCH   2   3
TORSDOF 2
ENDMDL
MODEL       18
REMARK 921   NORMALIZED FREE ENERGY PREDICTED BY IDOCK:   -5.24 KCAL/MOL
REMARK 922        TOTAL FREE ENERGY PREDICTED BY IDOCK:   -5.90 KCAL/MOL
REMARK 923 INTER-LIGAND FREE ENERGY PREDICTED BY IDOCK:   -5.87 KCAL/MOL
REMARK 924 INTRA-LIGAND FREE ENERGY PREDICTED BY IDOCK:   -0.04 KCAL/MOL
REMARK 927      BINDING AFFINITY PREDICTED BY RF-SCORE:    0.00 PKD
ROOT
HETATM    1  C   UNL     1     -11.150  13.957  68.752  1.00  0.00    -0.291 C  
HETATM    2  C   UNL     1     -11.306  14.876  67.543  1.00  0.00    -0.351 C  
ENDROOT
BRANCH   2   3
HETATM    3  C   UNL     1     -10.366  14.646  66.309  1.00  0.00    -0.301 C  
HETATM    4  C   UNL     1     -10.099  16.008  65.649  1.00  0.00    -0.354 C  
HETATM    5  O   UNL     1      -8.904  12.850  67.117  1.00  0.00    -0.196 OA 
HETATM    6  C   UNL     1      -9.065  14.045  66.871  1.00  0.00    -0.248 C  
HETATM    7  N   UNL     1      -9.038  16.729  66.129  1.00  0.00    -0.273 N  
HETATM    8  O   UNL     1     -10.808  16.506  64.776  1.00  0.00    -0.720 OA 
HETATM    9  H   UNL     1      -7.294  14.555  67.751  1.00  0.00     0.000 HD 
HETATM   10  C   UNL     1      -7.977  16.227  66.816  1.00  0.00    -0.271 C  
HETATM   11  H   UNL     1      -9.045  17.734  65.956  1.00  0.00     0.000 HD 
HETATM   12  O   UNL     1      -6.980  16.899  67.045  1.00  0.00    -0.160 OA 
HETATM   13  N   UNL     1      -8.060  14.921  67.184  1.00  0.00    -0.210 N  
BRANCH   3  14
HETATM   14  C   UNL     1     -11.045  13.692  65.280  1.00  0.00    -0.307 A  
HETATM   15  C   UNL     1     -13.031  12.552  64.415  1.00  0.00    -0.248 A  
HETATM   16  C   UNL     1     -10.926  12.248  63.298  1.00  0.00    -0.373 A  
HETATM   17  C   UNL     1     -10.311  13.075  64.244  1.00  0.00    -0.385 A  
HETATM   18  C   UNL     1     -12.414  13.379  65.362  1.00  0.00    -0.543 A  
HETATM   19  C   UNL     1     -12.289  11.999  63.374  1.00  0.00    -0.635 A  
ENDBRANCH   3  14
ENDBRANCH   2   3
TORSDOF 2
ENDMDL
MODEL       19
REMARK 921   NORMALIZED FREE ENERGY PREDICTED BY IDOCK:   -5.19 KCAL/MOL
REMARK 922        TOTAL FREE ENERGY PREDICTED BY IDOCK:   -5.84 KCAL/MOL
REMARK 923 INTER-LIGAND FREE ENERGY PREDICTED BY IDOCK:   -6.31 KCAL/MOL
REMARK 924 INTRA-LIGAND FREE ENERGY PREDICTED BY IDOCK:    0.47 KCAL/MOL
REMARK 927      BINDING AFFINITY PREDICTED BY RF-SCORE:    0.00 PKD
ROOT
HETATM    1  C   UNL     1      -9.117  14.241  68.417  1.00  0.00    -0.194 C  
HETATM    2  C   UNL     1      -9.448  12.786  68.095  1.00  0.00    -0.219 C  
ENDROOT
BRANCH   2   3
HETATM    3  C   UNL     1     -10.943  12.324  68.200  1.00  0.00    -0.269 C  
HETATM    4  C   UNL     1     -11.816  13.569  68.417  1.00  0.00    -0.373 C  
HETATM    5  O   UNL     1     -11.013  10.478  66.586  1.00  0.00    -0.160 OA 
HETATM    6  C   UNL     1     -11.275  11.649  66.857  1.00  0.00    -0.313 C  
HETATM    7  N   UNL     1     -12.255  14.219  67.294  1.00  0.00    -0.597 N  
HETATM    8  O   UNL     1     -12.084  14.044  69.519  1.00  0.00    -0.320 OA 
HETATM    9  H   UNL     1     -11.843  12.057  64.938  1.00  0.00     0.000 HD 
HETATM   10  C   UNL     1     -12.353  13.682  66.048  1.00  0.00    -0.445 C  
HETATM   11  H   UNL     1     -12.534  15.194  67.402  1.00  0.00     0.000 HD 
HETATM   12  O   UNL     1     -12.931  14.263  65.139  1.00  0.00    -0.692 OA 
HETATM   13  N   UNL     1     -11.826  12.440  65.883  1.00  0.00    -0.423 N  
BRANCH   3  14
HETATM   14  C   UNL     1     -11.126  11.343  69.398  1.00  0.00    -0.301 A  
HETATM   15  C   UNL     1     -12.456  10.471  71.259  1.00  0.00    -0.524 A  
HETATM   16  C   UNL     1     -10.309   9.499  70.797  1.00  0.00    -0.377 A  
HETATM   17  C   UNL     1     -10.131  10.403  69.745  1.00  0.00    -0.201 A  
HETATM   18  C   UNL     1     -12.276  11.378  70.206  1.00  0.00    -0.433 A  
HETATM   19  C   UNL     1     -11.478   9.522  71.544  1.00  0.00    -0.466 A  
ENDBRANCH   3  14
ENDBRANCH   2   3
TORSDOF 2
ENDMDL
MODEL       20
REMARK 921   NORMALIZED FREE ENERGY PREDICTED BY IDOCK:   -5.07 KCAL/MOL
REMARK 922        TOTAL FREE ENERGY PREDICTED BY IDOCK:   -5.71 KCAL/MOL
REMARK 923 INTER-LIGAND FREE ENERGY PREDICTED BY IDOCK:   -5.72 KCAL/MOL
REMARK 924 INTRA-LIGAND FREE ENERGY PREDICTED BY IDOCK:    0.01 KCAL/MOL
REMARK 927      BINDING AFFINITY PREDICTED BY RF-SCORE:    0.00 PKD
ROOT
HETATM    1  C   UNL     1     -10.264  19.911  68.775  1.00  0.00    -0.451 C  
HETATM    2  C   UNL     1      -9.951  18.426  68.610  1.00  0.00    -0.415 C  
ENDROOT
BRANCH   2   3
HETATM    3  C   UNL     1      -9.479  17.918  67.202  1.00  0.00    -0.263 C  
HETATM    4  C   UNL     1      -9.800  19.007  66.167  1.00  0.00    -0.329 C  
HETATM    5  O   UNL     1      -7.436  16.685  67.772  1.00  0.00    -0.148 OA 
HETATM    6  C   UNL     1      -7.959  17.702  67.316  1.00  0.00    -0.207 C  
HETATM    7  N   UNL     1      -8.848  19.971  65.969  1.00  0.00    -0.527 N  
HETATM    8  O   UNL     1     -10.869  19.097  65.566  1.00  0.00    -0.438 OA 
HETATM    9  H   UNL     1      -6.173  18.689  67.232  1.00  0.00     0.000 HD 
HETATM   10  C   UNL     1      -7.526  19.859  66.265  1.00  0.00    -0.300 C  
HETATM   11  H   UNL     1      -9.160  20.853  65.563  1.00  0.00     0.000 HD 
HETATM   12  O   UNL     1      -6.707  20.687  65.886  1.00  0.00    -0.229 OA 
HETATM   13  N   UNL     1      -7.153  18.749  66.955  1.00  0.00    -0.203 N  
BRANCH   3  14
HETATM   14  C   UNL     1     -10.223  16.601  66.823  1.00  0.00    -0.301 A  
HETATM   15  C   UNL     1     -11.626  14.691  67.435  1.00  0.00    -0.408 A  
HETATM   16  C   UNL     1     -10.890  14.924  65.160  1.00  0.00    -0.428 A  
HETATM   17  C   UNL     1     -10.193  16.086  65.510  1.00  0.00    -0.389 A  
HETATM   18  C   UNL     1     -10.926  15.854  67.784  1.00  0.00    -0.315 A  
HETATM   19  C   UNL     1     -11.619  14.235  66.119  1.00  0.00    -0.374 A  
ENDBRANCH   3  14
ENDBRANCH   2   3
TORSDOF 2
ENDMDL
MODEL       21
REMARK 921   NORMALIZED FREE ENERGY PREDICTED BY IDOCK:   -5.04 KCAL/MOL
REMARK 922        TOTAL FREE ENERGY PREDICTED BY IDOCK:   -5.67 KCAL/MOL
REMARK 923 INTER-LIGAND FREE ENERGY PREDICTED BY IDOCK:   -5.77 KCAL/MOL
REMARK 924 INTRA-LIGAND FREE ENERGY PREDICTED BY IDOCK:    0.10 KCAL/MOL
REMARK 927      BINDING AFFINITY PREDICTED BY RF-SCORE:    0.00 PKD
ROOT
HETATM    1  C   UNL     1     -11.653  13.958  68.669  1.00  0.00    -0.363 C  
HETATM    2  C   UNL     1     -11.958  14.247  67.202  1.00  0.00    -0.449 C  
ENDROOT
BRANCH   2   3
HETATM    3  C   UNL     1     -10.764  14.618  66.254  1.00  0.00    -0.316 C  
HETATM    4  C   UNL     1      -9.676  13.545  66.411  1.00  0.00    -0.289 C  
HETATM    5  O   UNL     1     -11.936  15.559  64.315  1.00  0.00    -0.465 OA 
HETATM    6  C   UNL     1     -11.338  14.613  64.826  1.00  0.00    -0.396 C  
HETATM    7  N   UNL     1      -9.775  12.443  65.604  1.00  0.00    -0.374 N  
HETATM    8  O   UNL     1      -8.776  13.588  67.248  1.00  0.00    -0.205 OA 
HETATM    9  H   UNL     1     -11.800  13.370  63.272  1.00  0.00     0.000 HD 
HETATM   10  C   UNL     1     -10.461  12.371  64.432  1.00  0.00    -0.344 C  
HETATM   11  H   UNL     1      -9.289  11.600  65.909  1.00  0.00     0.000 HD 
HETATM   12  O   UNL     1     -10.347  11.416  63.675  1.00  0.00    -0.334 OA 
HETATM   13  N   UNL     1     -11.236  13.443  64.119  1.00  0.00    -0.375 N  
BRANCH   3  14
HETATM   14  C   UNL     1     -10.181  16.013  66.636  1.00  0.00    -0.295 A  
HETATM   15  C   UNL     1      -8.407  17.694  66.502  1.00  0.00    -0.300 A  
HETATM   16  C   UNL     1     -10.379  18.172  67.787  1.00  0.00    -0.413 A  
HETATM   17  C   UNL     1     -10.885  16.906  67.473  1.00  0.00    -0.207 A  
HETATM   18  C   UNL     1      -8.913  16.425  66.189  1.00  0.00    -0.367 A  
HETATM   19  C   UNL     1      -9.147  18.572  67.289  1.00  0.00    -0.282 A  
ENDBRANCH   3  14
ENDBRANCH   2   3
TORSDOF 2
ENDMDL
MODEL       22
REMARK 921   NORMALIZED FREE ENERGY PREDICTED BY IDOCK:   -5.03 KCAL/MOL
REMARK 922        TOTAL FREE ENERGY PREDICTED BY IDOCK:   -5.67 KCAL/MOL
REMARK 923 INTER-LIGAND FREE ENERGY PREDICTED BY IDOCK:   -5.60 KCAL/MOL
REMARK 924 INTRA-LIGAND FREE ENERGY PREDICTED BY IDOCK:   -0.07 KCAL/MOL
REMARK 927      BINDING AFFINITY PREDICTED BY RF-SCORE:    0.00 PKD
ROOT
HETATM    1  C   UNL     1     -10.510  15.052  65.156  1.00  0.00    -0.438 C  
HETATM    2  C   UNL     1      -9.832  14.167  66.198  1.00  0.00    -0.326 C  
ENDROOT
BRANCH   2   3
HETATM    3  C   UNL     1     -10.493  12.789  66.548  1.00  0.00    -0.276 C  
HETATM    4  C   UNL     1     -11.565  12.489  65.490  1.00  0.00    -0.386 C  
HETATM    5  O   UNL     1      -8.583  11.520  67.418  1.00  0.00    -0.138 OA 
HETATM    6  C   UNL     1      -9.362  11.748  66.493  1.00  0.00    -0.210 C  
HETATM    7  N   UNL     1     -11.152  11.832  64.361  1.00  0.00    -0.330 N  
HETATM    8  O   UNL     1     -12.737  12.856  65.566  1.00  0.00    -0.568 OA 
HETATM    9  H   UNL     1      -8.303  10.576  65.197  1.00  0.00     0.000 HD 
HETATM   10  C   UNL     1     -10.030  11.072  64.246  1.00  0.00    -0.317 C  
HETATM   11  H   UNL     1     -11.739  11.920  63.532  1.00  0.00     0.000 HD 
HETATM   12  O   UNL     1      -9.828  10.364  63.269  1.00  0.00    -0.302 OA 
HETATM   13  N   UNL     1      -9.174  11.096  65.302  1.00  0.00    -0.214 N  
BRANCH   3  14
HETATM   14  C   UNL     1     -11.155  12.847  67.959  1.00  0.00    -0.283 A  
HETATM   15  C   UNL     1     -12.068  14.125  69.837  1.00  0.00    -0.405 A  
HETATM   16  C   UNL     1     -12.092  11.725  69.930  1.00  0.00    -0.359 A  
HETATM   17  C   UNL     1     -11.465  11.675  68.681  1.00  0.00    -0.349 A  
HETATM   18  C   UNL     1     -11.439  14.074  68.586  1.00  0.00    -0.337 A  
HETATM   19  C   UNL     1     -12.408  12.950  70.502  1.00  0.00    -0.362 A  
ENDBRANCH   3  14
ENDBRANCH   2   3
TORSDOF 2
ENDMDL
MODEL       23
REMARK 921   NORMALIZED FREE ENERGY PREDICTED BY IDOCK:   -5.00 KCAL/MOL
REMARK 922        TOTAL FREE ENERGY PREDICTED BY IDOCK:   -5.63 KCAL/MOL
REMARK 923 INTER-LIGAND FREE ENERGY PREDICTED BY IDOCK:   -5.68 KCAL/MOL
REMARK 924 INTRA-LIGAND FREE ENERGY PREDICTED BY IDOCK:    0.05 KCAL/MOL
REMARK 927      BINDING AFFINITY PREDICTED BY RF-SCORE:    0.00 PKD
ROOT
HETATM    1  C   UNL     1     -11.030  14.316  64.779  1.00  0.00    -0.408 C  
HETATM    2  C   UNL     1     -10.540  15.695  65.212  1.00  0.00    -0.448 C  
ENDROOT
BRANCH   2   3
HETATM    3  C   UNL     1     -10.059  15.883  66.693  1.00  0.00    -0.287 C  
HETATM    4  C   UNL     1     -10.992  15.074  67.606  1.00  0.00    -0.305 C  
HETATM    5  O   UNL     1      -7.622  15.968  66.423  1.00  0.00    -0.166 OA 
HETATM    6  C   UNL     1      -8.623  15.330  66.746  1.00  0.00    -0.265 C  
HETATM    7  N   UNL     1     -10.658  13.763  67.825  1.00  0.00    -0.244 N  
HETATM    8  O   UNL     1     -12.035  15.508  68.091  1.00  0.00    -0.233 OA 
HETATM    9  H   UNL     1      -7.564  13.594  66.933  1.00  0.00     0.000 HD 
HETATM   10  C   UNL     1      -9.422  13.219  67.670  1.00  0.00    -0.211 C  
HETATM   11  H   UNL     1     -11.405  13.140  68.131  1.00  0.00     0.000 HD 
HETATM   12  O   UNL     1      -9.160  12.090  68.066  1.00  0.00    -0.175 OA 
HETATM   13  N   UNL     1      -8.476  14.016  67.106  1.00  0.00    -0.208 N  
BRANCH   3  14
HETATM   14  C   UNL     1     -10.112  17.389  67.094  1.00  0.00    -0.307 A  
HETATM   15  C   UNL     1      -9.870  19.162  68.764  1.00  0.00    -0.502 A  
HETATM   16  C   UNL     1     -10.463  19.747  66.511  1.00  0.00    -0.615 A  
HETATM   17  C   UNL     1     -10.451  18.393  66.161  1.00  0.00    -0.422 A  
HETATM   18  C   UNL     1      -9.858  17.806  68.413  1.00  0.00    -0.347 A  
HETATM   19  C   UNL     1     -10.158  20.134  67.808  1.00  0.00    -0.540 A  
ENDBRANCH   3  14
ENDBRANCH   2   3
TORSDOF 2
ENDMDL
MODEL       24
REMARK 921   NORMALIZED FREE ENERGY PREDICTED BY IDOCK:   -4.97 KCAL/MOL
REMARK 922        TOTAL FREE ENERGY PREDICTED BY IDOCK:   -5.60 KCAL/MOL
REMARK 923 INTER-LIGAND FREE ENERGY PREDICTED BY IDOCK:   -5.91 KCAL/MOL
REMARK 924 INTRA-LIGAND FREE ENERGY PREDICTED BY IDOCK:    0.31 KCAL/MOL
REMARK 927      BINDING AFFINITY PREDICTED BY RF-SCORE:    0.00 PKD
ROOT
HETATM    1  C   UNL     1     -11.641  11.879  69.335  1.00  0.00    -0.388 C  
HETATM    2  C   UNL     1     -11.735  11.553  67.847  1.00  0.00    -0.317 C  
ENDROOT
BRANCH   2   3
HETATM    3  C   UNL     1     -11.083  12.548  66.825  1.00  0.00    -0.323 C  
HETATM    4  C   UNL     1     -12.161  13.544  66.372  1.00  0.00    -0.417 C  
HETATM    5  O   UNL     1      -8.826  12.810  67.748  1.00  0.00    -0.167 OA 
HETATM    6  C   UNL     1      -9.958  13.266  67.589  1.00  0.00    -0.229 C  
HETATM    7  N   UNL     1     -12.319  14.671  67.135  1.00  0.00    -0.482 N  
HETATM    8  O   UNL     1     -12.919  13.361  65.421  1.00  0.00    -0.625 OA 
HETATM    9  H   UNL     1      -9.607  14.817  68.872  1.00  0.00     0.000 HD 
HETATM   10  C   UNL     1     -11.393  15.199  67.980  1.00  0.00    -0.337 C  
HETATM   11  H   UNL     1     -13.212  15.158  67.062  1.00  0.00     0.000 HD 
HETATM   12  O   UNL     1     -11.534  16.307  68.480  1.00  0.00    -0.371 OA 
HETATM   13  N   UNL     1     -10.276  14.454  68.193  1.00  0.00    -0.228 N  
BRANCH   3  14
HETATM   14  C   UNL     1     -10.536  11.773  65.587  1.00  0.00    -0.314 A  
HETATM   15  C   UNL     1      -9.902  11.700  63.224  1.00  0.00    -0.428 A  
HETATM   16  C   UNL     1      -9.634   9.729  64.570  1.00  0.00    -0.201 A  
HETATM   17  C   UNL     1     -10.159  10.415  65.670  1.00  0.00    -0.337 A  
HETATM   18  C   UNL     1     -10.429  12.387  64.326  1.00  0.00    -0.389 A  
HETATM   19  C   UNL     1      -9.490  10.376  63.350  1.00  0.00    -0.356 A  
ENDBRANCH   3  14
ENDBRANCH   2   3
TORSDOF 2
ENDMDL
MODEL       25
REMARK 921   NORMALIZED FREE ENERGY PREDICTED BY IDOCK:   -4.97 KCAL/MOL
REMARK 922        TOTAL FREE ENERGY PREDICTED BY IDOCK:   -5.59 KCAL/MOL
REMARK 923 INTER-LIGAND FREE ENERGY PREDICTED BY IDOCK:   -5.59 KCAL/MOL
REMARK 924 INTRA-LIGAND FREE ENERGY PREDICTED BY IDOCK:   -0.00 KCAL/MOL
REMARK 927      BINDING AFFINITY PREDICTED BY RF-SCORE:    0.00 PKD
ROOT
HETATM    1  C   UNL     1     -10.238  20.079  66.037  1.00  0.00    -0.568 C  
HETATM    2  C   UNL     1     -10.689  18.621  66.067  1.00  0.00    -0.295 C  
ENDROOT
BRANCH   2   3
HETATM    3  C   UNL     1      -9.752  17.567  66.753  1.00  0.00    -0.296 C  
HETATM    4  C   UNL     1      -8.295  17.958  66.460  1.00  0.00    -0.262 C  
HETATM    5  O   UNL     1     -10.980  17.068  68.816  1.00  0.00    -0.289 OA 
HETATM    6  C   UNL     1     -10.049  17.649  68.260  1.00  0.00    -0.362 C  
HETATM    7  N   UNL     1      -7.702  18.828  67.335  1.00  0.00    -0.228 N  
HETATM    8  O   UNL     1      -7.666  17.592  65.468  1.00  0.00    -0.440 OA 
HETATM    9  H   UNL     1      -9.593  18.712  69.944  1.00  0.00     0.000 HD 
HETATM   10  C   UNL     1      -8.093  19.062  68.616  1.00  0.00    -0.361 C  
HETATM   11  H   UNL     1      -6.893  19.348  66.995  1.00  0.00     0.000 HD 
HETATM   12  O   UNL     1      -7.402  19.707  69.394  1.00  0.00    -0.337 OA 
HETATM   13  N   UNL     1      -9.264  18.491  69.004  1.00  0.00    -0.163 N  
BRANCH   3  14
HETATM   14  C   UNL     1     -10.034  16.141  66.186  1.00  0.00    -0.357 A  
HETATM   15  C   UNL     1      -9.776  13.710  66.301  1.00  0.00    -0.295 A  
HETATM   16  C   UNL     1     -11.099  14.666  64.540  1.00  0.00    -0.269 A  
HETATM   17  C   UNL     1     -10.815  15.946  65.028  1.00  0.00    -0.444 A  
HETATM   18  C   UNL     1      -9.491  14.993  66.789  1.00  0.00    -0.263 A  
HETATM   19  C   UNL     1     -10.592  13.547  65.185  1.00  0.00    -0.364 A  
ENDBRANCH   3  14
ENDBRANCH   2   3
TORSDOF 2
ENDMDL
MODEL       26
REMARK 921   NORMALIZED FREE ENERGY PREDICTED BY IDOCK:   -4.91 KCAL/MOL
REMARK 922        TOTAL FREE ENERGY PREDICTED BY IDOCK:   -5.53 KCAL/MOL
REMARK 923 INTER-LIGAND FREE ENERGY PREDICTED BY IDOCK:   -5.58 KCAL/MOL
REMARK 924 INTRA-LIGAND FREE ENERGY PREDICTED BY IDOCK:    0.04 KCAL/MOL
REMARK 927      BINDING AFFINITY PREDICTED BY RF-SCORE:    0.00 PKD
ROOT
HETATM    1  C   UNL     1      -7.553  14.568  68.392  1.00  0.00    -0.122 C  
HETATM    2  C   UNL     1      -8.052  15.399  67.212  1.00  0.00    -0.228 C  
ENDROOT
BRANCH   2   3
HETATM    3  C   UNL     1      -9.495  16.009  67.290  1.00  0.00    -0.220 C  
HETATM    4  C   UNL     1     -10.285  15.528  66.063  1.00  0.00    -0.330 C  
HETATM    5  O   UNL     1      -9.934  15.958  69.702  1.00  0.00    -0.265 OA 
HETATM    6  C   UNL     1     -10.116  15.467  68.589  1.00  0.00    -0.210 C  
HETATM    7  N   UNL     1     -10.947  14.335  66.184  1.00  0.00    -0.308 N  
HETATM    8  O   UNL     1     -10.303  16.109  64.979  1.00  0.00    -0.573 OA 
HETATM    9  H   UNL     1     -11.080  13.843  69.368  1.00  0.00     0.000 HD 
HETATM   10  C   UNL     1     -11.319  13.744  67.351  1.00  0.00    -0.324 C  
HETATM   11  H   UNL     1     -11.184  13.847  65.321  1.00  0.00     0.000 HD 
HETATM   12  O   UNL     1     -12.071  12.779  67.374  1.00  0.00    -0.382 OA 
HETATM   13  N   UNL     1     -10.855  14.317  68.493  1.00  0.00    -0.245 N  
BRANCH   3  14
HETATM   14  C   UNL     1      -9.426  17.567  67.289  1.00  0.00    -0.253 A  
HETATM   15  C   UNL     1      -8.143  19.647  67.430  1.00  0.00    -0.323 A  
HETATM   16  C   UNL     1     -10.520  19.756  67.103  1.00  0.00    -0.592 A  
HETATM   17  C   UNL     1     -10.585  18.359  67.141  1.00  0.00    -0.416 A  
HETATM   18  C   UNL     1      -8.209  18.247  67.469  1.00  0.00    -0.240 A  
HETATM   19  C   UNL     1      -9.298  20.400  67.232  1.00  0.00    -0.547 A  
ENDBRANCH   3  14
ENDBRANCH   2   3
TORSDOF 2
ENDMDL
MODEL       27
REMARK 921   NORMALIZED FREE ENERGY PREDICTED BY IDOCK:   -4.88 KCAL/MOL
REMARK 922        TOTAL FREE ENERGY PREDICTED BY IDOCK:   -5.50 KCAL/MOL
REMARK 923 INTER-LIGAND FREE ENERGY PREDICTED BY IDOCK:   -5.54 KCAL/MOL
REMARK 924 INTRA-LIGAND FREE ENERGY PREDICTED BY IDOCK:    0.04 KCAL/MOL
REMARK 927      BINDING AFFINITY PREDICTED BY RF-SCORE:    0.00 PKD
ROOT
HETATM    1  C   UNL     1     -12.163  13.741  66.851  1.00  0.00    -0.408 C  
HETATM    2  C   UNL     1     -12.266  14.686  68.046  1.00  0.00    -0.089 C  
ENDROOT
BRANCH   2   3
HETATM    3  C   UNL     1     -11.391  14.381  69.312  1.00  0.00    -0.319 C  
HETATM    4  C   UNL     1     -11.168  12.863  69.386  1.00  0.00    -0.132 C  
HETATM    5  O   UNL     1      -9.876  16.309  69.353  1.00  0.00    -0.252 OA 
HETATM    6  C   UNL     1     -10.058  15.120  69.096  1.00  0.00    -0.245 C  
HETATM    7  N   UNL     1     -10.089  12.362  68.708  1.00  0.00    -0.406 N  
HETATM    8  O   UNL     1     -11.926  12.078  69.955  1.00  0.00    -0.326 OA 
HETATM    9  H   UNL     1      -8.247  14.953  68.167  1.00  0.00     0.000 HD 
HETATM   10  C   UNL     1      -8.990  13.067  68.327  1.00  0.00    -0.177 C  
HETATM   11  H   UNL     1     -10.112  11.372  68.467  1.00  0.00     0.000 HD 
HETATM   12  O   UNL     1      -7.987  12.514  67.895  1.00  0.00    -0.133 OA 
HETATM   13  N   UNL     1      -9.043  14.413  68.506  1.00  0.00    -0.192 N  
BRANCH   3  14
HETATM   14  C   UNL     1     -12.117  14.866  70.603  1.00  0.00    -0.366 A  
HETATM   15  C   UNL     1     -14.159  15.517  71.787  1.00  0.00    -0.570 A  
HETATM   16  C   UNL     1     -12.069  15.507  72.972  1.00  0.00    -0.574 A  
HETATM   17  C   UNL     1     -11.414  15.107  71.803  1.00  0.00    -0.452 A  
HETATM   18  C   UNL     1     -13.501  15.117  70.616  1.00  0.00    -0.243 A  
HETATM   19  C   UNL     1     -13.444  15.697  72.968  1.00  0.00    -0.654 A  
ENDBRANCH   3  14
ENDBRANCH   2   3
TORSDOF 2
ENDMDL
MODEL       28
REMARK 921   NORMALIZED FREE ENERGY PREDICTED BY IDOCK:   -4.85 KCAL/MOL
REMARK 922        TOTAL FREE ENERGY PREDICTED BY IDOCK:   -5.47 KCAL/MOL
REMARK 923 INTER-LIGAND FREE ENERGY PREDICTED BY IDOCK:   -5.33 KCAL/MOL
REMARK 924 INTRA-LIGAND FREE ENERGY PREDICTED BY IDOCK:   -0.13 KCAL/MOL
REMARK 927      BINDING AFFINITY PREDICTED BY RF-SCORE:    0.00 PKD
ROOT
HETATM    1  C   UNL     1     -12.533  14.424  64.984  1.00  0.00    -0.366 C  
HETATM    2  C   UNL     1     -12.395  13.041  65.615  1.00  0.00    -0.504 C  
ENDROOT
BRANCH   2   3
HETATM    3  C   UNL     1     -11.184  12.780  66.578  1.00  0.00    -0.349 C  
HETATM    4  C   UNL     1     -10.349  14.067  66.657  1.00  0.00    -0.278 C  
HETATM    5  O   UNL     1     -12.192  11.319  68.271  1.00  0.00    -0.611 OA 
HETATM    6  C   UNL     1     -11.796  12.438  67.948  1.00  0.00    -0.308 C  
HETATM    7  N   UNL     1     -10.713  14.982  67.610  1.00  0.00    -0.268 N  
HETATM    8  O   UNL     1      -9.431  14.347  65.887  1.00  0.00    -0.256 OA 
HETATM    9  H   UNL     1     -12.572  13.294  69.633  1.00  0.00     0.000 HD 
HETATM   10  C   UNL     1     -11.440  14.722  68.729  1.00  0.00    -0.301 C  
HETATM   11  H   UNL     1     -10.411  15.945  67.467  1.00  0.00     0.000 HD 
HETATM   12  O   UNL     1     -11.563  15.546  69.625  1.00  0.00    -0.300 OA 
HETATM   13  N   UNL     1     -11.975  13.475  68.825  1.00  0.00    -0.350 N  
BRANCH   3  14
HETATM   14  C   UNL     1     -10.299  11.617  66.035  1.00  0.00    -0.283 A  
HETATM   15  C   UNL     1      -8.453  10.033  66.308  1.00  0.00    -0.134 A  
HETATM   16  C   UNL     1      -9.749   9.985  64.287  1.00  0.00    -0.242 A  
HETATM   17  C   UNL     1     -10.518  11.052  64.760  1.00  0.00    -0.384 A  
HETATM   18  C   UNL     1      -9.223  11.104  66.781  1.00  0.00    -0.183 A  
HETATM   19  C   UNL     1      -8.726   9.464  65.067  1.00  0.00    -0.216 A  
ENDBRANCH   3  14
ENDBRANCH   2   3
TORSDOF 2
ENDMDL
MODEL       29
REMARK 921   NORMALIZED FREE ENERGY PREDICTED BY IDOCK:   -4.85 KCAL/MOL
REMARK 922        TOTAL FREE ENERGY PREDICTED BY IDOCK:   -5.46 KCAL/MOL
REMARK 923 INTER-LIGAND FREE ENERGY PREDICTED BY IDOCK:   -5.58 KCAL/MOL
REMARK 924 INTRA-LIGAND FREE ENERGY PREDICTED BY IDOCK:    0.12 KCAL/MOL
REMARK 927      BINDING AFFINITY PREDICTED BY RF-SCORE:    0.00 PKD
ROOT
HETATM    1  C   UNL     1      -8.642  14.355  67.086  1.00  0.00    -0.237 C  
HETATM    2  C   UNL     1      -9.285  14.955  68.334  1.00  0.00    -0.189 C  
ENDROOT
BRANCH   2   3
HETATM    3  C   UNL     1     -10.733  15.545  68.214  1.00  0.00    -0.271 C  
HETATM    4  C   UNL     1     -10.620  16.991  67.706  1.00  0.00    -0.350 C  
HETATM    5  O   UNL     1     -12.013  13.592  67.465  1.00  0.00    -0.361 OA 
HETATM    6  C   UNL     1     -11.469  14.661  67.192  1.00  0.00    -0.368 C  
HETATM    7  N   UNL     1     -10.600  17.169  66.348  1.00  0.00    -0.231 N  
HETATM    8  O   UNL     1     -10.485  17.973  68.434  1.00  0.00    -0.366 OA 
HETATM    9  H   UNL     1     -11.734  14.384  65.186  1.00  0.00     0.000 HD 
HETATM   10  C   UNL     1     -11.065  16.289  65.421  1.00  0.00    -0.087 C  
HETATM   11  H   UNL     1     -10.200  18.040  66.001  1.00  0.00     0.000 HD 
HETATM   12  O   UNL     1     -11.186  16.597  64.243  1.00  0.00    -1.098 OA 
HETATM   13  N   UNL     1     -11.442  15.067  65.884  1.00  0.00    -0.281 N  
BRANCH   3  14
HETATM   14  C   UNL     1     -11.441  15.534  69.603  1.00  0.00    -0.337 A  
HETATM   15  C   UNL     1     -13.477  15.526  70.961  1.00  0.00    -0.436 A  
HETATM   16  C   UNL     1     -11.340  15.469  72.054  1.00  0.00    -0.445 A  
HETATM   17  C   UNL     1     -10.706  15.516  70.808  1.00  0.00    -0.206 A  
HETATM   18  C   UNL     1     -12.842  15.575  69.712  1.00  0.00     0.138 A  
HETATM   19  C   UNL     1     -12.726  15.458  72.131  1.00  0.00    -0.457 A  
ENDBRANCH   3  14
ENDBRANCH   2   3
TORSDOF 2
ENDMDL
MODEL       30
REMARK 921   NORMALIZED FREE ENERGY PREDICTED BY IDOCK:   -4.83 KCAL/MOL
REMARK 922        TOTAL FREE ENERGY PREDICTED BY IDOCK:   -5.45 KCAL/MOL
REMARK 923 INTER-LIGAND FREE ENERGY PREDICTED BY IDOCK:   -5.39 KCAL/MOL
REMARK 924 INTRA-LIGAND FREE ENERGY PREDICTED BY IDOCK:   -0.06 KCAL/MOL
REMARK 927      BINDING AFFINITY PREDICTED BY RF-SCORE:    0.00 PKD
ROOT
HETATM    1  C   UNL     1     -11.170  15.299  70.196  1.00  0.00    -0.313 C  
HETATM    2  C   UNL     1     -11.402  16.079  68.904  1.00  0.00    -0.370 C  
ENDROOT
BRANCH   2   3
HETATM    3  C   UNL     1     -10.328  15.970  67.767  1.00  0.00    -0.279 C  
HETATM    4  C   UNL     1     -10.112  17.372  67.176  1.00  0.00    -0.307 C  
HETATM    5  O   UNL     1      -8.808  14.270  68.670  1.00  0.00    -0.183 OA 
HETATM    6  C   UNL     1      -9.044  15.456  68.442  1.00  0.00    -0.191 C  
HETATM    7  N   UNL     1      -9.169  18.159  67.783  1.00  0.00    -0.260 N  
HETATM    8  O   UNL     1     -10.769  17.843  66.249  1.00  0.00    -0.276 OA 
HETATM    9  H   UNL     1      -7.419  16.076  69.513  1.00  0.00     0.000 HD 
HETATM   10  C   UNL     1      -8.143  17.720  68.560  1.00  0.00    -0.297 C  
HETATM   11  H   UNL     1      -9.242  19.166  67.638  1.00  0.00     0.000 HD 
HETATM   12  O   UNL     1      -7.234  18.462  68.909  1.00  0.00    -0.281 OA 
HETATM   13  N   UNL     1      -8.152  16.399  68.881  1.00  0.00    -0.228 N  
BRANCH   3  14
HETATM   14  C   UNL     1     -10.818  15.002  66.647  1.00  0.00    -0.318 A  
HETATM   15  C   UNL     1     -10.436  13.792  64.554  1.00  0.00    -0.378 A  
HETATM   16  C   UNL     1     -12.533  13.528  65.694  1.00  0.00    -0.528 A  
HETATM   17  C   UNL     1     -12.106  14.425  66.679  1.00  0.00    -0.392 A  
HETATM   18  C   UNL     1     -10.009  14.691  65.540  1.00  0.00    -0.384 A  
HETATM   19  C   UNL     1     -11.693  13.199  64.640  1.00  0.00    -0.404 A  
ENDBRANCH   3  14
ENDBRANCH   2   3
TORSDOF 2
ENDMDL
MODEL       31
REMARK 921   NORMALIZED FREE ENERGY PREDICTED BY IDOCK:   -4.82 KCAL/MOL
REMARK 922        TOTAL FREE ENERGY PREDICTED BY IDOCK:   -5.43 KCAL/MOL
REMARK 923 INTER-LIGAND FREE ENERGY PREDICTED BY IDOCK:   -5.73 KCAL/MOL
REMARK 924 INTRA-LIGAND FREE ENERGY PREDICTED BY IDOCK:    0.30 KCAL/MOL
REMARK 927      BINDING AFFINITY PREDICTED BY RF-SCORE:    0.00 PKD
ROOT
HETATM    1  C   UNL     1     -10.109  19.553  66.406  1.00  0.00    -0.551 C  
HETATM    2  C   UNL     1     -10.827  18.538  67.291  1.00  0.00    -0.330 C  
ENDROOT
BRANCH   2   3
HETATM    3  C   UNL     1     -10.020  17.292  67.799  1.00  0.00    -0.301 C  
HETATM    4  C   UNL     1     -10.888  16.544  68.823  1.00  0.00    -0.342 C  
HETATM    5  O   UNL     1      -8.835  16.597  65.767  1.00  0.00    -0.493 OA 
HETATM    6  C   UNL     1      -9.760  16.419  66.558  1.00  0.00    -0.269 C  
HETATM    7  N   UNL     1     -11.745  15.596  68.330  1.00  0.00    -0.394 N  
HETATM    8  O   UNL     1     -10.903  16.787  70.028  1.00  0.00    -0.282 OA 
HETATM    9  H   UNL     1     -10.624  15.004  65.366  1.00  0.00     0.000 HD 
HETATM   10  C   UNL     1     -11.634  14.966  67.130  1.00  0.00    -0.315 C  
HETATM   11  H   UNL     1     -12.539  15.340  68.916  1.00  0.00     0.000 HD 
HETATM   12  O   UNL     1     -12.327  13.999  66.842  1.00  0.00    -0.418 OA 
HETATM   13  N   UNL     1     -10.672  15.433  66.290  1.00  0.00    -0.309 N  
BRANCH   3  14
HETATM   14  C   UNL     1      -8.690  17.745  68.475  1.00  0.00    -0.284 A  
HETATM   15  C   UNL     1      -6.500  17.226  69.436  1.00  0.00    -0.235 A  
HETATM   16  C   UNL     1      -7.219  19.515  69.328  1.00  0.00    -0.346 A  
HETATM   17  C   UNL     1      -8.427  19.103  68.755  1.00  0.00    -0.376 A  
HETATM   18  C   UNL     1      -7.711  16.814  68.864  1.00  0.00    -0.242 A  
HETATM   19  C   UNL     1      -6.248  18.578  69.654  1.00  0.00    -0.244 A  
ENDBRANCH   3  14
ENDBRANCH   2   3
TORSDOF 2
ENDMDL
MODEL       32
REMARK 921   NORMALIZED FREE ENERGY PREDICTED BY IDOCK:   -4.79 KCAL/MOL
REMARK 922        TOTAL FREE ENERGY PREDICTED BY IDOCK:   -5.40 KCAL/MOL
REMARK 923 INTER-LIGAND FREE ENERGY PREDICTED BY IDOCK:   -5.38 KCAL/MOL
REMARK 924 INTRA-LIGAND FREE ENERGY PREDICTED BY IDOCK:   -0.02 KCAL/MOL
REMARK 927      BINDING AFFINITY PREDICTED BY RF-SCORE:    0.00 PKD
ROOT
HETATM    1  C   UNL     1      -8.612  11.126  68.505  1.00  0.00    -0.157 C  
HETATM    2  C   UNL     1      -8.789  11.617  67.071  1.00  0.00    -0.177 C  
ENDROOT
BRANCH   2   3
HETATM    3  C   UNL     1     -10.077  11.180  66.289  1.00  0.00    -0.277 C  
HETATM    4  C   UNL     1      -9.676  10.105  65.268  1.00  0.00    -0.300 C  
HETATM    5  O   UNL     1     -11.790  11.284  68.042  1.00  0.00    -0.578 OA 
HETATM    6  C   UNL     1     -11.039  10.605  67.343  1.00  0.00    -0.272 C  
HETATM    7  N   UNL     1      -9.685   8.806  65.704  1.00  0.00    -0.455 N  
HETATM    8  O   UNL     1      -9.293  10.344  64.124  1.00  0.00    -0.228 OA 
HETATM    9  H   UNL     1     -11.459   8.904  68.394  1.00  0.00     0.000 HD 
HETATM   10  C   UNL     1     -10.377   8.328  66.772  1.00  0.00    -0.290 C  
HETATM   11  H   UNL     1      -9.121   8.138  65.179  1.00  0.00     0.000 HD 
HETATM   12  O   UNL     1     -10.486   7.127  66.984  1.00  0.00    -0.268 OA 
HETATM   13  N   UNL     1     -10.989   9.252  67.558  1.00  0.00    -0.106 N  
BRANCH   3  14
HETATM   14  C   UNL     1     -10.700  12.401  65.545  1.00  0.00    -0.315 A  
HETATM   15  C   UNL     1     -12.386  13.354  64.047  1.00  0.00    -0.402 A  
HETATM   16  C   UNL     1     -10.743  14.801  65.035  1.00  0.00    -0.452 A  
HETATM   17  C   UNL     1     -10.163  13.700  65.673  1.00  0.00    -0.316 A  
HETATM   18  C   UNL     1     -11.804  12.251  64.686  1.00  0.00    -0.435 A  
HETATM   19  C   UNL     1     -11.864  14.631  64.234  1.00  0.00    -0.355 A  
ENDBRANCH   3  14
ENDBRANCH   2   3
TORSDOF 2
ENDMDL
MODEL       33
REMARK 921   NORMALIZED FREE ENERGY PREDICTED BY IDOCK:   -4.79 KCAL/MOL
REMARK 922        TOTAL FREE ENERGY PREDICTED BY IDOCK:   -5.40 KCAL/MOL
REMARK 923 INTER-LIGAND FREE ENERGY PREDICTED BY IDOCK:   -5.30 KCAL/MOL
REMARK 924 INTRA-LIGAND FREE ENERGY PREDICTED BY IDOCK:   -0.10 KCAL/MOL
REMARK 927      BINDING AFFINITY PREDICTED BY RF-SCORE:    0.00 PKD
ROOT
HETATM    1  C   UNL     1     -11.920  14.934  69.681  1.00  0.00    -0.360 C  
HETATM    2  C   UNL     1     -11.720  15.796  68.437  1.00  0.00    -0.279 C  
ENDROOT
BRANCH   2   3
HETATM    3  C   UNL     1     -10.312  15.789  67.746  1.00  0.00    -0.275 C  
HETATM    4  C   UNL     1      -9.296  15.195  68.733  1.00  0.00    -0.200 C  
HETATM    5  O   UNL     1     -10.897  15.277  65.419  1.00  0.00    -0.341 OA 
HETATM    6  C   UNL     1     -10.455  14.894  66.501  1.00  0.00    -0.297 C  
HETATM    7  N   UNL     1      -9.142  13.834  68.718  1.00  0.00    -0.386 N  
HETATM    8  O   UNL     1      -8.673  15.853  69.566  1.00  0.00    -0.241 OA 
HETATM    9  H   UNL     1     -10.433  12.942  65.901  1.00  0.00     0.000 HD 
HETATM   10  C   UNL     1      -9.464  13.007  67.688  1.00  0.00    -0.201 C  
HETATM   11  H   UNL     1      -8.750  13.403  69.554  1.00  0.00     0.000 HD 
HETATM   12  O   UNL     1      -9.123  11.831  67.674  1.00  0.00    -0.167 OA 
HETATM   13  N   UNL     1     -10.136  13.570  66.648  1.00  0.00    -0.270 N  
BRANCH   3  14
HETATM   14  C   UNL     1      -9.886  17.240  67.367  1.00  0.00    -0.272 A  
HETATM   15  C   UNL     1      -8.283  18.804  66.378  1.00  0.00    -0.299 A  
HETATM   16  C   UNL     1     -10.341  19.650  67.284  1.00  0.00    -0.577 A  
HETATM   17  C   UNL     1     -10.705  18.352  67.656  1.00  0.00    -0.390 A  
HETATM   18  C   UNL     1      -8.649  17.504  66.752  1.00  0.00    -0.276 A  
HETATM   19  C   UNL     1      -9.137  19.875  66.631  1.00  0.00    -0.466 A  
ENDBRANCH   3  14
ENDBRANCH   2   3
TORSDOF 2
ENDMDL
MODEL       34
REMARK 921   NORMALIZED FREE ENERGY PREDICTED BY IDOCK:   -4.77 KCAL/MOL
REMARK 922        TOTAL FREE ENERGY PREDICTED BY IDOCK:   -5.37 KCAL/MOL
REMARK 923 INTER-LIGAND FREE ENERGY PREDICTED BY IDOCK:   -5.34 KCAL/MOL
REMARK 924 INTRA-LIGAND FREE ENERGY PREDICTED BY IDOCK:   -0.03 KCAL/MOL
REMARK 927      BINDING AFFINITY PREDICTED BY RF-SCORE:    0.00 PKD
ROOT
HETATM    1  C   UNL     1     -11.820  14.084  69.420  1.00  0.00    -0.381 C  
HETATM    2  C   UNL     1     -11.775  15.011  68.208  1.00  0.00    -0.338 C  
ENDROOT
BRANCH   2   3
HETATM    3  C   UNL     1     -10.617  14.819  67.168  1.00  0.00    -0.285 C  
HETATM    4  C   UNL     1     -10.222  16.203  66.630  1.00  0.00    -0.287 C  
HETATM    5  O   UNL     1      -9.347  12.973  68.164  1.00  0.00    -0.209 OA 
HETATM    6  C   UNL     1      -9.452  14.178  67.942  1.00  0.00    -0.211 C  
HETATM    7  N   UNL     1      -9.270  16.890  67.334  1.00  0.00    -0.221 N  
HETATM    8  O   UNL     1     -10.748  16.745  65.660  1.00  0.00    -0.325 OA 
HETATM    9  H   UNL     1      -7.880  14.629  69.166  1.00  0.00     0.000 HD 
HETATM   10  C   UNL     1      -8.362  16.347  68.190  1.00  0.00    -0.186 C  
HETATM   11  H   UNL     1      -9.238  17.901  67.206  1.00  0.00     0.000 HD 
HETATM   12  O   UNL     1      -7.425  16.996  68.634  1.00  0.00    -0.207 OA 
HETATM   13  N   UNL     1      -8.520  15.027  68.479  1.00  0.00    -0.156 N  
BRANCH   3  14
HETATM   14  C   UNL     1     -11.092  13.917  65.988  1.00  0.00    -0.289 A  
HETATM   15  C   UNL     1     -12.881  12.846  64.706  1.00  0.00    -0.359 A  
HETATM   16  C   UNL     1     -10.602  12.546  64.012  1.00  0.00    -0.451 A  
HETATM   17  C   UNL     1     -10.175  13.325  65.092  1.00  0.00    -0.301 A  
HETATM   18  C   UNL     1     -12.453  13.627  65.789  1.00  0.00    -0.524 A  
HETATM   19  C   UNL     1     -11.956  12.319  63.810  1.00  0.00    -0.609 A  
ENDBRANCH   3  14
ENDBRANCH   2   3
TORSDOF 2
ENDMDL
MODEL       35
REMARK 921   NORMALIZED FREE ENERGY PREDICTED BY IDOCK:   -4.76 KCAL/MOL
REMARK 922        TOTAL FREE ENERGY PREDICTED BY IDOCK:   -5.37 KCAL/MOL
REMARK 923 INTER-LIGAND FREE ENERGY PREDICTED BY IDOCK:   -5.26 KCAL/MOL
REMARK 924 INTRA-LIGAND FREE ENERGY PREDICTED BY IDOCK:   -0.11 KCAL/MOL
REMARK 927      BINDING AFFINITY PREDICTED BY RF-SCORE:    0.00 PKD
ROOT
HETATM    1  C   UNL     1      -9.674  13.964  66.484  1.00  0.00    -0.303 C  
HETATM    2  C   UNL     1      -9.194  12.544  66.192  1.00  0.00    -0.077 C  
ENDROOT
BRANCH   2   3
HETATM    3  C   UNL     1     -10.265  11.403  66.097  1.00  0.00    -0.282 C  
HETATM    4  C   UNL     1     -11.645  12.014  66.384  1.00  0.00    -0.313 C  
HETATM    5  O   UNL     1      -9.379  10.033  64.266  1.00  0.00    -0.261 OA 
HETATM    6  C   UNL     1     -10.192  10.870  64.655  1.00  0.00    -0.345 C  
HETATM    7  N   UNL     1     -12.325  12.534  65.315  1.00  0.00    -0.463 N  
HETATM    8  O   UNL     1     -12.135  12.121  67.507  1.00  0.00    -0.534 OA 
HETATM    9  H   UNL     1     -10.848  11.242  62.757  1.00  0.00     0.000 HD 
HETATM   10  C   UNL     1     -12.119  12.218  64.009  1.00  0.00    -0.471 C  
HETATM   11  H   UNL     1     -13.052  13.219  65.517  1.00  0.00     0.000 HD 
HETATM   12  O   UNL     1     -12.890  12.577  63.128  1.00  0.00    -0.599 OA 
HETATM   13  N   UNL     1     -11.043  11.432  63.740  1.00  0.00    -0.383 N  
BRANCH   3  14
HETATM   14  C   UNL     1      -9.962  10.285  67.141  1.00  0.00    -0.243 A  
HETATM   15  C   UNL     1     -10.313   8.023  68.009  1.00  0.00    -0.262 A  
HETATM   16  C   UNL     1      -8.747   9.472  69.113  1.00  0.00    -0.146 A  
HETATM   17  C   UNL     1      -9.047  10.486  68.197  1.00  0.00    -0.141 A  
HETATM   18  C   UNL     1     -10.614   9.040  67.092  1.00  0.00    -0.291 A  
HETATM   19  C   UNL     1      -9.368   8.235  69.010  1.00  0.00    -0.147 A  
ENDBRANCH   3  14
ENDBRANCH   2   3
TORSDOF 2
ENDMDL
MODEL       36
REMARK 921   NORMALIZED FREE ENERGY PREDICTED BY IDOCK:   -4.76 KCAL/MOL
REMARK 922        TOTAL FREE ENERGY PREDICTED BY IDOCK:   -5.37 KCAL/MOL
REMARK 923 INTER-LIGAND FREE ENERGY PREDICTED BY IDOCK:   -5.32 KCAL/MOL
REMARK 924 INTRA-LIGAND FREE ENERGY PREDICTED BY IDOCK:   -0.05 KCAL/MOL
REMARK 927      BINDING AFFINITY PREDICTED BY RF-SCORE:    0.00 PKD
ROOT
HETATM    1  C   UNL     1     -12.017  13.662  69.792  1.00  0.00    -0.404 C  
HETATM    2  C   UNL     1     -10.811  13.679  68.857  1.00  0.00    -0.264 C  
ENDROOT
BRANCH   2   3
HETATM    3  C   UNL     1     -10.583  12.445  67.915  1.00  0.00    -0.231 C  
HETATM    4  C   UNL     1      -9.072  12.182  67.827  1.00  0.00    -0.189 C  
HETATM    5  O   UNL     1     -12.511  11.030  68.464  1.00  0.00    -0.440 OA 
HETATM    6  C   UNL     1     -11.308  11.262  68.582  1.00  0.00    -0.273 C  
HETATM    7  N   UNL     1      -8.532  11.361  68.781  1.00  0.00    -0.298 N  
HETATM    8  O   UNL     1      -8.324  12.707  67.005  1.00  0.00    -0.178 OA 
HETATM    9  H   UNL     1     -11.085   9.831  70.022  1.00  0.00     0.000 HD 
HETATM   10  C   UNL     1      -9.212  10.450  69.528  1.00  0.00    -0.120 C  
HETATM   11  H   UNL     1      -7.529  11.439  68.946  1.00  0.00     0.000 HD 
HETATM   12  O   UNL     1      -8.634   9.623  70.221  1.00  0.00    -0.203 OA 
HETATM   13  N   UNL     1     -10.567  10.470  69.419  1.00  0.00    -0.226 N  
BRANCH   3  14
HETATM   14  C   UNL     1     -11.146  12.738  66.491  1.00  0.00    -0.321 A  
HETATM   15  C   UNL     1     -12.234  14.240  64.894  1.00  0.00    -0.449 A  
HETATM   16  C   UNL     1     -11.562  12.050  64.172  1.00  0.00    -0.460 A  
HETATM   17  C   UNL     1     -11.091  11.775  65.460  1.00  0.00    -0.336 A  
HETATM   18  C   UNL     1     -11.763  13.964  66.184  1.00  0.00    -0.393 A  
HETATM   19  C   UNL     1     -12.119  13.288  63.884  1.00  0.00    -0.531 A  
ENDBRANCH   3  14
ENDBRANCH   2   3
TORSDOF 2
ENDMDL
MODEL       37
REMARK 921   NORMALIZED FREE ENERGY PREDICTED BY IDOCK:   -4.70 KCAL/MOL
REMARK 922        TOTAL FREE ENERGY PREDICTED BY IDOCK:   -5.30 KCAL/MOL
REMARK 923 INTER-LIGAND FREE ENERGY PREDICTED BY IDOCK:   -5.20 KCAL/MOL
REMARK 924 INTRA-LIGAND FREE ENERGY PREDICTED BY IDOCK:   -0.10 KCAL/MOL
REMARK 927      BINDING AFFINITY PREDICTED BY RF-SCORE:    0.00 PKD
ROOT
HETATM    1  C   UNL     1     -10.193   6.625  74.154  1.00  0.00    -0.390 C  
HETATM    2  C   UNL     1     -10.912   6.475  72.815  1.00  0.00    -0.286 C  
ENDROOT
BRANCH   2   3
HETATM    3  C   UNL     1     -10.412   7.335  71.602  1.00  0.00    -0.218 C  
HETATM    4  C   UNL     1      -8.951   7.732  71.866  1.00  0.00    -0.128 C  
HETATM    5  O   UNL     1     -11.551   6.255  69.717  1.00  0.00    -0.436 OA 
HETATM    6  C   UNL     1     -10.519   6.426  70.365  1.00  0.00    -0.218 C  
HETATM    7  N   UNL     1      -7.987   6.854  71.445  1.00  0.00    -0.107 N  
HETATM    8  O   UNL     1      -8.607   8.741  72.478  1.00  0.00    -0.403 OA 
HETATM    9  H   UNL     1      -9.533   4.954  69.348  1.00  0.00     0.000 HD 
HETATM   10  C   UNL     1      -8.140   5.900  70.488  1.00  0.00    -0.111 C  
HETATM   11  H   UNL     1      -7.073   6.923  71.890  1.00  0.00     0.000 HD 
HETATM   12  O   UNL     1      -7.185   5.284  70.033  1.00  0.00    -0.059 OA 
HETATM   13  N   UNL     1      -9.403   5.709  70.022  1.00  0.00    -0.146 N  
BRANCH   3  14
HETATM   14  C   UNL     1     -11.283   8.620  71.452  1.00  0.00    -0.345 A  
HETATM   15  C   UNL     1     -11.711  10.799  70.424  1.00  0.00    -0.445 A  
HETATM   16  C   UNL     1     -13.265   9.941  72.041  1.00  0.00    -0.555 A  
HETATM   17  C   UNL     1     -12.464   8.806  72.202  1.00  0.00    -0.460 A  
HETATM   18  C   UNL     1     -10.908   9.662  70.586  1.00  0.00    -0.386 A  
HETATM   19  C   UNL     1     -12.897  10.931  71.141  1.00  0.00    -0.508 A  
ENDBRANCH   3  14
ENDBRANCH   2   3
TORSDOF 2
ENDMDL
MODEL       38
REMARK 921   NORMALIZED FREE ENERGY PREDICTED BY IDOCK:   -4.70 KCAL/MOL
REMARK 922        TOTAL FREE ENERGY PREDICTED BY IDOCK:   -5.30 KCAL/MOL
REMARK 923 INTER-LIGAND FREE ENERGY PREDICTED BY IDOCK:   -5.30 KCAL/MOL
REMARK 924 INTRA-LIGAND FREE ENERGY PREDICTED BY IDOCK:    0.01 KCAL/MOL
REMARK 927      BINDING AFFINITY PREDICTED BY RF-SCORE:    0.00 PKD
ROOT
HETATM    1  C   UNL     1     -13.200   9.570  71.977  1.00  0.00    -0.539 C  
HETATM    2  C   UNL     1     -11.832   9.855  71.364  1.00  0.00    -0.476 C  
ENDROOT
BRANCH   2   3
HETATM    3  C   UNL     1     -10.930   8.638  70.958  1.00  0.00    -0.314 C  
HETATM    4  C   UNL     1      -9.627   8.716  71.767  1.00  0.00    -0.290 C  
HETATM    5  O   UNL     1     -12.596   6.870  70.614  1.00  0.00    -0.278 OA 
HETATM    6  C   UNL     1     -11.730   7.375  71.327  1.00  0.00    -0.289 C  
HETATM    7  N   UNL     1      -9.625   8.112  72.996  1.00  0.00    -0.278 N  
HETATM    8  O   UNL     1      -8.625   9.334  71.409  1.00  0.00    -0.326 OA 
HETATM    9  H   UNL     1     -12.177   6.143  72.893  1.00  0.00     0.000 HD 
HETATM   10  C   UNL     1     -10.474   7.130  73.403  1.00  0.00    -0.368 C  
HETATM   11  H   UNL     1      -8.925   8.427  73.666  1.00  0.00     0.000 HD 
HETATM   12  O   UNL     1     -10.291   6.509  74.442  1.00  0.00    -0.346 OA 
HETATM   13  N   UNL     1     -11.504   6.836  72.566  1.00  0.00    -0.257 N  
BRANCH   3  14
HETATM   14  C   UNL     1     -10.603   8.689  69.434  1.00  0.00    -0.207 A  
HETATM   15  C   UNL     1      -9.809   7.612  67.385  1.00  0.00    -0.226 A  
HETATM   16  C   UNL     1     -10.539   9.898  67.300  1.00  0.00    -0.316 A  
HETATM   17  C   UNL     1     -10.797   9.862  68.674  1.00  0.00    -0.244 A  
HETATM   18  C   UNL     1     -10.067   7.576  68.762  1.00  0.00    -0.191 A  
HETATM   19  C   UNL     1     -10.059   8.769  66.651  1.00  0.00    -0.358 A  
ENDBRANCH   3  14
ENDBRANCH   2   3
TORSDOF 2
ENDMDL
MODEL       39
REMARK 921   NORMALIZED FREE ENERGY PREDICTED BY IDOCK:   -4.70 KCAL/MOL
REMARK 922        TOTAL FREE ENERGY PREDICTED BY IDOCK:   -5.29 KCAL/MOL
REMARK 923 INTER-LIGAND FREE ENERGY PREDICTED BY IDOCK:   -5.30 KCAL/MOL
REMARK 924 INTRA-LIGAND FREE ENERGY PREDICTED BY IDOCK:    0.01 KCAL/MOL
REMARK 927      BINDING AFFINITY PREDICTED BY RF-SCORE:    0.00 PKD
ROOT
HETATM    1  C   UNL     1     -12.660  11.952  63.349  1.00  0.00    -0.555 C  
HETATM    2  C   UNL     1     -12.645  12.407  64.806  1.00  0.00    -0.419 C  
ENDROOT
BRANCH   2   3
HETATM    3  C   UNL     1     -11.258  12.558  65.524  1.00  0.00    -0.349 C  
HETATM    4  C   UNL     1     -11.406  12.052  66.966  1.00  0.00    -0.336 C  
HETATM    5  O   UNL     1      -9.693  12.038  63.708  1.00  0.00    -0.260 OA 
HETATM    6  C   UNL     1     -10.272  11.680  64.733  1.00  0.00    -0.275 C  
HETATM    7  N   UNL     1     -11.197  10.715  67.176  1.00  0.00    -0.197 N  
HETATM    8  O   UNL     1     -11.759  12.752  67.914  1.00  0.00    -0.327 OA 
HETATM    9  H   UNL     1      -9.625   9.753  64.530  1.00  0.00     0.000 HD 
HETATM   10  C   UNL     1     -10.495   9.880  66.364  1.00  0.00    -0.127 C  
HETATM   11  H   UNL     1     -11.605  10.308  68.018  1.00  0.00     0.000 HD 
HETATM   12  O   UNL     1     -10.191   8.746  66.711  1.00  0.00    -0.266 OA 
HETATM   13  N   UNL     1     -10.099  10.392  65.168  1.00  0.00    -0.316 N  
BRANCH   3  14
HETATM   14  C   UNL     1     -10.815  14.053  65.538  1.00  0.00    -0.311 A  
HETATM   15  C   UNL     1     -11.151  16.385  64.874  1.00  0.00    -0.249 A  
HETATM   16  C   UNL     1      -9.285  15.824  66.278  1.00  0.00    -0.368 A  
HETATM   17  C   UNL     1      -9.663  14.478  66.234  1.00  0.00    -0.330 A  
HETATM   18  C   UNL     1     -11.528  15.036  64.829  1.00  0.00    -0.403 A  
HETATM   19  C   UNL     1     -10.037  16.780  65.611  1.00  0.00    -0.214 A  
ENDBRANCH   3  14
ENDBRANCH   2   3
TORSDOF 2
ENDMDL
MODEL       40
REMARK 921   NORMALIZED FREE ENERGY PREDICTED BY IDOCK:   -4.70 KCAL/MOL
REMARK 922        TOTAL FREE ENERGY PREDICTED BY IDOCK:   -5.29 KCAL/MOL
REMARK 923 INTER-LIGAND FREE ENERGY PREDICTED BY IDOCK:   -5.49 KCAL/MOL
REMARK 924 INTRA-LIGAND FREE ENERGY PREDICTED BY IDOCK:    0.20 KCAL/MOL
REMARK 927      BINDING AFFINITY PREDICTED BY RF-SCORE:    0.00 PKD
ROOT
HETATM    1  C   UNL     1      -8.578  11.261  68.092  1.00  0.00    -0.150 C  
HETATM    2  C   UNL     1      -9.434  12.455  68.506  1.00  0.00    -0.101 C  
ENDROOT
BRANCH   2   3
HETATM    3  C   UNL     1     -10.973  12.404  68.208  1.00  0.00    -0.269 C  
HETATM    4  C   UNL     1     -11.433  10.942  68.306  1.00  0.00    -0.305 C  
HETATM    5  O   UNL     1     -11.754  14.489  69.237  1.00  0.00    -0.275 OA 
HETATM    6  C   UNL     1     -11.645  13.265  69.292  1.00  0.00    -0.314 C  
HETATM    7  N   UNL     1     -11.814  10.497  69.544  1.00  0.00    -0.445 N  
HETATM    8  O   UNL     1     -11.418  10.146  67.369  1.00  0.00    -0.212 OA 
HETATM    9  H   UNL     1     -12.317  13.205  71.220  1.00  0.00     0.000 HD 
HETATM   10  C   UNL     1     -12.213  11.276  70.585  1.00  0.00    -0.393 C  
HETATM   11  H   UNL     1     -11.796   9.489  69.700  1.00  0.00     0.000 HD 
HETATM   12  O   UNL     1     -12.718  10.798  71.592  1.00  0.00    -0.411 OA 
HETATM   13  N   UNL     1     -12.075  12.619  70.421  1.00  0.00    -0.352 N  
BRANCH   3  14
HETATM   14  C   UNL     1     -11.266  12.948  66.776  1.00  0.00    -0.337 A  
HETATM   15  C   UNL     1     -10.573  13.353  64.463  1.00  0.00    -0.441 A  
HETATM   16  C   UNL     1     -12.780  13.999  65.155  1.00  0.00    -0.419 A  
HETATM   17  C   UNL     1     -12.503  13.544  66.448  1.00  0.00    -0.349 A  
HETATM   18  C   UNL     1     -10.295  12.898  65.760  1.00  0.00    -0.297 A  
HETATM   19  C   UNL     1     -11.821  13.889  64.158  1.00  0.00    -0.417 A  
ENDBRANCH   3  14
ENDBRANCH   2   3
TORSDOF 2
ENDMDL
MODEL       41
REMARK 921   NORMALIZED FREE ENERGY PREDICTED BY IDOCK:   -4.67 KCAL/MOL
REMARK 922        TOTAL FREE ENERGY PREDICTED BY IDOCK:   -5.27 KCAL/MOL
REMARK 923 INTER-LIGAND FREE ENERGY PREDICTED BY IDOCK:   -5.48 KCAL/MOL
REMARK 924 INTRA-LIGAND FREE ENERGY PREDICTED BY IDOCK:    0.21 KCAL/MOL
REMARK 927      BINDING AFFINITY PREDICTED BY RF-SCORE:    0.00 PKD
ROOT
HETATM    1  C   UNL     1      -8.568  15.561  66.598  1.00  0.00    -0.325 C  
HETATM    2  C   UNL     1      -9.807  14.953  65.948  1.00  0.00    -0.362 C  
ENDROOT
BRANCH   2   3
HETATM    3  C   UNL     1     -10.351  13.593  66.510  1.00  0.00    -0.282 C  
HETATM    4  C   UNL     1      -9.593  13.274  67.808  1.00  0.00    -0.214 C  
HETATM    5  O   UNL     1     -12.732  13.728  65.938  1.00  0.00    -0.467 OA 
HETATM    6  C   UNL     1     -11.848  13.816  66.789  1.00  0.00    -0.420 C  
HETATM    7  N   UNL     1     -10.113  13.786  68.967  1.00  0.00    -0.432 N  
HETATM    8  O   UNL     1      -8.533  12.653  67.857  1.00  0.00    -0.152 OA 
HETATM    9  H   UNL     1     -13.140  14.569  68.180  1.00  0.00     0.000 HD 
HETATM   10  C   UNL     1     -11.399  14.184  69.158  1.00  0.00    -0.279 C  
HETATM   11  H   UNL     1      -9.477  13.876  69.759  1.00  0.00     0.000 HD 
HETATM   12  O   UNL     1     -11.834  14.450  70.271  1.00  0.00    -0.281 OA 
HETATM   13  N   UNL     1     -12.192  14.214  68.054  1.00  0.00    -0.246 N  
BRANCH   3  14
HETATM   14  C   UNL     1     -10.121  12.448  65.476  1.00  0.00    -0.287 A  
HETATM   15  C   UNL     1      -9.829  11.682  63.170  1.00  0.00    -0.407 A  
HETATM   16  C   UNL     1      -9.742  10.080  64.957  1.00  0.00    -0.386 A  
HETATM   17  C   UNL     1      -9.984  11.103  65.879  1.00  0.00    -0.285 A  
HETATM   18  C   UNL     1     -10.074  12.706  64.095  1.00  0.00    -0.293 A  
HETATM   19  C   UNL     1      -9.648  10.371  63.603  1.00  0.00    -0.364 A  
ENDBRANCH   3  14
ENDBRANCH   2   3
TORSDOF 2
ENDMDL
MODEL       42
REMARK 921   NORMALIZED FREE ENERGY PREDICTED BY IDOCK:   -4.65 KCAL/MOL
REMARK 922        TOTAL FREE ENERGY PREDICTED BY IDOCK:   -5.25 KCAL/MOL
REMARK 923 INTER-LIGAND FREE ENERGY PREDICTED BY IDOCK:   -5.27 KCAL/MOL
REMARK 924 INTRA-LIGAND FREE ENERGY PREDICTED BY IDOCK:    0.03 KCAL/MOL
REMARK 927      BINDING AFFINITY PREDICTED BY RF-SCORE:    0.00 PKD
ROOT
HETATM    1  C   UNL     1      -9.208   7.854  73.409  1.00  0.00    -0.351 C  
HETATM    2  C   UNL     1     -10.705   7.705  73.150  1.00  0.00    -0.445 C  
ENDROOT
BRANCH   2   3
HETATM    3  C   UNL     1     -11.225   7.866  71.679  1.00  0.00    -0.292 C  
HETATM    4  C   UNL     1     -12.756   7.973  71.721  1.00  0.00    -0.329 C  
HETATM    5  O   UNL     1      -9.466   9.249  70.673  1.00  0.00    -0.235 OA 
HETATM    6  C   UNL     1     -10.598   9.167  71.147  1.00  0.00    -0.309 C  
HETATM    7  N   UNL     1     -13.284   9.226  71.882  1.00  0.00    -0.391 N  
HETATM    8  O   UNL     1     -13.520   7.009  71.683  1.00  0.00    -0.365 OA 
HETATM    9  H   UNL     1     -10.841  11.195  71.141  1.00  0.00     0.000 HD 
HETATM   10  C   UNL     1     -12.653  10.399  71.607  1.00  0.00    -0.417 C  
HETATM   11  H   UNL     1     -14.237   9.285  72.240  1.00  0.00     0.000 HD 
HETATM   12  O   UNL     1     -13.251  11.467  71.595  1.00  0.00    -0.419 OA 
HETATM   13  N   UNL     1     -11.334  10.315  71.289  1.00  0.00    -0.188 N  
BRANCH   3  14
HETATM   14  C   UNL     1     -10.810   6.633  70.819  1.00  0.00    -0.299 A  
HETATM   15  C   UNL     1     -10.448   5.573  68.643  1.00  0.00    -0.240 A  
HETATM   16  C   UNL     1      -9.998   4.323  70.644  1.00  0.00    -0.218 A  
HETATM   17  C   UNL     1     -10.405   5.418  71.413  1.00  0.00    -0.294 A  
HETATM   18  C   UNL     1     -10.856   6.670  69.415  1.00  0.00    -0.340 A  
HETATM   19  C   UNL     1     -10.005   4.406  69.259  1.00  0.00    -0.144 A  
ENDBRANCH   3  14
ENDBRANCH   2   3
TORSDOF 2
ENDMDL
MODEL       43
REMARK 921   NORMALIZED FREE ENERGY PREDICTED BY IDOCK:   -4.64 KCAL/MOL
REMARK 922        TOTAL FREE ENERGY PREDICTED BY IDOCK:   -5.23 KCAL/MOL
REMARK 923 INTER-LIGAND FREE ENERGY PREDICTED BY IDOCK:   -5.24 KCAL/MOL
REMARK 924 INTRA-LIGAND FREE ENERGY PREDICTED BY IDOCK:    0.00 KCAL/MOL
REMARK 927      BINDING AFFINITY PREDICTED BY RF-SCORE:    0.00 PKD
ROOT
HETATM    1  C   UNL     1     -11.997  14.042  69.780  1.00  0.00    -0.393 C  
HETATM    2  C   UNL     1     -11.857  14.801  68.462  1.00  0.00    -0.340 C  
ENDROOT
BRANCH   2   3
HETATM    3  C   UNL     1     -10.852  14.251  67.391  1.00  0.00    -0.288 C  
HETATM    4  C   UNL     1     -11.045  12.731  67.288  1.00  0.00    -0.276 C  
HETATM    5  O   UNL     1     -10.837  16.063  65.739  1.00  0.00    -0.305 OA 
HETATM    6  C   UNL     1     -11.222  14.942  66.067  1.00  0.00    -0.327 C  
HETATM    7  N   UNL     1     -11.992  12.287  66.404  1.00  0.00    -0.308 N  
HETATM    8  O   UNL     1     -10.455  11.908  67.987  1.00  0.00    -0.196 OA 
HETATM    9  H   UNL     1     -12.510  14.827  64.486  1.00  0.00     0.000 HD 
HETATM   10  C   UNL     1     -12.480  12.982  65.341  1.00  0.00    -0.476 C  
HETATM   11  H   UNL     1     -12.365  11.350  66.555  1.00  0.00     0.000 HD 
HETATM   12  O   UNL     1     -13.181  12.452  64.489  1.00  0.00    -0.834 OA 
HETATM   13  N   UNL     1     -12.100  14.284  65.246  1.00  0.00    -0.388 N  
BRANCH   3  14
HETATM   14  C   UNL     1      -9.384  14.563  67.814  1.00  0.00    -0.198 A  
HETATM   15  C   UNL     1      -6.971  14.359  67.458  1.00  0.00    -0.182 A  
HETATM   16  C   UNL     1      -7.776  15.658  69.311  1.00  0.00    -0.223 A  
HETATM   17  C   UNL     1      -9.091  15.347  68.951  1.00  0.00    -0.218 A  
HETATM   18  C   UNL     1      -8.289  14.047  67.099  1.00  0.00    -0.174 A  
HETATM   19  C   UNL     1      -6.716  15.177  68.556  1.00  0.00    -0.108 A  
ENDBRANCH   3  14
ENDBRANCH   2   3
TORSDOF 2
ENDMDL
MODEL       44
REMARK 921   NORMALIZED FREE ENERGY PREDICTED BY IDOCK:   -4.63 KCAL/MOL
REMARK 922        TOTAL FREE ENERGY PREDICTED BY IDOCK:   -5.22 KCAL/MOL
REMARK 923 INTER-LIGAND FREE ENERGY PREDICTED BY IDOCK:   -5.06 KCAL/MOL
REMARK 924 INTRA-LIGAND FREE ENERGY PREDICTED BY IDOCK:   -0.16 KCAL/MOL
REMARK 927      BINDING AFFINITY PREDICTED BY RF-SCORE:    0.00 PKD
ROOT
HETATM    1  C   UNL     1      -7.623  15.543  68.384  1.00  0.00    -0.116 C  
HETATM    2  C   UNL     1      -8.360  16.789  68.867  1.00  0.00    -0.222 C  
ENDROOT
BRANCH   2   3
HETATM    3  C   UNL     1      -8.248  18.098  68.010  1.00  0.00    -0.266 C  
HETATM    4  C   UNL     1      -7.862  17.702  66.577  1.00  0.00    -0.272 C  
HETATM    5  O   UNL     1     -10.050  19.471  68.950  1.00  0.00    -0.442 OA 
HETATM    6  C   UNL     1      -9.643  18.748  68.042  1.00  0.00    -0.321 C  
HETATM    7  N   UNL     1      -8.889  17.410  65.719  1.00  0.00     0.106 N  
HETATM    8  O   UNL     1      -6.704  17.570  66.182  1.00  0.00    -0.249 OA 
HETATM    9  H   UNL     1     -11.482  18.677  67.156  1.00  0.00     0.000 HD 
HETATM   10  C   UNL     1     -10.181  17.812  65.855  1.00  0.00    -0.225 C  
HETATM   11  H   UNL     1      -8.664  16.839  64.904  1.00  0.00     0.000 HD 
HETATM   12  O   UNL     1     -10.998  17.674  64.954  1.00  0.00    -0.886 OA 
HETATM   13  N   UNL     1     -10.502  18.428  67.024  1.00  0.00    -0.398 N  
BRANCH   3  14
HETATM   14  C   UNL     1      -7.158  19.043  68.602  1.00  0.00    -0.341 A  
HETATM   15  C   UNL     1      -5.895  21.140  68.553  1.00  0.00    -0.303 A  
HETATM   16  C   UNL     1      -5.459  19.550  70.299  1.00  0.00    -0.260 A  
HETATM   17  C   UNL     1      -6.411  18.688  69.746  1.00  0.00    -0.135 A  
HETATM   18  C   UNL     1      -6.849  20.275  67.998  1.00  0.00    -0.335 A  
HETATM   19  C   UNL     1      -5.211  20.782  69.712  1.00  0.00    -0.396 A  
ENDBRANCH   3  14
ENDBRANCH   2   3
TORSDOF 2
ENDMDL
MODEL       45
REMARK 921   NORMALIZED FREE ENERGY PREDICTED BY IDOCK:   -4.62 KCAL/MOL
REMARK 922        TOTAL FREE ENERGY PREDICTED BY IDOCK:   -5.21 KCAL/MOL
REMARK 923 INTER-LIGAND FREE ENERGY PREDICTED BY IDOCK:   -5.04 KCAL/MOL
REMARK 924 INTRA-LIGAND FREE ENERGY PREDICTED BY IDOCK:   -0.16 KCAL/MOL
REMARK 927      BINDING AFFINITY PREDICTED BY RF-SCORE:    0.00 PKD
ROOT
HETATM    1  C   UNL     1     -13.156  13.512  65.199  1.00  0.00    -0.110 C  
HETATM    2  C   UNL     1     -12.386  13.646  66.510  1.00  0.00    -0.412 C  
ENDROOT
BRANCH   2   3
HETATM    3  C   UNL     1     -10.838  13.894  66.441  1.00  0.00    -0.291 C  
HETATM    4  C   UNL     1     -10.487  14.339  65.014  1.00  0.00    -0.435 C  
HETATM    5  O   UNL     1     -10.380  14.835  68.660  1.00  0.00    -0.231 OA 
HETATM    6  C   UNL     1     -10.542  15.015  67.454  1.00  0.00    -0.271 C  
HETATM    7  N   UNL     1     -10.560  15.681  64.749  1.00  0.00    -0.512 N  
HETATM    8  O   UNL     1     -10.213  13.568  64.095  1.00  0.00    -0.344 OA 
HETATM    9  H   UNL     1     -10.561  17.046  67.670  1.00  0.00     0.000 HD 
HETATM   10  C   UNL     1     -10.508  16.679  65.671  1.00  0.00    -0.297 C  
HETATM   11  H   UNL     1     -10.663  15.956  63.773  1.00  0.00     0.000 HD 
HETATM   12  O   UNL     1     -10.388  17.853  65.344  1.00  0.00    -0.580 OA 
HETATM   13  N   UNL     1     -10.538  16.299  66.976  1.00  0.00    -0.308 N  
BRANCH   3  14
HETATM   14  C   UNL     1     -10.063  12.586  66.786  1.00  0.00    -0.233 A  
HETATM   15  C   UNL     1     -10.032  10.182  67.247  1.00  0.00    -0.241 A  
HETATM   16  C   UNL     1      -7.961  11.399  67.230  1.00  0.00    -0.149 A  
HETATM   17  C   UNL     1      -8.662  12.578  66.957  1.00  0.00    -0.205 A  
HETATM   18  C   UNL     1     -10.734  11.364  66.975  1.00  0.00    -0.304 A  
HETATM   19  C   UNL     1      -8.644  10.197  67.360  1.00  0.00    -0.122 A  
ENDBRANCH   3  14
ENDBRANCH   2   3
TORSDOF 2
ENDMDL
MODEL       46
REMARK 921   NORMALIZED FREE ENERGY PREDICTED BY IDOCK:   -4.62 KCAL/MOL
REMARK 922        TOTAL FREE ENERGY PREDICTED BY IDOCK:   -5.21 KCAL/MOL
REMARK 923 INTER-LIGAND FREE ENERGY PREDICTED BY IDOCK:   -5.04 KCAL/MOL
REMARK 924 INTRA-LIGAND FREE ENERGY PREDICTED BY IDOCK:   -0.16 KCAL/MOL
REMARK 927      BINDING AFFINITY PREDICTED BY RF-SCORE:    0.00 PKD
ROOT
HETATM    1  C   UNL     1      -9.536   7.614  73.470  1.00  0.00    -0.348 C  
HETATM    2  C   UNL     1      -9.636   8.346  72.135  1.00  0.00    -0.367 C  
ENDROOT
BRANCH   2   3
HETATM    3  C   UNL     1     -10.773   7.924  71.139  1.00  0.00    -0.251 C  
HETATM    4  C   UNL     1     -11.792   7.070  71.909  1.00  0.00    -0.305 C  
HETATM    5  O   UNL     1     -10.972   9.920  69.728  1.00  0.00    -0.241 OA 
HETATM    6  C   UNL     1     -11.415   9.233  70.647  1.00  0.00    -0.274 C  
HETATM    7  N   UNL     1     -12.805   7.740  72.543  1.00  0.00    -0.518 N  
HETATM    8  O   UNL     1     -11.715   5.850  72.041  1.00  0.00    -0.279 OA 
HETATM    9  H   UNL     1     -12.794  10.651  71.158  1.00  0.00     0.000 HD 
HETATM   10  C   UNL     1     -13.242   8.992  72.245  1.00  0.00    -0.460 C  
HETATM   11  H   UNL     1     -13.274   7.254  73.307  1.00  0.00     0.000 HD 
HETATM   12  O   UNL     1     -14.272   9.448  72.726  1.00  0.00    -0.428 OA 
HETATM   13  N   UNL     1     -12.505   9.690  71.340  1.00  0.00    -0.348 N  
BRANCH   3  14
HETATM   14  C   UNL     1     -10.181   7.093  69.960  1.00  0.00    -0.205 A  
HETATM   15  C   UNL     1      -8.271   6.084  68.808  1.00  0.00    -0.104 A  
HETATM   16  C   UNL     1     -10.476   5.791  67.901  1.00  0.00    -0.290 A  
HETATM   17  C   UNL     1     -11.001   6.567  68.939  1.00  0.00    -0.376 A  
HETATM   18  C   UNL     1      -8.798   6.863  69.847  1.00  0.00    -0.142 A  
HETATM   19  C   UNL     1      -9.113   5.536  67.843  1.00  0.00    -0.109 A  
ENDBRANCH   3  14
ENDBRANCH   2   3
TORSDOF 2
ENDMDL
MODEL       47
REMARK 921   NORMALIZED FREE ENERGY PREDICTED BY IDOCK:   -4.61 KCAL/MOL
REMARK 922        TOTAL FREE ENERGY PREDICTED BY IDOCK:   -5.20 KCAL/MOL
REMARK 923 INTER-LIGAND FREE ENERGY PREDICTED BY IDOCK:   -5.59 KCAL/MOL
REMARK 924 INTRA-LIGAND FREE ENERGY PREDICTED BY IDOCK:    0.40 KCAL/MOL
REMARK 927      BINDING AFFINITY PREDICTED BY RF-SCORE:    0.00 PKD
ROOT
HETATM    1  C   UNL     1     -11.712  12.980  68.733  1.00  0.00    -0.363 C  
HETATM    2  C   UNL     1     -11.829  13.205  67.228  1.00  0.00    -0.420 C  
ENDROOT
BRANCH   2   3
HETATM    3  C   UNL     1     -10.524  13.536  66.422  1.00  0.00    -0.287 C  
HETATM    4  C   UNL     1     -10.862  13.495  64.924  1.00  0.00    -0.362 C  
HETATM    5  O   UNL     1      -9.453  15.207  67.863  1.00  0.00    -0.193 OA 
HETATM    6  C   UNL     1     -10.106  14.953  66.852  1.00  0.00    -0.242 C  
HETATM    7  N   UNL     1     -11.321  14.658  64.363  1.00  0.00    -0.629 N  
HETATM    8  O   UNL     1     -10.808  12.482  64.228  1.00  0.00    -0.315 OA 
HETATM    9  H   UNL     1     -10.478  16.929  66.491  1.00  0.00     0.000 HD 
HETATM   10  C   UNL     1     -11.131  15.911  64.856  1.00  0.00    -0.389 C  
HETATM   11  H   UNL     1     -11.852  14.576  63.497  1.00  0.00     0.000 HD 
HETATM   12  O   UNL     1     -11.404  16.909  64.203  1.00  0.00    -1.208 OA 
HETATM   13  N   UNL     1     -10.567  15.995  66.091  1.00  0.00    -0.313 N  
BRANCH   3  14
HETATM   14  C   UNL     1      -9.413  12.487  66.735  1.00  0.00    -0.231 A  
HETATM   15  C   UNL     1      -8.700  10.171  67.080  1.00  0.00    -0.137 A  
HETATM   16  C   UNL     1      -7.070  11.930  67.207  1.00  0.00    -0.143 A  
HETATM   17  C   UNL     1      -8.074  12.872  66.963  1.00  0.00    -0.057 A  
HETATM   18  C   UNL     1      -9.706  11.116  66.836  1.00  0.00    -0.216 A  
HETATM   19  C   UNL     1      -7.380  10.578  67.250  1.00  0.00    -0.091 A  
ENDBRANCH   3  14
ENDBRANCH   2   3
TORSDOF 2
ENDMDL
MODEL       48
REMARK 921   NORMALIZED FREE ENERGY PREDICTED BY IDOCK:   -4.61 KCAL/MOL
REMARK 922        TOTAL FREE ENERGY PREDICTED BY IDOCK:   -5.19 KCAL/MOL
REMARK 923 INTER-LIGAND FREE ENERGY PREDICTED BY IDOCK:   -5.31 KCAL/MOL
REMARK 924 INTRA-LIGAND FREE ENERGY PREDICTED BY IDOCK:    0.11 KCAL/MOL
REMARK 927      BINDING AFFINITY PREDICTED BY RF-SCORE:    0.00 PKD
ROOT
HETATM    1  C   UNL     1     -10.590   6.682  69.097  1.00  0.00    -0.280 C  
HETATM    2  C   UNL     1     -11.750   7.079  70.006  1.00  0.00    -0.185 C  
ENDROOT
BRANCH   2   3
HETATM    3  C   UNL     1     -11.431   7.906  71.300  1.00  0.00    -0.293 C  
HETATM    4  C   UNL     1     -10.286   8.878  70.978  1.00  0.00    -0.254 C  
HETATM    5  O   UNL     1     -13.663   8.197  72.275  1.00  0.00    -0.246 OA 
HETATM    6  C   UNL     1     -12.721   8.673  71.643  1.00  0.00    -0.341 C  
HETATM    7  N   UNL     1     -10.637  10.099  70.467  1.00  0.00    -0.410 N  
HETATM    8  O   UNL     1      -9.092   8.603  71.088  1.00  0.00    -0.170 OA 
HETATM    9  H   UNL     1     -13.771  10.362  71.178  1.00  0.00     0.000 HD 
HETATM   10  C   UNL     1     -11.853  10.696  70.591  1.00  0.00    -0.363 C  
HETATM   11  H   UNL     1      -9.922  10.608  69.948  1.00  0.00     0.000 HD 
HETATM   12  O   UNL     1     -12.034  11.864  70.274  1.00  0.00    -0.344 OA 
HETATM   13  N   UNL     1     -12.843   9.941  71.139  1.00  0.00    -0.357 N  
BRANCH   3  14
HETATM   14  C   UNL     1     -10.999   6.957  72.459  1.00  0.00    -0.294 A  
HETATM   15  C   UNL     1     -11.038   4.765  73.549  1.00  0.00    -0.412 A  
HETATM   16  C   UNL     1      -9.741   6.537  74.524  1.00  0.00    -0.331 A  
HETATM   17  C   UNL     1     -10.159   7.397  73.504  1.00  0.00    -0.390 A  
HETATM   18  C   UNL     1     -11.457   5.629  72.528  1.00  0.00    -0.335 A  
HETATM   19  C   UNL     1     -10.168   5.216  74.539  1.00  0.00    -0.303 A  
ENDBRANCH   3  14
ENDBRANCH   2   3
TORSDOF 2
ENDMDL
MODEL       49
REMARK 921   NORMALIZED FREE ENERGY PREDICTED BY IDOCK:   -4.60 KCAL/MOL
REMARK 922        TOTAL FREE ENERGY PREDICTED BY IDOCK:   -5.18 KCAL/MOL
REMARK 923 INTER-LIGAND FREE ENERGY PREDICTED BY IDOCK:   -5.24 KCAL/MOL
REMARK 924 INTRA-LIGAND FREE ENERGY PREDICTED BY IDOCK:    0.06 KCAL/MOL
REMARK 927      BINDING AFFINITY PREDICTED BY RF-SCORE:    0.00 PKD
ROOT
HETATM    1  C   UNL     1     -10.166   8.509  67.013  1.00  0.00    -0.371 C  
HETATM    2  C   UNL     1     -10.254   8.289  68.521  1.00  0.00    -0.234 C  
ENDROOT
BRANCH   2   3
HETATM    3  C   UNL     1     -10.447   9.542  69.445  1.00  0.00    -0.231 C  
HETATM    4  C   UNL     1      -9.112   9.831  70.147  1.00  0.00    -0.197 C  
HETATM    5  O   UNL     1     -11.984  10.916  68.116  1.00  0.00    -0.581 OA 
HETATM    6  C   UNL     1     -10.839  10.702  68.513  1.00  0.00    -0.233 C  
HETATM    7  N   UNL     1      -8.230  10.644  69.486  1.00  0.00    -0.365 N  
HETATM    8  O   UNL     1      -8.769   9.331  71.217  1.00  0.00    -0.301 OA 
HETATM    9  H   UNL     1     -10.049  12.112  67.265  1.00  0.00     0.000 HD 
HETATM   10  C   UNL     1      -8.545  11.531  68.505  1.00  0.00    -0.140 C  
HETATM   11  H   UNL     1      -7.249  10.579  69.755  1.00  0.00     0.000 HD 
HETATM   12  O   UNL     1      -7.738  12.356  68.096  1.00  0.00    -0.120 OA 
HETATM   13  N   UNL     1      -9.823  11.491  68.042  1.00  0.00    -0.182 N  
BRANCH   3  14
HETATM   14  C   UNL     1     -11.549   9.263  70.514  1.00  0.00    -0.266 A  
HETATM   15  C   UNL     1     -13.212  10.062  72.122  1.00  0.00    -0.489 A  
HETATM   16  C   UNL     1     -12.931   7.698  71.803  1.00  0.00    -0.360 A  
HETATM   17  C   UNL     1     -11.918   7.949  70.871  1.00  0.00    -0.211 A  
HETATM   18  C   UNL     1     -12.196  10.312  71.190  1.00  0.00    -0.500 A  
HETATM   19  C   UNL     1     -13.589   8.754  72.417  1.00  0.00    -0.456 A  
ENDBRANCH   3  14
ENDBRANCH   2   3
TORSDOF 2
ENDMDL
MODEL       50
REMARK 921   NORMALIZED FREE ENERGY PREDICTED BY IDOCK:   -4.56 KCAL/MOL
REMARK 922        TOTAL FREE ENERGY PREDICTED BY IDOCK:   -5.14 KCAL/MOL
REMARK 923 INTER-LIGAND FREE ENERGY PREDICTED BY IDOCK:   -5.08 KCAL/MOL
REMARK 924 INTRA-LIGAND FREE ENERGY PREDICTED BY IDOCK:   -0.06 KCAL/MOL
REMARK 927      BINDING AFFINITY PREDICTED BY RF-SCORE:    0.00 PKD
ROOT
HETATM    1  C   UNL     1     -12.609  13.506  65.302  1.00  0.00    -0.517 C  
HETATM    2  C   UNL     1     -12.329  13.719  66.788  1.00  0.00    -0.365 C  
ENDROOT
BRANCH   2   3
HETATM    3  C   UNL     1     -10.864  13.504  67.307  1.00  0.00    -0.285 C  
HETATM    4  C   UNL     1      -9.938  13.373  66.088  1.00  0.00    -0.294 C  
HETATM    5  O   UNL     1     -10.826  14.922  69.307  1.00  0.00    -0.248 OA 
HETATM    6  C   UNL     1     -10.516  14.758  68.128  1.00  0.00    -0.239 C  
HETATM    7  N   UNL     1      -9.424  14.535  65.576  1.00  0.00    -0.507 N  
HETATM    8  O   UNL     1      -9.689  12.313  65.517  1.00  0.00    -0.234 OA 
HETATM    9  H   UNL     1      -9.854  16.681  67.943  1.00  0.00     0.000 HD 
HETATM   10  C   UNL     1      -9.305  15.716  66.240  1.00  0.00    -0.323 C  
HETATM   11  H   UNL     1      -9.100  14.512  64.609  1.00  0.00     0.000 HD 
HETATM   12  O   UNL     1      -8.664  16.652  65.782  1.00  0.00    -0.482 OA 
HETATM   13  N   UNL     1      -9.888  15.780  67.467  1.00  0.00    -0.228 N  
BRANCH   3  14
HETATM   14  C   UNL     1     -10.779  12.207  68.169  1.00  0.00    -0.238 A  
HETATM   15  C   UNL     1      -9.466  10.519  69.360  1.00  0.00    -0.158 A  
HETATM   16  C   UNL     1     -11.862  10.364  69.373  1.00  0.00    -0.189 A  
HETATM   17  C   UNL     1     -11.936  11.506  68.569  1.00  0.00    -0.293 A  
HETATM   18  C   UNL     1      -9.540  11.663  68.554  1.00  0.00    -0.181 A  
HETATM   19  C   UNL     1     -10.628   9.879  69.781  1.00  0.00    -0.296 A  
ENDBRANCH   3  14
ENDBRANCH   2   3
TORSDOF 2
ENDMDL
MODEL       51
REMARK 921   NORMALIZED FREE ENERGY PREDICTED BY IDOCK:   -4.56 KCAL/MOL
REMARK 922        TOTAL FREE ENERGY PREDICTED BY IDOCK:   -5.14 KCAL/MOL
REMARK 923 INTER-LIGAND FREE ENERGY PREDICTED BY IDOCK:   -5.51 KCAL/MOL
REMARK 924 INTRA-LIGAND FREE ENERGY PREDICTED BY IDOCK:    0.38 KCAL/MOL
REMARK 927      BINDING AFFINITY PREDICTED BY RF-SCORE:    0.00 PKD
ROOT
HETATM    1  C   UNL     1     -12.573  13.645  65.883  1.00  0.00    -0.478 C  
HETATM    2  C   UNL     1     -11.706  14.360  66.917  1.00  0.00    -0.422 C  
ENDROOT
BRANCH   2   3
HETATM    3  C   UNL     1     -11.134  13.523  68.114  1.00  0.00    -0.283 C  
HETATM    4  C   UNL     1     -11.262  12.033  67.762  1.00  0.00    -0.271 C  
HETATM    5  O   UNL     1      -9.264  14.924  68.860  1.00  0.00    -0.191 OA 
HETATM    6  C   UNL     1      -9.656  13.930  68.250  1.00  0.00    -0.218 C  
HETATM    7  N   UNL     1     -10.222  11.470  67.072  1.00  0.00    -0.209 N  
HETATM    8  O   UNL     1     -12.253  11.346  68.003  1.00  0.00    -0.607 OA 
HETATM    9  H   UNL     1      -7.799  13.557  67.487  1.00  0.00     0.000 HD 
HETATM   10  C   UNL     1      -8.949  11.947  67.018  1.00  0.00    -0.190 C  
HETATM   11  H   UNL     1     -10.419  10.617  66.550  1.00  0.00     0.000 HD 
HETATM   12  O   UNL     1      -8.033  11.290  66.540  1.00  0.00    -0.157 OA 
HETATM   13  N   UNL     1      -8.737  13.168  67.578  1.00  0.00    -0.189 N  
BRANCH   3  14
HETATM   14  C   UNL     1     -11.937  13.822  69.417  1.00  0.00    -0.397 A  
HETATM   15  C   UNL     1     -12.876  13.099  71.559  1.00  0.00    -0.401 A  
HETATM   16  C   UNL     1     -13.165  15.379  70.863  1.00  0.00    -0.512 A  
HETATM   17  C   UNL     1     -12.476  15.100  69.679  1.00  0.00    -0.171 A  
HETATM   18  C   UNL     1     -12.187  12.820  70.371  1.00  0.00    -0.371 A  
HETATM   19  C   UNL     1     -13.352  14.383  71.811  1.00  0.00    -0.446 A  
ENDBRANCH   3  14
ENDBRANCH   2   3
TORSDOF 2
ENDMDL
MODEL       52
REMARK 921   NORMALIZED FREE ENERGY PREDICTED BY IDOCK:   -4.54 KCAL/MOL
REMARK 922        TOTAL FREE ENERGY PREDICTED BY IDOCK:   -5.12 KCAL/MOL
REMARK 923 INTER-LIGAND FREE ENERGY PREDICTED BY IDOCK:   -5.11 KCAL/MOL
REMARK 924 INTRA-LIGAND FREE ENERGY PREDICTED BY IDOCK:   -0.01 KCAL/MOL
REMARK 927      BINDING AFFINITY PREDICTED BY RF-SCORE:    0.00 PKD
ROOT
HETATM    1  C   UNL     1      -8.006   8.332  72.108  1.00  0.00    -0.186 C  
HETATM    2  C   UNL     1      -8.954   7.854  71.012  1.00  0.00    -0.152 C  
ENDROOT
BRANCH   2   3
HETATM    3  C   UNL     1     -10.370   7.324  71.433  1.00  0.00    -0.212 C  
HETATM    4  C   UNL     1     -10.818   6.281  70.398  1.00  0.00    -0.299 C  
HETATM    5  O   UNL     1     -10.193   7.304  73.879  1.00  0.00    -0.344 OA 
HETATM    6  C   UNL     1     -10.188   6.680  72.819  1.00  0.00    -0.187 C  
HETATM    7  N   UNL     1     -10.435   4.985  70.622  1.00  0.00    -0.205 N  
HETATM    8  O   UNL     1     -11.434   6.547  69.367  1.00  0.00    -0.355 OA 
HETATM    9  H   UNL     1      -9.596   4.954  73.735  1.00  0.00     0.000 HD 
HETATM   10  C   UNL     1     -10.069   4.457  71.821  1.00  0.00    -0.168 C  
HETATM   11  H   UNL     1     -10.424   4.360  69.817  1.00  0.00     0.000 HD 
HETATM   12  O   UNL     1      -9.924   3.252  71.978  1.00  0.00    -0.164 OA 
HETATM   13  N   UNL     1      -9.929   5.335  72.850  1.00  0.00    -0.163 N  
BRANCH   3  14
HETATM   14  C   UNL     1     -11.398   8.496  71.471  1.00  0.00    -0.348 A  
HETATM   15  C   UNL     1     -13.525   9.445  72.225  1.00  0.00    -0.539 A  
HETATM   16  C   UNL     1     -12.068  10.775  70.855  1.00  0.00    -0.475 A  
HETATM   17  C   UNL     1     -11.163   9.710  70.791  1.00  0.00    -0.403 A  
HETATM   18  C   UNL     1     -12.619   8.378  72.159  1.00  0.00    -0.412 A  
HETATM   19  C   UNL     1     -13.242  10.649  71.585  1.00  0.00    -0.495 A  
ENDBRANCH   3  14
ENDBRANCH   2   3
TORSDOF 2
ENDMDL
MODEL       53
REMARK 921   NORMALIZED FREE ENERGY PREDICTED BY IDOCK:   -4.54 KCAL/MOL
REMARK 922        TOTAL FREE ENERGY PREDICTED BY IDOCK:   -5.11 KCAL/MOL
REMARK 923 INTER-LIGAND FREE ENERGY PREDICTED BY IDOCK:   -5.13 KCAL/MOL
REMARK 924 INTRA-LIGAND FREE ENERGY PREDICTED BY IDOCK:    0.02 KCAL/MOL
REMARK 927      BINDING AFFINITY PREDICTED BY RF-SCORE:    0.00 PKD
ROOT
HETATM    1  C   UNL     1     -11.778  15.420  68.871  1.00  0.00    -0.377 C  
HETATM    2  C   UNL     1     -11.751  13.994  68.325  1.00  0.00    -0.392 C  
ENDROOT
BRANCH   2   3
HETATM    3  C   UNL     1     -10.789  13.674  67.129  1.00  0.00    -0.292 C  
HETATM    4  C   UNL     1     -11.409  14.251  65.847  1.00  0.00    -0.328 C  
HETATM    5  O   UNL     1      -8.585  13.896  68.182  1.00  0.00    -0.164 OA 
HETATM    6  C   UNL     1      -9.457  14.372  67.456  1.00  0.00    -0.207 C  
HETATM    7  N   UNL     1     -11.104  15.552  65.545  1.00  0.00    -0.298 N  
HETATM    8  O   UNL     1     -12.200  13.645  65.126  1.00  0.00    -0.386 OA 
HETATM    9  H   UNL     1      -8.507  16.177  67.351  1.00  0.00     0.000 HD 
HETATM   10  C   UNL     1     -10.028  16.246  66.003  1.00  0.00    -0.345 C  
HETATM   11  H   UNL     1     -11.741  16.044  64.920  1.00  0.00     0.000 HD 
HETATM   12  O   UNL     1      -9.720  17.337  65.541  1.00  0.00    -0.521 OA 
HETATM   13  N   UNL     1      -9.280  15.637  66.961  1.00  0.00    -0.213 N  
BRANCH   3  14
HETATM   14  C   UNL     1     -10.610  12.133  66.974  1.00  0.00    -0.256 A  
HETATM   15  C   UNL     1     -11.132   9.844  67.666  1.00  0.00    -0.170 A  
HETATM   16  C   UNL     1      -9.628  10.198  65.827  1.00  0.00    -0.288 A  
HETATM   17  C   UNL     1      -9.761  11.580  65.991  1.00  0.00    -0.253 A  
HETATM   18  C   UNL     1     -11.264  11.229  67.830  1.00  0.00    -0.353 A  
HETATM   19  C   UNL     1     -10.325   9.329  66.655  1.00  0.00    -0.292 A  
ENDBRANCH   3  14
ENDBRANCH   2   3
TORSDOF 2
ENDMDL
MODEL       54
REMARK 921   NORMALIZED FREE ENERGY PREDICTED BY IDOCK:   -4.50 KCAL/MOL
REMARK 922        TOTAL FREE ENERGY PREDICTED BY IDOCK:   -5.07 KCAL/MOL
REMARK 923 INTER-LIGAND FREE ENERGY PREDICTED BY IDOCK:   -5.04 KCAL/MOL
REMARK 924 INTRA-LIGAND FREE ENERGY PREDICTED BY IDOCK:   -0.03 KCAL/MOL
REMARK 927      BINDING AFFINITY PREDICTED BY RF-SCORE:    0.00 PKD
ROOT
HETATM    1  C   UNL     1      -9.331  15.023  66.461  1.00  0.00    -0.309 C  
HETATM    2  C   UNL     1      -9.010  16.497  66.224  1.00  0.00    -0.359 C  
ENDROOT
BRANCH   2   3
HETATM    3  C   UNL     1      -8.945  17.453  67.465  1.00  0.00    -0.231 C  
HETATM    4  C   UNL     1     -10.368  17.945  67.768  1.00  0.00    -0.387 C  
HETATM    5  O   UNL     1      -7.204  16.389  68.828  1.00  0.00    -0.167 OA 
HETATM    6  C   UNL     1      -8.399  16.604  68.627  1.00  0.00    -0.246 C  
HETATM    7  N   UNL     1     -11.127  17.165  68.600  1.00  0.00    -0.219 N  
HETATM    8  O   UNL     1     -10.878  18.944  67.264  1.00  0.00    -0.458 OA 
HETATM    9  H   UNL     1      -8.970  15.265  70.060  1.00  0.00     0.000 HD 
HETATM   10  C   UNL     1     -10.653  16.253  69.491  1.00  0.00    -0.314 C  
HETATM   11  H   UNL     1     -12.139  17.279  68.547  1.00  0.00     0.000 HD 
HETATM   12  O   UNL     1     -11.377  15.735  70.331  1.00  0.00    -0.310 OA 
HETATM   13  N   UNL     1      -9.320  15.991  69.436  1.00  0.00    -0.247 N  
BRANCH   3  14
HETATM   14  C   UNL     1      -8.024  18.674  67.161  1.00  0.00    -0.249 A  
HETATM   15  C   UNL     1      -6.872  20.710  67.883  1.00  0.00    -0.335 A  
HETATM   16  C   UNL     1      -6.621  19.962  65.614  1.00  0.00    -0.282 A  
HETATM   17  C   UNL     1      -7.476  18.888  65.879  1.00  0.00    -0.242 A  
HETATM   18  C   UNL     1      -7.730  19.634  68.147  1.00  0.00    -0.344 A  
HETATM   19  C   UNL     1      -6.306  20.865  66.620  1.00  0.00    -0.344 A  
ENDBRANCH   3  14
ENDBRANCH   2   3
TORSDOF 2
ENDMDL
MODEL       55
REMARK 921   NORMALIZED FREE ENERGY PREDICTED BY IDOCK:   -4.47 KCAL/MOL
REMARK 922        TOTAL FREE ENERGY PREDICTED BY IDOCK:   -5.05 KCAL/MOL
REMARK 923 INTER-LIGAND FREE ENERGY PREDICTED BY IDOCK:   -4.92 KCAL/MOL
REMARK 924 INTRA-LIGAND FREE ENERGY PREDICTED BY IDOCK:   -0.12 KCAL/MOL
REMARK 927      BINDING AFFINITY PREDICTED BY RF-SCORE:    0.00 PKD
ROOT
HETATM    1  C   UNL     1      -7.239  15.608  67.350  1.00  0.00    -0.241 C  
HETATM    2  C   UNL     1      -8.478  15.318  66.508  1.00  0.00    -0.202 C  
ENDROOT
BRANCH   2   3
HETATM    3  C   UNL     1      -9.880  15.722  67.085  1.00  0.00    -0.227 C  
HETATM    4  C   UNL     1      -9.683  16.917  68.029  1.00  0.00    -0.256 C  
HETATM    5  O   UNL     1     -11.350  15.317  65.163  1.00  0.00    -0.357 OA 
HETATM    6  C   UNL     1     -10.741  16.118  65.872  1.00  0.00    -0.255 C  
HETATM    7  N   UNL     1      -9.726  18.164  67.465  1.00  0.00    -0.296 N  
HETATM    8  O   UNL     1      -9.430  16.818  69.229  1.00  0.00    -0.211 OA 
HETATM    9  H   UNL     1     -11.140  17.673  64.609  1.00  0.00     0.000 HD 
HETATM   10  C   UNL     1     -10.310  18.484  66.279  1.00  0.00    -0.427 C  
HETATM   11  H   UNL     1      -9.279  18.922  67.980  1.00  0.00     0.000 HD 
HETATM   12  O   UNL     1     -10.474  19.646  65.933  1.00  0.00    -0.494 OA 
HETATM   13  N   UNL     1     -10.755  17.443  65.526  1.00  0.00    -0.206 N  
BRANCH   3  14
HETATM   14  C   UNL     1     -10.507  14.531  67.873  1.00  0.00    -0.242 A  
HETATM   15  C   UNL     1     -10.499  12.177  68.545  1.00  0.00    -0.248 A  
HETATM   16  C   UNL     1     -12.211  13.633  69.394  1.00  0.00    -0.307 A  
HETATM   17  C   UNL     1     -11.669  14.692  68.658  1.00  0.00    -0.362 A  
HETATM   18  C   UNL     1      -9.958  13.238  67.806  1.00  0.00    -0.223 A  
HETATM   19  C   UNL     1     -11.617  12.380  69.350  1.00  0.00    -0.371 A  
ENDBRANCH   3  14
ENDBRANCH   2   3
TORSDOF 2
ENDMDL
MODEL       56
REMARK 921   NORMALIZED FREE ENERGY PREDICTED BY IDOCK:   -4.46 KCAL/MOL
REMARK 922        TOTAL FREE ENERGY PREDICTED BY IDOCK:   -5.03 KCAL/MOL
REMARK 923 INTER-LIGAND FREE ENERGY PREDICTED BY IDOCK:   -5.02 KCAL/MOL
REMARK 924 INTRA-LIGAND FREE ENERGY PREDICTED BY IDOCK:   -0.01 KCAL/MOL
REMARK 927      BINDING AFFINITY PREDICTED BY RF-SCORE:    0.00 PKD
ROOT
HETATM    1  C   UNL     1      -9.554   7.748  72.024  1.00  0.00    -0.217 C  
HETATM    2  C   UNL     1     -10.155   9.125  71.751  1.00  0.00    -0.279 C  
ENDROOT
BRANCH   2   3
HETATM    3  C   UNL     1     -11.244   9.251  70.629  1.00  0.00    -0.333 C  
HETATM    4  C   UNL     1     -11.510   7.850  70.059  1.00  0.00     0.054 C  
HETATM    5  O   UNL     1     -12.698  11.006  71.534  1.00  0.00    -0.410 OA 
HETATM    6  C   UNL     1     -12.501   9.811  71.317  1.00  0.00    -0.367 C  
HETATM    7  N   UNL     1     -12.466   7.098  70.689  1.00  0.00    -0.610 N  
HETATM    8  O   UNL     1     -10.881   7.349  69.128  1.00  0.00    -0.199 OA 
HETATM    9  H   UNL     1     -14.127   9.253  72.420  1.00  0.00     0.000 HD 
HETATM   10  C   UNL     1     -13.466   7.577  71.477  1.00  0.00    -0.359 C  
HETATM   11  H   UNL     1     -12.424   6.088  70.555  1.00  0.00     0.000 HD 
HETATM   12  O   UNL     1     -14.391   6.867  71.849  1.00  0.00    -0.349 OA 
HETATM   13  N   UNL     1     -13.414   8.901  71.781  1.00  0.00    -0.376 N  
BRANCH   3  14
HETATM   14  C   UNL     1     -10.742  10.191  69.490  1.00  0.00    -0.277 A  
HETATM   15  C   UNL     1      -8.922  11.270  68.260  1.00  0.00    -0.172 A  
HETATM   16  C   UNL     1     -11.190  11.657  67.573  1.00  0.00    -0.355 A  
HETATM   17  C   UNL     1     -11.640  10.842  68.617  1.00  0.00    -0.373 A  
HETATM   18  C   UNL     1      -9.373  10.455  69.307  1.00  0.00    -0.202 A  
HETATM   19  C   UNL     1      -9.830  11.858  67.384  1.00  0.00    -0.192 A  
ENDBRANCH   3  14
ENDBRANCH   2   3
TORSDOF 2
ENDMDL
MODEL       57
REMARK 921   NORMALIZED FREE ENERGY PREDICTED BY IDOCK:   -4.44 KCAL/MOL
REMARK 922        TOTAL FREE ENERGY PREDICTED BY IDOCK:   -5.00 KCAL/MOL
REMARK 923 INTER-LIGAND FREE ENERGY PREDICTED BY IDOCK:   -4.99 KCAL/MOL
REMARK 924 INTRA-LIGAND FREE ENERGY PREDICTED BY IDOCK:   -0.02 KCAL/MOL
REMARK 927      BINDING AFFINITY PREDICTED BY RF-SCORE:    0.00 PKD
ROOT
HETATM    1  C   UNL     1     -12.243  12.936  65.399  1.00  0.00    -0.528 C  
HETATM    2  C   UNL     1     -12.400  13.807  66.642  1.00  0.00    -0.403 C  
ENDROOT
BRANCH   2   3
HETATM    3  C   UNL     1     -11.215  13.855  67.670  1.00  0.00    -0.316 C  
HETATM    4  C   UNL     1     -11.784  14.258  69.038  1.00  0.00    -0.317 C  
HETATM    5  O   UNL     1      -9.814  11.991  66.910  1.00  0.00    -0.200 OA 
HETATM    6  C   UNL     1     -10.633  12.432  67.715  1.00  0.00    -0.217 C  
HETATM    7  N   UNL     1     -12.238  13.246  69.841  1.00  0.00    -0.282 N  
HETATM    8  O   UNL     1     -11.913  15.421  69.421  1.00  0.00    -0.333 OA 
HETATM    9  H   UNL     1     -10.910  10.597  68.570  1.00  0.00     0.000 HD 
HETATM   10  C   UNL     1     -11.882  11.936  69.751  1.00  0.00    -0.340 C  
HETATM   11  H   UNL     1     -12.902  13.496  70.573  1.00  0.00     0.000 HD 
HETATM   12  O   UNL     1     -12.179  11.125  70.619  1.00  0.00    -0.342 OA 
HETATM   13  N   UNL     1     -11.129  11.588  68.674  1.00  0.00    -0.218 N  
BRANCH   3  14
HETATM   14  C   UNL     1     -10.149  14.901  67.219  1.00  0.00    -0.235 A  
HETATM   15  C   UNL     1      -7.879  15.811  67.316  1.00  0.00    -0.226 A  
HETATM   16  C   UNL     1      -9.489  16.831  65.856  1.00  0.00    -0.185 A  
HETATM   17  C   UNL     1     -10.454  15.916  66.288  1.00  0.00    -0.324 A  
HETATM   18  C   UNL     1      -8.847  14.894  67.750  1.00  0.00    -0.173 A  
HETATM   19  C   UNL     1      -8.197  16.769  66.358  1.00  0.00    -0.349 A  
ENDBRANCH   3  14
ENDBRANCH   2   3
TORSDOF 2
ENDMDL
MODEL       58
REMARK 921   NORMALIZED FREE ENERGY PREDICTED BY IDOCK:   -4.43 KCAL/MOL
REMARK 922        TOTAL FREE ENERGY PREDICTED BY IDOCK:   -5.00 KCAL/MOL
REMARK 923 INTER-LIGAND FREE ENERGY PREDICTED BY IDOCK:   -5.03 KCAL/MOL
REMARK 924 INTRA-LIGAND FREE ENERGY PREDICTED BY IDOCK:    0.03 KCAL/MOL
REMARK 927      BINDING AFFINITY PREDICTED BY RF-SCORE:    0.00 PKD
ROOT
HETATM    1  C   UNL     1      -7.492  17.092  66.080  1.00  0.00    -0.255 C  
HETATM    2  C   UNL     1      -8.573  17.929  66.760  1.00  0.00    -0.271 C  
ENDROOT
BRANCH   2   3
HETATM    3  C   UNL     1      -8.461  18.175  68.305  1.00  0.00    -0.294 C  
HETATM    4  C   UNL     1      -9.808  18.721  68.802  1.00  0.00    -0.384 C  
HETATM    5  O   UNL     1      -7.038  16.306  69.010  1.00  0.00    -0.171 OA 
HETATM    6  C   UNL     1      -8.160  16.802  68.933  1.00  0.00    -0.230 C  
HETATM    7  N   UNL     1     -10.750  17.799  69.171  1.00  0.00    -0.289 N  
HETATM    8  O   UNL     1     -10.105  19.915  68.825  1.00  0.00    -0.442 OA 
HETATM    9  H   UNL     1      -9.060  15.082  69.570  1.00  0.00     0.000 HD 
HETATM   10  C   UNL     1     -10.507  16.510  69.530  1.00  0.00    -0.298 C  
HETATM   11  H   UNL     1     -11.722  18.107  69.177  1.00  0.00     0.000 HD 
HETATM   12  O   UNL     1     -11.375  15.804  70.028  1.00  0.00    -0.293 OA 
HETATM   13  N   UNL     1      -9.234  16.065  69.359  1.00  0.00    -0.239 N  
BRANCH   3  14
HETATM   14  C   UNL     1      -7.333  19.208  68.610  1.00  0.00    -0.365 A  
HETATM   15  C   UNL     1      -5.718  20.211  70.151  1.00  0.00    -0.352 A  
HETATM   16  C   UNL     1      -5.832  21.010  67.889  1.00  0.00    -0.391 A  
HETATM   17  C   UNL     1      -6.868  20.108  67.627  1.00  0.00    -0.290 A  
HETATM   18  C   UNL     1      -6.757  19.308  69.888  1.00  0.00    -0.101 A  
HETATM   19  C   UNL     1      -5.246  21.052  69.146  1.00  0.00    -0.366 A  
ENDBRANCH   3  14
ENDBRANCH   2   3
TORSDOF 2
ENDMDL
MODEL       59
REMARK 921   NORMALIZED FREE ENERGY PREDICTED BY IDOCK:   -4.43 KCAL/MOL
REMARK 922        TOTAL FREE ENERGY PREDICTED BY IDOCK:   -5.00 KCAL/MOL
REMARK 923 INTER-LIGAND FREE ENERGY PREDICTED BY IDOCK:   -4.95 KCAL/MOL
REMARK 924 INTRA-LIGAND FREE ENERGY PREDICTED BY IDOCK:   -0.05 KCAL/MOL
REMARK 927      BINDING AFFINITY PREDICTED BY RF-SCORE:    0.00 PKD
ROOT
HETATM    1  C   UNL     1     -10.032   8.183  68.264  1.00  0.00    -0.212 C  
HETATM    2  C   UNL     1      -9.435   8.422  69.648  1.00  0.00    -0.166 C  
ENDROOT
BRANCH   2   3
HETATM    3  C   UNL     1     -10.264   7.975  70.903  1.00  0.00    -0.213 C  
HETATM    4  C   UNL     1     -10.932   6.629  70.581  1.00  0.00    -0.280 C  
HETATM    5  O   UNL     1      -8.846   8.753  72.747  1.00  0.00    -0.382 OA 
HETATM    6  C   UNL     1      -9.249   7.823  72.050  1.00  0.00    -0.144 C  
HETATM    7  N   UNL     1     -10.205   5.499  70.848  1.00  0.00    -0.215 N  
HETATM    8  O   UNL     1     -12.034   6.513  70.048  1.00  0.00    -0.358 OA 
HETATM    9  H   UNL     1      -7.893   6.521  72.849  1.00  0.00     0.000 HD 
HETATM   10  C   UNL     1      -9.162   5.408  71.716  1.00  0.00    -0.142 C  
HETATM   11  H   UNL     1     -10.470   4.650  70.351  1.00  0.00     0.000 HD 
HETATM   12  O   UNL     1      -8.687   4.328  72.042  1.00  0.00    -0.105 OA 
HETATM   13  N   UNL     1      -8.713   6.577  72.245  1.00  0.00    -0.130 N  
BRANCH   3  14
HETATM   14  C   UNL     1     -11.358   9.034  71.237  1.00  0.00    -0.389 A  
HETATM   15  C   UNL     1     -12.326  11.265  70.954  1.00  0.00    -0.490 A  
HETATM   16  C   UNL     1     -13.414   9.691  72.406  1.00  0.00    -0.421 A  
HETATM   17  C   UNL     1     -12.411   8.754  72.134  1.00  0.00    -0.460 A  
HETATM   18  C   UNL     1     -11.321  10.326  70.682  1.00  0.00    -0.431 A  
HETATM   19  C   UNL     1     -13.380  10.941  71.804  1.00  0.00    -0.413 A  
ENDBRANCH   3  14
ENDBRANCH   2   3
TORSDOF 2
ENDMDL
MODEL       60
REMARK 921   NORMALIZED FREE ENERGY PREDICTED BY IDOCK:   -4.42 KCAL/MOL
REMARK 922        TOTAL FREE ENERGY PREDICTED BY IDOCK:   -4.99 KCAL/MOL
REMARK 923 INTER-LIGAND FREE ENERGY PREDICTED BY IDOCK:   -5.05 KCAL/MOL
REMARK 924 INTRA-LIGAND FREE ENERGY PREDICTED BY IDOCK:    0.06 KCAL/MOL
REMARK 927      BINDING AFFINITY PREDICTED BY RF-SCORE:    0.00 PKD
ROOT
HETATM    1  C   UNL     1      -9.087  14.353  67.240  1.00  0.00    -0.221 C  
HETATM    2  C   UNL     1      -9.010  12.843  67.025  1.00  0.00    -0.225 C  
ENDROOT
BRANCH   2   3
HETATM    3  C   UNL     1     -10.293  11.986  67.306  1.00  0.00    -0.232 C  
HETATM    4  C   UNL     1     -11.441  12.943  67.662  1.00  0.00    -0.334 C  
HETATM    5  O   UNL     1     -10.056  10.174  65.670  1.00  0.00    -0.271 OA 
HETATM    6  C   UNL     1     -10.594  11.230  66.000  1.00  0.00    -0.258 C  
HETATM    7  N   UNL     1     -12.182  13.432  66.620  1.00  0.00    -0.370 N  
HETATM    8  O   UNL     1     -11.686  13.338  68.801  1.00  0.00    -0.287 OA 
HETATM    9  H   UNL     1     -11.494  11.442  64.179  1.00  0.00     0.000 HD 
HETATM   10  C   UNL     1     -12.287  12.874  65.384  1.00  0.00    -0.485 C  
HETATM   11  H   UNL     1     -12.703  14.293  66.786  1.00  0.00     0.000 HD 
HETATM   12  O   UNL     1     -13.114  13.262  64.570  1.00  0.00    -0.588 OA 
HETATM   13  N   UNL     1     -11.463  11.825  65.124  1.00  0.00    -0.237 N  
BRANCH   3  14
HETATM   14  C   UNL     1     -10.041  11.007  68.494  1.00  0.00    -0.198 A  
HETATM   15  C   UNL     1      -8.514   9.807  69.984  1.00  0.00    -0.229 A  
HETATM   16  C   UNL     1     -10.884   9.557  70.286  1.00  0.00    -0.319 A  
HETATM   17  C   UNL     1     -11.107  10.406  69.197  1.00  0.00    -0.296 A  
HETATM   18  C   UNL     1      -8.739  10.657  68.892  1.00  0.00    -0.163 A  
HETATM   19  C   UNL     1      -9.588   9.270  70.690  1.00  0.00    -0.334 A  
ENDBRANCH   3  14
ENDBRANCH   2   3
TORSDOF 2
ENDMDL
MODEL       61
REMARK 921   NORMALIZED FREE ENERGY PREDICTED BY IDOCK:   -4.42 KCAL/MOL
REMARK 922        TOTAL FREE ENERGY PREDICTED BY IDOCK:   -4.98 KCAL/MOL
REMARK 923 INTER-LIGAND FREE ENERGY PREDICTED BY IDOCK:   -4.90 KCAL/MOL
REMARK 924 INTRA-LIGAND FREE ENERGY PREDICTED BY IDOCK:   -0.08 KCAL/MOL
REMARK 927      BINDING AFFINITY PREDICTED BY RF-SCORE:    0.00 PKD
ROOT
HETATM    1  C   UNL     1     -10.614   7.732  67.254  1.00  0.00    -0.376 C  
HETATM    2  C   UNL     1     -10.058   8.915  66.465  1.00  0.00    -0.356 C  
ENDROOT
BRANCH   2   3
HETATM    3  C   UNL     1      -9.931  10.299  67.191  1.00  0.00    -0.243 C  
HETATM    4  C   UNL     1     -10.985  10.354  68.308  1.00  0.00    -0.270 C  
HETATM    5  O   UNL     1      -7.508  10.673  67.143  1.00  0.00    -0.093 OA 
HETATM    6  C   UNL     1      -8.509  10.343  67.777  1.00  0.00    -0.114 C  
HETATM    7  N   UNL     1     -10.619   9.852  69.528  1.00  0.00    -0.226 N  
HETATM    8  O   UNL     1     -12.138  10.754  68.154  1.00  0.00    -0.493 OA 
HETATM    9  H   UNL     1      -7.400   9.734  69.381  1.00  0.00     0.000 HD 
HETATM   10  C   UNL     1      -9.344   9.692  69.975  1.00  0.00    -0.241 C  
HETATM   11  H   UNL     1     -11.369   9.573  70.159  1.00  0.00     0.000 HD 
HETATM   12  O   UNL     1      -9.099   9.418  71.143  1.00  0.00    -0.250 OA 
HETATM   13  N   UNL     1      -8.355   9.911  69.068  1.00  0.00    -0.121 N  
BRANCH   3  14
HETATM   14  C   UNL     1     -10.177  11.465  66.185  1.00  0.00    -0.282 A  
HETATM   15  C   UNL     1     -10.729  12.262  63.937  1.00  0.00    -0.463 A  
HETATM   16  C   UNL     1     -10.337  13.862  65.685  1.00  0.00    -0.337 A  
HETATM   17  C   UNL     1     -10.081  12.817  66.578  1.00  0.00    -0.264 A  
HETATM   18  C   UNL     1     -10.471  11.215  64.832  1.00  0.00    -0.372 A  
HETATM   19  C   UNL     1     -10.676  13.585  64.368  1.00  0.00    -0.402 A  
ENDBRANCH   3  14
ENDBRANCH   2   3
TORSDOF 2
ENDMDL
MODEL       62
REMARK 921   NORMALIZED FREE ENERGY PREDICTED BY IDOCK:   -4.39 KCAL/MOL
REMARK 922        TOTAL FREE ENERGY PREDICTED BY IDOCK:   -4.95 KCAL/MOL
REMARK 923 INTER-LIGAND FREE ENERGY PREDICTED BY IDOCK:   -4.91 KCAL/MOL
REMARK 924 INTRA-LIGAND FREE ENERGY PREDICTED BY IDOCK:   -0.04 KCAL/MOL
REMARK 927      BINDING AFFINITY PREDICTED BY RF-SCORE:    0.00 PKD
ROOT
HETATM    1  C   UNL     1     -10.838  14.133  65.342  1.00  0.00    -0.341 C  
HETATM    2  C   UNL     1     -11.118  15.489  65.985  1.00  0.00    -0.185 C  
ENDROOT
BRANCH   2   3
HETATM    3  C   UNL     1     -10.258  15.916  67.225  1.00  0.00    -0.278 C  
HETATM    4  C   UNL     1      -8.876  15.257  67.100  1.00  0.00    -0.212 C  
HETATM    5  O   UNL     1     -10.996  18.228  67.578  1.00  0.00    -0.335 OA 
HETATM    6  C   UNL     1     -10.142  17.449  67.156  1.00  0.00    -0.307 C  
HETATM    7  N   UNL     1      -7.925  15.946  66.396  1.00  0.00    -0.270 N  
HETATM    8  O   UNL     1      -8.600  14.138  67.532  1.00  0.00    -0.167 OA 
HETATM    9  H   UNL     1      -9.080  18.953  66.273  1.00  0.00     0.000 HD 
HETATM   10  C   UNL     1      -7.926  17.283  66.151  1.00  0.00    -0.257 C  
HETATM   11  H   UNL     1      -7.144  15.407  66.021  1.00  0.00     0.000 HD 
HETATM   12  O   UNL     1      -6.951  17.855  65.681  1.00  0.00    -0.434 OA 
HETATM   13  N   UNL     1      -9.049  17.962  66.510  1.00  0.00    -0.267 N  
BRANCH   3  14
HETATM   14  C   UNL     1     -10.942  15.448  68.546  1.00  0.00    -0.278 A  
HETATM   15  C   UNL     1     -11.188  15.564  70.979  1.00  0.00    -0.419 A  
HETATM   16  C   UNL     1     -12.599  14.077  69.727  1.00  0.00    -0.128 A  
HETATM   17  C   UNL     1     -11.960  14.471  68.547  1.00  0.00    -0.321 A  
HETATM   18  C   UNL     1     -10.547  15.957  69.796  1.00  0.00    -0.322 A  
HETATM   19  C   UNL     1     -12.224  14.634  70.942  1.00  0.00    -0.391 A  
ENDBRANCH   3  14
ENDBRANCH   2   3
TORSDOF 2
ENDMDL
MODEL       63
REMARK 921   NORMALIZED FREE ENERGY PREDICTED BY IDOCK:   -4.39 KCAL/MOL
REMARK 922        TOTAL FREE ENERGY PREDICTED BY IDOCK:   -4.95 KCAL/MOL
REMARK 923 INTER-LIGAND FREE ENERGY PREDICTED BY IDOCK:   -5.35 KCAL/MOL
REMARK 924 INTRA-LIGAND FREE ENERGY PREDICTED BY IDOCK:    0.40 KCAL/MOL
REMARK 927      BINDING AFFINITY PREDICTED BY RF-SCORE:    0.00 PKD
ROOT
HETATM    1  C   UNL     1      -9.595   7.666  69.094  1.00  0.00    -0.155 C  
HETATM    2  C   UNL     1     -10.995   7.938  69.638  1.00  0.00    -0.114 C  
ENDROOT
BRANCH   2   3
HETATM    3  C   UNL     1     -11.146   8.940  70.835  1.00  0.00    -0.328 C  
HETATM    4  C   UNL     1     -12.294   8.450  71.730  1.00  0.00    -0.331 C  
HETATM    5  O   UNL     1      -8.812   9.554  71.275  1.00  0.00    -0.235 OA 
HETATM    6  C   UNL     1      -9.806   8.903  71.593  1.00  0.00    -0.317 C  
HETATM    7  N   UNL     1     -11.970   7.557  72.717  1.00  0.00    -0.575 N  
HETATM    8  O   UNL     1     -13.475   8.756  71.572  1.00  0.00    -0.345 OA 
HETATM    9  H   UNL     1      -8.771   7.841  72.997  1.00  0.00     0.000 HD 
HETATM   10  C   UNL     1     -10.733   7.371  73.250  1.00  0.00    -0.391 C  
HETATM   11  H   UNL     1     -12.725   6.980  73.086  1.00  0.00     0.000 HD 
HETATM   12  O   UNL     1     -10.558   6.695  74.255  1.00  0.00    -0.271 OA 
HETATM   13  N   UNL     1      -9.708   8.024  72.639  1.00  0.00    -0.235 N  
BRANCH   3  14
HETATM   14  C   UNL     1     -11.470  10.371  70.307  1.00  0.00    -0.406 A  
HETATM   15  C   UNL     1     -12.456  12.590  70.623  1.00  0.00    -0.323 A  
HETATM   16  C   UNL     1     -11.337  12.087  68.557  1.00  0.00    -0.323 A  
HETATM   17  C   UNL     1     -11.079  10.792  69.018  1.00  0.00    -0.308 A  
HETATM   18  C   UNL     1     -12.197  11.292  71.083  1.00  0.00    -0.351 A  
HETATM   19  C   UNL     1     -12.012  12.992  69.365  1.00  0.00    -0.338 A  
ENDBRANCH   3  14
ENDBRANCH   2   3
TORSDOF 2
ENDMDL
MODEL       64
REMARK 921   NORMALIZED FREE ENERGY PREDICTED BY IDOCK:   -4.39 KCAL/MOL
REMARK 922        TOTAL FREE ENERGY PREDICTED BY IDOCK:   -4.95 KCAL/MOL
REMARK 923 INTER-LIGAND FREE ENERGY PREDICTED BY IDOCK:   -6.26 KCAL/MOL
REMARK 924 INTRA-LIGAND FREE ENERGY PREDICTED BY IDOCK:    1.31 KCAL/MOL
REMARK 927      BINDING AFFINITY PREDICTED BY RF-SCORE:    0.00 PKD
ROOT
HETATM    1  C   UNL     1      -8.961  14.441  68.131  1.00  0.00    -0.185 C  
HETATM    2  C   UNL     1      -9.712  13.138  68.390  1.00  0.00    -0.196 C  
ENDROOT
BRANCH   2   3
HETATM    3  C   UNL     1     -11.271  13.130  68.214  1.00  0.00    -0.307 C  
HETATM    4  C   UNL     1     -11.695  14.490  67.639  1.00  0.00    -0.382 C  
HETATM    5  O   UNL     1     -11.690  10.810  67.537  1.00  0.00    -0.510 OA 
HETATM    6  C   UNL     1     -11.581  11.995  67.223  1.00  0.00    -0.313 C  
HETATM    7  N   UNL     1     -11.694  14.611  66.274  1.00  0.00    -0.354 N  
HETATM    8  O   UNL     1     -11.967  15.477  68.321  1.00  0.00    -0.262 OA 
HETATM    9  H   UNL     1     -11.649  11.561  65.228  1.00  0.00     0.000 HD 
HETATM   10  C   UNL     1     -11.758  13.586  65.383  1.00  0.00    -0.332 C  
HETATM   11  H   UNL     1     -11.640  15.555  65.893  1.00  0.00     0.000 HD 
HETATM   12  O   UNL     1     -11.944  13.780  64.188  1.00  0.00    -0.429 OA 
HETATM   13  N   UNL     1     -11.662  12.331  65.897  1.00  0.00    -0.408 N  
BRANCH   3  14
HETATM   14  C   UNL     1     -11.972  12.904  69.589  1.00  0.00    -0.358 A  
HETATM   15  C   UNL     1     -12.992  13.780  71.634  1.00  0.00    -0.448 A  
HETATM   16  C   UNL     1     -12.908  11.404  71.291  1.00  0.00    -0.481 A  
HETATM   17  C   UNL     1     -12.247  11.608  70.076  1.00  0.00    -0.338 A  
HETATM   18  C   UNL     1     -12.329  13.983  70.416  1.00  0.00    -0.429 A  
HETATM   19  C   UNL     1     -13.295  12.491  72.063  1.00  0.00    -0.528 A  
ENDBRANCH   3  14
ENDBRANCH   2   3
TORSDOF 2
ENDMDL
MODEL       65
REMARK 921   NORMALIZED FREE ENERGY PREDICTED BY IDOCK:   -4.35 KCAL/MOL
REMARK 922        TOTAL FREE ENERGY PREDICTED BY IDOCK:   -4.91 KCAL/MOL
REMARK 923 INTER-LIGAND FREE ENERGY PREDICTED BY IDOCK:   -4.81 KCAL/MOL
REMARK 924 INTRA-LIGAND FREE ENERGY PREDICTED BY IDOCK:   -0.10 KCAL/MOL
REMARK 927      BINDING AFFINITY PREDICTED BY RF-SCORE:    0.00 PKD
ROOT
HETATM    1  C   UNL     1      -6.982  18.144  65.838  1.00  0.00    -0.319 C  
HETATM    2  C   UNL     1      -8.451  18.026  66.232  1.00  0.00    -0.214 C  
ENDROOT
BRANCH   2   3
HETATM    3  C   UNL     1      -8.795  17.694  67.726  1.00  0.00    -0.240 C  
HETATM    4  C   UNL     1      -7.522  17.169  68.406  1.00  0.00    -0.227 C  
HETATM    5  O   UNL     1     -10.392  19.471  68.282  1.00  0.00    -0.423 OA 
HETATM    6  C   UNL     1      -9.251  19.019  68.362  1.00  0.00    -0.352 C  
HETATM    7  N   UNL     1      -6.690  18.104  68.965  1.00  0.00    -0.251 N  
HETATM    8  O   UNL     1      -7.180  15.988  68.421  1.00  0.00    -0.120 OA 
HETATM    9  H   UNL     1      -8.539  20.733  69.216  1.00  0.00     0.000 HD 
HETATM   10  C   UNL     1      -7.043  19.362  69.341  1.00  0.00    -0.274 C  
HETATM   11  H   UNL     1      -5.719  17.831  69.112  1.00  0.00     0.000 HD 
HETATM   12  O   UNL     1      -6.297  20.070  70.005  1.00  0.00    -0.345 OA 
HETATM   13  N   UNL     1      -8.292  19.770  68.989  1.00  0.00    -0.151 N  
BRANCH   3  14
HETATM   14  C   UNL     1      -9.911  16.606  67.797  1.00  0.00    -0.252 A  
HETATM   15  C   UNL     1     -11.302  14.903  66.723  1.00  0.00    -0.328 A  
HETATM   16  C   UNL     1     -11.548  15.302  69.079  1.00  0.00    -0.360 A  
HETATM   17  C   UNL     1     -10.573  16.302  69.006  1.00  0.00    -0.286 A  
HETATM   18  C   UNL     1     -10.326  15.907  66.651  1.00  0.00    -0.302 A  
HETATM   19  C   UNL     1     -11.902  14.591  67.940  1.00  0.00    -0.370 A  
ENDBRANCH   3  14
ENDBRANCH   2   3
TORSDOF 2
ENDMDL
MODEL       66
REMARK 921   NORMALIZED FREE ENERGY PREDICTED BY IDOCK:   -4.35 KCAL/MOL
REMARK 922        TOTAL FREE ENERGY PREDICTED BY IDOCK:   -4.90 KCAL/MOL
REMARK 923 INTER-LIGAND FREE ENERGY PREDICTED BY IDOCK:   -4.85 KCAL/MOL
REMARK 924 INTRA-LIGAND FREE ENERGY PREDICTED BY IDOCK:   -0.05 KCAL/MOL
REMARK 927      BINDING AFFINITY PREDICTED BY RF-SCORE:    0.00 PKD
ROOT
HETATM    1  C   UNL     1      -9.833  13.785  66.736  1.00  0.00    -0.275 C  
HETATM    2  C   UNL     1      -9.250  15.148  66.373  1.00  0.00    -0.334 C  
ENDROOT
BRANCH   2   3
HETATM    3  C   UNL     1      -8.654  16.032  67.524  1.00  0.00    -0.190 C  
HETATM    4  C   UNL     1      -8.981  15.358  68.865  1.00  0.00    -0.208 C  
HETATM    5  O   UNL     1      -6.573  16.842  66.510  1.00  0.00    -0.220 OA 
HETATM    6  C   UNL     1      -7.134  16.071  67.287  1.00  0.00    -0.203 C  
HETATM    7  N   UNL     1      -8.087  14.427  69.323  1.00  0.00    -0.358 N  
HETATM    8  O   UNL     1     -10.012  15.554  69.506  1.00  0.00    -0.249 OA 
HETATM    9  H   UNL     1      -5.418  15.011  67.611  1.00  0.00     0.000 HD 
HETATM   10  C   UNL     1      -6.781  14.326  68.955  1.00  0.00    -0.100 C  
HETATM   11  H   UNL     1      -8.431  13.749  70.002  1.00  0.00     0.000 HD 
HETATM   12  O   UNL     1      -5.999  13.594  69.546  1.00  0.00    -0.096 OA 
HETATM   13  N   UNL     1      -6.379  15.126  67.932  1.00  0.00    -0.148 N  
BRANCH   3  14
HETATM   14  C   UNL     1      -9.279  17.460  67.491  1.00  0.00    -0.233 A  
HETATM   15  C   UNL     1      -9.584  19.679  68.478  1.00  0.00    -0.467 A  
HETATM   16  C   UNL     1     -10.658  19.166  66.391  1.00  0.00    -0.522 A  
HETATM   17  C   UNL     1     -10.126  17.874  66.441  1.00  0.00    -0.369 A  
HETATM   18  C   UNL     1      -9.052  18.384  68.527  1.00  0.00    -0.345 A  
HETATM   19  C   UNL     1     -10.375  20.075  67.402  1.00  0.00    -0.533 A  
ENDBRANCH   3  14
ENDBRANCH   2   3
TORSDOF 2
ENDMDL
MODEL       67
REMARK 921   NORMALIZED FREE ENERGY PREDICTED BY IDOCK:   -4.34 KCAL/MOL
REMARK 922        TOTAL FREE ENERGY PREDICTED BY IDOCK:   -4.90 KCAL/MOL
REMARK 923 INTER-LIGAND FREE ENERGY PREDICTED BY IDOCK:   -4.86 KCAL/MOL
REMARK 924 INTRA-LIGAND FREE ENERGY PREDICTED BY IDOCK:   -0.04 KCAL/MOL
REMARK 927      BINDING AFFINITY PREDICTED BY RF-SCORE:    0.00 PKD
ROOT
HETATM    1  C   UNL     1     -10.652  14.279  64.771  1.00  0.00    -0.434 C  
HETATM    2  C   UNL     1     -11.112  15.055  66.003  1.00  0.00    -0.329 C  
ENDROOT
BRANCH   2   3
HETATM    3  C   UNL     1     -10.461  14.706  67.387  1.00  0.00    -0.255 C  
HETATM    4  C   UNL     1     -11.567  14.719  68.453  1.00  0.00    -0.324 C  
HETATM    5  O   UNL     1      -8.760  13.060  66.743  1.00  0.00    -0.188 OA 
HETATM    6  C   UNL     1      -9.864  13.296  67.233  1.00  0.00    -0.233 C  
HETATM    7  N   UNL     1     -12.248  13.547  68.650  1.00  0.00    -0.302 N  
HETATM    8  O   UNL     1     -11.912  15.718  69.081  1.00  0.00    -0.387 OA 
HETATM    9  H   UNL     1     -10.356  11.315  67.297  1.00  0.00     0.000 HD 
HETATM   10  C   UNL     1     -11.808  12.303  68.321  1.00  0.00    -0.310 C  
HETATM   11  H   UNL     1     -13.169  13.614  69.083  1.00  0.00     0.000 HD 
HETATM   12  O   UNL     1     -12.386  11.293  68.700  1.00  0.00    -0.534 OA 
HETATM   13  N   UNL     1     -10.658  12.241  67.598  1.00  0.00    -0.211 N  
BRANCH   3  14
HETATM   14  C   UNL     1      -9.370  15.758  67.754  1.00  0.00    -0.206 A  
HETATM   15  C   UNL     1      -8.276  17.916  67.384  1.00  0.00    -0.224 A  
HETATM   16  C   UNL     1      -7.498  16.497  69.158  1.00  0.00    -0.218 A  
HETATM   17  C   UNL     1      -8.453  15.539  68.804  1.00  0.00    -0.190 A  
HETATM   18  C   UNL     1      -9.232  16.955  67.029  1.00  0.00    -0.246 A  
HETATM   19  C   UNL     1      -7.419  17.693  68.458  1.00  0.00    -0.269 A  
ENDBRANCH   3  14
ENDBRANCH   2   3
TORSDOF 2
ENDMDL
MODEL       68
REMARK 921   NORMALIZED FREE ENERGY PREDICTED BY IDOCK:   -4.34 KCAL/MOL
REMARK 922        TOTAL FREE ENERGY PREDICTED BY IDOCK:   -4.89 KCAL/MOL
REMARK 923 INTER-LIGAND FREE ENERGY PREDICTED BY IDOCK:   -4.74 KCAL/MOL
REMARK 924 INTRA-LIGAND FREE ENERGY PREDICTED BY IDOCK:   -0.16 KCAL/MOL
REMARK 927      BINDING AFFINITY PREDICTED BY RF-SCORE:    0.00 PKD
ROOT
HETATM    1  C   UNL     1     -13.614   7.434  71.521  1.00  0.00    -0.454 C  
HETATM    2  C   UNL     1     -12.307   7.650  72.278  1.00  0.00    -0.227 C  
ENDROOT
BRANCH   2   3
HETATM    3  C   UNL     1     -10.973   7.156  71.617  1.00  0.00    -0.255 C  
HETATM    4  C   UNL     1     -11.169   7.144  70.093  1.00  0.00    -0.262 C  
HETATM    5  O   UNL     1      -9.282   8.148  73.090  1.00  0.00    -0.261 OA 
HETATM    6  C   UNL     1      -9.893   8.174  72.023  1.00  0.00    -0.232 C  
HETATM    7  N   UNL     1     -10.890   8.306  69.426  1.00  0.00    -0.401 N  
HETATM    8  O   UNL     1     -11.616   6.189  69.459  1.00  0.00    -0.396 OA 
HETATM    9  H   UNL     1      -9.119   9.997  71.523  1.00  0.00     0.000 HD 
HETATM   10  C   UNL     1     -10.095   9.314  69.875  1.00  0.00    -0.209 C  
HETATM   11  H   UNL     1     -11.318   8.428  68.508  1.00  0.00     0.000 HD 
HETATM   12  O   UNL     1      -9.741  10.231  69.146  1.00  0.00    -0.195 OA 
HETATM   13  N   UNL     1      -9.666   9.216  71.162  1.00  0.00    -0.290 N  
BRANCH   3  14
HETATM   14  C   UNL     1     -10.624   5.718  72.109  1.00  0.00    -0.268 A  
HETATM   15  C   UNL     1     -11.100   3.768  73.510  1.00  0.00    -0.328 A  
HETATM   16  C   UNL     1      -9.212   3.712  72.027  1.00  0.00    -0.169 A  
HETATM   17  C   UNL     1      -9.505   5.016  71.613  1.00  0.00    -0.198 A  
HETATM   18  C   UNL     1     -11.392   5.074  73.096  1.00  0.00    -0.397 A  
HETATM   19  C   UNL     1     -10.018   3.082  72.964  1.00  0.00    -0.194 A  
ENDBRANCH   3  14
ENDBRANCH   2   3
TORSDOF 2
ENDMDL
MODEL       69
REMARK 921   NORMALIZED FREE ENERGY PREDICTED BY IDOCK:   -4.32 KCAL/MOL
REMARK 922        TOTAL FREE ENERGY PREDICTED BY IDOCK:   -4.88 KCAL/MOL
REMARK 923 INTER-LIGAND FREE ENERGY PREDICTED BY IDOCK:   -5.12 KCAL/MOL
REMARK 924 INTRA-LIGAND FREE ENERGY PREDICTED BY IDOCK:    0.24 KCAL/MOL
REMARK 927      BINDING AFFINITY PREDICTED BY RF-SCORE:    0.00 PKD
ROOT
HETATM    1  C   UNL     1     -10.398  19.803  68.548  1.00  0.00    -0.472 C  
HETATM    2  C   UNL     1      -9.613  18.502  68.702  1.00  0.00    -0.382 C  
ENDROOT
BRANCH   2   3
HETATM    3  C   UNL     1      -8.885  17.920  67.441  1.00  0.00    -0.245 C  
HETATM    4  C   UNL     1      -8.177  16.620  67.853  1.00  0.00    -0.180 C  
HETATM    5  O   UNL     1     -10.457  18.485  65.645  1.00  0.00    -0.615 OA 
HETATM    6  C   UNL     1      -9.987  17.638  66.404  1.00  0.00    -0.334 C  
HETATM    7  N   UNL     1      -8.910  15.466  67.774  1.00  0.00    -0.167 N  
HETATM    8  O   UNL     1      -7.034  16.566  68.304  1.00  0.00    -0.136 OA 
HETATM    9  H   UNL     1     -11.390  16.253  65.869  1.00  0.00     0.000 HD 
HETATM   10  C   UNL     1     -10.020  15.276  67.011  1.00  0.00    -0.234 C  
HETATM   11  H   UNL     1      -8.595  14.677  68.339  1.00  0.00     0.000 HD 
HETATM   12  O   UNL     1     -10.507  14.165  66.846  1.00  0.00    -0.269 OA 
HETATM   13  N   UNL     1     -10.524  16.378  66.394  1.00  0.00    -0.304 N  
BRANCH   3  14
HETATM   14  C   UNL     1      -7.833  18.938  66.902  1.00  0.00    -0.256 A  
HETATM   15  C   UNL     1      -6.590  21.035  67.117  1.00  0.00    -0.424 A  
HETATM   16  C   UNL     1      -6.167  19.610  65.231  1.00  0.00    -0.282 A  
HETATM   17  C   UNL     1      -7.136  18.715  65.696  1.00  0.00    -0.215 A  
HETATM   18  C   UNL     1      -7.561  20.139  67.582  1.00  0.00    -0.339 A  
HETATM   19  C   UNL     1      -5.882  20.763  65.949  1.00  0.00    -0.263 A  
ENDBRANCH   3  14
ENDBRANCH   2   3
TORSDOF 2
ENDMDL
MODEL       70
REMARK 921   NORMALIZED FREE ENERGY PREDICTED BY IDOCK:   -4.32 KCAL/MOL
REMARK 922        TOTAL FREE ENERGY PREDICTED BY IDOCK:   -4.87 KCAL/MOL
REMARK 923 INTER-LIGAND FREE ENERGY PREDICTED BY IDOCK:   -5.19 KCAL/MOL
REMARK 924 INTRA-LIGAND FREE ENERGY PREDICTED BY IDOCK:    0.32 KCAL/MOL
REMARK 927      BINDING AFFINITY PREDICTED BY RF-SCORE:    0.00 PKD
ROOT
HETATM    1  C   UNL     1     -12.505  13.182  65.369  1.00  0.00    -0.535 C  
HETATM    2  C   UNL     1     -11.431  12.463  66.183  1.00  0.00    -0.430 C  
ENDROOT
BRANCH   2   3
HETATM    3  C   UNL     1     -10.881  13.166  67.472  1.00  0.00    -0.269 C  
HETATM    4  C   UNL     1      -9.354  12.998  67.495  1.00  0.00    -0.200 C  
HETATM    5  O   UNL     1     -12.365  15.110  67.659  1.00  0.00     0.158 OA 
HETATM    6  C   UNL     1     -11.267  14.650  67.346  1.00  0.00    -0.342 C  
HETATM    7  N   UNL     1      -8.618  13.953  66.845  1.00  0.00    -0.398 N  
HETATM    8  O   UNL     1      -8.769  12.040  67.997  1.00  0.00    -0.160 OA 
HETATM    9  H   UNL     1     -10.677  16.409  66.492  1.00  0.00     0.000 HD 
HETATM   10  C   UNL     1      -9.034  15.212  66.542  1.00  0.00    -0.291 C  
HETATM   11  H   UNL     1      -7.672  13.697  66.563  1.00  0.00     0.000 HD 
HETATM   12  O   UNL     1      -8.259  16.067  66.133  1.00  0.00    -0.268 OA 
HETATM   13  N   UNL     1     -10.345  15.487  66.774  1.00  0.00    -0.281 N  
BRANCH   3  14
HETATM   14  C   UNL     1     -11.496  12.516  68.749  1.00  0.00    -0.353 A  
HETATM   15  C   UNL     1     -12.334  10.557  69.955  1.00  0.00    -0.247 A  
HETATM   16  C   UNL     1     -12.307  12.690  71.059  1.00  0.00    -0.307 A  
HETATM   17  C   UNL     1     -11.790  13.278  69.900  1.00  0.00    -0.380 A  
HETATM   18  C   UNL     1     -11.816  11.148  68.794  1.00  0.00    -0.388 A  
HETATM   19  C   UNL     1     -12.565  11.327  71.092  1.00  0.00    -0.501 A  
ENDBRANCH   3  14
ENDBRANCH   2   3
TORSDOF 2
ENDMDL
MODEL       71
REMARK 921   NORMALIZED FREE ENERGY PREDICTED BY IDOCK:   -4.31 KCAL/MOL
REMARK 922        TOTAL FREE ENERGY PREDICTED BY IDOCK:   -4.86 KCAL/MOL
REMARK 923 INTER-LIGAND FREE ENERGY PREDICTED BY IDOCK:   -4.85 KCAL/MOL
REMARK 924 INTRA-LIGAND FREE ENERGY PREDICTED BY IDOCK:   -0.01 KCAL/MOL
REMARK 927      BINDING AFFINITY PREDICTED BY RF-SCORE:    0.00 PKD
ROOT
HETATM    1  C   UNL     1     -10.757  12.641  64.362  1.00  0.00    -0.384 C  
HETATM    2  C   UNL     1     -10.264  13.972  64.923  1.00  0.00    -0.377 C  
ENDROOT
BRANCH   2   3
HETATM    3  C   UNL     1     -10.376  14.213  66.469  1.00  0.00    -0.284 C  
HETATM    4  C   UNL     1     -11.686  13.580  66.960  1.00  0.00    -0.383 C  
HETATM    5  O   UNL     1      -8.037  14.010  67.180  1.00  0.00    -0.174 OA 
HETATM    6  C   UNL     1      -9.159  13.512  67.098  1.00  0.00    -0.232 C  
HETATM    7  N   UNL     1     -11.637  12.261  67.324  1.00  0.00    -0.354 N  
HETATM    8  O   UNL     1     -12.771  14.161  66.983  1.00  0.00    -0.060 OA 
HETATM    9  H   UNL     1      -8.490  11.688  67.729  1.00  0.00     0.000 HD 
HETATM   10  C   UNL     1     -10.519  11.574  67.683  1.00  0.00    -0.189 C  
HETATM   11  H   UNL     1     -12.517  11.747  67.326  1.00  0.00     0.000 HD 
HETATM   12  O   UNL     1     -10.580  10.455  68.176  1.00  0.00    -0.182 OA 
HETATM   13  N   UNL     1      -9.334  12.220  67.518  1.00  0.00    -0.178 N  
BRANCH   3  14
HETATM   14  C   UNL     1     -10.385  15.741  66.781  1.00  0.00    -0.293 A  
HETATM   15  C   UNL     1     -10.315  18.072  66.035  1.00  0.00    -0.333 A  
HETATM   16  C   UNL     1     -10.523  17.598  68.380  1.00  0.00    -0.360 A  
HETATM   17  C   UNL     1     -10.478  16.228  68.102  1.00  0.00    -0.289 A  
HETATM   18  C   UNL     1     -10.268  16.699  65.757  1.00  0.00    -0.328 A  
HETATM   19  C   UNL     1     -10.458  18.520  67.345  1.00  0.00    -0.455 A  
ENDBRANCH   3  14
ENDBRANCH   2   3
TORSDOF 2
ENDMDL
MODEL       72
REMARK 921   NORMALIZED FREE ENERGY PREDICTED BY IDOCK:   -4.31 KCAL/MOL
REMARK 922        TOTAL FREE ENERGY PREDICTED BY IDOCK:   -4.86 KCAL/MOL
REMARK 923 INTER-LIGAND FREE ENERGY PREDICTED BY IDOCK:   -5.03 KCAL/MOL
REMARK 924 INTRA-LIGAND FREE ENERGY PREDICTED BY IDOCK:    0.18 KCAL/MOL
REMARK 927      BINDING AFFINITY PREDICTED BY RF-SCORE:    0.00 PKD
ROOT
HETATM    1  C   UNL     1      -8.122  16.118  66.928  1.00  0.00    -0.275 C  
HETATM    2  C   UNL     1      -8.475  14.713  67.410  1.00  0.00    -0.219 C  
ENDROOT
BRANCH   2   3
HETATM    3  C   UNL     1      -9.968  14.244  67.305  1.00  0.00    -0.252 C  
HETATM    4  C   UNL     1     -10.606  14.941  66.094  1.00  0.00    -0.318 C  
HETATM    5  O   UNL     1      -9.809  11.899  68.009  1.00  0.00    -0.178 OA 
HETATM    6  C   UNL     1      -9.921  12.719  67.098  1.00  0.00    -0.218 C  
HETATM    7  N   UNL     1     -10.483  14.312  64.884  1.00  0.00    -0.429 N  
HETATM    8  O   UNL     1     -11.153  16.042  66.137  1.00  0.00    -0.151 OA 
HETATM    9  H   UNL     1      -9.679  11.288  65.662  1.00  0.00     0.000 HD 
HETATM   10  C   UNL     1     -10.231  12.989  64.694  1.00  0.00    -0.302 C  
HETATM   11  H   UNL     1     -10.590  14.888  64.049  1.00  0.00     0.000 HD 
HETATM   12  O   UNL     1     -10.324  12.466  63.591  1.00  0.00    -0.424 OA 
HETATM   13  N   UNL     1      -9.927  12.267  65.805  1.00  0.00    -0.252 N  
BRANCH   3  14
HETATM   14  C   UNL     1     -10.749  14.627  68.599  1.00  0.00    -0.252 A  
HETATM   15  C   UNL     1     -12.554  14.220  70.201  1.00  0.00    -0.338 A  
HETATM   16  C   UNL     1     -11.058  16.063  70.565  1.00  0.00    -0.370 A  
HETATM   17  C   UNL     1     -10.381  15.740  69.385  1.00  0.00    -0.263 A  
HETATM   18  C   UNL     1     -11.876  13.897  69.018  1.00  0.00    -0.397 A  
HETATM   19  C   UNL     1     -12.135  15.294  70.982  1.00  0.00    -0.397 A  
ENDBRANCH   3  14
ENDBRANCH   2   3
TORSDOF 2
ENDMDL
MODEL       73
REMARK 921   NORMALIZED FREE ENERGY PREDICTED BY IDOCK:   -4.30 KCAL/MOL
REMARK 922        TOTAL FREE ENERGY PREDICTED BY IDOCK:   -4.85 KCAL/MOL
REMARK 923 INTER-LIGAND FREE ENERGY PREDICTED BY IDOCK:   -4.79 KCAL/MOL
REMARK 924 INTRA-LIGAND FREE ENERGY PREDICTED BY IDOCK:   -0.07 KCAL/MOL
REMARK 927      BINDING AFFINITY PREDICTED BY RF-SCORE:    0.00 PKD
ROOT
HETATM    1  C   UNL     1      -8.801  14.483  66.630  1.00  0.00    -0.214 C  
HETATM    2  C   UNL     1      -9.621  15.759  66.805  1.00  0.00    -0.253 C  
ENDROOT
BRANCH   2   3
HETATM    3  C   UNL     1      -9.650  16.436  68.219  1.00  0.00    -0.221 C  
HETATM    4  C   UNL     1      -8.262  16.273  68.858  1.00  0.00    -0.231 C  
HETATM    5  O   UNL     1     -11.105  18.370  67.822  1.00  0.00    -0.218 OA 
HETATM    6  C   UNL     1      -9.970  17.921  67.974  1.00  0.00    -0.333 C  
HETATM    7  N   UNL     1      -7.337  17.245  68.581  1.00  0.00    -0.228 N  
HETATM    8  O   UNL     1      -7.921  15.306  69.537  1.00  0.00    -0.222 OA 
HETATM    9  H   UNL     1      -9.104  19.701  67.466  1.00  0.00     0.000 HD 
HETATM   10  C   UNL     1      -7.609  18.508  68.158  1.00  0.00    -0.274 C  
HETATM   11  H   UNL     1      -6.356  16.998  68.703  1.00  0.00     0.000 HD 
HETATM   12  O   UNL     1      -6.745  19.374  68.115  1.00  0.00    -0.246 OA 
HETATM   13  N   UNL     1      -8.905  18.773  67.841  1.00  0.00    -0.290 N  
BRANCH   3  14
HETATM   14  C   UNL     1     -10.724  15.757  69.124  1.00  0.00    -0.246 A  
HETATM   15  C   UNL     1     -12.374  13.993  69.519  1.00  0.00    -0.275 A  
HETATM   16  C   UNL     1     -11.985  15.638  71.225  1.00  0.00    -0.467 A  
HETATM   17  C   UNL     1     -11.049  16.268  70.398  1.00  0.00    -0.322 A  
HETATM   18  C   UNL     1     -11.436  14.625  68.691  1.00  0.00    -0.326 A  
HETATM   19  C   UNL     1     -12.637  14.492  70.793  1.00  0.00    -0.418 A  
ENDBRANCH   3  14
ENDBRANCH   2   3
TORSDOF 2
ENDMDL
MODEL       74
REMARK 921   NORMALIZED FREE ENERGY PREDICTED BY IDOCK:   -4.28 KCAL/MOL
REMARK 922        TOTAL FREE ENERGY PREDICTED BY IDOCK:   -4.83 KCAL/MOL
REMARK 923 INTER-LIGAND FREE ENERGY PREDICTED BY IDOCK:   -4.86 KCAL/MOL
REMARK 924 INTRA-LIGAND FREE ENERGY PREDICTED BY IDOCK:    0.03 KCAL/MOL
REMARK 927      BINDING AFFINITY PREDICTED BY RF-SCORE:    0.00 PKD
ROOT
HETATM    1  C   UNL     1      -8.276  10.393  68.998  1.00  0.00    -0.141 C  
HETATM    2  C   UNL     1      -8.796  11.519  68.108  1.00  0.00    -0.165 C  
ENDROOT
BRANCH   2   3
HETATM    3  C   UNL     1     -10.291  11.462  67.636  1.00  0.00    -0.209 C  
HETATM    4  C   UNL     1     -10.882  10.115  68.076  1.00  0.00    -0.270 C  
HETATM    5  O   UNL     1     -11.001  13.791  67.933  1.00  0.00    -0.244 OA 
HETATM    6  C   UNL     1     -11.004  12.630  68.340  1.00  0.00    -0.257 C  
HETATM    7  N   UNL     1     -11.435  10.062  69.328  1.00  0.00    -0.445 N  
HETATM    8  O   UNL     1     -10.830   9.083  67.407  1.00  0.00    -0.230 OA 
HETATM    9  H   UNL     1     -11.889  13.159  70.103  1.00  0.00     0.000 HD 
HETATM   10  C   UNL     1     -11.881  11.126  70.048  1.00  0.00    -0.361 C  
HETATM   11  H   UNL     1     -11.521   9.142  69.758  1.00  0.00     0.000 HD 
HETATM   12  O   UNL     1     -12.534  10.983  71.074  1.00  0.00    -0.358 OA 
HETATM   13  N   UNL     1     -11.611  12.357  69.537  1.00  0.00    -0.293 N  
BRANCH   3  14
HETATM   14  C   UNL     1     -10.374  11.587  66.083  1.00  0.00    -0.287 A  
HETATM   15  C   UNL     1     -11.610  12.172  64.053  1.00  0.00    -0.504 A  
HETATM   16  C   UNL     1      -9.350  11.380  63.863  1.00  0.00    -0.099 A  
HETATM   17  C   UNL     1      -9.289  11.234  65.252  1.00  0.00    -0.225 A  
HETATM   18  C   UNL     1     -11.548  12.025  65.445  1.00  0.00    -0.343 A  
HETATM   19  C   UNL     1     -10.505  11.864  63.263  1.00  0.00    -0.427 A  
ENDBRANCH   3  14
ENDBRANCH   2   3
TORSDOF 2
ENDMDL
MODEL       75
REMARK 921   NORMALIZED FREE ENERGY PREDICTED BY IDOCK:   -4.23 KCAL/MOL
REMARK 922        TOTAL FREE ENERGY PREDICTED BY IDOCK:   -4.77 KCAL/MOL
REMARK 923 INTER-LIGAND FREE ENERGY PREDICTED BY IDOCK:   -4.67 KCAL/MOL
REMARK 924 INTRA-LIGAND FREE ENERGY PREDICTED BY IDOCK:   -0.11 KCAL/MOL
REMARK 927      BINDING AFFINITY PREDICTED BY RF-SCORE:    0.00 PKD
ROOT
HETATM    1  C   UNL     1      -8.960   7.972  71.581  1.00  0.00    -0.192 C  
HETATM    2  C   UNL     1      -9.412   9.338  71.073  1.00  0.00    -0.313 C  
ENDROOT
BRANCH   2   3
HETATM    3  C   UNL     1     -10.650   9.401  70.111  1.00  0.00    -0.279 C  
HETATM    4  C   UNL     1     -10.883   7.995  69.537  1.00  0.00    -0.129 C  
HETATM    5  O   UNL     1     -12.097  11.015  71.258  1.00  0.00    -0.295 OA 
HETATM    6  C   UNL     1     -11.841   9.845  70.978  1.00  0.00    -0.376 C  
HETATM    7  N   UNL     1     -11.685   7.157  70.265  1.00  0.00    -0.525 N  
HETATM    8  O   UNL     1     -10.350   7.566  68.515  1.00  0.00    -0.193 OA 
HETATM    9  H   UNL     1     -13.254   9.135  72.271  1.00  0.00     0.000 HD 
HETATM   10  C   UNL     1     -12.602   7.538  71.195  1.00  0.00    -0.260 C  
HETATM   11  H   UNL     1     -11.585   6.157  70.095  1.00  0.00     0.000 HD 
HETATM   12  O   UNL     1     -13.412   6.748  71.664  1.00  0.00    -0.276 OA 
HETATM   13  N   UNL     1     -12.610   8.855  71.531  1.00  0.00    -0.321 N  
BRANCH   3  14
HETATM   14  C   UNL     1     -10.380  10.402  68.946  1.00  0.00    -0.227 A  
HETATM   15  C   UNL     1     -11.153  11.669  66.999  1.00  0.00    -0.359 A  
HETATM   16  C   UNL     1      -8.876  11.908  67.724  1.00  0.00    -0.166 A  
HETATM   17  C   UNL     1      -9.109  10.983  68.747  1.00  0.00    -0.161 A  
HETATM   18  C   UNL     1     -11.386  10.741  68.023  1.00  0.00    -0.378 A  
HETATM   19  C   UNL     1      -9.902  12.264  66.860  1.00  0.00    -0.216 A  
ENDBRANCH   3  14
ENDBRANCH   2   3
TORSDOF 2
ENDMDL
MODEL       76
REMARK 921   NORMALIZED FREE ENERGY PREDICTED BY IDOCK:   -4.20 KCAL/MOL
REMARK 922        TOTAL FREE ENERGY PREDICTED BY IDOCK:   -4.74 KCAL/MOL
REMARK 923 INTER-LIGAND FREE ENERGY PREDICTED BY IDOCK:   -4.90 KCAL/MOL
REMARK 924 INTRA-LIGAND FREE ENERGY PREDICTED BY IDOCK:    0.16 KCAL/MOL
REMARK 927      BINDING AFFINITY PREDICTED BY RF-SCORE:    0.00 PKD
ROOT
HETATM    1  C   UNL     1     -12.383  14.522  64.695  1.00  0.00    -0.419 C  
HETATM    2  C   UNL     1     -12.586  13.828  66.039  1.00  0.00    -0.458 C  
ENDROOT
BRANCH   2   3
HETATM    3  C   UNL     1     -11.317  13.384  66.847  1.00  0.00    -0.351 C  
HETATM    4  C   UNL     1     -11.491  11.910  67.242  1.00  0.00    -0.317 C  
HETATM    5  O   UNL     1      -9.535  14.624  65.705  1.00  0.00    -0.246 OA 
HETATM    6  C   UNL     1     -10.123  13.559  65.892  1.00  0.00    -0.303 C  
HETATM    7  N   UNL     1     -11.057  10.974  66.342  1.00  0.00    -0.145 N  
HETATM    8  O   UNL     1     -12.046  11.529  68.272  1.00  0.00    -0.580 OA 
HETATM    9  H   UNL     1      -9.117  12.635  64.374  1.00  0.00     0.000 HD 
HETATM   10  C   UNL     1     -10.147  11.181  65.352  1.00  0.00    -0.264 C  
HETATM   11  H   UNL     1     -11.452  10.038  66.420  1.00  0.00     0.000 HD 
HETATM   12  O   UNL     1      -9.669  10.254  64.711  1.00  0.00    -0.287 OA 
HETATM   13  N   UNL     1      -9.753  12.467  65.153  1.00  0.00    -0.122 N  
BRANCH   3  14
HETATM   14  C   UNL     1     -11.160  14.254  68.132  1.00  0.00    -0.275 A  
HETATM   15  C   UNL     1      -9.763  15.248  69.879  1.00  0.00    -0.108 A  
HETATM   16  C   UNL     1     -12.127  15.676  69.883  1.00  0.00    -0.360 A  
HETATM   17  C   UNL     1     -12.271  14.867  68.752  1.00  0.00    -0.122 A  
HETATM   18  C   UNL     1      -9.908  14.436  68.746  1.00  0.00    -0.214 A  
HETATM   19  C   UNL     1     -10.871  15.881  70.438  1.00  0.00    -0.325 A  
ENDBRANCH   3  14
ENDBRANCH   2   3
TORSDOF 2
ENDMDL
MODEL       77
REMARK 921   NORMALIZED FREE ENERGY PREDICTED BY IDOCK:   -4.19 KCAL/MOL
REMARK 922        TOTAL FREE ENERGY PREDICTED BY IDOCK:   -4.73 KCAL/MOL
REMARK 923 INTER-LIGAND FREE ENERGY PREDICTED BY IDOCK:   -4.78 KCAL/MOL
REMARK 924 INTRA-LIGAND FREE ENERGY PREDICTED BY IDOCK:    0.05 KCAL/MOL
REMARK 927      BINDING AFFINITY PREDICTED BY RF-SCORE:    0.00 PKD
ROOT
HETATM    1  C   UNL     1      -8.876  12.344  67.802  1.00  0.00    -0.176 C  
HETATM    2  C   UNL     1      -8.597  10.945  67.259  1.00  0.00    -0.128 C  
ENDROOT
BRANCH   2   3
HETATM    3  C   UNL     1      -9.798  10.119  66.679  1.00  0.00    -0.253 C  
HETATM    4  C   UNL     1     -11.056  10.999  66.735  1.00  0.00    -0.172 C  
HETATM    5  O   UNL     1      -8.714   8.842  64.888  1.00  0.00    -0.184 OA 
HETATM    6  C   UNL     1      -9.424   9.789  65.223  1.00  0.00    -0.279 C  
HETATM    7  N   UNL     1     -11.291  11.810  65.656  1.00  0.00    -0.279 N  
HETATM    8  O   UNL     1     -11.814  11.065  67.701  1.00  0.00    -0.599 OA 
HETATM    9  H   UNL     1      -9.431  10.566  63.335  1.00  0.00     0.000 HD 
HETATM   10  C   UNL     1     -10.789  11.637  64.404  1.00  0.00    -0.339 C  
HETATM   11  H   UNL     1     -11.898  12.615  65.805  1.00  0.00     0.000 HD 
HETATM   12  O   UNL     1     -11.194  12.289  63.451  1.00  0.00    -0.438 OA 
HETATM   13  N   UNL     1      -9.855  10.660  64.258  1.00  0.00    -0.305 N  
BRANCH   3  14
HETATM   14  C   UNL     1     -10.027   8.828  67.524  1.00  0.00    -0.254 A  
HETATM   15  C   UNL     1     -10.821   6.522  67.723  1.00  0.00    -0.395 A  
HETATM   16  C   UNL     1      -9.820   7.585  69.630  1.00  0.00    -0.180 A  
HETATM   17  C   UNL     1      -9.649   8.755  68.882  1.00  0.00    -0.158 A  
HETATM   18  C   UNL     1     -10.650   7.694  66.974  1.00  0.00    -0.406 A  
HETATM   19  C   UNL     1     -10.392   6.463  69.047  1.00  0.00    -0.238 A  
ENDBRANCH   3  14
ENDBRANCH   2   3
TORSDOF 2
ENDMDL
MODEL       78
REMARK 921   NORMALIZED FREE ENERGY PREDICTED BY IDOCK:   -4.19 KCAL/MOL
REMARK 922        TOTAL FREE ENERGY PREDICTED BY IDOCK:   -4.73 KCAL/MOL
REMARK 923 INTER-LIGAND FREE ENERGY PREDICTED BY IDOCK:   -4.61 KCAL/MOL
REMARK 924 INTRA-LIGAND FREE ENERGY PREDICTED BY IDOCK:   -0.12 KCAL/MOL
REMARK 927      BINDING AFFINITY PREDICTED BY RF-SCORE:    0.00 PKD
ROOT
HETATM    1  C   UNL     1      -9.203   9.531  69.614  1.00  0.00    -0.212 C  
HETATM    2  C   UNL     1      -9.307   8.826  70.964  1.00  0.00    -0.280 C  
ENDROOT
BRANCH   2   3
HETATM    3  C   UNL     1     -10.208   7.547  71.068  1.00  0.00    -0.194 C  
HETATM    4  C   UNL     1     -10.177   6.827  69.711  1.00  0.00    -0.187 C  
HETATM    5  O   UNL     1      -9.785   6.818  73.371  1.00  0.00    -0.165 OA 
HETATM    6  C   UNL     1      -9.580   6.672  72.167  1.00  0.00    -0.147 C  
HETATM    7  N   UNL     1      -9.172   5.917  69.517  1.00  0.00    -0.134 N  
HETATM    8  O   UNL     1     -10.949   7.065  68.782  1.00  0.00    -0.183 OA 
HETATM    9  H   UNL     1      -8.105   5.298  72.496  1.00  0.00     0.000 HD 
HETATM   10  C   UNL     1      -8.465   5.290  70.494  1.00  0.00    -0.120 C  
HETATM   11  H   UNL     1      -8.933   5.689  68.552  1.00  0.00     0.000 HD 
HETATM   12  O   UNL     1      -7.717   4.353  70.249  1.00  0.00    -0.052 OA 
HETATM   13  N   UNL     1      -8.677   5.723  71.766  1.00  0.00    -0.135 N  
BRANCH   3  14
HETATM   14  C   UNL     1     -11.676   7.944  71.414  1.00  0.00    -0.311 A  
HETATM   15  C   UNL     1     -13.335   9.619  72.072  1.00  0.00    -0.547 A  
HETATM   16  C   UNL     1     -14.047   7.361  71.668  1.00  0.00    -0.552 A  
HETATM   17  C   UNL     1     -12.724   6.999  71.392  1.00  0.00    -0.421 A  
HETATM   18  C   UNL     1     -12.010   9.255  71.797  1.00  0.00    -0.455 A  
HETATM   19  C   UNL     1     -14.355   8.675  71.992  1.00  0.00    -0.512 A  
ENDBRANCH   3  14
ENDBRANCH   2   3
TORSDOF 2
ENDMDL
MODEL       79
REMARK 921   NORMALIZED FREE ENERGY PREDICTED BY IDOCK:   -4.19 KCAL/MOL
REMARK 922        TOTAL FREE ENERGY PREDICTED BY IDOCK:   -4.72 KCAL/MOL
REMARK 923 INTER-LIGAND FREE ENERGY PREDICTED BY IDOCK:   -4.74 KCAL/MOL
REMARK 924 INTRA-LIGAND FREE ENERGY PREDICTED BY IDOCK:    0.02 KCAL/MOL
REMARK 927      BINDING AFFINITY PREDICTED BY RF-SCORE:    0.00 PKD
ROOT
HETATM    1  C   UNL     1     -10.551   6.017  68.065  1.00  0.00    -0.330 C  
HETATM    2  C   UNL     1     -10.959   6.016  69.536  1.00  0.00    -0.467 C  
ENDROOT
BRANCH   2   3
HETATM    3  C   UNL     1     -10.666   7.300  70.389  1.00  0.00    -0.253 C  
HETATM    4  C   UNL     1      -9.670   6.923  71.496  1.00  0.00    -0.162 C  
HETATM    5  O   UNL     1     -10.698   9.058  68.680  1.00  0.00    -0.188 OA 
HETATM    6  C   UNL     1     -10.047   8.323  69.420  1.00  0.00    -0.198 C  
HETATM    7  N   UNL     1      -8.339   7.011  71.185  1.00  0.00    -0.117 N  
HETATM    8  O   UNL     1      -9.993   6.492  72.602  1.00  0.00    -0.170 OA 
HETATM    9  H   UNL     1      -8.281   8.860  68.544  1.00  0.00     0.000 HD 
HETATM   10  C   UNL     1      -7.801   7.759  70.185  1.00  0.00    -0.095 C  
HETATM   11  H   UNL     1      -7.692   6.467  71.756  1.00  0.00     0.000 HD 
HETATM   12  O   UNL     1      -6.593   7.937  70.090  1.00  0.00    -0.037 OA 
HETATM   13  N   UNL     1      -8.680   8.348  69.331  1.00  0.00    -0.136 N  
BRANCH   3  14
HETATM   14  C   UNL     1     -11.981   7.836  71.031  1.00  0.00    -0.281 A  
HETATM   15  C   UNL     1     -14.315   7.518  71.697  1.00  0.00    -0.621 A  
HETATM   16  C   UNL     1     -13.239   9.614  72.163  1.00  0.00    -0.535 A  
HETATM   17  C   UNL     1     -12.071   9.144  71.554  1.00  0.00    -0.422 A  
HETATM   18  C   UNL     1     -13.145   7.049  71.086  1.00  0.00    -0.260 A  
HETATM   19  C   UNL     1     -14.357   8.796  72.249  1.00  0.00    -0.468 A  
ENDBRANCH   3  14
ENDBRANCH   2   3
TORSDOF 2
ENDMDL
MODEL       80
REMARK 921   NORMALIZED FREE ENERGY PREDICTED BY IDOCK:   -4.18 KCAL/MOL
REMARK 922        TOTAL FREE ENERGY PREDICTED BY IDOCK:   -4.72 KCAL/MOL
REMARK 923 INTER-LIGAND FREE ENERGY PREDICTED BY IDOCK:   -4.55 KCAL/MOL
REMARK 924 INTRA-LIGAND FREE ENERGY PREDICTED BY IDOCK:   -0.16 KCAL/MOL
REMARK 927      BINDING AFFINITY PREDICTED BY RF-SCORE:    0.00 PKD
ROOT
HETATM    1  C   UNL     1      -8.708   8.502  67.025  1.00  0.00    -0.132 C  
HETATM    2  C   UNL     1     -10.096   8.954  67.473  1.00  0.00    -0.285 C  
ENDROOT
BRANCH   2   3
HETATM    3  C   UNL     1     -10.223   9.727  68.832  1.00  0.00    -0.213 C  
HETATM    4  C   UNL     1      -8.822  10.204  69.245  1.00  0.00    -0.183 C  
HETATM    5  O   UNL     1     -12.378  10.866  68.563  1.00  0.00    -0.490 OA 
HETATM    6  C   UNL     1     -11.150  10.924  68.555  1.00  0.00    -0.256 C  
HETATM    7  N   UNL     1      -8.417  11.421  68.765  1.00  0.00    -0.298 N  
HETATM    8  O   UNL     1      -8.033   9.540  69.915  1.00  0.00    -0.112 OA 
HETATM    9  H   UNL     1     -11.158  12.826  67.810  1.00  0.00     0.000 HD 
HETATM   10  C   UNL     1      -9.233  12.414  68.318  1.00  0.00    -0.189 C  
HETATM   11  H   UNL     1      -7.414  11.599  68.740  1.00  0.00     0.000 HD 
HETATM   12  O   UNL     1      -8.811  13.539  68.084  1.00  0.00    -0.169 OA 
HETATM   13  N   UNL     1     -10.551  12.105  68.201  1.00  0.00    -0.208 N  
BRANCH   3  14
HETATM   14  C   UNL     1     -10.803   8.792  69.937  1.00  0.00    -0.211 A  
HETATM   15  C   UNL     1     -11.491   6.574  70.710  1.00  0.00    -0.419 A  
HETATM   16  C   UNL     1     -11.666   8.444  72.208  1.00  0.00    -0.453 A  
HETATM   17  C   UNL     1     -11.180   9.287  71.204  1.00  0.00    -0.413 A  
HETATM   18  C   UNL     1     -11.005   7.420  69.704  1.00  0.00    -0.186 A  
HETATM   19  C   UNL     1     -11.807   7.084  71.966  1.00  0.00    -0.336 A  
ENDBRANCH   3  14
ENDBRANCH   2   3
TORSDOF 2
ENDMDL
MODEL       81
REMARK 921   NORMALIZED FREE ENERGY PREDICTED BY IDOCK:   -4.17 KCAL/MOL
REMARK 922        TOTAL FREE ENERGY PREDICTED BY IDOCK:   -4.71 KCAL/MOL
REMARK 923 INTER-LIGAND FREE ENERGY PREDICTED BY IDOCK:   -4.56 KCAL/MOL
REMARK 924 INTRA-LIGAND FREE ENERGY PREDICTED BY IDOCK:   -0.14 KCAL/MOL
REMARK 927      BINDING AFFINITY PREDICTED BY RF-SCORE:    0.00 PKD
ROOT
HETATM    1  C   UNL     1      -9.418   8.781  66.827  1.00  0.00    -0.249 C  
HETATM    2  C   UNL     1     -10.435   9.695  66.147  1.00  0.00    -0.111 C  
ENDROOT
BRANCH   2   3
HETATM    3  C   UNL     1      -9.924  11.041  65.523  1.00  0.00    -0.308 C  
HETATM    4  C   UNL     1      -8.392  11.069  65.633  1.00  0.00    -0.060 C  
HETATM    5  O   UNL     1     -11.485  11.354  63.658  1.00  0.00    -0.364 OA 
HETATM    6  C   UNL     1     -10.368  11.021  64.050  1.00  0.00    -0.371 C  
HETATM    7  N   UNL     1      -7.688  10.501  64.604  1.00  0.00    -0.331 N  
HETATM    8  O   UNL     1      -7.774  11.505  66.603  1.00  0.00    -0.151 OA 
HETATM    9  H   UNL     1      -9.839  10.309  62.210  1.00  0.00     0.000 HD 
HETATM   10  C   UNL     1      -8.151  10.289  63.343  1.00  0.00    -0.154 C  
HETATM   11  H   UNL     1      -6.731  10.212  64.801  1.00  0.00     0.000 HD 
HETATM   12  O   UNL     1      -7.407   9.954  62.430  1.00  0.00    -0.111 OA 
HETATM   13  N   UNL     1      -9.474  10.524  63.138  1.00  0.00    -0.309 N  
BRANCH   3  14
HETATM   14  C   UNL     1     -10.525  12.258  66.291  1.00  0.00    -0.266 A  
HETATM   15  C   UNL     1     -10.910  14.665  66.507  1.00  0.00    -0.315 A  
HETATM   16  C   UNL     1     -11.822  13.179  68.159  1.00  0.00    -0.386 A  
HETATM   17  C   UNL     1     -11.252  12.092  67.489  1.00  0.00    -0.357 A  
HETATM   18  C   UNL     1     -10.337  13.575  65.837  1.00  0.00    -0.301 A  
HETATM   19  C   UNL     1     -11.665  14.465  67.660  1.00  0.00    -0.421 A  
ENDBRANCH   3  14
ENDBRANCH   2   3
TORSDOF 2
ENDMDL
MODEL       82
REMARK 921   NORMALIZED FREE ENERGY PREDICTED BY IDOCK:   -4.16 KCAL/MOL
REMARK 922        TOTAL FREE ENERGY PREDICTED BY IDOCK:   -4.70 KCAL/MOL
REMARK 923 INTER-LIGAND FREE ENERGY PREDICTED BY IDOCK:   -4.80 KCAL/MOL
REMARK 924 INTRA-LIGAND FREE ENERGY PREDICTED BY IDOCK:    0.10 KCAL/MOL
REMARK 927      BINDING AFFINITY PREDICTED BY RF-SCORE:    0.00 PKD
ROOT
HETATM    1  C   UNL     1      -7.417   9.543  66.720  1.00  0.00    -0.094 C  
HETATM    2  C   UNL     1      -8.077  10.783  67.316  1.00  0.00    -0.117 C  
ENDROOT
BRANCH   2   3
HETATM    3  C   UNL     1      -9.631  10.940  67.174  1.00  0.00    -0.187 C  
HETATM    4  C   UNL     1      -9.931  12.388  66.760  1.00  0.00    -0.225 C  
HETATM    5  O   UNL     1     -10.275   8.758  66.257  1.00  0.00    -0.271 OA 
HETATM    6  C   UNL     1     -10.058   9.955  66.072  1.00  0.00    -0.244 C  
HETATM    7  N   UNL     1      -9.934  12.659  65.418  1.00  0.00    -0.388 N  
HETATM    8  O   UNL     1     -10.101  13.314  67.552  1.00  0.00    -0.219 OA 
HETATM    9  H   UNL     1     -10.190   9.754  64.043  1.00  0.00     0.000 HD 
HETATM   10  C   UNL     1     -10.105  11.750  64.421  1.00  0.00    -0.282 C  
HETATM   11  H   UNL     1      -9.796  13.630  65.141  1.00  0.00     0.000 HD 
HETATM   12  O   UNL     1     -10.286  12.092  63.260  1.00  0.00    -0.438 OA 
HETATM   13  N   UNL     1     -10.122  10.442  64.793  1.00  0.00    -0.347 N  
BRANCH   3  14
HETATM   14  C   UNL     1     -10.334  10.628  68.531  1.00  0.00    -0.202 A  
HETATM   15  C   UNL     1     -12.319  10.660  69.962  1.00  0.00    -0.341 A  
HETATM   16  C   UNL     1     -10.283   9.703  70.804  1.00  0.00    -0.330 A  
HETATM   17  C   UNL     1      -9.644  10.016  69.600  1.00  0.00    -0.251 A  
HETATM   18  C   UNL     1     -11.678  10.975  68.757  1.00  0.00    -0.383 A  
HETATM   19  C   UNL     1     -11.625  10.011  70.980  1.00  0.00    -0.476 A  
ENDBRANCH   3  14
ENDBRANCH   2   3
TORSDOF 2
ENDMDL
MODEL       83
REMARK 921   NORMALIZED FREE ENERGY PREDICTED BY IDOCK:   -4.15 KCAL/MOL
REMARK 922        TOTAL FREE ENERGY PREDICTED BY IDOCK:   -4.68 KCAL/MOL
REMARK 923 INTER-LIGAND FREE ENERGY PREDICTED BY IDOCK:   -4.71 KCAL/MOL
REMARK 924 INTRA-LIGAND FREE ENERGY PREDICTED BY IDOCK:    0.03 KCAL/MOL
REMARK 927      BINDING AFFINITY PREDICTED BY RF-SCORE:    0.00 PKD
ROOT
HETATM    1  C   UNL     1     -11.787  13.478  63.991  1.00  0.00    -0.476 C  
HETATM    2  C   UNL     1     -10.423  13.379  64.670  1.00  0.00    -0.428 C  
ENDROOT
BRANCH   2   3
HETATM    3  C   UNL     1     -10.378  13.259  66.233  1.00  0.00    -0.290 C  
HETATM    4  C   UNL     1      -9.078  13.911  66.727  1.00  0.00    -0.223 C  
HETATM    5  O   UNL     1     -12.740  13.549  66.829  1.00  0.00    -0.121 OA 
HETATM    6  C   UNL     1     -11.608  14.024  66.754  1.00  0.00    -0.386 C  
HETATM    7  N   UNL     1      -9.120  15.255  66.985  1.00  0.00    -0.212 N  
HETATM    8  O   UNL     1      -8.006  13.319  66.840  1.00  0.00    -0.031 OA 
HETATM    9  H   UNL     1     -12.271  15.901  67.213  1.00  0.00     0.000 HD 
HETATM   10  C   UNL     1     -10.240  15.983  67.243  1.00  0.00    -0.277 C  
HETATM   11  H   UNL     1      -8.232  15.756  66.983  1.00  0.00     0.000 HD 
HETATM   12  O   UNL     1     -10.180  17.136  67.649  1.00  0.00    -0.304 OA 
HETATM   13  N   UNL     1     -11.428  15.343  67.080  1.00  0.00    -0.183 N  
BRANCH   3  14
HETATM   14  C   UNL     1     -10.407  11.760  66.663  1.00  0.00    -0.251 A  
HETATM   15  C   UNL     1     -10.868  10.026  68.327  1.00  0.00    -0.286 A  
HETATM   16  C   UNL     1     -10.060   9.383  66.159  1.00  0.00    -0.324 A  
HETATM   17  C   UNL     1     -10.000  10.730  65.787  1.00  0.00    -0.306 A  
HETATM   18  C   UNL     1     -10.807  11.375  67.955  1.00  0.00    -0.274 A  
HETATM   19  C   UNL     1     -10.509   9.029  67.424  1.00  0.00    -0.338 A  
ENDBRANCH   3  14
ENDBRANCH   2   3
TORSDOF 2
ENDMDL
MODEL       84
REMARK 921   NORMALIZED FREE ENERGY PREDICTED BY IDOCK:   -4.11 KCAL/MOL
REMARK 922        TOTAL FREE ENERGY PREDICTED BY IDOCK:   -4.63 KCAL/MOL
REMARK 923 INTER-LIGAND FREE ENERGY PREDICTED BY IDOCK:   -4.61 KCAL/MOL
REMARK 924 INTRA-LIGAND FREE ENERGY PREDICTED BY IDOCK:   -0.02 KCAL/MOL
REMARK 927      BINDING AFFINITY PREDICTED BY RF-SCORE:    0.00 PKD
ROOT
HETATM    1  C   UNL     1     -10.780  14.138  65.200  1.00  0.00    -0.400 C  
HETATM    2  C   UNL     1     -10.557  15.523  65.800  1.00  0.00    -0.370 C  
ENDROOT
BRANCH   2   3
HETATM    3  C   UNL     1      -9.953  15.620  67.244  1.00  0.00    -0.236 C  
HETATM    4  C   UNL     1     -10.959  16.362  68.137  1.00  0.00    -0.339 C  
HETATM    5  O   UNL     1      -8.787  13.471  67.446  1.00  0.00    -0.199 OA 
HETATM    6  C   UNL     1      -9.761  14.170  67.723  1.00  0.00    -0.223 C  
HETATM    7  N   UNL     1     -11.917  15.601  68.753  1.00  0.00    -0.550 N  
HETATM    8  O   UNL     1     -10.994  17.584  68.275  1.00  0.00    -0.290 OA 
HETATM    9  H   UNL     1     -10.758  12.598  68.564  1.00  0.00     0.000 HD 
HETATM   10  C   UNL     1     -11.841  14.265  68.994  1.00  0.00    -0.335 C  
HETATM   11  H   UNL     1     -12.763  16.080  69.059  1.00  0.00     0.000 HD 
HETATM   12  O   UNL     1     -12.647  13.692  69.715  1.00  0.00    -0.201 OA 
HETATM   13  N   UNL     1     -10.787  13.610  68.437  1.00  0.00    -0.248 N  
BRANCH   3  14
HETATM   14  C   UNL     1      -8.604  16.401  67.217  1.00  0.00    -0.200 A  
HETATM   15  C   UNL     1      -6.640  17.310  68.361  1.00  0.00    -0.174 A  
HETATM   16  C   UNL     1      -6.851  17.601  65.987  1.00  0.00    -0.308 A  
HETATM   17  C   UNL     1      -8.079  16.931  66.019  1.00  0.00    -0.164 A  
HETATM   18  C   UNL     1      -7.871  16.640  68.393  1.00  0.00    -0.202 A  
HETATM   19  C   UNL     1      -6.124  17.777  67.155  1.00  0.00    -0.171 A  
ENDBRANCH   3  14
ENDBRANCH   2   3
TORSDOF 2
ENDMDL
MODEL       85
REMARK 921   NORMALIZED FREE ENERGY PREDICTED BY IDOCK:   -4.04 KCAL/MOL
REMARK 922        TOTAL FREE ENERGY PREDICTED BY IDOCK:   -4.56 KCAL/MOL
REMARK 923 INTER-LIGAND FREE ENERGY PREDICTED BY IDOCK:   -4.47 KCAL/MOL
REMARK 924 INTRA-LIGAND FREE ENERGY PREDICTED BY IDOCK:   -0.10 KCAL/MOL
REMARK 927      BINDING AFFINITY PREDICTED BY RF-SCORE:    0.00 PKD
ROOT
HETATM    1  C   UNL     1      -7.733   7.927  67.912  1.00  0.00    -0.125 C  
HETATM    2  C   UNL     1      -8.254   6.833  68.841  1.00  0.00    -0.121 C  
ENDROOT
BRANCH   2   3
HETATM    3  C   UNL     1      -9.786   6.499  68.810  1.00  0.00    -0.146 C  
HETATM    4  C   UNL     1     -10.385   7.110  67.534  1.00  0.00    -0.236 C  
HETATM    5  O   UNL     1      -9.829   4.247  69.781  1.00  0.00    -0.214 OA 
HETATM    6  C   UNL     1      -9.886   4.963  68.782  1.00  0.00    -0.161 C  
HETATM    7  N   UNL     1     -10.349   6.337  66.404  1.00  0.00    -0.436 N  
HETATM    8  O   UNL     1     -10.826   8.255  67.455  1.00  0.00    -0.219 OA 
HETATM    9  H   UNL     1      -9.812   3.360  67.520  1.00  0.00     0.000 HD 
HETATM   10  C   UNL     1     -10.226   4.983  66.367  1.00  0.00    -0.273 C  
HETATM   11  H   UNL     1     -10.422   6.820  65.509  1.00  0.00     0.000 HD 
HETATM   12  O   UNL     1     -10.393   4.347  65.334  1.00  0.00    -0.252 OA 
HETATM   13  N   UNL     1      -9.965   4.368  67.551  1.00  0.00    -0.120 N  
BRANCH   3  14
HETATM   14  C   UNL     1     -10.498   7.101  70.060  1.00  0.00    -0.235 A  
HETATM   15  C   UNL     1     -12.407   7.198  71.589  1.00  0.00    -0.398 A  
HETATM   16  C   UNL     1     -10.518   8.627  71.982  1.00  0.00    -0.422 A  
HETATM   17  C   UNL     1      -9.897   8.113  70.840  1.00  0.00    -0.203 A  
HETATM   18  C   UNL     1     -11.785   6.683  70.443  1.00  0.00    -0.446 A  
HETATM   19  C   UNL     1     -11.767   8.159  72.366  1.00  0.00    -0.461 A  
ENDBRANCH   3  14
ENDBRANCH   2   3
TORSDOF 2
ENDMDL
MODEL       86
REMARK 921   NORMALIZED FREE ENERGY PREDICTED BY IDOCK:   -4.01 KCAL/MOL
REMARK 922        TOTAL FREE ENERGY PREDICTED BY IDOCK:   -4.53 KCAL/MOL
REMARK 923 INTER-LIGAND FREE ENERGY PREDICTED BY IDOCK:   -4.63 KCAL/MOL
REMARK 924 INTRA-LIGAND FREE ENERGY PREDICTED BY IDOCK:    0.10 KCAL/MOL
REMARK 927      BINDING AFFINITY PREDICTED BY RF-SCORE:    0.00 PKD
ROOT
HETATM    1  C   UNL     1     -12.159  13.561  68.622  1.00  0.00    -0.303 C  
HETATM    2  C   UNL     1     -11.198  14.345  67.732  1.00  0.00    -0.316 C  
ENDROOT
BRANCH   2   3
HETATM    3  C   UNL     1     -10.441  13.574  66.595  1.00  0.00    -0.274 C  
HETATM    4  C   UNL     1     -11.388  12.506  66.027  1.00  0.00    -0.344 C  
HETATM    5  O   UNL     1      -9.113  15.364  65.572  1.00  0.00    -0.066 OA 
HETATM    6  C   UNL     1     -10.095  14.626  65.526  1.00  0.00    -0.377 C  
HETATM    7  N   UNL     1     -12.214  12.894  65.005  1.00  0.00    -0.437 N  
HETATM    8  O   UNL     1     -11.491  11.364  66.472  1.00  0.00    -0.384 OA 
HETATM    9  H   UNL     1     -10.878  15.622  63.924  1.00  0.00     0.000 HD 
HETATM   10  C   UNL     1     -12.018  13.958  64.181  1.00  0.00    -0.428 C  
HETATM   11  H   UNL     1     -13.051  12.334  64.848  1.00  0.00     0.000 HD 
HETATM   12  O   UNL     1     -12.694  14.129  63.176  1.00  0.00    -0.627 OA 
HETATM   13  N   UNL     1     -10.992  14.790  64.503  1.00  0.00    -0.284 N  
BRANCH   3  14
HETATM   14  C   UNL     1      -9.161  12.887  67.164  1.00  0.00    -0.225 A  
HETATM   15  C   UNL     1      -7.361  12.765  68.818  1.00  0.00    -0.067 A  
HETATM   16  C   UNL     1      -7.479  11.102  67.089  1.00  0.00    -0.121 A  
HETATM   17  C   UNL     1      -8.605  11.740  66.559  1.00  0.00    -0.148 A  
HETATM   18  C   UNL     1      -8.489  13.405  68.285  1.00  0.00    -0.166 A  
HETATM   19  C   UNL     1      -6.866  11.605  68.228  1.00  0.00    -0.067 A  
ENDBRANCH   3  14
ENDBRANCH   2   3
TORSDOF 2
ENDMDL
MODEL       87
REMARK 921   NORMALIZED FREE ENERGY PREDICTED BY IDOCK:   -3.99 KCAL/MOL
REMARK 922        TOTAL FREE ENERGY PREDICTED BY IDOCK:   -4.51 KCAL/MOL
REMARK 923 INTER-LIGAND FREE ENERGY PREDICTED BY IDOCK:   -4.43 KCAL/MOL
REMARK 924 INTRA-LIGAND FREE ENERGY PREDICTED BY IDOCK:   -0.07 KCAL/MOL
REMARK 927      BINDING AFFINITY PREDICTED BY RF-SCORE:    0.00 PKD
ROOT
HETATM    1  C   UNL     1      -8.785   7.753  72.703  1.00  0.00    -0.198 C  
HETATM    2  C   UNL     1      -9.089   8.698  71.543  1.00  0.00    -0.308 C  
ENDROOT
BRANCH   2   3
HETATM    3  C   UNL     1     -10.353   8.408  70.660  1.00  0.00    -0.224 C  
HETATM    4  C   UNL     1     -11.465   7.875  71.575  1.00  0.00    -0.265 C  
HETATM    5  O   UNL     1     -10.249  10.230  69.021  1.00  0.00    -0.186 OA 
HETATM    6  C   UNL     1     -10.755   9.757  70.038  1.00  0.00    -0.283 C  
HETATM    7  N   UNL     1     -12.279   8.805  72.165  1.00  0.00    -0.370 N  
HETATM    8  O   UNL     1     -11.623   6.687  71.854  1.00  0.00    -0.272 OA 
HETATM    9  H   UNL     1     -11.786  11.477  70.429  1.00  0.00     0.000 HD 
HETATM   10  C   UNL     1     -12.479  10.079  71.733  1.00  0.00    -0.383 C  
HETATM   11  H   UNL     1     -12.781   8.516  73.004  1.00  0.00     0.000 HD 
HETATM   12  O   UNL     1     -13.362  10.787  72.199  1.00  0.00    -0.442 OA 
HETATM   13  N   UNL     1     -11.682  10.503  70.716  1.00  0.00    -0.348 N  
BRANCH   3  14
HETATM   14  C   UNL     1     -10.020   7.346  69.568  1.00  0.00    -0.179 A  
HETATM   15  C   UNL     1     -10.721   5.857  67.756  1.00  0.00    -0.346 A  
HETATM   16  C   UNL     1      -8.399   5.953  68.363  1.00  0.00    -0.112 A  
HETATM   17  C   UNL     1      -8.704   6.878  69.366  1.00  0.00    -0.133 A  
HETATM   18  C   UNL     1     -11.026   6.783  68.762  1.00  0.00    -0.267 A  
HETATM   19  C   UNL     1      -9.405   5.453  67.547  1.00  0.00    -0.119 A  
ENDBRANCH   3  14
ENDBRANCH   2   3
TORSDOF 2
ENDMDL
MODEL       88
REMARK 921   NORMALIZED FREE ENERGY PREDICTED BY IDOCK:   -3.98 KCAL/MOL
REMARK 922        TOTAL FREE ENERGY PREDICTED BY IDOCK:   -4.49 KCAL/MOL
REMARK 923 INTER-LIGAND FREE ENERGY PREDICTED BY IDOCK:   -4.57 KCAL/MOL
REMARK 924 INTRA-LIGAND FREE ENERGY PREDICTED BY IDOCK:    0.08 KCAL/MOL
REMARK 927      BINDING AFFINITY PREDICTED BY RF-SCORE:    0.00 PKD
ROOT
HETATM    1  C   UNL     1     -12.108  14.189  69.421  1.00  0.00    -0.372 C  
HETATM    2  C   UNL     1     -11.863  14.823  68.054  1.00  0.00    -0.324 C  
ENDROOT
BRANCH   2   3
HETATM    3  C   UNL     1     -10.383  15.119  67.626  1.00  0.00    -0.248 C  
HETATM    4  C   UNL     1     -10.414  15.899  66.303  1.00  0.00    -0.318 C  
HETATM    5  O   UNL     1      -9.303  15.517  69.792  1.00  0.00    -0.274 OA 
HETATM    6  C   UNL     1      -9.778  15.975  68.753  1.00  0.00    -0.226 C  
HETATM    7  N   UNL     1     -10.501  17.263  66.392  1.00  0.00    -0.301 N  
HETATM    8  O   UNL     1     -10.431  15.376  65.190  1.00  0.00    -0.392 OA 
HETATM    9  H   UNL     1      -9.653  17.895  69.439  1.00  0.00     0.000 HD 
HETATM   10  C   UNL     1     -10.160  18.015  67.473  1.00  0.00    -0.351 C  
HETATM   11  H   UNL     1     -10.852  17.760  65.574  1.00  0.00     0.000 HD 
HETATM   12  O   UNL     1     -10.084  19.236  67.412  1.00  0.00    -0.345 OA 
HETATM   13  N   UNL     1      -9.851  17.335  68.609  1.00  0.00    -0.298 N  
BRANCH   3  14
HETATM   14  C   UNL     1      -9.598  13.786  67.428  1.00  0.00    -0.229 A  
HETATM   15  C   UNL     1      -7.491  12.546  67.328  1.00  0.00    -0.125 A  
HETATM   16  C   UNL     1      -9.560  11.366  67.025  1.00  0.00    -0.192 A  
HETATM   17  C   UNL     1     -10.261  12.568  67.167  1.00  0.00    -0.225 A  
HETATM   18  C   UNL     1      -8.193  13.750  67.469  1.00  0.00    -0.194 A  
HETATM   19  C   UNL     1      -8.176  11.352  67.122  1.00  0.00    -0.157 A  
ENDBRANCH   3  14
ENDBRANCH   2   3
TORSDOF 2
ENDMDL
MODEL       89
REMARK 921   NORMALIZED FREE ENERGY PREDICTED BY IDOCK:   -3.98 KCAL/MOL
REMARK 922        TOTAL FREE ENERGY PREDICTED BY IDOCK:   -4.49 KCAL/MOL
REMARK 923 INTER-LIGAND FREE ENERGY PREDICTED BY IDOCK:   -4.50 KCAL/MOL
REMARK 924 INTRA-LIGAND FREE ENERGY PREDICTED BY IDOCK:    0.01 KCAL/MOL
REMARK 927      BINDING AFFINITY PREDICTED BY RF-SCORE:    0.00 PKD
ROOT
HETATM    1  C   UNL     1     -11.628  10.711  70.398  1.00  0.00    -0.441 C  
HETATM    2  C   UNL     1     -11.503   9.396  71.162  1.00  0.00    -0.422 C  
ENDROOT
BRANCH   2   3
HETATM    3  C   UNL     1     -10.405   8.372  70.705  1.00  0.00    -0.228 C  
HETATM    4  C   UNL     1     -11.035   7.420  69.678  1.00  0.00    -0.172 C  
HETATM    5  O   UNL     1      -8.389   9.769  70.693  1.00  0.00    -0.224 OA 
HETATM    6  C   UNL     1      -9.285   9.209  70.063  1.00  0.00    -0.192 C  
HETATM    7  N   UNL     1     -10.997   7.813  68.367  1.00  0.00    -0.421 N  
HETATM    8  O   UNL     1     -11.618   6.376  69.967  1.00  0.00    -0.425 OA 
HETATM    9  H   UNL     1      -8.744  10.119  68.316  1.00  0.00     0.000 HD 
HETATM   10  C   UNL     1     -10.136   8.718  67.830  1.00  0.00    -0.207 C  
HETATM   11  H   UNL     1     -11.677   7.389  67.736  1.00  0.00     0.000 HD 
HETATM   12  O   UNL     1     -10.037   8.876  66.620  1.00  0.00    -0.256 OA 
HETATM   13  N   UNL     1      -9.349   9.396  68.707  1.00  0.00    -0.145 N  
BRANCH   3  14
HETATM   14  C   UNL     1      -9.885   7.553  71.926  1.00  0.00    -0.196 A  
HETATM   15  C   UNL     1      -8.212   6.100  72.964  1.00  0.00    -0.115 A  
HETATM   16  C   UNL     1     -10.118   6.796  74.249  1.00  0.00    -0.348 A  
HETATM   17  C   UNL     1     -10.601   7.500  73.142  1.00  0.00    -0.442 A  
HETATM   18  C   UNL     1      -8.697   6.805  71.855  1.00  0.00    -0.123 A  
HETATM   19  C   UNL     1      -8.915   6.108  74.166  1.00  0.00    -0.135 A  
ENDBRANCH   3  14
ENDBRANCH   2   3
TORSDOF 2
ENDMDL
MODEL       90
REMARK 921   NORMALIZED FREE ENERGY PREDICTED BY IDOCK:   -3.96 KCAL/MOL
REMARK 922        TOTAL FREE ENERGY PREDICTED BY IDOCK:   -4.47 KCAL/MOL
REMARK 923 INTER-LIGAND FREE ENERGY PREDICTED BY IDOCK:   -4.47 KCAL/MOL
REMARK 924 INTRA-LIGAND FREE ENERGY PREDICTED BY IDOCK:   -0.01 KCAL/MOL
REMARK 927      BINDING AFFINITY PREDICTED BY RF-SCORE:    0.00 PKD
ROOT
HETATM    1  C   UNL     1     -10.057   8.826  66.851  1.00  0.00    -0.348 C  
HETATM    2  C   UNL     1     -10.658  10.190  67.179  1.00  0.00    -0.308 C  
ENDROOT
BRANCH   2   3
HETATM    3  C   UNL     1      -9.802  11.471  66.886  1.00  0.00    -0.220 C  
HETATM    4  C   UNL     1      -9.421  12.111  68.229  1.00  0.00    -0.204 C  
HETATM    5  O   UNL     1      -8.504  10.770  64.926  1.00  0.00    -0.150 OA 
HETATM    6  C   UNL     1      -8.549  10.982  66.137  1.00  0.00    -0.175 C  
HETATM    7  N   UNL     1      -8.271  11.663  68.823  1.00  0.00    -0.312 N  
HETATM    8  O   UNL     1     -10.110  12.939  68.823  1.00  0.00    -0.168 OA 
HETATM    9  H   UNL     1      -6.698  10.171  66.436  1.00  0.00     0.000 HD 
HETATM   10  C   UNL     1      -7.240  11.037  68.195  1.00  0.00    -0.083 C  
HETATM   11  H   UNL     1      -8.179  11.814  69.827  1.00  0.00     0.000 HD 
HETATM   12  O   UNL     1      -6.169  10.838  68.753  1.00  0.00    -0.040 OA 
HETATM   13  N   UNL     1      -7.444  10.695  66.895  1.00  0.00    -0.109 N  
BRANCH   3  14
HETATM   14  C   UNL     1     -10.621  12.489  66.036  1.00  0.00    -0.289 A  
HETATM   15  C   UNL     1     -12.628  13.081  64.765  1.00  0.00    -0.460 A  
HETATM   16  C   UNL     1     -10.875  14.705  65.012  1.00  0.00    -0.431 A  
HETATM   17  C   UNL     1     -10.126  13.778  65.743  1.00  0.00    -0.322 A  
HETATM   18  C   UNL     1     -11.875  12.152  65.497  1.00  0.00    -0.350 A  
HETATM   19  C   UNL     1     -12.133  14.362  64.536  1.00  0.00    -0.498 A  
ENDBRANCH   3  14
ENDBRANCH   2   3
TORSDOF 2
ENDMDL
MODEL       91
REMARK 921   NORMALIZED FREE ENERGY PREDICTED BY IDOCK:   -3.96 KCAL/MOL
REMARK 922        TOTAL FREE ENERGY PREDICTED BY IDOCK:   -4.47 KCAL/MOL
REMARK 923 INTER-LIGAND FREE ENERGY PREDICTED BY IDOCK:   -4.43 KCAL/MOL
REMARK 924 INTRA-LIGAND FREE ENERGY PREDICTED BY IDOCK:   -0.04 KCAL/MOL
REMARK 927      BINDING AFFINITY PREDICTED BY RF-SCORE:    0.00 PKD
ROOT
HETATM    1  C   UNL     1      -7.964   9.737  70.228  1.00  0.00    -0.185 C  
HETATM    2  C   UNL     1      -9.020  10.253  69.255  1.00  0.00    -0.190 C  
ENDROOT
BRANCH   2   3
HETATM    3  C   UNL     1     -10.333   9.414  69.069  1.00  0.00    -0.224 C  
HETATM    4  C   UNL     1     -10.721   8.823  70.433  1.00  0.00    -0.225 C  
HETATM    5  O   UNL     1     -11.547  10.742  67.402  1.00  0.00    -0.485 OA 
HETATM    6  C   UNL     1     -11.404  10.404  68.576  1.00  0.00    -0.220 C  
HETATM    7  N   UNL     1     -11.511   9.598  71.240  1.00  0.00    -0.369 N  
HETATM    8  O   UNL     1     -10.317   7.743  70.861  1.00  0.00    -0.200 OA 
HETATM    9  H   UNL     1     -12.740  11.802  69.233  1.00  0.00     0.000 HD 
HETATM   10  C   UNL     1     -12.309  10.621  70.831  1.00  0.00    -0.401 C  
HETATM   11  H   UNL     1     -11.501   9.389  72.238  1.00  0.00     0.000 HD 
HETATM   12  O   UNL     1     -13.127  11.140  71.579  1.00  0.00    -0.425 OA 
HETATM   13  N   UNL     1     -12.189  10.996  69.530  1.00  0.00    -0.327 N  
BRANCH   3  14
HETATM   14  C   UNL     1     -10.100   8.260  68.047  1.00  0.00    -0.243 A  
HETATM   15  C   UNL     1     -10.824   6.185  66.970  1.00  0.00    -0.435 A  
HETATM   16  C   UNL     1      -8.752   7.195  66.294  1.00  0.00    -0.156 A  
HETATM   17  C   UNL     1      -8.945   8.210  67.237  1.00  0.00    -0.149 A  
HETATM   18  C   UNL     1     -11.016   7.201  67.915  1.00  0.00    -0.154 A  
HETATM   19  C   UNL     1      -9.699   6.190  66.150  1.00  0.00    -0.040 A  
ENDBRANCH   3  14
ENDBRANCH   2   3
TORSDOF 2
ENDMDL
MODEL       92
REMARK 921   NORMALIZED FREE ENERGY PREDICTED BY IDOCK:   -3.94 KCAL/MOL
REMARK 922        TOTAL FREE ENERGY PREDICTED BY IDOCK:   -4.45 KCAL/MOL
REMARK 923 INTER-LIGAND FREE ENERGY PREDICTED BY IDOCK:   -4.39 KCAL/MOL
REMARK 924 INTRA-LIGAND FREE ENERGY PREDICTED BY IDOCK:   -0.06 KCAL/MOL
REMARK 927      BINDING AFFINITY PREDICTED BY RF-SCORE:    0.00 PKD
ROOT
HETATM    1  C   UNL     1     -10.368   9.279  69.917  1.00  0.00    -0.241 C  
HETATM    2  C   UNL     1      -9.630   8.307  70.834  1.00  0.00    -0.196 C  
ENDROOT
BRANCH   2   3
HETATM    3  C   UNL     1     -10.432   7.102  71.439  1.00  0.00    -0.220 C  
HETATM    4  C   UNL     1     -10.974   7.528  72.811  1.00  0.00    -0.359 C  
HETATM    5  O   UNL     1     -11.477   6.138  69.440  1.00  0.00    -0.423 OA 
HETATM    6  C   UNL     1     -11.584   6.822  70.457  1.00  0.00    -0.372 C  
HETATM    7  N   UNL     1     -12.194   8.150  72.828  1.00  0.00    -0.611 N  
HETATM    8  O   UNL     1     -10.358   7.403  73.869  1.00  0.00    -0.317 OA 
HETATM    9  H   UNL     1     -13.465   7.437  69.952  1.00  0.00     0.000 HD 
HETATM   10  C   UNL     1     -13.142   8.073  71.856  1.00  0.00    -0.311 C  
HETATM   11  H   UNL     1     -12.411   8.723  73.643  1.00  0.00     0.000 HD 
HETATM   12  O   UNL     1     -14.277   8.499  72.026  1.00  0.00    -0.420 OA 
HETATM   13  N   UNL     1     -12.778   7.445  70.706  1.00  0.00    -0.097 N  
BRANCH   3  14
HETATM   14  C   UNL     1      -9.502   5.861  71.607  1.00  0.00    -0.166 A  
HETATM   15  C   UNL     1      -7.286   4.827  71.510  1.00  0.00    -0.068 A  
HETATM   16  C   UNL     1      -9.167   3.504  72.203  1.00  0.00    -0.165 A  
HETATM   17  C   UNL     1     -10.006   4.608  72.017  1.00  0.00    -0.251 A  
HETATM   18  C   UNL     1      -8.127   5.932  71.323  1.00  0.00    -0.118 A  
HETATM   19  C   UNL     1      -7.805   3.617  71.965  1.00  0.00    -0.059 A  
ENDBRANCH   3  14
ENDBRANCH   2   3
TORSDOF 2
ENDMDL
MODEL       93
REMARK 921   NORMALIZED FREE ENERGY PREDICTED BY IDOCK:   -3.92 KCAL/MOL
REMARK 922        TOTAL FREE ENERGY PREDICTED BY IDOCK:   -4.43 KCAL/MOL
REMARK 923 INTER-LIGAND FREE ENERGY PREDICTED BY IDOCK:   -4.55 KCAL/MOL
REMARK 924 INTRA-LIGAND FREE ENERGY PREDICTED BY IDOCK:    0.12 KCAL/MOL
REMARK 927      BINDING AFFINITY PREDICTED BY RF-SCORE:    0.00 PKD
ROOT
HETATM    1  C   UNL     1     -11.468  12.932  64.754  1.00  0.00    -0.360 C  
HETATM    2  C   UNL     1     -10.189  13.227  65.532  1.00  0.00    -0.298 C  
ENDROOT
BRANCH   2   3
HETATM    3  C   UNL     1     -10.066  12.679  66.997  1.00  0.00    -0.228 C  
HETATM    4  C   UNL     1     -10.706  11.283  67.041  1.00  0.00    -0.260 C  
HETATM    5  O   UNL     1      -7.877  13.551  67.679  1.00  0.00    -0.147 OA 
HETATM    6  C   UNL     1      -8.558  12.601  67.296  1.00  0.00    -0.196 C  
HETATM    7  N   UNL     1      -9.895  10.222  66.738  1.00  0.00    -0.189 N  
HETATM    8  O   UNL     1     -11.897  11.074  67.265  1.00  0.00    -0.468 OA 
HETATM    9  H   UNL     1      -6.915  11.418  67.030  1.00  0.00     0.000 HD 
HETATM   10  C   UNL     1      -8.536  10.212  66.802  1.00  0.00    -0.126 C  
HETATM   11  H   UNL     1     -10.351   9.361  66.438  1.00  0.00     0.000 HD 
HETATM   12  O   UNL     1      -7.893   9.176  66.701  1.00  0.00    -0.099 OA 
HETATM   13  N   UNL     1      -7.935  11.408  67.041  1.00  0.00    -0.151 N  
BRANCH   3  14
HETATM   14  C   UNL     1     -10.804  13.624  67.994  1.00  0.00    -0.261 A  
HETATM   15  C   UNL     1     -11.958  14.002  70.119  1.00  0.00    -0.399 A  
HETATM   16  C   UNL     1     -11.638  15.847  68.615  1.00  0.00    -0.383 A  
HETATM   17  C   UNL     1     -11.008  14.991  67.706  1.00  0.00    -0.298 A  
HETATM   18  C   UNL     1     -11.328  13.144  69.207  1.00  0.00    -0.312 A  
HETATM   19  C   UNL     1     -12.099  15.356  69.829  1.00  0.00    -0.373 A  
ENDBRANCH   3  14
ENDBRANCH   2   3
TORSDOF 2
ENDMDL
MODEL       94
REMARK 921   NORMALIZED FREE ENERGY PREDICTED BY IDOCK:   -3.90 KCAL/MOL
REMARK 922        TOTAL FREE ENERGY PREDICTED BY IDOCK:   -4.40 KCAL/MOL
REMARK 923 INTER-LIGAND FREE ENERGY PREDICTED BY IDOCK:   -4.36 KCAL/MOL
REMARK 924 INTRA-LIGAND FREE ENERGY PREDICTED BY IDOCK:   -0.04 KCAL/MOL
REMARK 927      BINDING AFFINITY PREDICTED BY RF-SCORE:    0.00 PKD
ROOT
HETATM    1  C   UNL     1     -10.344   6.802  73.894  1.00  0.00    -0.397 C  
HETATM    2  C   UNL     1     -10.272   6.154  72.514  1.00  0.00    -0.206 C  
ENDROOT
BRANCH   2   3
HETATM    3  C   UNL     1     -10.136   7.087  71.261  1.00  0.00    -0.199 C  
HETATM    4  C   UNL     1     -11.413   6.949  70.419  1.00  0.00    -0.338 C  
HETATM    5  O   UNL     1      -8.933   9.010  72.194  1.00  0.00    -0.378 OA 
HETATM    6  C   UNL     1      -9.993   8.517  71.810  1.00  0.00    -0.275 C  
HETATM    7  N   UNL     1     -12.454   7.780  70.735  1.00  0.00    -0.523 N  
HETATM    8  O   UNL     1     -11.575   6.106  69.538  1.00  0.00    -0.396 OA 
HETATM    9  H   UNL     1     -11.081  10.101  72.503  1.00  0.00     0.000 HD 
HETATM   10  C   UNL     1     -12.359   8.957  71.411  1.00  0.00    -0.313 C  
HETATM   11  H   UNL     1     -13.386   7.491  70.438  1.00  0.00     0.000 HD 
HETATM   12  O   UNL     1     -13.301   9.735  71.489  1.00  0.00    -0.378 OA 
HETATM   13  N   UNL     1     -11.143   9.250  71.945  1.00  0.00    -0.331 N  
BRANCH   3  14
HETATM   14  C   UNL     1      -8.900   6.670  70.406  1.00  0.00    -0.152 A  
HETATM   15  C   UNL     1      -7.057   5.133  69.927  1.00  0.00    -0.058 A  
HETATM   16  C   UNL     1      -7.381   7.048  68.515  1.00  0.00    -0.100 A  
HETATM   17  C   UNL     1      -8.467   7.440  69.305  1.00  0.00    -0.136 A  
HETATM   18  C   UNL     1      -8.144   5.526  70.719  1.00  0.00    -0.113 A  
HETATM   19  C   UNL     1      -6.685   5.886  68.817  1.00  0.00    -0.064 A  
ENDBRANCH   3  14
ENDBRANCH   2   3
TORSDOF 2
ENDMDL
MODEL       95
REMARK 921   NORMALIZED FREE ENERGY PREDICTED BY IDOCK:   -3.89 KCAL/MOL
REMARK 922        TOTAL FREE ENERGY PREDICTED BY IDOCK:   -4.40 KCAL/MOL
REMARK 923 INTER-LIGAND FREE ENERGY PREDICTED BY IDOCK:   -4.34 KCAL/MOL
REMARK 924 INTRA-LIGAND FREE ENERGY PREDICTED BY IDOCK:   -0.05 KCAL/MOL
REMARK 927      BINDING AFFINITY PREDICTED BY RF-SCORE:    0.00 PKD
ROOT
HETATM    1  C   UNL     1     -10.152   9.055  69.960  1.00  0.00    -0.215 C  
HETATM    2  C   UNL     1      -9.513   8.087  70.952  1.00  0.00    -0.178 C  
ENDROOT
BRANCH   2   3
HETATM    3  C   UNL     1     -10.381   6.899  71.496  1.00  0.00    -0.220 C  
HETATM    4  C   UNL     1     -10.996   7.330  72.836  1.00  0.00    -0.337 C  
HETATM    5  O   UNL     1     -11.323   5.975  69.429  1.00  0.00    -0.398 OA 
HETATM    6  C   UNL     1     -11.476   6.654  70.443  1.00  0.00    -0.386 C  
HETATM    7  N   UNL     1     -12.199   7.983  72.781  1.00  0.00    -0.614 N  
HETATM    8  O   UNL     1     -10.451   7.183  73.929  1.00  0.00    -0.370 OA 
HETATM    9  H   UNL     1     -13.305   7.321  69.826  1.00  0.00     0.000 HD 
HETATM   10  C   UNL     1     -13.086   7.936  71.751  1.00  0.00    -0.325 C  
HETATM   11  H   UNL     1     -12.452   8.556  73.585  1.00  0.00     0.000 HD 
HETATM   12  O   UNL     1     -14.218   8.390  71.854  1.00  0.00    -0.414 OA 
HETATM   13  N   UNL     1     -12.667   7.306  70.622  1.00  0.00    -0.055 N  
BRANCH   3  14
HETATM   14  C   UNL     1      -9.495   5.634  71.712  1.00  0.00    -0.169 A  
HETATM   15  C   UNL     1      -9.259   3.267  72.290  1.00  0.00    -0.156 A  
HETATM   16  C   UNL     1      -7.305   4.526  71.686  1.00  0.00    -0.064 A  
HETATM   17  C   UNL     1      -8.096   5.669  71.528  1.00  0.00    -0.118 A  
HETATM   18  C   UNL     1     -10.051   4.413  72.133  1.00  0.00    -0.262 A  
HETATM   19  C   UNL     1      -7.888   3.321  72.052  1.00  0.00    -0.058 A  
ENDBRANCH   3  14
ENDBRANCH   2   3
TORSDOF 2
ENDMDL
MODEL       96
REMARK 921   NORMALIZED FREE ENERGY PREDICTED BY IDOCK:   -3.88 KCAL/MOL
REMARK 922        TOTAL FREE ENERGY PREDICTED BY IDOCK:   -4.38 KCAL/MOL
REMARK 923 INTER-LIGAND FREE ENERGY PREDICTED BY IDOCK:   -4.37 KCAL/MOL
REMARK 924 INTRA-LIGAND FREE ENERGY PREDICTED BY IDOCK:   -0.01 KCAL/MOL
REMARK 927      BINDING AFFINITY PREDICTED BY RF-SCORE:    0.00 PKD
ROOT
HETATM    1  C   UNL     1     -11.742   6.583  70.118  1.00  0.00    -0.419 C  
HETATM    2  C   UNL     1     -10.307   7.096  70.215  1.00  0.00    -0.214 C  
ENDROOT
BRANCH   2   3
HETATM    3  C   UNL     1      -9.974   8.169  71.310  1.00  0.00    -0.225 C  
HETATM    4  C   UNL     1      -9.540   9.460  70.600  1.00  0.00    -0.268 C  
HETATM    5  O   UNL     1     -11.653   7.673  73.028  1.00  0.00    -0.298 OA 
HETATM    6  C   UNL     1     -11.276   8.388  72.100  1.00  0.00    -0.361 C  
HETATM    7  N   UNL     1     -10.532  10.340  70.257  1.00  0.00    -0.430 N  
HETATM    8  O   UNL     1      -8.383   9.714  70.269  1.00  0.00    -0.181 OA 
HETATM    9  H   UNL     1     -13.042   9.413  72.056  1.00  0.00     0.000 HD 
HETATM   10  C   UNL     1     -11.771  10.402  70.816  1.00  0.00    -0.368 C  
HETATM   11  H   UNL     1     -10.323  11.009  69.517  1.00  0.00     0.000 HD 
HETATM   12  O   UNL     1     -12.533  11.333  70.592  1.00  0.00    -0.342 OA 
HETATM   13  N   UNL     1     -12.094   9.404  71.681  1.00  0.00    -0.365 N  
BRANCH   3  14
HETATM   14  C   UNL     1      -8.819   7.665  72.229  1.00  0.00    -0.170 A  
HETATM   15  C   UNL     1      -7.000   6.098  72.706  1.00  0.00    -0.076 A  
HETATM   16  C   UNL     1      -7.448   7.879  74.253  1.00  0.00    -0.209 A  
HETATM   17  C   UNL     1      -8.506   8.308  73.446  1.00  0.00    -0.267 A  
HETATM   18  C   UNL     1      -8.062   6.527  71.898  1.00  0.00    -0.104 A  
HETATM   19  C   UNL     1      -6.684   6.784  73.875  1.00  0.00    -0.072 A  
ENDBRANCH   3  14
ENDBRANCH   2   3
TORSDOF 2
ENDMDL
MODEL       97
REMARK 921   NORMALIZED FREE ENERGY PREDICTED BY IDOCK:   -3.86 KCAL/MOL
REMARK 922        TOTAL FREE ENERGY PREDICTED BY IDOCK:   -4.36 KCAL/MOL
REMARK 923 INTER-LIGAND FREE ENERGY PREDICTED BY IDOCK:   -4.34 KCAL/MOL
REMARK 924 INTRA-LIGAND FREE ENERGY PREDICTED BY IDOCK:   -0.02 KCAL/MOL
REMARK 927      BINDING AFFINITY PREDICTED BY RF-SCORE:    0.00 PKD
ROOT
HETATM    1  C   UNL     1      -9.853   8.854  66.815  1.00  0.00    -0.308 C  
HETATM    2  C   UNL     1     -10.827  10.021  66.958  1.00  0.00    -0.196 C  
ENDROOT
BRANCH   2   3
HETATM    3  C   UNL     1     -10.661  10.981  68.188  1.00  0.00    -0.246 C  
HETATM    4  C   UNL     1     -11.541  10.452  69.330  1.00  0.00    -0.202 C  
HETATM    5  O   UNL     1      -8.292  11.595  68.032  1.00  0.00    -0.134 OA 
HETATM    6  C   UNL     1      -9.172  10.927  68.572  1.00  0.00    -0.181 C  
HETATM    7  N   UNL     1     -10.976   9.529  70.169  1.00  0.00    -0.249 N  
HETATM    8  O   UNL     1     -12.722  10.756  69.493  1.00  0.00    -0.257 OA 
HETATM    9  H   UNL     1      -7.812   9.824  69.624  1.00  0.00     0.000 HD 
HETATM   10  C   UNL     1      -9.643   9.333  70.358  1.00  0.00    -0.244 C  
HETATM   11  H   UNL     1     -11.611   8.934  70.700  1.00  0.00     0.000 HD 
HETATM   12  O   UNL     1      -9.216   8.624  71.260  1.00  0.00    -0.178 OA 
HETATM   13  N   UNL     1      -8.809  10.013  69.527  1.00  0.00    -0.188 N  
BRANCH   3  14
HETATM   14  C   UNL     1     -11.108  12.427  67.811  1.00  0.00    -0.292 A  
HETATM   15  C   UNL     1     -11.186  14.827  68.285  1.00  0.00    -0.299 A  
HETATM   16  C   UNL     1     -12.219  13.993  66.283  1.00  0.00    -0.493 A  
HETATM   17  C   UNL     1     -11.850  12.692  66.641  1.00  0.00    -0.449 A  
HETATM   18  C   UNL     1     -10.817  13.523  68.643  1.00  0.00    -0.281 A  
HETATM   19  C   UNL     1     -11.874  15.063  67.097  1.00  0.00    -0.141 A  
ENDBRANCH   3  14
ENDBRANCH   2   3
TORSDOF 2
ENDMDL
MODEL       98
REMARK 921   NORMALIZED FREE ENERGY PREDICTED BY IDOCK:   -3.85 KCAL/MOL
REMARK 922        TOTAL FREE ENERGY PREDICTED BY IDOCK:   -4.35 KCAL/MOL
REMARK 923 INTER-LIGAND FREE ENERGY PREDICTED BY IDOCK:   -4.34 KCAL/MOL
REMARK 924 INTRA-LIGAND FREE ENERGY PREDICTED BY IDOCK:   -0.01 KCAL/MOL
REMARK 927      BINDING AFFINITY PREDICTED BY RF-SCORE:    0.00 PKD
ROOT
HETATM    1  C   UNL     1      -9.924   8.587  66.645  1.00  0.00    -0.363 C  
HETATM    2  C   UNL     1      -9.776   9.364  67.951  1.00  0.00    -0.177 C  
ENDROOT
BRANCH   2   3
HETATM    3  C   UNL     1      -9.810   8.564  69.300  1.00  0.00    -0.185 C  
HETATM    4  C   UNL     1     -10.043   7.081  68.973  1.00  0.00    -0.180 C  
HETATM    5  O   UNL     1      -8.127   9.752  70.631  1.00  0.00    -0.264 OA 
HETATM    6  C   UNL     1      -8.432   8.772  69.952  1.00  0.00    -0.131 C  
HETATM    7  N   UNL     1      -8.930   6.321  68.727  1.00  0.00    -0.125 N  
HETATM    8  O   UNL     1     -11.152   6.563  68.857  1.00  0.00    -0.304 OA 
HETATM    9  H   UNL     1      -6.510   8.079  69.931  1.00  0.00     0.000 HD 
HETATM   10  C   UNL     1      -7.663   6.610  69.126  1.00  0.00    -0.106 C  
HETATM   11  H   UNL     1      -9.065   5.461  68.196  1.00  0.00     0.000 HD 
HETATM   12  O   UNL     1      -6.756   5.793  69.034  1.00  0.00    -0.055 OA 
HETATM   13  N   UNL     1      -7.470   7.834  69.685  1.00  0.00    -0.088 N  
BRANCH   3  14
HETATM   14  C   UNL     1     -10.964   9.085  70.211  1.00  0.00    -0.274 A  
HETATM   15  C   UNL     1     -12.392   8.857  72.186  1.00  0.00    -0.449 A  
HETATM   16  C   UNL     1     -12.671  10.763  70.751  1.00  0.00    -0.451 A  
HETATM   17  C   UNL     1     -11.661  10.276  69.915  1.00  0.00    -0.326 A  
HETATM   18  C   UNL     1     -11.381   8.369  71.347  1.00  0.00    -0.317 A  
HETATM   19  C   UNL     1     -13.026  10.062  71.895  1.00  0.00    -0.547 A  
ENDBRANCH   3  14
ENDBRANCH   2   3
TORSDOF 2
ENDMDL
MODEL       99
REMARK 921   NORMALIZED FREE ENERGY PREDICTED BY IDOCK:   -3.84 KCAL/MOL
REMARK 922        TOTAL FREE ENERGY PREDICTED BY IDOCK:   -4.33 KCAL/MOL
REMARK 923 INTER-LIGAND FREE ENERGY PREDICTED BY IDOCK:   -4.36 KCAL/MOL
REMARK 924 INTRA-LIGAND FREE ENERGY PREDICTED BY IDOCK:    0.03 KCAL/MOL
REMARK 927      BINDING AFFINITY PREDICTED BY RF-SCORE:    0.00 PKD
ROOT
HETATM    1  C   UNL     1     -11.285   6.029  70.175  1.00  0.00    -0.412 C  
HETATM    2  C   UNL     1     -10.569   7.328  69.818  1.00  0.00    -0.247 C  
ENDROOT
BRANCH   2   3
HETATM    3  C   UNL     1     -10.087   8.257  70.987  1.00  0.00    -0.230 C  
HETATM    4  C   UNL     1      -9.681   9.612  70.386  1.00  0.00    -0.245 C  
HETATM    5  O   UNL     1     -11.601   7.605  72.804  1.00  0.00    -0.337 OA 
HETATM    6  C   UNL     1     -11.294   8.415  71.929  1.00  0.00    -0.314 C  
HETATM    7  N   UNL     1     -10.671  10.549  70.252  1.00  0.00    -0.454 N  
HETATM    8  O   UNL     1      -8.555   9.875  69.967  1.00  0.00    -0.203 OA 
HETATM    9  H   UNL     1     -13.018   9.479  72.187  1.00  0.00     0.000 HD 
HETATM   10  C   UNL     1     -11.843  10.576  70.941  1.00  0.00    -0.355 C  
HETATM   11  H   UNL     1     -10.514  11.295  69.575  1.00  0.00     0.000 HD 
HETATM   12  O   UNL     1     -12.591  11.545  70.906  1.00  0.00    -0.369 OA 
HETATM   13  N   UNL     1     -12.113   9.492  71.716  1.00  0.00    -0.386 N  
BRANCH   3  14
HETATM   14  C   UNL     1      -8.864   7.622  71.716  1.00  0.00    -0.139 A  
HETATM   15  C   UNL     1      -7.342   7.512  73.630  1.00  0.00    -0.123 A  
HETATM   16  C   UNL     1      -7.059   5.962  71.817  1.00  0.00    -0.085 A  
HETATM   17  C   UNL     1      -8.134   6.557  71.147  1.00  0.00    -0.116 A  
HETATM   18  C   UNL     1      -8.417   8.108  72.958  1.00  0.00    -0.272 A  
HETATM   19  C   UNL     1      -6.672   6.429  73.065  1.00  0.00    -0.073 A  
ENDBRANCH   3  14
ENDBRANCH   2   3
TORSDOF 2
ENDMDL
MODEL      100
REMARK 921   NORMALIZED FREE ENERGY PREDICTED BY IDOCK:   -3.83 KCAL/MOL
REMARK 922        TOTAL FREE ENERGY PREDICTED BY IDOCK:   -4.33 KCAL/MOL
REMARK 923 INTER-LIGAND FREE ENERGY PREDICTED BY IDOCK:   -4.89 KCAL/MOL
REMARK 924 INTRA-LIGAND FREE ENERGY PREDICTED BY IDOCK:    0.56 KCAL/MOL
REMARK 927      BINDING AFFINITY PREDICTED BY RF-SCORE:    0.00 PKD
ROOT
HETATM    1  C   UNL     1     -10.475  14.165  65.018  1.00  0.00    -0.447 C  
HETATM    2  C   UNL     1     -11.132  14.828  66.226  1.00  0.00    -0.341 C  
ENDROOT
BRANCH   2   3
HETATM    3  C   UNL     1     -10.514  14.567  67.644  1.00  0.00    -0.246 C  
HETATM    4  C   UNL     1      -8.985  14.527  67.502  1.00  0.00    -0.188 C  
HETATM    5  O   UNL     1     -12.038  15.827  69.096  1.00  0.00    -0.353 OA 
HETATM    6  C   UNL     1     -10.952  15.753  68.523  1.00  0.00    -0.312 C  
HETATM    7  N   UNL     1      -8.324  15.723  67.601  1.00  0.00    -0.153 N  
HETATM    8  O   UNL     1      -8.340  13.513  67.243  1.00  0.00    -0.186 OA 
HETATM    9  H   UNL     1     -10.474  17.682  68.994  1.00  0.00     0.000 HD 
HETATM   10  C   UNL     1      -8.797  16.848  68.201  1.00  0.00    -0.223 C  
HETATM   11  H   UNL     1      -7.393  15.773  67.189  1.00  0.00     0.000 HD 
HETATM   12  O   UNL     1      -8.078  17.815  68.417  1.00  0.00    -0.278 OA 
HETATM   13  N   UNL     1     -10.097  16.820  68.599  1.00  0.00    -0.262 N  
BRANCH   3  14
HETATM   14  C   UNL     1     -11.021  13.208  68.216  1.00  0.00    -0.278 A  
HETATM   15  C   UNL     1     -11.584  10.844  67.916  1.00  0.00    -0.270 A  
HETATM   16  C   UNL     1     -11.808  11.836  70.092  1.00  0.00    -0.408 A  
HETATM   17  C   UNL     1     -11.389  13.064  69.571  1.00  0.00    -0.223 A  
HETATM   18  C   UNL     1     -11.165  12.075  67.394  1.00  0.00    -0.368 A  
HETATM   19  C   UNL     1     -11.891  10.722  69.269  1.00  0.00    -0.359 A  
ENDBRANCH   3  14
ENDBRANCH   2   3
TORSDOF 2
ENDMDL
MODEL      101
REMARK 921   NORMALIZED FREE ENERGY PREDICTED BY IDOCK:   -3.83 KCAL/MOL
REMARK 922        TOTAL FREE ENERGY PREDICTED BY IDOCK:   -4.33 KCAL/MOL
REMARK 923 INTER-LIGAND FREE ENERGY PREDICTED BY IDOCK:   -4.27 KCAL/MOL
REMARK 924 INTRA-LIGAND FREE ENERGY PREDICTED BY IDOCK:   -0.06 KCAL/MOL
REMARK 927      BINDING AFFINITY PREDICTED BY RF-SCORE:    0.00 PKD
ROOT
HETATM    1  C   UNL     1     -13.686   7.225  71.540  1.00  0.00    -0.451 C  
HETATM    2  C   UNL     1     -12.515   6.648  70.750  1.00  0.00    -0.124 C  
ENDROOT
BRANCH   2   3
HETATM    3  C   UNL     1     -11.124   7.366  70.851  1.00  0.00    -0.283 C  
HETATM    4  C   UNL     1     -10.898   8.157  69.554  1.00  0.00    -0.121 C  
HETATM    5  O   UNL     1     -11.040   7.967  73.228  1.00  0.00    -0.328 OA 
HETATM    6  C   UNL     1     -11.221   8.312  72.061  1.00  0.00    -0.323 C  
HETATM    7  N   UNL     1     -11.385   9.437  69.518  1.00  0.00    -0.440 N  
HETATM    8  O   UNL     1     -10.372   7.694  68.543  1.00  0.00    -0.196 OA 
HETATM    9  H   UNL     1     -11.885  10.161  72.620  1.00  0.00     0.000 HD 
HETATM   10  C   UNL     1     -11.672  10.211  70.598  1.00  0.00    -0.338 C  
HETATM   11  H   UNL     1     -11.545   9.846  68.598  1.00  0.00     0.000 HD 
HETATM   12  O   UNL     1     -11.922  11.405  70.489  1.00  0.00    -0.348 OA 
HETATM   13  N   UNL     1     -11.612   9.601  71.812  1.00  0.00    -0.336 N  
BRANCH   3  14
HETATM   14  C   UNL     1      -9.984   6.317  71.029  1.00  0.00    -0.213 A  
HETATM   15  C   UNL     1      -9.223   3.995  71.171  1.00  0.00    -0.196 A  
HETATM   16  C   UNL     1      -7.611   5.768  71.333  1.00  0.00    -0.105 A  
HETATM   17  C   UNL     1      -8.640   6.708  71.210  1.00  0.00    -0.126 A  
HETATM   18  C   UNL     1     -10.253   4.937  71.049  1.00  0.00    -0.262 A  
HETATM   19  C   UNL     1      -7.900   4.411  71.298  1.00  0.00    -0.080 A  
ENDBRANCH   3  14
ENDBRANCH   2   3
TORSDOF 2
ENDMDL
MODEL      102
REMARK 921   NORMALIZED FREE ENERGY PREDICTED BY IDOCK:   -3.83 KCAL/MOL
REMARK 922        TOTAL FREE ENERGY PREDICTED BY IDOCK:   -4.33 KCAL/MOL
REMARK 923 INTER-LIGAND FREE ENERGY PREDICTED BY IDOCK:   -4.19 KCAL/MOL
REMARK 924 INTRA-LIGAND FREE ENERGY PREDICTED BY IDOCK:   -0.14 KCAL/MOL
REMARK 927      BINDING AFFINITY PREDICTED BY RF-SCORE:    0.00 PKD
ROOT
HETATM    1  C   UNL     1     -10.396   5.409  66.965  1.00  0.00    -0.299 C  
HETATM    2  C   UNL     1     -11.004   6.751  67.364  1.00  0.00    -0.407 C  
ENDROOT
BRANCH   2   3
HETATM    3  C   UNL     1     -10.168   7.699  68.293  1.00  0.00    -0.229 C  
HETATM    4  C   UNL     1      -8.727   7.170  68.346  1.00  0.00    -0.125 C  
HETATM    5  O   UNL     1     -11.141   9.891  67.781  1.00  0.00    -0.269 OA 
HETATM    6  C   UNL     1     -10.219   9.090  67.637  1.00  0.00    -0.242 C  
HETATM    7  N   UNL     1      -7.870   7.616  67.375  1.00  0.00    -0.116 N  
HETATM    8  O   UNL     1      -8.324   6.335  69.154  1.00  0.00    -0.118 OA 
HETATM    9  H   UNL     1      -9.341  10.226  66.184  1.00  0.00     0.000 HD 
HETATM   10  C   UNL     1      -8.019   8.750  66.639  1.00  0.00    -0.100 C  
HETATM   11  H   UNL     1      -7.044   7.048  67.188  1.00  0.00     0.000 HD 
HETATM   12  O   UNL     1      -7.120   9.181  65.928  1.00  0.00    -0.087 OA 
HETATM   13  N   UNL     1      -9.200   9.410  66.779  1.00  0.00    -0.138 N  
BRANCH   3  14
HETATM   14  C   UNL     1     -10.770   7.717  69.732  1.00  0.00    -0.236 A  
HETATM   15  C   UNL     1     -10.930   8.706  71.965  1.00  0.00    -0.432 A  
HETATM   16  C   UNL     1     -12.291   6.801  71.426  1.00  0.00    -0.403 A  
HETATM   17  C   UNL     1     -11.723   6.763  70.148  1.00  0.00    -0.370 A  
HETATM   18  C   UNL     1     -10.361   8.667  70.685  1.00  0.00    -0.241 A  
HETATM   19  C   UNL     1     -11.906   7.781  72.330  1.00  0.00    -0.378 A  
ENDBRANCH   3  14
ENDBRANCH   2   3
TORSDOF 2
ENDMDL
MODEL      103
REMARK 921   NORMALIZED FREE ENERGY PREDICTED BY IDOCK:   -3.81 KCAL/MOL
REMARK 922        TOTAL FREE ENERGY PREDICTED BY IDOCK:   -4.31 KCAL/MOL
REMARK 923 INTER-LIGAND FREE ENERGY PREDICTED BY IDOCK:   -4.28 KCAL/MOL
REMARK 924 INTRA-LIGAND FREE ENERGY PREDICTED BY IDOCK:   -0.03 KCAL/MOL
REMARK 927      BINDING AFFINITY PREDICTED BY RF-SCORE:    0.00 PKD
ROOT
HETATM    1  C   UNL     1     -10.583   5.497  70.235  1.00  0.00    -0.357 C  
HETATM    2  C   UNL     1     -10.199   6.777  70.973  1.00  0.00    -0.217 C  
ENDROOT
BRANCH   2   3
HETATM    3  C   UNL     1      -9.842   8.046  70.123  1.00  0.00    -0.184 C  
HETATM    4  C   UNL     1      -8.414   8.479  70.485  1.00  0.00    -0.137 C  
HETATM    5  O   UNL     1     -10.970   7.563  67.999  1.00  0.00    -0.075 OA 
HETATM    6  C   UNL     1      -9.927   7.609  68.650  1.00  0.00    -0.174 C  
HETATM    7  N   UNL     1      -7.395   7.904  69.773  1.00  0.00    -0.077 N  
HETATM    8  O   UNL     1      -8.134   9.248  71.403  1.00  0.00    -0.330 OA 
HETATM    9  H   UNL     1      -8.862   6.684  67.173  1.00  0.00     0.000 HD 
HETATM   10  C   UNL     1      -7.507   7.324  68.548  1.00  0.00    -0.105 C  
HETATM   11  H   UNL     1      -6.469   7.911  70.200  1.00  0.00     0.000 HD 
HETATM   12  O   UNL     1      -6.523   7.003  67.893  1.00  0.00    -0.046 OA 
HETATM   13  N   UNL     1      -8.768   7.172  68.064  1.00  0.00    -0.127 N  
BRANCH   3  14
HETATM   14  C   UNL     1     -10.835   9.207  70.439  1.00  0.00    -0.285 A  
HETATM   15  C   UNL     1     -12.635  10.167  71.791  1.00  0.00    -0.500 A  
HETATM   16  C   UNL     1     -11.727  11.445  69.972  1.00  0.00    -0.416 A  
HETATM   17  C   UNL     1     -10.862  10.389  69.668  1.00  0.00    -0.320 A  
HETATM   18  C   UNL     1     -11.769   9.108  71.485  1.00  0.00    -0.433 A  
HETATM   19  C   UNL     1     -12.603  11.341  71.044  1.00  0.00    -0.495 A  
ENDBRANCH   3  14
ENDBRANCH   2   3
TORSDOF 2
ENDMDL
MODEL      104
REMARK 921   NORMALIZED FREE ENERGY PREDICTED BY IDOCK:   -3.81 KCAL/MOL
REMARK 922        TOTAL FREE ENERGY PREDICTED BY IDOCK:   -4.30 KCAL/MOL
REMARK 923 INTER-LIGAND FREE ENERGY PREDICTED BY IDOCK:   -4.27 KCAL/MOL
REMARK 924 INTRA-LIGAND FREE ENERGY PREDICTED BY IDOCK:   -0.04 KCAL/MOL
REMARK 927      BINDING AFFINITY PREDICTED BY RF-SCORE:    0.00 PKD
ROOT
HETATM    1  C   UNL     1      -9.043  10.277  64.693  1.00  0.00    -0.265 C  
HETATM    2  C   UNL     1      -9.711   9.735  65.954  1.00  0.00    -0.332 C  
ENDROOT
BRANCH   2   3
HETATM    3  C   UNL     1      -9.624  10.589  67.267  1.00  0.00    -0.188 C  
HETATM    4  C   UNL     1      -8.310  11.383  67.236  1.00  0.00    -0.149 C  
HETATM    5  O   UNL     1     -11.968  11.223  67.611  1.00  0.00    -0.634 OA 
HETATM    6  C   UNL     1     -10.838  11.535  67.240  1.00  0.00    -0.256 C  
HETATM    7  N   UNL     1      -8.342  12.608  66.624  1.00  0.00    -0.412 N  
HETATM    8  O   UNL     1      -7.236  10.963  67.664  1.00  0.00    -0.089 OA 
HETATM    9  H   UNL     1     -11.484  13.316  66.476  1.00  0.00     0.000 HD 
HETATM   10  C   UNL     1      -9.453  13.363  66.408  1.00  0.00    -0.219 C  
HETATM   11  H   UNL     1      -7.453  12.988  66.300  1.00  0.00     0.000 HD 
HETATM   12  O   UNL     1      -9.380  14.524  66.028  1.00  0.00    -0.259 OA 
HETATM   13  N   UNL     1     -10.646  12.776  66.692  1.00  0.00    -0.255 N  
BRANCH   3  14
HETATM   14  C   UNL     1      -9.644   9.661  68.520  1.00  0.00    -0.152 A  
HETATM   15  C   UNL     1      -9.820   7.436  69.525  1.00  0.00    -0.165 A  
HETATM   16  C   UNL     1      -9.482   9.341  70.948  1.00  0.00    -0.330 A  
HETATM   17  C   UNL     1      -9.501  10.176  69.826  1.00  0.00    -0.201 A  
HETATM   18  C   UNL     1      -9.840   8.273  68.402  1.00  0.00    -0.187 A  
HETATM   19  C   UNL     1      -9.626   7.969  70.797  1.00  0.00    -0.174 A  
ENDBRANCH   3  14
ENDBRANCH   2   3
TORSDOF 2
ENDMDL
MODEL      105
REMARK 921   NORMALIZED FREE ENERGY PREDICTED BY IDOCK:   -3.81 KCAL/MOL
REMARK 922        TOTAL FREE ENERGY PREDICTED BY IDOCK:   -4.30 KCAL/MOL
REMARK 923 INTER-LIGAND FREE ENERGY PREDICTED BY IDOCK:   -4.54 KCAL/MOL
REMARK 924 INTRA-LIGAND FREE ENERGY PREDICTED BY IDOCK:    0.24 KCAL/MOL
REMARK 927      BINDING AFFINITY PREDICTED BY RF-SCORE:    0.00 PKD
ROOT
HETATM    1  C   UNL     1     -11.360  10.943  67.662  1.00  0.00    -0.345 C  
HETATM    2  C   UNL     1     -11.264  11.457  66.228  1.00  0.00    -0.228 C  
ENDROOT
BRANCH   2   3
HETATM    3  C   UNL     1      -9.859  11.901  65.691  1.00  0.00    -0.266 C  
HETATM    4  C   UNL     1     -10.053  12.526  64.301  1.00  0.00    -0.271 C  
HETATM    5  O   UNL     1      -8.754  12.667  67.742  1.00  0.00    -0.159 OA 
HETATM    6  C   UNL     1      -9.331  12.944  66.692  1.00  0.00    -0.240 C  
HETATM    7  N   UNL     1     -10.324  13.868  64.259  1.00  0.00    -0.572 N  
HETATM    8  O   UNL     1     -10.044  11.891  63.248  1.00  0.00    -0.428 OA 
HETATM    9  H   UNL     1      -9.445  14.926  67.176  1.00  0.00     0.000 HD 
HETATM   10  C   UNL     1     -10.046  14.769  65.239  1.00  0.00    -0.354 C  
HETATM   11  H   UNL     1     -10.776  14.224  63.417  1.00  0.00     0.000 HD 
HETATM   12  O   UNL     1     -10.143  15.975  65.054  1.00  0.00    -0.463 OA 
HETATM   13  N   UNL     1      -9.598  14.260  66.418  1.00  0.00    -0.293 N  
BRANCH   3  14
HETATM   14  C   UNL     1      -8.905  10.672  65.582  1.00  0.00    -0.201 A  
HETATM   15  C   UNL     1      -6.681   9.672  65.787  1.00  0.00    -0.089 A  
HETATM   16  C   UNL     1      -8.528   8.292  65.115  1.00  0.00    -0.164 A  
HETATM   17  C   UNL     1      -9.375   9.404  65.178  1.00  0.00    -0.288 A  
HETATM   18  C   UNL     1      -7.529  10.786  65.849  1.00  0.00    -0.099 A  
HETATM   19  C   UNL     1      -7.184   8.423  65.435  1.00  0.00    -0.082 A  
ENDBRANCH   3  14
ENDBRANCH   2   3
TORSDOF 2
ENDMDL
MODEL      106
REMARK 921   NORMALIZED FREE ENERGY PREDICTED BY IDOCK:   -3.75 KCAL/MOL
REMARK 922        TOTAL FREE ENERGY PREDICTED BY IDOCK:   -4.23 KCAL/MOL
REMARK 923 INTER-LIGAND FREE ENERGY PREDICTED BY IDOCK:   -4.22 KCAL/MOL
REMARK 924 INTRA-LIGAND FREE ENERGY PREDICTED BY IDOCK:   -0.02 KCAL/MOL
REMARK 927      BINDING AFFINITY PREDICTED BY RF-SCORE:    0.00 PKD
ROOT
HETATM    1  C   UNL     1     -13.008   9.004  72.382  1.00  0.00    -0.471 C  
HETATM    2  C   UNL     1     -12.678   8.067  71.223  1.00  0.00    -0.234 C  
ENDROOT
BRANCH   2   3
HETATM    3  C   UNL     1     -11.170   7.831  70.864  1.00  0.00    -0.284 C  
HETATM    4  C   UNL     1     -10.380   7.693  72.175  1.00  0.00    -0.221 C  
HETATM    5  O   UNL     1     -11.343   6.445  68.848  1.00  0.00    -0.341 OA 
HETATM    6  C   UNL     1     -11.125   6.522  70.056  1.00  0.00    -0.363 C  
HETATM    7  N   UNL     1     -10.291   6.437  72.712  1.00  0.00    -0.193 N  
HETATM    8  O   UNL     1      -9.889   8.638  72.791  1.00  0.00    -0.213 OA 
HETATM    9  H   UNL     1     -11.086   4.491  70.268  1.00  0.00     0.000 HD 
HETATM   10  C   UNL     1     -10.458   5.267  72.039  1.00  0.00    -0.222 C  
HETATM   11  H   UNL     1     -10.079   6.373  73.708  1.00  0.00     0.000 HD 
HETATM   12  O   UNL     1     -10.176   4.187  72.542  1.00  0.00    -0.167 OA 
HETATM   13  N   UNL     1     -10.901   5.366  70.757  1.00  0.00    -0.181 N  
BRANCH   3  14
HETATM   14  C   UNL     1     -10.613   9.035  70.044  1.00  0.00    -0.246 A  
HETATM   15  C   UNL     1      -8.807  10.106  68.785  1.00  0.00    -0.146 A  
HETATM   16  C   UNL     1     -10.909  11.246  69.020  1.00  0.00    -0.268 A  
HETATM   17  C   UNL     1     -11.394  10.182  69.787  1.00  0.00    -0.312 A  
HETATM   18  C   UNL     1      -9.294   9.041  69.554  1.00  0.00    -0.160 A  
HETATM   19  C   UNL     1      -9.620  11.202  68.506  1.00  0.00    -0.193 A  
ENDBRANCH   3  14
ENDBRANCH   2   3
TORSDOF 2
ENDMDL
MODEL      107
REMARK 921   NORMALIZED FREE ENERGY PREDICTED BY IDOCK:   -3.73 KCAL/MOL
REMARK 922        TOTAL FREE ENERGY PREDICTED BY IDOCK:   -4.22 KCAL/MOL
REMARK 923 INTER-LIGAND FREE ENERGY PREDICTED BY IDOCK:   -4.12 KCAL/MOL
REMARK 924 INTRA-LIGAND FREE ENERGY PREDICTED BY IDOCK:   -0.09 KCAL/MOL
REMARK 927      BINDING AFFINITY PREDICTED BY RF-SCORE:    0.00 PKD
ROOT
HETATM    1  C   UNL     1     -11.654  13.088  65.906  1.00  0.00    -0.405 C  
HETATM    2  C   UNL     1     -11.518  11.837  66.769  1.00  0.00    -0.352 C  
ENDROOT
BRANCH   2   3
HETATM    3  C   UNL     1     -10.505  11.867  67.967  1.00  0.00    -0.228 C  
HETATM    4  C   UNL     1     -10.484  13.291  68.542  1.00  0.00    -0.250 C  
HETATM    5  O   UNL     1     -10.842   9.652  68.966  1.00  0.00    -0.223 OA 
HETATM    6  C   UNL     1     -11.044  10.865  69.004  1.00  0.00    -0.246 C  
HETATM    7  N   UNL     1     -11.406  13.579  69.513  1.00  0.00    -0.417 N  
HETATM    8  O   UNL     1      -9.745  14.189  68.142  1.00  0.00    -0.212 OA 
HETATM    9  H   UNL     1     -12.388  10.682  70.530  1.00  0.00     0.000 HD 
HETATM   10  C   UNL     1     -12.047  12.673  70.298  1.00  0.00    -0.294 C  
HETATM   11  H   UNL     1     -11.632  14.562  69.660  1.00  0.00     0.000 HD 
HETATM   12  O   UNL     1     -12.711  13.015  71.268  1.00  0.00    -0.368 OA 
HETATM   13  N   UNL     1     -11.863  11.363  69.983  1.00  0.00    -0.333 N  
BRANCH   3  14
HETATM   14  C   UNL     1      -9.076  11.480  67.479  1.00  0.00    -0.166 A  
HETATM   15  C   UNL     1      -6.679  11.205  67.896  1.00  0.00    -0.063 A  
HETATM   16  C   UNL     1      -7.563  10.654  65.732  1.00  0.00    -0.120 A  
HETATM   17  C   UNL     1      -8.838  11.036  66.160  1.00  0.00    -0.197 A  
HETATM   18  C   UNL     1      -7.958  11.589  68.324  1.00  0.00    -0.142 A  
HETATM   19  C   UNL     1      -6.486  10.723  66.604  1.00  0.00    -0.108 A  
ENDBRANCH   3  14
ENDBRANCH   2   3
TORSDOF 2
ENDMDL
MODEL      108
REMARK 921   NORMALIZED FREE ENERGY PREDICTED BY IDOCK:   -3.69 KCAL/MOL
REMARK 922        TOTAL FREE ENERGY PREDICTED BY IDOCK:   -4.17 KCAL/MOL
REMARK 923 INTER-LIGAND FREE ENERGY PREDICTED BY IDOCK:   -4.14 KCAL/MOL
REMARK 924 INTRA-LIGAND FREE ENERGY PREDICTED BY IDOCK:   -0.03 KCAL/MOL
REMARK 927      BINDING AFFINITY PREDICTED BY RF-SCORE:    0.00 PKD
ROOT
HETATM    1  C   UNL     1     -10.352   6.907  69.493  1.00  0.00    -0.224 C  
HETATM    2  C   UNL     1     -10.478   8.061  68.502  1.00  0.00    -0.200 C  
ENDROOT
BRANCH   2   3
HETATM    3  C   UNL     1     -10.296   9.524  69.038  1.00  0.00    -0.219 C  
HETATM    4  C   UNL     1     -11.635  10.262  68.883  1.00  0.00    -0.065 C  
HETATM    5  O   UNL     1      -8.771   9.182  70.928  1.00  0.00    -0.208 OA 
HETATM    6  C   UNL     1      -9.914   9.389  70.523  1.00  0.00    -0.267 C  
HETATM    7  N   UNL     1     -12.523  10.155  69.920  1.00  0.00    -0.521 N  
HETATM    8  O   UNL     1     -11.975  10.876  67.873  1.00  0.00    -0.585 OA 
HETATM    9  H   UNL     1     -10.715   9.122  72.382  1.00  0.00     0.000 HD 
HETATM   10  C   UNL     1     -12.215   9.827  71.204  1.00  0.00    -0.362 C  
HETATM   11  H   UNL     1     -13.504  10.337  69.711  1.00  0.00     0.000 HD 
HETATM   12  O   UNL     1     -13.029   9.937  72.111  1.00  0.00    -0.411 OA 
HETATM   13  N   UNL     1     -10.936   9.426  71.434  1.00  0.00    -0.361 N  
BRANCH   3  14
HETATM   14  C   UNL     1      -9.193  10.268  68.224  1.00  0.00    -0.139 A  
HETATM   15  C   UNL     1      -7.688  10.402  66.299  1.00  0.00    -0.129 A  
HETATM   16  C   UNL     1      -7.706  12.193  67.899  1.00  0.00    -0.134 A  
HETATM   17  C   UNL     1      -8.669  11.508  68.647  1.00  0.00    -0.103 A  
HETATM   18  C   UNL     1      -8.651   9.715  67.050  1.00  0.00    -0.131 A  
HETATM   19  C   UNL     1      -7.226  11.647  66.716  1.00  0.00    -0.082 A  
ENDBRANCH   3  14
ENDBRANCH   2   3
TORSDOF 2
ENDMDL
MODEL      109
REMARK 921   NORMALIZED FREE ENERGY PREDICTED BY IDOCK:   -3.68 KCAL/MOL
REMARK 922        TOTAL FREE ENERGY PREDICTED BY IDOCK:   -4.15 KCAL/MOL
REMARK 923 INTER-LIGAND FREE ENERGY PREDICTED BY IDOCK:   -4.39 KCAL/MOL
REMARK 924 INTRA-LIGAND FREE ENERGY PREDICTED BY IDOCK:    0.23 KCAL/MOL
REMARK 927      BINDING AFFINITY PREDICTED BY RF-SCORE:    0.00 PKD
ROOT
HETATM    1  C   UNL     1      -8.659   7.794  73.160  1.00  0.00    -0.230 C  
HETATM    2  C   UNL     1     -10.058   7.879  72.556  1.00  0.00    -0.325 C  
ENDROOT
BRANCH   2   3
HETATM    3  C   UNL     1     -10.212   7.682  71.007  1.00  0.00    -0.200 C  
HETATM    4  C   UNL     1      -8.827   7.365  70.424  1.00  0.00    -0.149 C  
HETATM    5  O   UNL     1     -12.397   6.576  70.857  1.00  0.00    -0.290 OA 
HETATM    6  C   UNL     1     -11.170   6.491  70.824  1.00  0.00    -0.321 C  
HETATM    7  N   UNL     1      -8.453   6.048  70.400  1.00  0.00    -0.130 N  
HETATM    8  O   UNL     1      -8.024   8.216  70.043  1.00  0.00    -0.100 OA 
HETATM    9  H   UNL     1     -11.225   4.449  70.792  1.00  0.00     0.000 HD 
HETATM   10  C   UNL     1      -9.293   4.979  70.449  1.00  0.00    -0.158 C  
HETATM   11  H   UNL     1      -7.455   5.851  70.341  1.00  0.00     0.000 HD 
HETATM   12  O   UNL     1      -8.900   3.840  70.233  1.00  0.00    -0.075 OA 
HETATM   13  N   UNL     1     -10.602   5.251  70.695  1.00  0.00    -0.233 N  
BRANCH   3  14
HETATM   14  C   UNL     1     -10.773   8.979  70.348  1.00  0.00    -0.267 A  
HETATM   15  C   UNL     1     -11.025  10.449  68.407  1.00  0.00    -0.312 A  
HETATM   16  C   UNL     1     -12.091  11.046  70.475  1.00  0.00    -0.470 A  
HETATM   17  C   UNL     1     -11.557   9.900  71.075  1.00  0.00    -0.470 A  
HETATM   18  C   UNL     1     -10.490   9.302  69.009  1.00  0.00    -0.233 A  
HETATM   19  C   UNL     1     -11.838  11.313  69.137  1.00  0.00    -0.423 A  
ENDBRANCH   3  14
ENDBRANCH   2   3
TORSDOF 2
ENDMDL
MODEL      110
REMARK 921   NORMALIZED FREE ENERGY PREDICTED BY IDOCK:   -3.65 KCAL/MOL
REMARK 922        TOTAL FREE ENERGY PREDICTED BY IDOCK:   -4.12 KCAL/MOL
REMARK 923 INTER-LIGAND FREE ENERGY PREDICTED BY IDOCK:   -4.53 KCAL/MOL
REMARK 924 INTRA-LIGAND FREE ENERGY PREDICTED BY IDOCK:    0.41 KCAL/MOL
REMARK 927      BINDING AFFINITY PREDICTED BY RF-SCORE:    0.00 PKD
ROOT
HETATM    1  C   UNL     1      -8.242  10.793  68.482  1.00  0.00    -0.136 C  
HETATM    2  C   UNL     1      -8.970  10.219  69.695  1.00  0.00    -0.140 C  
ENDROOT
BRANCH   2   3
HETATM    3  C   UNL     1     -10.429   9.678  69.498  1.00  0.00    -0.240 C  
HETATM    4  C   UNL     1     -11.400  10.860  69.633  1.00  0.00    -0.292 C  
HETATM    5  O   UNL     1     -10.100   7.954  67.786  1.00  0.00    -0.170 OA 
HETATM    6  C   UNL     1     -10.476   9.088  68.078  1.00  0.00    -0.216 C  
HETATM    7  N   UNL     1     -11.673  11.568  68.492  1.00  0.00    -0.310 N  
HETATM    8  O   UNL     1     -11.888  11.240  70.696  1.00  0.00    -0.340 OA 
HETATM    9  H   UNL     1     -10.720   9.607  66.117  1.00  0.00     0.000 HD 
HETATM   10  C   UNL     1     -11.517  11.120  67.218  1.00  0.00    -0.136 C  
HETATM   11  H   UNL     1     -12.025  12.518  68.609  1.00  0.00     0.000 HD 
HETATM   12  O   UNL     1     -11.958  11.737  66.258  1.00  0.00    -0.490 OA 
HETATM   13  N   UNL     1     -10.894   9.920  67.073  1.00  0.00    -0.173 N  
BRANCH   3  14
HETATM   14  C   UNL     1     -10.760   8.605  70.580  1.00  0.00    -0.259 A  
HETATM   15  C   UNL     1     -11.834   6.510  71.249  1.00  0.00    -0.385 A  
HETATM   16  C   UNL     1     -10.558   7.741  72.869  1.00  0.00    -0.428 A  
HETATM   17  C   UNL     1     -10.292   8.721  71.907  1.00  0.00    -0.414 A  
HETATM   18  C   UNL     1     -11.568   7.493  70.286  1.00  0.00    -0.114 A  
HETATM   19  C   UNL     1     -11.315   6.627  72.536  1.00  0.00    -0.290 A  
ENDBRANCH   3  14
ENDBRANCH   2   3
TORSDOF 2
ENDMDL
MODEL      111
REMARK 921   NORMALIZED FREE ENERGY PREDICTED BY IDOCK:   -3.62 KCAL/MOL
REMARK 922        TOTAL FREE ENERGY PREDICTED BY IDOCK:   -4.09 KCAL/MOL
REMARK 923 INTER-LIGAND FREE ENERGY PREDICTED BY IDOCK:   -3.95 KCAL/MOL
REMARK 924 INTRA-LIGAND FREE ENERGY PREDICTED BY IDOCK:   -0.15 KCAL/MOL
REMARK 927      BINDING AFFINITY PREDICTED BY RF-SCORE:    0.00 PKD
ROOT
HETATM    1  C   UNL     1     -10.974   6.376  67.850  1.00  0.00    -0.416 C  
HETATM    2  C   UNL     1     -10.888   5.747  69.238  1.00  0.00    -0.374 C  
ENDROOT
BRANCH   2   3
HETATM    3  C   UNL     1     -10.430   6.650  70.436  1.00  0.00    -0.249 C  
HETATM    4  C   UNL     1     -10.799   8.105  70.108  1.00  0.00    -0.241 C  
HETATM    5  O   UNL     1     -10.869   5.194  72.361  1.00  0.00    -0.222 OA 
HETATM    6  C   UNL     1     -11.209   6.152  71.667  1.00  0.00    -0.286 C  
HETATM    7  N   UNL     1     -12.052   8.522  70.472  1.00  0.00    -0.482 N  
HETATM    8  O   UNL     1     -10.071   8.882  69.492  1.00  0.00    -0.187 OA 
HETATM    9  H   UNL     1     -13.009   6.314  72.617  1.00  0.00     0.000 HD 
HETATM   10  C   UNL     1     -12.837   7.951  71.424  1.00  0.00    -0.280 C  
HETATM   11  H   UNL     1     -12.429   9.334  69.985  1.00  0.00     0.000 HD 
HETATM   12  O   UNL     1     -13.860   8.490  71.825  1.00  0.00    -0.378 OA 
HETATM   13  N   UNL     1     -12.395   6.777  71.947  1.00  0.00    -0.343 N  
BRANCH   3  14
HETATM   14  C   UNL     1      -8.889   6.537  70.644  1.00  0.00    -0.144 A  
HETATM   15  C   UNL     1      -6.856   7.096  71.887  1.00  0.00    -0.059 A  
HETATM   16  C   UNL     1      -6.704   5.630  69.990  1.00  0.00    -0.048 A  
HETATM   17  C   UNL     1      -8.081   5.763  69.784  1.00  0.00    -0.104 A  
HETATM   18  C   UNL     1      -8.235   7.229  71.678  1.00  0.00    -0.104 A  
HETATM   19  C   UNL     1      -6.093   6.284  71.051  1.00  0.00    -0.031 A  
ENDBRANCH   3  14
ENDBRANCH   2   3
TORSDOF 2
ENDMDL
MODEL      112
REMARK 921   NORMALIZED FREE ENERGY PREDICTED BY IDOCK:   -3.59 KCAL/MOL
REMARK 922        TOTAL FREE ENERGY PREDICTED BY IDOCK:   -4.06 KCAL/MOL
REMARK 923 INTER-LIGAND FREE ENERGY PREDICTED BY IDOCK:   -4.01 KCAL/MOL
REMARK 924 INTRA-LIGAND FREE ENERGY PREDICTED BY IDOCK:   -0.05 KCAL/MOL
REMARK 927      BINDING AFFINITY PREDICTED BY RF-SCORE:    0.00 PKD
ROOT
HETATM    1  C   UNL     1      -7.814  11.470  68.367  1.00  0.00    -0.136 C  
HETATM    2  C   UNL     1      -8.187  10.542  67.214  1.00  0.00    -0.119 C  
ENDROOT
BRANCH   2   3
HETATM    3  C   UNL     1      -9.662  10.012  67.134  1.00  0.00    -0.217 C  
HETATM    4  C   UNL     1     -10.412  10.491  68.386  1.00  0.00    -0.186 C  
HETATM    5  O   UNL     1     -10.123  10.172  64.730  1.00  0.00    -0.331 OA 
HETATM    6  C   UNL     1     -10.267  10.632  65.862  1.00  0.00    -0.251 C  
HETATM    7  N   UNL     1     -11.011  11.720  68.315  1.00  0.00    -0.214 N  
HETATM    8  O   UNL     1     -10.449   9.873  69.450  1.00  0.00    -0.203 OA 
HETATM    9  H   UNL     1     -11.151  12.332  65.153  1.00  0.00     0.000 HD 
HETATM   10  C   UNL     1     -11.362  12.372  67.175  1.00  0.00    -0.329 C  
HETATM   11  H   UNL     1     -11.211  12.189  69.198  1.00  0.00     0.000 HD 
HETATM   12  O   UNL     1     -12.062  13.376  67.195  1.00  0.00    -0.368 OA 
HETATM   13  N   UNL     1     -10.942  11.815  66.007  1.00  0.00    -0.301 N  
BRANCH   3  14
HETATM   14  C   UNL     1      -9.677   8.454  67.080  1.00  0.00    -0.268 A  
HETATM   15  C   UNL     1     -10.891   6.329  67.113  1.00  0.00    -0.460 A  
HETATM   16  C   UNL     1      -8.503   6.310  66.857  1.00  0.00    -0.109 A  
HETATM   17  C   UNL     1      -8.488   7.706  66.943  1.00  0.00    -0.126 A  
HETATM   18  C   UNL     1     -10.875   7.728  67.200  1.00  0.00    -0.227 A  
HETATM   19  C   UNL     1      -9.707   5.622  66.927  1.00  0.00    -0.162 A  
ENDBRANCH   3  14
ENDBRANCH   2   3
TORSDOF 2
ENDMDL
MODEL      113
REMARK 921   NORMALIZED FREE ENERGY PREDICTED BY IDOCK:   -3.57 KCAL/MOL
REMARK 922        TOTAL FREE ENERGY PREDICTED BY IDOCK:   -4.04 KCAL/MOL
REMARK 923 INTER-LIGAND FREE ENERGY PREDICTED BY IDOCK:   -4.01 KCAL/MOL
REMARK 924 INTRA-LIGAND FREE ENERGY PREDICTED BY IDOCK:   -0.02 KCAL/MOL
REMARK 927      BINDING AFFINITY PREDICTED BY RF-SCORE:    0.00 PKD
ROOT
HETATM    1  C   UNL     1      -5.637  15.267  67.208  1.00  0.00     0.338 C  
HETATM    2  C   UNL     1      -6.593  16.352  66.721  1.00  0.00    -0.095 C  
ENDROOT
BRANCH   2   3
HETATM    3  C   UNL     1      -8.062  16.350  67.271  1.00  0.00    -0.198 C  
HETATM    4  C   UNL     1      -8.898  15.398  66.403  1.00  0.00    -0.305 C  
HETATM    5  O   UNL     1      -7.694  16.540  69.689  1.00  0.00    -0.003 OA 
HETATM    6  C   UNL     1      -7.973  15.836  68.719  1.00  0.00    -0.180 C  
HETATM    7  N   UNL     1      -8.919  14.080  66.776  1.00  0.00    -0.365 N  
HETATM    8  O   UNL     1      -9.486  15.732  65.375  1.00  0.00    -0.321 OA 
HETATM    9  H   UNL     1      -7.870  14.121  69.824  1.00  0.00     0.000 HD 
HETATM   10  C   UNL     1      -8.635  13.596  68.015  1.00  0.00    -0.175 C  
HETATM   11  H   UNL     1      -9.171  13.400  66.059  1.00  0.00     0.000 HD 
HETATM   12  O   UNL     1      -8.859  12.433  68.321  1.00  0.00    -0.185 OA 
HETATM   13  N   UNL     1      -8.142  14.490  68.913  1.00  0.00    -0.145 N  
BRANCH   3  14
HETATM   14  C   UNL     1      -8.668  17.785  67.205  1.00  0.00    -0.252 A  
HETATM   15  C   UNL     1     -10.498  19.351  67.642  1.00  0.00    -0.573 A  
HETATM   16  C   UNL     1      -8.481  20.161  66.620  1.00  0.00    -0.343 A  
HETATM   17  C   UNL     1      -7.953  18.866  66.647  1.00  0.00    -0.280 A  
HETATM   18  C   UNL     1      -9.968  18.054  67.668  1.00  0.00    -0.332 A  
HETATM   19  C   UNL     1      -9.747  20.407  67.131  1.00  0.00    -0.601 A  
ENDBRANCH   3  14
ENDBRANCH   2   3
TORSDOF 2
ENDMDL
MODEL      114
REMARK 921   NORMALIZED FREE ENERGY PREDICTED BY IDOCK:   -3.57 KCAL/MOL
REMARK 922        TOTAL FREE ENERGY PREDICTED BY IDOCK:   -4.03 KCAL/MOL
REMARK 923 INTER-LIGAND FREE ENERGY PREDICTED BY IDOCK:   -4.01 KCAL/MOL
REMARK 924 INTRA-LIGAND FREE ENERGY PREDICTED BY IDOCK:   -0.02 KCAL/MOL
REMARK 927      BINDING AFFINITY PREDICTED BY RF-SCORE:    0.00 PKD
ROOT
HETATM    1  C   UNL     1     -12.792   8.130  71.799  1.00  0.00    -0.355 C  
HETATM    2  C   UNL     1     -12.145   6.990  71.017  1.00  0.00    -0.413 C  
ENDROOT
BRANCH   2   3
HETATM    3  C   UNL     1     -10.598   7.048  70.763  1.00  0.00    -0.240 C  
HETATM    4  C   UNL     1     -10.090   8.427  71.208  1.00  0.00    -0.202 C  
HETATM    5  O   UNL     1      -9.916   4.751  71.288  1.00  0.00    -0.183 OA 
HETATM    6  C   UNL     1      -9.984   5.932  71.626  1.00  0.00    -0.175 C  
HETATM    7  N   UNL     1      -9.725   8.556  72.522  1.00  0.00    -0.284 N  
HETATM    8  O   UNL     1     -10.054   9.420  70.483  1.00  0.00    -0.235 OA 
HETATM    9  H   UNL     1      -9.358   5.513  73.525  1.00  0.00     0.000 HD 
HETATM   10  C   UNL     1      -9.378   7.540  73.357  1.00  0.00    -0.238 C  
HETATM   11  H   UNL     1      -9.711   9.499  72.909  1.00  0.00     0.000 HD 
HETATM   12  O   UNL     1      -8.882   7.748  74.457  1.00  0.00    -0.144 OA 
HETATM   13  N   UNL     1      -9.559   6.279  72.881  1.00  0.00    -0.153 N  
BRANCH   3  14
HETATM   14  C   UNL     1     -10.289   6.842  69.248  1.00  0.00    -0.221 A  
HETATM   15  C   UNL     1     -11.002   6.225  66.989  1.00  0.00    -0.442 A  
HETATM   16  C   UNL     1      -8.736   6.935  67.350  1.00  0.00    -0.119 A  
HETATM   17  C   UNL     1      -9.005   7.084  68.714  1.00  0.00    -0.131 A  
HETATM   18  C   UNL     1     -11.271   6.374  68.357  1.00  0.00    -0.297 A  
HETATM   19  C   UNL     1      -9.739   6.520  66.484  1.00  0.00    -0.177 A  
ENDBRANCH   3  14
ENDBRANCH   2   3
TORSDOF 2
ENDMDL
MODEL      115
REMARK 921   NORMALIZED FREE ENERGY PREDICTED BY IDOCK:   -3.57 KCAL/MOL
REMARK 922        TOTAL FREE ENERGY PREDICTED BY IDOCK:   -4.03 KCAL/MOL
REMARK 923 INTER-LIGAND FREE ENERGY PREDICTED BY IDOCK:   -4.05 KCAL/MOL
REMARK 924 INTRA-LIGAND FREE ENERGY PREDICTED BY IDOCK:    0.01 KCAL/MOL
REMARK 927      BINDING AFFINITY PREDICTED BY RF-SCORE:    0.00 PKD
ROOT
HETATM    1  C   UNL     1      -9.786  11.764  66.703  1.00  0.00    -0.223 C  
HETATM    2  C   UNL     1     -10.454  10.392  66.675  1.00  0.00    -0.279 C  
ENDROOT
BRANCH   2   3
HETATM    3  C   UNL     1      -9.853   9.255  67.573  1.00  0.00    -0.224 C  
HETATM    4  C   UNL     1     -10.215   7.903  66.941  1.00  0.00    -0.310 C  
HETATM    5  O   UNL     1      -7.740  10.258  68.309  1.00  0.00    -0.090 OA 
HETATM    6  C   UNL     1      -8.329   9.471  67.571  1.00  0.00    -0.125 C  
HETATM    7  N   UNL     1      -9.350   7.408  66.002  1.00  0.00    -0.388 N  
HETATM    8  O   UNL     1     -11.251   7.282  67.177  1.00  0.00    -0.215 OA 
HETATM    9  H   UNL     1      -6.644   9.094  66.481  1.00  0.00     0.000 HD 
HETATM   10  C   UNL     1      -8.042   7.755  65.862  1.00  0.00    -0.121 C  
HETATM   11  H   UNL     1      -9.719   6.718  65.349  1.00  0.00     0.000 HD 
HETATM   12  O   UNL     1      -7.285   7.134  65.127  1.00  0.00    -0.068 OA 
HETATM   13  N   UNL     1      -7.607   8.791  66.626  1.00  0.00    -0.089 N  
BRANCH   3  14
HETATM   14  C   UNL     1     -10.445   9.333  69.014  1.00  0.00    -0.233 A  
HETATM   15  C   UNL     1     -11.931  10.373  70.657  1.00  0.00    -0.448 A  
HETATM   16  C   UNL     1     -10.607   8.478  71.309  1.00  0.00    -0.296 A  
HETATM   17  C   UNL     1     -10.050   8.432  70.027  1.00  0.00    -0.192 A  
HETATM   18  C   UNL     1     -11.372  10.327  69.373  1.00  0.00    -0.279 A  
HETATM   19  C   UNL     1     -11.559   9.438  71.620  1.00  0.00    -0.466 A  
ENDBRANCH   3  14
ENDBRANCH   2   3
TORSDOF 2
ENDMDL
MODEL      116
REMARK 921   NORMALIZED FREE ENERGY PREDICTED BY IDOCK:   -3.57 KCAL/MOL
REMARK 922        TOTAL FREE ENERGY PREDICTED BY IDOCK:   -4.03 KCAL/MOL
REMARK 923 INTER-LIGAND FREE ENERGY PREDICTED BY IDOCK:   -4.04 KCAL/MOL
REMARK 924 INTRA-LIGAND FREE ENERGY PREDICTED BY IDOCK:    0.01 KCAL/MOL
REMARK 927      BINDING AFFINITY PREDICTED BY RF-SCORE:    0.00 PKD
ROOT
HETATM    1  C   UNL     1      -6.079  16.047  68.575  1.00  0.00    -0.111 C  
HETATM    2  C   UNL     1      -7.165  17.027  69.010  1.00  0.00    -0.229 C  
ENDROOT
BRANCH   2   3
HETATM    3  C   UNL     1      -8.351  17.309  68.022  1.00  0.00    -0.228 C  
HETATM    4  C   UNL     1      -8.810  18.761  68.225  1.00  0.00    -0.333 C  
HETATM    5  O   UNL     1      -7.681  16.014  66.049  1.00  0.00     0.187 OA 
HETATM    6  C   UNL     1      -7.782  17.107  66.606  1.00  0.00    -0.265 C  
HETATM    7  N   UNL     1      -8.168  19.720  67.488  1.00  0.00    -0.302 N  
HETATM    8  O   UNL     1      -9.658  19.111  69.044  1.00  0.00    -0.376 OA 
HETATM    9  H   UNL     1      -6.723  18.052  65.138  1.00  0.00     0.000 HD 
HETATM   10  C   UNL     1      -7.480  19.512  66.333  1.00  0.00    -0.266 C  
HETATM   11  H   UNL     1      -8.211  20.678  67.835  1.00  0.00     0.000 HD 
HETATM   12  O   UNL     1      -7.098  20.440  65.633  1.00  0.00    -0.267 OA 
HETATM   13  N   UNL     1      -7.290  18.215  65.970  1.00  0.00    -0.271 N  
BRANCH   3  14
HETATM   14  C   UNL     1      -9.539  16.341  68.310  1.00  0.00    -0.218 A  
HETATM   15  C   UNL     1     -10.735  14.816  69.806  1.00  0.00    -0.176 A  
HETATM   16  C   UNL     1     -11.621  15.244  67.616  1.00  0.00    -0.249 A  
HETATM   17  C   UNL     1     -10.536  16.083  67.345  1.00  0.00    -0.316 A  
HETATM   18  C   UNL     1      -9.647  15.657  69.534  1.00  0.00    -0.279 A  
HETATM   19  C   UNL     1     -11.730  14.622  68.852  1.00  0.00    -0.343 A  
ENDBRANCH   3  14
ENDBRANCH   2   3
TORSDOF 2
ENDMDL
MODEL      117
REMARK 921   NORMALIZED FREE ENERGY PREDICTED BY IDOCK:   -3.56 KCAL/MOL
REMARK 922        TOTAL FREE ENERGY PREDICTED BY IDOCK:   -4.03 KCAL/MOL
REMARK 923 INTER-LIGAND FREE ENERGY PREDICTED BY IDOCK:   -3.86 KCAL/MOL
REMARK 924 INTRA-LIGAND FREE ENERGY PREDICTED BY IDOCK:   -0.17 KCAL/MOL
REMARK 927      BINDING AFFINITY PREDICTED BY RF-SCORE:    0.00 PKD
ROOT
HETATM    1  C   UNL     1     -10.347   9.070  69.606  1.00  0.00    -0.217 C  
HETATM    2  C   UNL     1      -9.360   7.951  69.926  1.00  0.00    -0.156 C  
ENDROOT
BRANCH   2   3
HETATM    3  C   UNL     1      -9.918   6.497  70.112  1.00  0.00    -0.190 C  
HETATM    4  C   UNL     1     -11.324   6.441  69.497  1.00  0.00    -0.393 C  
HETATM    5  O   UNL     1      -7.896   5.140  69.819  1.00  0.00    -0.070 OA 
HETATM    6  C   UNL     1      -8.950   5.570  69.355  1.00  0.00    -0.106 C  
HETATM    7  N   UNL     1     -11.403   6.137  68.164  1.00  0.00    -0.407 N  
HETATM    8  O   UNL     1     -12.358   6.712  70.105  1.00  0.00    -0.162 OA 
HETATM    9  H   UNL     1      -8.524   4.851  67.491  1.00  0.00     0.000 HD 
HETATM   10  C   UNL     1     -10.452   5.495  67.434  1.00  0.00    -0.219 C  
HETATM   11  H   UNL     1     -12.253   6.416  67.674  1.00  0.00     0.000 HD 
HETATM   12  O   UNL     1     -10.672   5.091  66.299  1.00  0.00    -0.312 OA 
HETATM   13  N   UNL     1      -9.261   5.276  68.053  1.00  0.00    -0.111 N  
BRANCH   3  14
HETATM   14  C   UNL     1      -9.996   6.135  71.627  1.00  0.00    -0.203 A  
HETATM   15  C   UNL     1      -9.812   6.768  73.984  1.00  0.00    -0.334 A  
HETATM   16  C   UNL     1     -10.435   4.519  73.420  1.00  0.00    -0.264 A  
HETATM   17  C   UNL     1     -10.329   4.835  72.062  1.00  0.00    -0.247 A  
HETATM   18  C   UNL     1      -9.704   7.084  72.623  1.00  0.00    -0.173 A  
HETATM   19  C   UNL     1     -10.192   5.489  74.382  1.00  0.00    -0.297 A  
ENDBRANCH   3  14
ENDBRANCH   2   3
TORSDOF 2
ENDMDL
MODEL      118
REMARK 921   NORMALIZED FREE ENERGY PREDICTED BY IDOCK:   -3.55 KCAL/MOL
REMARK 922        TOTAL FREE ENERGY PREDICTED BY IDOCK:   -4.01 KCAL/MOL
REMARK 923 INTER-LIGAND FREE ENERGY PREDICTED BY IDOCK:   -4.01 KCAL/MOL
REMARK 924 INTRA-LIGAND FREE ENERGY PREDICTED BY IDOCK:    0.00 KCAL/MOL
REMARK 927      BINDING AFFINITY PREDICTED BY RF-SCORE:    0.00 PKD
ROOT
HETATM    1  C   UNL     1      -9.405   9.644  70.267  1.00  0.00    -0.292 C  
HETATM    2  C   UNL     1     -10.249   9.908  69.023  1.00  0.00    -0.213 C  
ENDROOT
BRANCH   2   3
HETATM    3  C   UNL     1      -9.547   9.845  67.621  1.00  0.00    -0.172 C  
HETATM    4  C   UNL     1      -8.101  10.336  67.787  1.00  0.00    -0.103 C  
HETATM    5  O   UNL     1     -10.539   7.822  66.652  1.00  0.00    -0.276 OA 
HETATM    6  C   UNL     1      -9.579   8.367  67.196  1.00  0.00    -0.179 C  
HETATM    7  N   UNL     1      -7.165   9.396  68.128  1.00  0.00    -0.077 N  
HETATM    8  O   UNL     1      -7.753  11.513  67.697  1.00  0.00    -0.112 OA 
HETATM    9  H   UNL     1      -8.598   6.592  67.439  1.00  0.00     0.000 HD 
HETATM   10  C   UNL     1      -7.278   8.054  67.943  1.00  0.00    -0.091 C  
HETATM   11  H   UNL     1      -6.305   9.734  68.560  1.00  0.00     0.000 HD 
HETATM   12  O   UNL     1      -6.327   7.299  68.097  1.00  0.00    -0.041 OA 
HETATM   13  N   UNL     1      -8.489   7.602  67.521  1.00  0.00    -0.116 N  
BRANCH   3  14
HETATM   14  C   UNL     1     -10.294  10.756  66.599  1.00  0.00    -0.294 A  
HETATM   15  C   UNL     1     -10.756  11.446  64.297  1.00  0.00    -0.420 A  
HETATM   16  C   UNL     1     -11.908  12.536  66.101  1.00  0.00    -0.459 A  
HETATM   17  C   UNL     1     -11.211  11.743  67.018  1.00  0.00    -0.382 A  
HETATM   18  C   UNL     1     -10.057  10.653  65.217  1.00  0.00    -0.363 A  
HETATM   19  C   UNL     1     -11.693  12.377  64.739  1.00  0.00    -0.425 A  
ENDBRANCH   3  14
ENDBRANCH   2   3
TORSDOF 2
ENDMDL
MODEL      119
REMARK 921   NORMALIZED FREE ENERGY PREDICTED BY IDOCK:   -3.55 KCAL/MOL
REMARK 922        TOTAL FREE ENERGY PREDICTED BY IDOCK:   -4.01 KCAL/MOL
REMARK 923 INTER-LIGAND FREE ENERGY PREDICTED BY IDOCK:   -3.96 KCAL/MOL
REMARK 924 INTRA-LIGAND FREE ENERGY PREDICTED BY IDOCK:   -0.05 KCAL/MOL
REMARK 927      BINDING AFFINITY PREDICTED BY RF-SCORE:    0.00 PKD
ROOT
HETATM    1  C   UNL     1      -8.826   7.164  72.281  1.00  0.00    -0.142 C  
HETATM    2  C   UNL     1      -9.668   8.388  71.932  1.00  0.00    -0.331 C  
ENDROOT
BRANCH   2   3
HETATM    3  C   UNL     1     -10.663   8.285  70.724  1.00  0.00    -0.244 C  
HETATM    4  C   UNL     1     -11.266   6.873  70.718  1.00  0.00    -0.294 C  
HETATM    5  O   UNL     1     -11.641  10.535  70.685  1.00  0.00    -0.319 OA 
HETATM    6  C   UNL     1     -11.750   9.345  70.977  1.00  0.00    -0.323 C  
HETATM    7  N   UNL     1     -12.396   6.680  71.467  1.00  0.00    -0.347 N  
HETATM    8  O   UNL     1     -10.766   5.908  70.142  1.00  0.00    -0.265 OA 
HETATM    9  H   UNL     1     -13.489   9.667  72.000  1.00  0.00     0.000 HD 
HETATM   10  C   UNL     1     -13.258   7.650  71.875  1.00  0.00    -0.253 C  
HETATM   11  H   UNL     1     -12.611   5.723  71.744  1.00  0.00     0.000 HD 
HETATM   12  O   UNL     1     -14.342   7.382  72.377  1.00  0.00    -0.072 OA 
HETATM   13  N   UNL     1     -12.875   8.934  71.643  1.00  0.00    -0.334 N  
BRANCH   3  14
HETATM   14  C   UNL     1      -9.913   8.538  69.380  1.00  0.00    -0.194 A  
HETATM   15  C   UNL     1      -9.933   8.876  66.956  1.00  0.00    -0.300 A  
HETATM   16  C   UNL     1      -7.838   8.935  68.130  1.00  0.00    -0.101 A  
HETATM   17  C   UNL     1      -8.509   8.671  69.329  1.00  0.00    -0.123 A  
HETATM   18  C   UNL     1     -10.604   8.611  68.157  1.00  0.00    -0.189 A  
HETATM   19  C   UNL     1      -8.552   9.053  66.945  1.00  0.00    -0.128 A  
ENDBRANCH   3  14
ENDBRANCH   2   3
TORSDOF 2
ENDMDL
MODEL      120
REMARK 921   NORMALIZED FREE ENERGY PREDICTED BY IDOCK:   -3.54 KCAL/MOL
REMARK 922        TOTAL FREE ENERGY PREDICTED BY IDOCK:   -4.00 KCAL/MOL
REMARK 923 INTER-LIGAND FREE ENERGY PREDICTED BY IDOCK:   -4.03 KCAL/MOL
REMARK 924 INTRA-LIGAND FREE ENERGY PREDICTED BY IDOCK:    0.04 KCAL/MOL
REMARK 927      BINDING AFFINITY PREDICTED BY RF-SCORE:    0.00 PKD
ROOT
HETATM    1  C   UNL     1     -10.979   6.001  68.494  1.00  0.00    -0.350 C  
HETATM    2  C   UNL     1     -11.598   6.958  69.509  1.00  0.00    -0.097 C  
ENDROOT
BRANCH   2   3
HETATM    3  C   UNL     1     -10.660   7.997  70.218  1.00  0.00    -0.231 C  
HETATM    4  C   UNL     1     -11.445   8.641  71.371  1.00  0.00    -0.289 C  
HETATM    5  O   UNL     1      -8.479   6.883  70.080  1.00  0.00    -0.136 OA 
HETATM    6  C   UNL     1      -9.462   7.192  70.753  1.00  0.00    -0.164 C  
HETATM    7  N   UNL     1     -11.400   8.003  72.582  1.00  0.00    -0.397 N  
HETATM    8  O   UNL     1     -12.150   9.642  71.255  1.00  0.00    -0.319 OA 
HETATM    9  H   UNL     1      -8.866   6.026  72.320  1.00  0.00     0.000 HD 
HETATM   10  C   UNL     1     -10.445   7.121  72.984  1.00  0.00    -0.292 C  
HETATM   11  H   UNL     1     -12.150   8.207  73.242  1.00  0.00     0.000 HD 
HETATM   12  O   UNL     1     -10.367   6.739  74.144  1.00  0.00    -0.368 OA 
HETATM   13  N   UNL     1      -9.546   6.733  72.041  1.00  0.00    -0.148 N  
BRANCH   3  14
HETATM   14  C   UNL     1     -10.212   9.100  69.211  1.00  0.00    -0.215 A  
HETATM   15  C   UNL     1      -8.747  10.963  68.600  1.00  0.00    -0.154 A  
HETATM   16  C   UNL     1     -10.425  10.232  67.044  1.00  0.00    -0.304 A  
HETATM   17  C   UNL     1     -10.850   9.267  67.963  1.00  0.00    -0.166 A  
HETATM   18  C   UNL     1      -9.174   9.996  69.521  1.00  0.00    -0.238 A  
HETATM   19  C   UNL     1      -9.363  11.070  67.356  1.00  0.00    -0.165 A  
ENDBRANCH   3  14
ENDBRANCH   2   3
TORSDOF 2
ENDMDL
MODEL      121
REMARK 921   NORMALIZED FREE ENERGY PREDICTED BY IDOCK:   -3.51 KCAL/MOL
REMARK 922        TOTAL FREE ENERGY PREDICTED BY IDOCK:   -3.97 KCAL/MOL
REMARK 923 INTER-LIGAND FREE ENERGY PREDICTED BY IDOCK:   -4.66 KCAL/MOL
REMARK 924 INTRA-LIGAND FREE ENERGY PREDICTED BY IDOCK:    0.69 KCAL/MOL
REMARK 927      BINDING AFFINITY PREDICTED BY RF-SCORE:    0.00 PKD
ROOT
HETATM    1  C   UNL     1      -9.299  19.129  68.060  1.00  0.00    -0.378 C  
HETATM    2  C   UNL     1      -8.171  18.341  67.400  1.00  0.00    -0.237 C  
ENDROOT
BRANCH   2   3
HETATM    3  C   UNL     1      -6.744  18.990  67.343  1.00  0.00    -0.211 C  
HETATM    4  C   UNL     1      -5.826  18.060  66.535  1.00  0.00    -0.164 C  
HETATM    5  O   UNL     1      -7.283  21.377  67.188  1.00  0.00    -0.506 OA 
HETATM    6  C   UNL     1      -6.920  20.342  66.631  1.00  0.00    -0.258 C  
HETATM    7  N   UNL     1      -5.797  18.247  65.179  1.00  0.00    -0.180 N  
HETATM    8  O   UNL     1      -5.178  17.134  67.019  1.00  0.00    -0.131 OA 
HETATM    9  H   UNL     1      -7.055  21.189  64.777  1.00  0.00     0.000 HD 
HETATM   10  C   UNL     1      -6.154  19.384  64.522  1.00  0.00    -0.232 C  
HETATM   11  H   UNL     1      -5.480  17.464  64.609  1.00  0.00     0.000 HD 
HETATM   12  O   UNL     1      -5.923  19.541  63.331  1.00  0.00    -0.397 OA 
HETATM   13  N   UNL     1      -6.730  20.360  65.274  1.00  0.00    -0.287 N  
BRANCH   3  14
HETATM   14  C   UNL     1      -6.171  19.166  68.783  1.00  0.00    -0.266 A  
HETATM   15  C   UNL     1      -5.289  20.589  70.569  1.00  0.00    -0.323 A  
HETATM   16  C   UNL     1      -5.521  18.229  70.956  1.00  0.00    -0.137 A  
HETATM   17  C   UNL     1      -6.000  18.068  69.652  1.00  0.00    -0.247 A  
HETATM   18  C   UNL     1      -5.769  20.425  69.263  1.00  0.00    -0.360 A  
HETATM   19  C   UNL     1      -5.180  19.492  71.421  1.00  0.00    -0.351 A  
ENDBRANCH   3  14
ENDBRANCH   2   3
TORSDOF 2
ENDMDL
MODEL      122
REMARK 921   NORMALIZED FREE ENERGY PREDICTED BY IDOCK:   -3.51 KCAL/MOL
REMARK 922        TOTAL FREE ENERGY PREDICTED BY IDOCK:   -3.97 KCAL/MOL
REMARK 923 INTER-LIGAND FREE ENERGY PREDICTED BY IDOCK:   -3.92 KCAL/MOL
REMARK 924 INTRA-LIGAND FREE ENERGY PREDICTED BY IDOCK:   -0.05 KCAL/MOL
REMARK 927      BINDING AFFINITY PREDICTED BY RF-SCORE:    0.00 PKD
ROOT
HETATM    1  C   UNL     1     -10.280  19.823  69.304  1.00  0.00    -0.225 C  
HETATM    2  C   UNL     1      -9.492  18.536  69.076  1.00  0.00    -0.195 C  
ENDROOT
BRANCH   2   3
HETATM    3  C   UNL     1      -8.823  18.314  67.675  1.00  0.00    -0.261 C  
HETATM    4  C   UNL     1      -9.822  17.568  66.778  1.00  0.00    -0.306 C  
HETATM    5  O   UNL     1      -7.531  20.380  67.400  1.00  0.00    -0.290 OA 
HETATM    6  C   UNL     1      -8.527  19.717  67.117  1.00  0.00    -0.317 C  
HETATM    7  N   UNL     1     -10.704  18.335  66.065  1.00  0.00    -0.283 N  
HETATM    8  O   UNL     1      -9.918  16.343  66.716  1.00  0.00    -0.253 OA 
HETATM    9  H   UNL     1      -9.393  21.280  66.126  1.00  0.00     0.000 HD 
HETATM   10  C   UNL     1     -10.543  19.647  65.745  1.00  0.00    -0.438 C  
HETATM   11  H   UNL     1     -11.560  17.882  65.745  1.00  0.00     0.000 HD 
HETATM   12  O   UNL     1     -11.279  20.212  64.946  1.00  0.00    -0.093 OA 
HETATM   13  N   UNL     1      -9.484  20.282  66.315  1.00  0.00    -0.314 N  
BRANCH   3  14
HETATM   14  C   UNL     1      -7.522  17.466  67.823  1.00  0.00    -0.195 A  
HETATM   15  C   UNL     1      -5.503  16.470  66.863  1.00  0.00    -0.017 A  
HETATM   16  C   UNL     1      -5.957  16.174  69.203  1.00  0.00    -0.134 A  
HETATM   17  C   UNL     1      -7.142  16.904  69.060  1.00  0.00    -0.232 A  
HETATM   18  C   UNL     1      -6.691  17.200  66.721  1.00  0.00    -0.256 A  
HETATM   19  C   UNL     1      -5.129  15.970  68.108  1.00  0.00    -0.113 A  
ENDBRANCH   3  14
ENDBRANCH   2   3
TORSDOF 2
ENDMDL
MODEL      123
REMARK 921   NORMALIZED FREE ENERGY PREDICTED BY IDOCK:   -3.51 KCAL/MOL
REMARK 922        TOTAL FREE ENERGY PREDICTED BY IDOCK:   -3.97 KCAL/MOL
REMARK 923 INTER-LIGAND FREE ENERGY PREDICTED BY IDOCK:   -3.92 KCAL/MOL
REMARK 924 INTRA-LIGAND FREE ENERGY PREDICTED BY IDOCK:   -0.04 KCAL/MOL
REMARK 927      BINDING AFFINITY PREDICTED BY RF-SCORE:    0.00 PKD
ROOT
HETATM    1  C   UNL     1      -8.015   6.952  68.223  1.00  0.00    -0.119 C  
HETATM    2  C   UNL     1      -8.100   7.081  69.742  1.00  0.00    -0.126 C  
ENDROOT
BRANCH   2   3
HETATM    3  C   UNL     1      -9.490   7.426  70.382  1.00  0.00    -0.165 C  
HETATM    4  C   UNL     1      -9.351   8.754  71.142  1.00  0.00    -0.233 C  
HETATM    5  O   UNL     1     -11.048   6.620  68.667  1.00  0.00    -0.257 OA 
HETATM    6  C   UNL     1     -10.476   7.565  69.209  1.00  0.00    -0.214 C  
HETATM    7  N   UNL     1      -9.568   9.901  70.426  1.00  0.00    -0.375 N  
HETATM    8  O   UNL     1      -9.000   8.846  72.317  1.00  0.00    -0.388 OA 
HETATM    9  H   UNL     1     -11.132   8.885  67.795  1.00  0.00     0.000 HD 
HETATM   10  C   UNL     1     -10.271   9.995  69.265  1.00  0.00    -0.214 C  
HETATM   11  H   UNL     1      -9.167  10.761  70.796  1.00  0.00     0.000 HD 
HETATM   12  O   UNL     1     -10.582  11.078  68.785  1.00  0.00    -0.182 OA 
HETATM   13  N   UNL     1     -10.658   8.823  68.696  1.00  0.00    -0.181 N  
BRANCH   3  14
HETATM   14  C   UNL     1      -9.925   6.301  71.371  1.00  0.00    -0.210 A  
HETATM   15  C   UNL     1      -9.482   4.195  72.537  1.00  0.00    -0.175 A  
HETATM   16  C   UNL     1     -11.549   5.349  72.946  1.00  0.00    -0.296 A  
HETATM   17  C   UNL     1     -11.172   6.338  72.031  1.00  0.00    -0.327 A  
HETATM   18  C   UNL     1      -9.106   5.186  71.620  1.00  0.00    -0.163 A  
HETATM   19  C   UNL     1     -10.697   4.285  73.211  1.00  0.00    -0.299 A  
ENDBRANCH   3  14
ENDBRANCH   2   3
TORSDOF 2
ENDMDL
MODEL      124
REMARK 921   NORMALIZED FREE ENERGY PREDICTED BY IDOCK:   -3.48 KCAL/MOL
REMARK 922        TOTAL FREE ENERGY PREDICTED BY IDOCK:   -3.94 KCAL/MOL
REMARK 923 INTER-LIGAND FREE ENERGY PREDICTED BY IDOCK:   -3.78 KCAL/MOL
REMARK 924 INTRA-LIGAND FREE ENERGY PREDICTED BY IDOCK:   -0.16 KCAL/MOL
REMARK 927      BINDING AFFINITY PREDICTED BY RF-SCORE:    0.00 PKD
ROOT
HETATM    1  C   UNL     1      -9.915   9.380  69.194  1.00  0.00    -0.184 C  
HETATM    2  C   UNL     1     -10.416   9.776  67.807  1.00  0.00    -0.297 C  
ENDROOT
BRANCH   2   3
HETATM    3  C   UNL     1      -9.608  10.855  67.005  1.00  0.00    -0.197 C  
HETATM    4  C   UNL     1      -8.193  10.931  67.596  1.00  0.00    -0.116 C  
HETATM    5  O   UNL     1     -10.469  10.539  64.730  1.00  0.00    -0.304 OA 
HETATM    6  C   UNL     1      -9.568  10.360  65.548  1.00  0.00    -0.234 C  
HETATM    7  N   UNL     1      -7.261  10.071  67.080  1.00  0.00    -0.089 N  
HETATM    8  O   UNL     1      -7.871  11.661  68.532  1.00  0.00    -0.129 OA 
HETATM    9  H   UNL     1      -8.562   9.100  64.294  1.00  0.00     0.000 HD 
HETATM   10  C   UNL     1      -7.324   9.461  65.866  1.00  0.00    -0.095 C  
HETATM   11  H   UNL     1      -6.446   9.869  67.659  1.00  0.00     0.000 HD 
HETATM   12  O   UNL     1      -6.367   8.858  65.396  1.00  0.00    -0.062 OA 
HETATM   13  N   UNL     1      -8.487   9.605  65.177  1.00  0.00    -0.141 N  
BRANCH   3  14
HETATM   14  C   UNL     1     -10.299  12.248  67.122  1.00  0.00    -0.234 A  
HETATM   15  C   UNL     1     -11.985  13.717  68.117  1.00  0.00    -0.394 A  
HETATM   16  C   UNL     1     -10.476  14.609  66.475  1.00  0.00    -0.290 A  
HETATM   17  C   UNL     1      -9.882  13.350  66.344  1.00  0.00    -0.299 A  
HETATM   18  C   UNL     1     -11.390  12.455  67.985  1.00  0.00    -0.340 A  
HETATM   19  C   UNL     1     -11.518  14.797  67.373  1.00  0.00    -0.376 A  
ENDBRANCH   3  14
ENDBRANCH   2   3
TORSDOF 2
ENDMDL
MODEL      125
REMARK 921   NORMALIZED FREE ENERGY PREDICTED BY IDOCK:   -3.47 KCAL/MOL
REMARK 922        TOTAL FREE ENERGY PREDICTED BY IDOCK:   -3.92 KCAL/MOL
REMARK 923 INTER-LIGAND FREE ENERGY PREDICTED BY IDOCK:   -3.93 KCAL/MOL
REMARK 924 INTRA-LIGAND FREE ENERGY PREDICTED BY IDOCK:    0.01 KCAL/MOL
REMARK 927      BINDING AFFINITY PREDICTED BY RF-SCORE:    0.00 PKD
ROOT
HETATM    1  C   UNL     1     -10.885   5.734  70.800  1.00  0.00    -0.330 C  
HETATM    2  C   UNL     1     -11.126   6.957  69.918  1.00  0.00    -0.333 C  
ENDROOT
BRANCH   2   3
HETATM    3  C   UNL     1     -10.449   8.312  70.324  1.00  0.00    -0.221 C  
HETATM    4  C   UNL     1     -11.123   9.442  69.531  1.00  0.00    -0.112 C  
HETATM    5  O   UNL     1     -10.010   7.959  72.712  1.00  0.00    -0.231 OA 
HETATM    6  C   UNL     1     -10.700   8.477  71.834  1.00  0.00    -0.324 C  
HETATM    7  N   UNL     1     -12.239  10.008  70.089  1.00  0.00    -0.488 N  
HETATM    8  O   UNL     1     -10.764   9.815  68.416  1.00  0.00    -0.221 OA 
HETATM    9  H   UNL     1     -12.097   9.110  73.183  1.00  0.00     0.000 HD 
HETATM   10  C   UNL     1     -12.576   9.976  71.406  1.00  0.00    -0.415 C  
HETATM   11  H   UNL     1     -12.875  10.497  69.460  1.00  0.00     0.000 HD 
HETATM   12  O   UNL     1     -13.483  10.663  71.857  1.00  0.00    -0.358 OA 
HETATM   13  N   UNL     1     -11.812   9.185  72.206  1.00  0.00    -0.256 N  
BRANCH   3  14
HETATM   14  C   UNL     1      -8.926   8.279  69.993  1.00  0.00    -0.142 A  
HETATM   15  C   UNL     1      -6.664   9.178  70.255  1.00  0.00    -0.055 A  
HETATM   16  C   UNL     1      -7.007   7.260  68.851  1.00  0.00    -0.078 A  
HETATM   17  C   UNL     1      -8.379   7.313  69.120  1.00  0.00    -0.132 A  
HETATM   18  C   UNL     1      -8.039   9.232  70.524  1.00  0.00    -0.198 A  
HETATM   19  C   UNL     1      -6.147   8.182  69.430  1.00  0.00    -0.034 A  
ENDBRANCH   3  14
ENDBRANCH   2   3
TORSDOF 2
ENDMDL
MODEL      126
REMARK 921   NORMALIZED FREE ENERGY PREDICTED BY IDOCK:   -3.46 KCAL/MOL
REMARK 922        TOTAL FREE ENERGY PREDICTED BY IDOCK:   -3.91 KCAL/MOL
REMARK 923 INTER-LIGAND FREE ENERGY PREDICTED BY IDOCK:   -4.42 KCAL/MOL
REMARK 924 INTRA-LIGAND FREE ENERGY PREDICTED BY IDOCK:    0.50 KCAL/MOL
REMARK 927      BINDING AFFINITY PREDICTED BY RF-SCORE:    0.00 PKD
ROOT
HETATM    1  C   UNL     1     -10.218   9.164  71.815  1.00  0.00    -0.305 C  
HETATM    2  C   UNL     1      -9.602   7.769  71.880  1.00  0.00    -0.210 C  
ENDROOT
BRANCH   2   3
HETATM    3  C   UNL     1     -10.327   6.600  71.125  1.00  0.00    -0.232 C  
HETATM    4  C   UNL     1      -9.489   5.325  71.299  1.00  0.00    -0.151 C  
HETATM    5  O   UNL     1     -12.688   7.133  71.524  1.00  0.00    -0.362 OA 
HETATM    6  C   UNL     1     -11.703   6.449  71.799  1.00  0.00    -0.324 C  
HETATM    7  N   UNL     1      -9.746   4.564  72.409  1.00  0.00    -0.153 N  
HETATM    8  O   UNL     1      -8.575   4.988  70.548  1.00  0.00    -0.105 OA 
HETATM    9  H   UNL     1     -12.633   5.596  73.405  1.00  0.00     0.000 HD 
HETATM   10  C   UNL     1     -10.893   4.578  73.139  1.00  0.00    -0.254 C  
HETATM   11  H   UNL     1      -9.009   3.929  72.716  1.00  0.00     0.000 HD 
HETATM   12  O   UNL     1     -11.122   3.738  73.999  1.00  0.00    -0.191 OA 
HETATM   13  N   UNL     1     -11.798   5.542  72.822  1.00  0.00    -0.205 N  
BRANCH   3  14
HETATM   14  C   UNL     1     -10.461   6.934  69.608  1.00  0.00    -0.240 A  
HETATM   15  C   UNL     1     -10.246   8.502  67.741  1.00  0.00    -0.283 A  
HETATM   16  C   UNL     1     -11.006   6.265  67.311  1.00  0.00    -0.455 A  
HETATM   17  C   UNL     1     -10.920   5.978  68.677  1.00  0.00    -0.361 A  
HETATM   18  C   UNL     1     -10.162   8.215  69.110  1.00  0.00    -0.219 A  
HETATM   19  C   UNL     1     -10.654   7.522  66.840  1.00  0.00    -0.367 A  
ENDBRANCH   3  14
ENDBRANCH   2   3
TORSDOF 2
ENDMDL
MODEL      127
REMARK 921   NORMALIZED FREE ENERGY PREDICTED BY IDOCK:   -3.46 KCAL/MOL
REMARK 922        TOTAL FREE ENERGY PREDICTED BY IDOCK:   -3.91 KCAL/MOL
REMARK 923 INTER-LIGAND FREE ENERGY PREDICTED BY IDOCK:   -3.94 KCAL/MOL
REMARK 924 INTRA-LIGAND FREE ENERGY PREDICTED BY IDOCK:    0.03 KCAL/MOL
REMARK 927      BINDING AFFINITY PREDICTED BY RF-SCORE:    0.00 PKD
ROOT
HETATM    1  C   UNL     1      -8.906  10.462  63.909  1.00  0.00    -0.222 C  
HETATM    2  C   UNL     1      -9.841  10.391  65.112  1.00  0.00    -0.378 C  
ENDROOT
BRANCH   2   3
HETATM    3  C   UNL     1      -9.445  11.178  66.410  1.00  0.00    -0.216 C  
HETATM    4  C   UNL     1     -10.349  10.699  67.556  1.00  0.00    -0.214 C  
HETATM    5  O   UNL     1      -7.014  11.379  66.154  1.00  0.00    -0.010 OA 
HETATM    6  C   UNL     1      -7.973  10.825  66.689  1.00  0.00    -0.139 C  
HETATM    7  N   UNL     1      -9.920   9.611  68.268  1.00  0.00    -0.150 N  
HETATM    8  O   UNL     1     -11.446  11.188  67.823  1.00  0.00    -0.403 OA 
HETATM    9  H   UNL     1      -6.785   9.400  67.545  1.00  0.00     0.000 HD 
HETATM   10  C   UNL     1      -8.637   9.167  68.350  1.00  0.00    -0.129 C  
HETATM   11  H   UNL     1     -10.626   9.087  68.784  1.00  0.00     0.000 HD 
HETATM   12  O   UNL     1      -8.302   8.307  69.155  1.00  0.00    -0.120 OA 
HETATM   13  N   UNL     1      -7.736   9.770  67.531  1.00  0.00    -0.095 N  
BRANCH   3  14
HETATM   14  C   UNL     1      -9.640  12.710  66.196  1.00  0.00    -0.222 A  
HETATM   15  C   UNL     1      -9.300  15.025  66.914  1.00  0.00    -0.258 A  
HETATM   16  C   UNL     1     -10.482  14.595  64.868  1.00  0.00    -0.415 A  
HETATM   17  C   UNL     1     -10.338  13.220  65.080  1.00  0.00    -0.336 A  
HETATM   18  C   UNL     1      -9.157  13.648  67.127  1.00  0.00    -0.241 A  
HETATM   19  C   UNL     1      -9.949  15.498  65.777  1.00  0.00    -0.391 A  
ENDBRANCH   3  14
ENDBRANCH   2   3
TORSDOF 2
ENDMDL
MODEL      128
REMARK 921   NORMALIZED FREE ENERGY PREDICTED BY IDOCK:   -3.44 KCAL/MOL
REMARK 922        TOTAL FREE ENERGY PREDICTED BY IDOCK:   -3.89 KCAL/MOL
REMARK 923 INTER-LIGAND FREE ENERGY PREDICTED BY IDOCK:   -3.78 KCAL/MOL
REMARK 924 INTRA-LIGAND FREE ENERGY PREDICTED BY IDOCK:   -0.12 KCAL/MOL
REMARK 927      BINDING AFFINITY PREDICTED BY RF-SCORE:    0.00 PKD
ROOT
HETATM    1  C   UNL     1      -8.388  10.978  68.135  1.00  0.00    -0.130 C  
HETATM    2  C   UNL     1      -8.178   9.647  68.853  1.00  0.00    -0.110 C  
ENDROOT
BRANCH   2   3
HETATM    3  C   UNL     1      -9.178   8.476  68.557  1.00  0.00    -0.135 C  
HETATM    4  C   UNL     1      -9.974   8.834  67.292  1.00  0.00    -0.220 C  
HETATM    5  O   UNL     1      -7.868   6.513  69.224  1.00  0.00    -0.106 OA 
HETATM    6  C   UNL     1      -8.312   7.225  68.325  1.00  0.00    -0.125 C  
HETATM    7  N   UNL     1      -9.425   8.465  66.092  1.00  0.00    -0.331 N  
HETATM    8  O   UNL     1     -11.022   9.477  67.291  1.00  0.00    -0.203 OA 
HETATM    9  H   UNL     1      -7.217   6.257  66.898  1.00  0.00     0.000 HD 
HETATM   10  C   UNL     1      -8.494   7.490  65.907  1.00  0.00    -0.147 C  
HETATM   11  H   UNL     1      -9.743   8.966  65.264  1.00  0.00     0.000 HD 
HETATM   12  O   UNL     1      -8.194   7.090  64.790  1.00  0.00    -0.121 OA 
HETATM   13  N   UNL     1      -7.958   6.945  67.031  1.00  0.00    -0.114 N  
BRANCH   3  14
HETATM   14  C   UNL     1     -10.160   8.285  69.753  1.00  0.00    -0.197 A  
HETATM   15  C   UNL     1     -11.811   6.945  70.965  1.00  0.00    -0.411 A  
HETATM   16  C   UNL     1     -11.166   9.086  71.844  1.00  0.00    -0.438 A  
HETATM   17  C   UNL     1     -10.313   9.272  70.751  1.00  0.00    -0.348 A  
HETATM   18  C   UNL     1     -10.958   7.133  69.870  1.00  0.00    -0.278 A  
HETATM   19  C   UNL     1     -11.903   7.916  71.960  1.00  0.00    -0.364 A  
ENDBRANCH   3  14
ENDBRANCH   2   3
TORSDOF 2
ENDMDL
MODEL      129
REMARK 921   NORMALIZED FREE ENERGY PREDICTED BY IDOCK:   -3.44 KCAL/MOL
REMARK 922        TOTAL FREE ENERGY PREDICTED BY IDOCK:   -3.89 KCAL/MOL
REMARK 923 INTER-LIGAND FREE ENERGY PREDICTED BY IDOCK:   -3.78 KCAL/MOL
REMARK 924 INTRA-LIGAND FREE ENERGY PREDICTED BY IDOCK:   -0.11 KCAL/MOL
REMARK 927      BINDING AFFINITY PREDICTED BY RF-SCORE:    0.00 PKD
ROOT
HETATM    1  C   UNL     1     -11.727  10.892  69.325  1.00  0.00    -0.395 C  
HETATM    2  C   UNL     1     -10.858   9.976  70.184  1.00  0.00    -0.365 C  
ENDROOT
BRANCH   2   3
HETATM    3  C   UNL     1      -9.715   9.163  69.482  1.00  0.00    -0.176 C  
HETATM    4  C   UNL     1      -9.877   9.322  67.962  1.00  0.00    -0.163 C  
HETATM    5  O   UNL     1      -7.836   9.507  71.020  1.00  0.00    -0.316 OA 
HETATM    6  C   UNL     1      -8.393   9.789  69.960  1.00  0.00    -0.192 C  
HETATM    7  N   UNL     1      -9.259  10.399  67.384  1.00  0.00    -0.142 N  
HETATM    8  O   UNL     1     -10.571   8.589  67.259  1.00  0.00    -0.295 OA 
HETATM    9  H   UNL     1      -7.112  11.339  69.598  1.00  0.00     0.000 HD 
HETATM   10  C   UNL     1      -8.213  11.093  67.907  1.00  0.00    -0.121 C  
HETATM   11  H   UNL     1      -9.615  10.707  66.480  1.00  0.00     0.000 HD 
HETATM   12  O   UNL     1      -7.593  11.919  67.249  1.00  0.00    -0.137 OA 
HETATM   13  N   UNL     1      -7.856  10.780  69.181  1.00  0.00    -0.148 N  
BRANCH   3  14
HETATM   14  C   UNL     1      -9.809   7.654  69.862  1.00  0.00    -0.184 A  
HETATM   15  C   UNL     1     -10.882   5.824  71.084  1.00  0.00    -0.316 A  
HETATM   16  C   UNL     1      -9.018   5.341  69.649  1.00  0.00    -0.133 A  
HETATM   17  C   UNL     1      -8.912   6.700  69.337  1.00  0.00    -0.133 A  
HETATM   18  C   UNL     1     -10.774   7.186  70.772  1.00  0.00    -0.251 A  
HETATM   19  C   UNL     1     -10.013   4.900  70.510  1.00  0.00    -0.311 A  
ENDBRANCH   3  14
ENDBRANCH   2   3
TORSDOF 2
ENDMDL
MODEL      130
REMARK 921   NORMALIZED FREE ENERGY PREDICTED BY IDOCK:   -3.44 KCAL/MOL
REMARK 922        TOTAL FREE ENERGY PREDICTED BY IDOCK:   -3.89 KCAL/MOL
REMARK 923 INTER-LIGAND FREE ENERGY PREDICTED BY IDOCK:   -3.83 KCAL/MOL
REMARK 924 INTRA-LIGAND FREE ENERGY PREDICTED BY IDOCK:   -0.06 KCAL/MOL
REMARK 927      BINDING AFFINITY PREDICTED BY RF-SCORE:    0.00 PKD
ROOT
HETATM    1  C   UNL     1      -6.993   9.459  67.958  1.00  0.00    -0.079 C  
HETATM    2  C   UNL     1      -7.941   9.702  69.129  1.00  0.00    -0.099 C  
ENDROOT
BRANCH   2   3
HETATM    3  C   UNL     1      -9.460   9.356  68.940  1.00  0.00    -0.154 C  
HETATM    4  C   UNL     1     -10.194  10.637  68.515  1.00  0.00    -0.175 C  
HETATM    5  O   UNL     1      -9.348   7.090  68.009  1.00  0.00    -0.129 OA 
HETATM    6  C   UNL     1      -9.519   8.295  67.828  1.00  0.00    -0.149 C  
HETATM    7  N   UNL     1     -10.244  10.903  67.173  1.00  0.00    -0.201 N  
HETATM    8  O   UNL     1     -10.672  11.455  69.300  1.00  0.00    -0.212 OA 
HETATM    9  H   UNL     1      -9.521   8.078  65.796  1.00  0.00     0.000 HD 
HETATM   10  C   UNL     1     -10.088   9.995  66.173  1.00  0.00    -0.247 C  
HETATM   11  H   UNL     1     -10.415  11.870  66.898  1.00  0.00     0.000 HD 
HETATM   12  O   UNL     1     -10.334  10.270  65.006  1.00  0.00    -0.288 OA 
HETATM   13  N   UNL     1      -9.698   8.747  66.547  1.00  0.00    -0.237 N  
BRANCH   3  14
HETATM   14  C   UNL     1     -10.066   8.827  70.276  1.00  0.00    -0.214 A  
HETATM   15  C   UNL     1      -9.868   8.352  72.669  1.00  0.00    -0.329 A  
HETATM   16  C   UNL     1     -11.941   7.886  71.550  1.00  0.00    -0.333 A  
HETATM   17  C   UNL     1     -11.384   8.328  70.345  1.00  0.00    -0.177 A  
HETATM   18  C   UNL     1      -9.310   8.793  71.461  1.00  0.00    -0.337 A  
HETATM   19  C   UNL     1     -11.188   7.913  72.715  1.00  0.00    -0.466 A  
ENDBRANCH   3  14
ENDBRANCH   2   3
TORSDOF 2
ENDMDL
MODEL      131
REMARK 921   NORMALIZED FREE ENERGY PREDICTED BY IDOCK:   -3.43 KCAL/MOL
REMARK 922        TOTAL FREE ENERGY PREDICTED BY IDOCK:   -3.88 KCAL/MOL
REMARK 923 INTER-LIGAND FREE ENERGY PREDICTED BY IDOCK:   -3.84 KCAL/MOL
REMARK 924 INTRA-LIGAND FREE ENERGY PREDICTED BY IDOCK:   -0.04 KCAL/MOL
REMARK 927      BINDING AFFINITY PREDICTED BY RF-SCORE:    0.00 PKD
ROOT
HETATM    1  C   UNL     1     -12.476   9.467  71.441  1.00  0.00    -0.450 C  
HETATM    2  C   UNL     1     -11.020   9.740  71.072  1.00  0.00    -0.402 C  
ENDROOT
BRANCH   2   3
HETATM    3  C   UNL     1     -10.055   8.516  70.899  1.00  0.00    -0.246 C  
HETATM    4  C   UNL     1      -9.427   8.203  72.265  1.00  0.00    -0.245 C  
HETATM    5  O   UNL     1     -11.256   7.158  69.246  1.00  0.00    -0.128 OA 
HETATM    6  C   UNL     1     -10.933   7.347  70.418  1.00  0.00    -0.251 C  
HETATM    7  N   UNL     1     -10.119   7.348  73.082  1.00  0.00    -0.259 N  
HETATM    8  O   UNL     1      -8.392   8.718  72.687  1.00  0.00    -0.407 OA 
HETATM    9  H   UNL     1     -12.190   5.884  71.092  1.00  0.00     0.000 HD 
HETATM   10  C   UNL     1     -11.057   6.449  72.683  1.00  0.00    -0.261 C  
HETATM   11  H   UNL     1      -9.911   7.390  74.079  1.00  0.00     0.000 HD 
HETATM   12  O   UNL     1     -11.492   5.591  73.440  1.00  0.00    -0.176 OA 
HETATM   13  N   UNL     1     -11.444   6.516  71.381  1.00  0.00    -0.295 N  
BRANCH   3  14
HETATM   14  C   UNL     1      -8.930   8.852  69.872  1.00  0.00    -0.160 A  
HETATM   15  C   UNL     1      -7.741  10.459  68.460  1.00  0.00    -0.101 A  
HETATM   16  C   UNL     1      -7.011   8.171  68.502  1.00  0.00    -0.072 A  
HETATM   17  C   UNL     1      -8.043   7.864  69.395  1.00  0.00    -0.125 A  
HETATM   18  C   UNL     1      -8.775  10.150  69.354  1.00  0.00    -0.186 A  
HETATM   19  C   UNL     1      -6.850   9.472  68.047  1.00  0.00    -0.074 A  
ENDBRANCH   3  14
ENDBRANCH   2   3
TORSDOF 2
ENDMDL
MODEL      132
REMARK 921   NORMALIZED FREE ENERGY PREDICTED BY IDOCK:   -3.43 KCAL/MOL
REMARK 922        TOTAL FREE ENERGY PREDICTED BY IDOCK:   -3.87 KCAL/MOL
REMARK 923 INTER-LIGAND FREE ENERGY PREDICTED BY IDOCK:   -4.21 KCAL/MOL
REMARK 924 INTRA-LIGAND FREE ENERGY PREDICTED BY IDOCK:    0.34 KCAL/MOL
REMARK 927      BINDING AFFINITY PREDICTED BY RF-SCORE:    0.00 PKD
ROOT
HETATM    1  C   UNL     1      -7.385   9.171  69.408  1.00  0.00    -0.076 C  
HETATM    2  C   UNL     1      -8.654   9.812  69.963  1.00  0.00    -0.229 C  
ENDROOT
BRANCH   2   3
HETATM    3  C   UNL     1      -9.973   9.698  69.122  1.00  0.00    -0.189 C  
HETATM    4  C   UNL     1     -11.139  10.197  69.989  1.00  0.00    -0.308 C  
HETATM    5  O   UNL     1      -9.185  10.266  66.870  1.00  0.00    -0.148 OA 
HETATM    6  C   UNL     1      -9.775  10.605  67.895  1.00  0.00    -0.161 C  
HETATM    7  N   UNL     1     -11.409  11.539  69.948  1.00  0.00    -0.464 N  
HETATM    8  O   UNL     1     -11.789   9.486  70.754  1.00  0.00    -0.277 OA 
HETATM    9  H   UNL     1      -9.902  12.549  67.282  1.00  0.00     0.000 HD 
HETATM   10  C   UNL     1     -11.050  12.395  68.953  1.00  0.00    -0.258 C  
HETATM   11  H   UNL     1     -11.926  11.933  70.734  1.00  0.00     0.000 HD 
HETATM   12  O   UNL     1     -11.489  13.536  68.894  1.00  0.00    -0.263 OA 
HETATM   13  N   UNL     1     -10.223  11.896  67.997  1.00  0.00    -0.187 N  
BRANCH   3  14
HETATM   14  C   UNL     1     -10.227   8.216  68.710  1.00  0.00    -0.221 A  
HETATM   15  C   UNL     1     -10.924   6.550  67.057  1.00  0.00    -0.466 A  
HETATM   16  C   UNL     1     -10.187   5.816  69.221  1.00  0.00    -0.292 A  
HETATM   17  C   UNL     1      -9.995   7.148  69.602  1.00  0.00    -0.176 A  
HETATM   18  C   UNL     1     -10.732   7.885  67.440  1.00  0.00    -0.278 A  
HETATM   19  C   UNL     1     -10.637   5.516  67.943  1.00  0.00    -0.219 A  
ENDBRANCH   3  14
ENDBRANCH   2   3
TORSDOF 2
ENDMDL
MODEL      133
REMARK 921   NORMALIZED FREE ENERGY PREDICTED BY IDOCK:   -3.42 KCAL/MOL
REMARK 922        TOTAL FREE ENERGY PREDICTED BY IDOCK:   -3.87 KCAL/MOL
REMARK 923 INTER-LIGAND FREE ENERGY PREDICTED BY IDOCK:   -3.93 KCAL/MOL
REMARK 924 INTRA-LIGAND FREE ENERGY PREDICTED BY IDOCK:    0.05 KCAL/MOL
REMARK 927      BINDING AFFINITY PREDICTED BY RF-SCORE:    0.00 PKD
ROOT
HETATM    1  C   UNL     1      -7.228   9.120  69.836  1.00  0.00    -0.062 C  
HETATM    2  C   UNL     1      -8.421   9.293  70.772  1.00  0.00    -0.244 C  
ENDROOT
BRANCH   2   3
HETATM    3  C   UNL     1      -9.758   8.555  70.416  1.00  0.00    -0.193 C  
HETATM    4  C   UNL     1     -10.891   9.195  71.232  1.00  0.00    -0.332 C  
HETATM    5  O   UNL     1      -9.457   8.093  68.026  1.00  0.00    -0.142 OA 
HETATM    6  C   UNL     1      -9.977   8.774  68.909  1.00  0.00    -0.192 C  
HETATM    7  N   UNL     1     -11.518  10.278  70.675  1.00  0.00    -0.329 N  
HETATM    8  O   UNL     1     -11.218   8.839  72.364  1.00  0.00    -0.329 OA 
HETATM    9  H   UNL     1     -10.706  10.123  67.559  1.00  0.00     0.000 HD 
HETATM   10  C   UNL     1     -11.539  10.594  69.353  1.00  0.00    -0.280 C  
HETATM   11  H   UNL     1     -12.015  10.903  71.309  1.00  0.00     0.000 HD 
HETATM   12  O   UNL     1     -12.275  11.466  68.909  1.00  0.00    -0.458 OA 
HETATM   13  N   UNL     1     -10.740   9.851  68.541  1.00  0.00    -0.223 N  
BRANCH   3  14
HETATM   14  C   UNL     1      -9.653   7.039  70.769  1.00  0.00    -0.164 A  
HETATM   15  C   UNL     1     -10.353   4.717  70.438  1.00  0.00    -0.183 A  
HETATM   16  C   UNL     1      -8.632   5.206  72.041  1.00  0.00    -0.130 A  
HETATM   17  C   UNL     1      -8.754   6.568  71.750  1.00  0.00    -0.131 A  
HETATM   18  C   UNL     1     -10.475   6.083  70.148  1.00  0.00    -0.309 A  
HETATM   19  C   UNL     1      -9.420   4.278  71.375  1.00  0.00    -0.225 A  
ENDBRANCH   3  14
ENDBRANCH   2   3
TORSDOF 2
ENDMDL
MODEL      134
REMARK 921   NORMALIZED FREE ENERGY PREDICTED BY IDOCK:   -3.41 KCAL/MOL
REMARK 922        TOTAL FREE ENERGY PREDICTED BY IDOCK:   -3.86 KCAL/MOL
REMARK 923 INTER-LIGAND FREE ENERGY PREDICTED BY IDOCK:   -5.02 KCAL/MOL
REMARK 924 INTRA-LIGAND FREE ENERGY PREDICTED BY IDOCK:    1.16 KCAL/MOL
REMARK 927      BINDING AFFINITY PREDICTED BY RF-SCORE:    0.00 PKD
ROOT
HETATM    1  C   UNL     1     -11.169  14.933  68.810  1.00  0.00    -0.288 C  
HETATM    2  C   UNL     1     -10.542  16.109  68.066  1.00  0.00    -0.304 C  
ENDROOT
BRANCH   2   3
HETATM    3  C   UNL     1      -9.710  15.811  66.770  1.00  0.00    -0.251 C  
HETATM    4  C   UNL     1     -10.069  14.399  66.285  1.00  0.00    -0.297 C  
HETATM    5  O   UNL     1      -9.671  18.008  65.681  1.00  0.00    -0.467 OA 
HETATM    6  C   UNL     1     -10.136  16.871  65.739  1.00  0.00    -0.229 C  
HETATM    7  N   UNL     1     -11.140  14.290  65.439  1.00  0.00    -0.314 N  
HETATM    8  O   UNL     1      -9.501  13.373  66.657  1.00  0.00    -0.253 OA 
HETATM    9  H   UNL     1     -11.580  17.296  64.358  1.00  0.00     0.000 HD 
HETATM   10  C   UNL     1     -11.656  15.289  64.673  1.00  0.00    -0.333 C  
HETATM   11  H   UNL     1     -11.591  13.378  65.377  1.00  0.00     0.000 HD 
HETATM   12  O   UNL     1     -12.490  15.070  63.803  1.00  0.00    -0.745 OA 
HETATM   13  N   UNL     1     -11.155  16.534  64.887  1.00  0.00    -0.298 N  
BRANCH   3  14
HETATM   14  C   UNL     1      -8.183  15.886  67.077  1.00  0.00    -0.255 A  
HETATM   15  C   UNL     1      -6.141  14.901  68.001  1.00  0.00    -0.163 A  
HETATM   16  C   UNL     1      -6.031  17.060  66.954  1.00  0.00    -0.226 A  
HETATM   17  C   UNL     1      -7.408  17.008  66.713  1.00  0.00    -0.266 A  
HETATM   18  C   UNL     1      -7.521  14.850  67.759  1.00  0.00    -0.179 A  
HETATM   19  C   UNL     1      -5.394  16.000  67.584  1.00  0.00    -0.152 A  
ENDBRANCH   3  14
ENDBRANCH   2   3
TORSDOF 2
ENDMDL
MODEL      135
REMARK 921   NORMALIZED FREE ENERGY PREDICTED BY IDOCK:   -3.38 KCAL/MOL
REMARK 922        TOTAL FREE ENERGY PREDICTED BY IDOCK:   -3.82 KCAL/MOL
REMARK 923 INTER-LIGAND FREE ENERGY PREDICTED BY IDOCK:   -3.93 KCAL/MOL
REMARK 924 INTRA-LIGAND FREE ENERGY PREDICTED BY IDOCK:    0.11 KCAL/MOL
REMARK 927      BINDING AFFINITY PREDICTED BY RF-SCORE:    0.00 PKD
ROOT
HETATM    1  C   UNL     1      -7.453  12.116  67.307  1.00  0.00    -0.152 C  
HETATM    2  C   UNL     1      -8.361  11.671  68.451  1.00  0.00    -0.157 C  
ENDROOT
BRANCH   2   3
HETATM    3  C   UNL     1      -9.909  11.634  68.200  1.00  0.00    -0.191 C  
HETATM    4  C   UNL     1     -10.147  11.283  66.724  1.00  0.00    -0.219 C  
HETATM    5  O   UNL     1     -10.739  10.697  70.310  1.00  0.00    -0.204 OA 
HETATM    6  C   UNL     1     -10.463  10.533  69.122  1.00  0.00    -0.228 C  
HETATM    7  N   UNL     1     -10.219   9.952  66.409  1.00  0.00    -0.239 N  
HETATM    8  O   UNL     1     -10.212  12.110  65.816  1.00  0.00    -0.240 OA 
HETATM    9  H   UNL     1     -10.733   8.512  69.248  1.00  0.00     0.000 HD 
HETATM   10  C   UNL     1     -10.506   8.942  67.274  1.00  0.00    -0.277 C  
HETATM   11  H   UNL     1     -10.040   9.694  65.439  1.00  0.00     0.000 HD 
HETATM   12  O   UNL     1     -10.738   7.805  66.884  1.00  0.00    -0.345 OA 
HETATM   13  N   UNL     1     -10.578   9.276  68.590  1.00  0.00    -0.209 N  
BRANCH   3  14
HETATM   14  C   UNL     1     -10.543  13.023  68.515  1.00  0.00    -0.274 A  
HETATM   15  C   UNL     1     -12.469  14.397  69.144  1.00  0.00    -0.010 A  
HETATM   16  C   UNL     1     -10.342  15.454  68.787  1.00  0.00    -0.229 A  
HETATM   17  C   UNL     1      -9.784  14.212  68.469  1.00  0.00    -0.219 A  
HETATM   18  C   UNL     1     -11.909  13.153  68.824  1.00  0.00    -0.361 A  
HETATM   19  C   UNL     1     -11.682  15.545  69.139  1.00  0.00    -0.380 A  
ENDBRANCH   3  14
ENDBRANCH   2   3
TORSDOF 2
ENDMDL
MODEL      136
REMARK 921   NORMALIZED FREE ENERGY PREDICTED BY IDOCK:   -3.37 KCAL/MOL
REMARK 922        TOTAL FREE ENERGY PREDICTED BY IDOCK:   -3.82 KCAL/MOL
REMARK 923 INTER-LIGAND FREE ENERGY PREDICTED BY IDOCK:   -4.10 KCAL/MOL
REMARK 924 INTRA-LIGAND FREE ENERGY PREDICTED BY IDOCK:    0.29 KCAL/MOL
REMARK 927      BINDING AFFINITY PREDICTED BY RF-SCORE:    0.00 PKD
ROOT
HETATM    1  C   UNL     1      -8.669   7.389  72.114  1.00  0.00    -0.134 C  
HETATM    2  C   UNL     1      -8.896   7.464  70.607  1.00  0.00    -0.150 C  
ENDROOT
BRANCH   2   3
HETATM    3  C   UNL     1     -10.258   6.937  70.033  1.00  0.00    -0.211 C  
HETATM    4  C   UNL     1     -10.326   7.308  68.544  1.00  0.00    -0.189 C  
HETATM    5  O   UNL     1     -10.540   4.832  71.260  1.00  0.00    -0.112 OA 
HETATM    6  C   UNL     1     -10.234   5.409  70.218  1.00  0.00    -0.267 C  
HETATM    7  N   UNL     1      -9.783   6.415  67.660  1.00  0.00    -0.117 N  
HETATM    8  O   UNL     1     -10.774   8.370  68.114  1.00  0.00    -0.152 OA 
HETATM    9  H   UNL     1      -9.546   3.687  69.362  1.00  0.00     0.000 HD 
HETATM   10  C   UNL     1      -9.565   5.093  67.893  1.00  0.00    -0.135 C  
HETATM   11  H   UNL     1      -9.518   6.773  66.743  1.00  0.00     0.000 HD 
HETATM   12  O   UNL     1      -9.255   4.321  66.995  1.00  0.00    -0.128 OA 
HETATM   13  N   UNL     1      -9.766   4.664  69.168  1.00  0.00    -0.179 N  
BRANCH   3  14
HETATM   14  C   UNL     1     -11.455   7.591  70.790  1.00  0.00    -0.305 A  
HETATM   15  C   UNL     1     -12.445   9.482  71.987  1.00  0.00    -0.427 A  
HETATM   16  C   UNL     1     -13.759   7.504  71.629  1.00  0.00    -0.465 A  
HETATM   17  C   UNL     1     -12.673   6.905  70.983  1.00  0.00    -0.269 A  
HETATM   18  C   UNL     1     -11.357   8.881  71.340  1.00  0.00    -0.380 A  
HETATM   19  C   UNL     1     -13.651   8.798  72.118  1.00  0.00    -0.480 A  
ENDBRANCH   3  14
ENDBRANCH   2   3
TORSDOF 2
ENDMDL
MODEL      137
REMARK 921   NORMALIZED FREE ENERGY PREDICTED BY IDOCK:   -3.37 KCAL/MOL
REMARK 922        TOTAL FREE ENERGY PREDICTED BY IDOCK:   -3.81 KCAL/MOL
REMARK 923 INTER-LIGAND FREE ENERGY PREDICTED BY IDOCK:   -3.87 KCAL/MOL
REMARK 924 INTRA-LIGAND FREE ENERGY PREDICTED BY IDOCK:    0.06 KCAL/MOL
REMARK 927      BINDING AFFINITY PREDICTED BY RF-SCORE:    0.00 PKD
ROOT
HETATM    1  C   UNL     1     -10.129   8.208  66.630  1.00  0.00    -0.344 C  
HETATM    2  C   UNL     1     -10.622   9.205  67.675  1.00  0.00    -0.307 C  
ENDROOT
BRANCH   2   3
HETATM    3  C   UNL     1      -9.976   9.163  69.104  1.00  0.00    -0.189 C  
HETATM    4  C   UNL     1     -11.034   9.615  70.122  1.00  0.00    -0.275 C  
HETATM    5  O   UNL     1      -8.527   7.191  68.945  1.00  0.00    -0.125 OA 
HETATM    6  C   UNL     1      -9.573   7.698  69.346  1.00  0.00    -0.159 C  
HETATM    7  N   UNL     1     -11.856   8.645  70.631  1.00  0.00    -0.465 N  
HETATM    8  O   UNL     1     -11.226  10.785  70.450  1.00  0.00    -0.292 OA 
HETATM    9  H   UNL     1     -10.317   5.894  69.952  1.00  0.00     0.000 HD 
HETATM   10  C   UNL     1     -11.593   7.311  70.659  1.00  0.00    -0.290 C  
HETATM   11  H   UNL     1     -12.745   8.950  71.026  1.00  0.00     0.000 HD 
HETATM   12  O   UNL     1     -12.285   6.529  71.298  1.00  0.00    -0.340 OA 
HETATM   13  N   UNL     1     -10.486   6.899  69.985  1.00  0.00    -0.201 N  
BRANCH   3  14
HETATM   14  C   UNL     1      -8.745  10.118  69.172  1.00  0.00    -0.173 A  
HETATM   15  C   UNL     1      -7.509  12.067  68.356  1.00  0.00    -0.110 A  
HETATM   16  C   UNL     1      -6.628  10.809  70.203  1.00  0.00    -0.144 A  
HETATM   17  C   UNL     1      -7.714   9.932  70.118  1.00  0.00    -0.188 A  
HETATM   18  C   UNL     1      -8.596  11.187  68.270  1.00  0.00    -0.146 A  
HETATM   19  C   UNL     1      -6.533  11.886  69.333  1.00  0.00    -0.119 A  
ENDBRANCH   3  14
ENDBRANCH   2   3
TORSDOF 2
ENDMDL
MODEL      138
REMARK 921   NORMALIZED FREE ENERGY PREDICTED BY IDOCK:   -3.34 KCAL/MOL
REMARK 922        TOTAL FREE ENERGY PREDICTED BY IDOCK:   -3.78 KCAL/MOL
REMARK 923 INTER-LIGAND FREE ENERGY PREDICTED BY IDOCK:   -4.05 KCAL/MOL
REMARK 924 INTRA-LIGAND FREE ENERGY PREDICTED BY IDOCK:    0.27 KCAL/MOL
REMARK 927      BINDING AFFINITY PREDICTED BY RF-SCORE:    0.00 PKD
ROOT
HETATM    1  C   UNL     1      -9.940   5.260  66.442  1.00  0.00    -0.227 C  
HETATM    2  C   UNL     1     -10.824   6.270  67.170  1.00  0.00    -0.460 C  
ENDROOT
BRANCH   2   3
HETATM    3  C   UNL     1     -10.313   6.861  68.530  1.00  0.00    -0.204 C  
HETATM    4  C   UNL     1     -11.043   6.136  69.672  1.00  0.00    -0.419 C  
HETATM    5  O   UNL     1      -7.946   7.278  68.041  1.00  0.00    -0.116 OA 
HETATM    6  C   UNL     1      -8.802   6.575  68.577  1.00  0.00    -0.121 C  
HETATM    7  N   UNL     1     -10.472   4.981  70.135  1.00  0.00    -0.238 N  
HETATM    8  O   UNL     1     -12.123   6.493  70.140  1.00  0.00    -0.323 OA 
HETATM    9  H   UNL     1      -7.443   5.121  69.038  1.00  0.00     0.000 HD 
HETATM   10  C   UNL     1      -9.167   4.624  69.995  1.00  0.00    -0.123 C  
HETATM   11  H   UNL     1     -11.081   4.329  70.629  1.00  0.00     0.000 HD 
HETATM   12  O   UNL     1      -8.691   3.670  70.597  1.00  0.00    -0.069 OA 
HETATM   13  N   UNL     1      -8.407   5.417  69.195  1.00  0.00    -0.096 N  
BRANCH   3  14
HETATM   14  C   UNL     1     -10.614   8.389  68.605  1.00  0.00    -0.149 A  
HETATM   15  C   UNL     1     -10.998  10.427  69.905  1.00  0.00    -0.364 A  
HETATM   16  C   UNL     1     -11.016  10.546  67.506  1.00  0.00    -0.365 A  
HETATM   17  C   UNL     1     -10.782   9.169  67.441  1.00  0.00    -0.247 A  
HETATM   18  C   UNL     1     -10.765   9.047  69.839  1.00  0.00    -0.240 A  
HETATM   19  C   UNL     1     -11.108  11.179  68.738  1.00  0.00    -0.291 A  
ENDBRANCH   3  14
ENDBRANCH   2   3
TORSDOF 2
ENDMDL
MODEL      139
REMARK 921   NORMALIZED FREE ENERGY PREDICTED BY IDOCK:   -3.32 KCAL/MOL
REMARK 922        TOTAL FREE ENERGY PREDICTED BY IDOCK:   -3.75 KCAL/MOL
REMARK 923 INTER-LIGAND FREE ENERGY PREDICTED BY IDOCK:   -3.85 KCAL/MOL
REMARK 924 INTRA-LIGAND FREE ENERGY PREDICTED BY IDOCK:    0.09 KCAL/MOL
REMARK 927      BINDING AFFINITY PREDICTED BY RF-SCORE:    0.00 PKD
ROOT
HETATM    1  C   UNL     1     -11.105   6.688  67.471  1.00  0.00    -0.374 C  
HETATM    2  C   UNL     1     -10.366   5.724  68.396  1.00  0.00    -0.269 C  
ENDROOT
BRANCH   2   3
HETATM    3  C   UNL     1     -10.031   6.201  69.853  1.00  0.00    -0.215 C  
HETATM    4  C   UNL     1      -8.740   7.032  69.799  1.00  0.00    -0.142 C  
HETATM    5  O   UNL     1     -12.266   6.619  70.772  1.00  0.00    -0.378 OA 
HETATM    6  C   UNL     1     -11.222   7.067  70.301  1.00  0.00    -0.298 C  
HETATM    7  N   UNL     1      -8.877   8.373  69.555  1.00  0.00    -0.144 N  
HETATM    8  O   UNL     1      -7.608   6.560  69.897  1.00  0.00    -0.095 OA 
HETATM    9  H   UNL     1     -11.987   8.956  70.174  1.00  0.00     0.000 HD 
HETATM   10  C   UNL     1     -10.003   9.108  69.755  1.00  0.00    -0.193 C  
HETATM   11  H   UNL     1      -8.061   8.863  69.191  1.00  0.00     0.000 HD 
HETATM   12  O   UNL     1      -9.994  10.331  69.696  1.00  0.00    -0.228 OA 
HETATM   13  N   UNL     1     -11.127   8.416  70.083  1.00  0.00    -0.223 N  
BRANCH   3  14
HETATM   14  C   UNL     1      -9.824   4.974  70.792  1.00  0.00    -0.279 A  
HETATM   15  C   UNL     1      -9.324   2.601  71.123  1.00  0.00    -0.210 A  
HETATM   16  C   UNL     1      -9.717   3.994  73.039  1.00  0.00    -0.170 A  
HETATM   17  C   UNL     1      -9.938   5.086  72.194  1.00  0.00    -0.236 A  
HETATM   18  C   UNL     1      -9.547   3.695  70.276  1.00  0.00    -0.246 A  
HETATM   19  C   UNL     1      -9.394   2.755  72.505  1.00  0.00    -0.151 A  
ENDBRANCH   3  14
ENDBRANCH   2   3
TORSDOF 2
ENDMDL
MODEL      140
REMARK 921   NORMALIZED FREE ENERGY PREDICTED BY IDOCK:   -3.26 KCAL/MOL
REMARK 922        TOTAL FREE ENERGY PREDICTED BY IDOCK:   -3.68 KCAL/MOL
REMARK 923 INTER-LIGAND FREE ENERGY PREDICTED BY IDOCK:   -3.66 KCAL/MOL
REMARK 924 INTRA-LIGAND FREE ENERGY PREDICTED BY IDOCK:   -0.02 KCAL/MOL
REMARK 927      BINDING AFFINITY PREDICTED BY RF-SCORE:    0.00 PKD
ROOT
HETATM    1  C   UNL     1     -11.627   9.187  71.737  1.00  0.00    -0.457 C  
HETATM    2  C   UNL     1     -10.164   8.875  71.434  1.00  0.00    -0.375 C  
ENDROOT
BRANCH   2   3
HETATM    3  C   UNL     1      -9.776   7.395  71.089  1.00  0.00    -0.166 C  
HETATM    4  C   UNL     1      -8.779   6.902  72.148  1.00  0.00    -0.127 C  
HETATM    5  O   UNL     1     -11.892   6.507  70.225  1.00  0.00    -0.413 OA 
HETATM    6  C   UNL     1     -11.084   6.587  71.149  1.00  0.00    -0.282 C  
HETATM    7  N   UNL     1      -9.307   6.338  73.279  1.00  0.00    -0.131 N  
HETATM    8  O   UNL     1      -7.559   7.040  72.070  1.00  0.00    -0.090 OA 
HETATM    9  H   UNL     1     -12.344   5.642  72.449  1.00  0.00     0.000 HD 
HETATM   10  C   UNL     1     -10.553   5.805  73.397  1.00  0.00    -0.258 C  
HETATM   11  H   UNL     1      -8.713   6.317  74.107  1.00  0.00     0.000 HD 
HETATM   12  O   UNL     1     -10.885   5.151  74.378  1.00  0.00    -0.323 OA 
HETATM   13  N   UNL     1     -11.390   5.987  72.342  1.00  0.00    -0.288 N  
BRANCH   3  14
HETATM   14  C   UNL     1      -9.116   7.322  69.677  1.00  0.00    -0.140 A  
HETATM   15  C   UNL     1      -8.100   6.035  67.861  1.00  0.00    -0.106 A  
HETATM   16  C   UNL     1      -8.363   8.409  67.610  1.00  0.00    -0.130 A  
HETATM   17  C   UNL     1      -8.920   8.478  68.891  1.00  0.00    -0.146 A  
HETATM   18  C   UNL     1      -8.658   6.104  69.144  1.00  0.00    -0.119 A  
HETATM   19  C   UNL     1      -7.967   7.185  67.088  1.00  0.00    -0.110 A  
ENDBRANCH   3  14
ENDBRANCH   2   3
TORSDOF 2
ENDMDL
MODEL      141
REMARK 921   NORMALIZED FREE ENERGY PREDICTED BY IDOCK:   -3.26 KCAL/MOL
REMARK 922        TOTAL FREE ENERGY PREDICTED BY IDOCK:   -3.68 KCAL/MOL
REMARK 923 INTER-LIGAND FREE ENERGY PREDICTED BY IDOCK:   -3.63 KCAL/MOL
REMARK 924 INTRA-LIGAND FREE ENERGY PREDICTED BY IDOCK:   -0.06 KCAL/MOL
REMARK 927      BINDING AFFINITY PREDICTED BY RF-SCORE:    0.00 PKD
ROOT
HETATM    1  C   UNL     1     -10.615   6.473  67.075  1.00  0.00    -0.402 C  
HETATM    2  C   UNL     1     -10.766   5.593  68.313  1.00  0.00    -0.227 C  
ENDROOT
BRANCH   2   3
HETATM    3  C   UNL     1      -9.804   5.846  69.526  1.00  0.00    -0.216 C  
HETATM    4  C   UNL     1      -9.386   4.483  70.098  1.00  0.00    -0.147 C  
HETATM    5  O   UNL     1      -8.550   7.814  68.772  1.00  0.00    -0.128 OA 
HETATM    6  C   UNL     1      -8.589   6.598  68.956  1.00  0.00    -0.130 C  
HETATM    7  N   UNL     1      -8.282   3.893  69.543  1.00  0.00    -0.054 N  
HETATM    8  O   UNL     1     -10.011   3.874  70.965  1.00  0.00    -0.173 OA 
HETATM    9  H   UNL     1      -6.813   6.306  67.989  1.00  0.00     0.000 HD 
HETATM   10  C   UNL     1      -7.300   4.530  68.850  1.00  0.00    -0.056 C  
HETATM   11  H   UNL     1      -8.187   2.884  69.659  1.00  0.00     0.000 HD 
HETATM   12  O   UNL     1      -6.254   3.969  68.550  1.00  0.00    -0.030 OA 
HETATM   13  N   UNL     1      -7.518   5.840  68.560  1.00  0.00    -0.083 N  
BRANCH   3  14
HETATM   14  C   UNL     1     -10.530   6.675  70.630  1.00  0.00    -0.253 A  
HETATM   15  C   UNL     1     -12.563   7.671  71.561  1.00  0.00    -0.369 A  
HETATM   16  C   UNL     1     -10.489   7.917  72.746  1.00  0.00    -0.412 A  
HETATM   17  C   UNL     1      -9.833   7.205  71.737  1.00  0.00    -0.171 A  
HETATM   18  C   UNL     1     -11.905   6.958  70.549  1.00  0.00    -0.385 A  
HETATM   19  C   UNL     1     -11.857   8.137  72.666  1.00  0.00    -0.389 A  
ENDBRANCH   3  14
ENDBRANCH   2   3
TORSDOF 2
ENDMDL
MODEL      142
REMARK 921   NORMALIZED FREE ENERGY PREDICTED BY IDOCK:   -3.25 KCAL/MOL
REMARK 922        TOTAL FREE ENERGY PREDICTED BY IDOCK:   -3.68 KCAL/MOL
REMARK 923 INTER-LIGAND FREE ENERGY PREDICTED BY IDOCK:   -3.62 KCAL/MOL
REMARK 924 INTRA-LIGAND FREE ENERGY PREDICTED BY IDOCK:   -0.06 KCAL/MOL
REMARK 927      BINDING AFFINITY PREDICTED BY RF-SCORE:    0.00 PKD
ROOT
HETATM    1  C   UNL     1     -11.996   7.111  71.343  1.00  0.00    -0.364 C  
HETATM    2  C   UNL     1     -11.099   6.792  70.150  1.00  0.00    -0.365 C  
ENDROOT
BRANCH   2   3
HETATM    3  C   UNL     1     -10.052   7.869  69.697  1.00  0.00    -0.197 C  
HETATM    4  C   UNL     1     -10.622   8.608  68.476  1.00  0.00    -0.119 C  
HETATM    5  O   UNL     1      -9.141   8.620  71.846  1.00  0.00    -0.227 OA 
HETATM    6  C   UNL     1      -9.885   8.827  70.889  1.00  0.00    -0.222 C  
HETATM    7  N   UNL     1     -11.410   9.700  68.728  1.00  0.00    -0.473 N  
HETATM    8  O   UNL     1     -10.468   8.243  67.312  1.00  0.00    -0.274 OA 
HETATM    9  H   UNL     1     -10.732  10.455  71.788  1.00  0.00     0.000 HD 
HETATM   10  C   UNL     1     -11.415  10.433  69.873  1.00  0.00    -0.297 C  
HETATM   11  H   UNL     1     -12.050   9.989  67.989  1.00  0.00     0.000 HD 
HETATM   12  O   UNL     1     -12.005  11.502  69.952  1.00  0.00    -0.310 OA 
HETATM   13  N   UNL     1     -10.683   9.941  70.908  1.00  0.00    -0.297 N  
BRANCH   3  14
HETATM   14  C   UNL     1      -8.704   7.187  69.312  1.00  0.00    -0.136 A  
HETATM   15  C   UNL     1      -6.345   7.332  68.674  1.00  0.00    -0.036 A  
HETATM   16  C   UNL     1      -7.359   5.170  68.933  1.00  0.00    -0.065 A  
HETATM   17  C   UNL     1      -8.577   5.783  69.243  1.00  0.00    -0.111 A  
HETATM   18  C   UNL     1      -7.566   7.946  68.983  1.00  0.00    -0.099 A  
HETATM   19  C   UNL     1      -6.238   5.943  68.664  1.00  0.00    -0.029 A  
ENDBRANCH   3  14
ENDBRANCH   2   3
TORSDOF 2
ENDMDL
MODEL      143
REMARK 921   NORMALIZED FREE ENERGY PREDICTED BY IDOCK:   -3.24 KCAL/MOL
REMARK 922        TOTAL FREE ENERGY PREDICTED BY IDOCK:   -3.66 KCAL/MOL
REMARK 923 INTER-LIGAND FREE ENERGY PREDICTED BY IDOCK:   -3.50 KCAL/MOL
REMARK 924 INTRA-LIGAND FREE ENERGY PREDICTED BY IDOCK:   -0.16 KCAL/MOL
REMARK 927      BINDING AFFINITY PREDICTED BY RF-SCORE:    0.00 PKD
ROOT
HETATM    1  C   UNL     1      -6.879   6.177  68.520  1.00  0.00    -0.074 C  
HETATM    2  C   UNL     1      -8.346   6.079  68.107  1.00  0.00    -0.113 C  
ENDROOT
BRANCH   2   3
HETATM    3  C   UNL     1      -9.311   7.250  68.506  1.00  0.00    -0.141 C  
HETATM    4  C   UNL     1      -8.459   8.496  68.790  1.00  0.00    -0.123 C  
HETATM    5  O   UNL     1     -11.243   6.824  67.057  1.00  0.00    -0.393 OA 
HETATM    6  C   UNL     1     -10.227   7.477  67.291  1.00  0.00    -0.267 C  
HETATM    7  N   UNL     1      -8.168   9.303  67.722  1.00  0.00    -0.115 N  
HETATM    8  O   UNL     1      -7.979   8.772  69.889  1.00  0.00    -0.097 OA 
HETATM    9  H   UNL     1     -10.310   8.419  65.480  1.00  0.00     0.000 HD 
HETATM   10  C   UNL     1      -8.860   9.357  66.552  1.00  0.00    -0.136 C  
HETATM   11  H   UNL     1      -7.360   9.918  67.812  1.00  0.00     0.000 HD 
HETATM   12  O   UNL     1      -8.656  10.234  65.723  1.00  0.00    -0.143 OA 
HETATM   13  N   UNL     1      -9.829   8.420  66.380  1.00  0.00    -0.257 N  
BRANCH   3  14
HETATM   14  C   UNL     1     -10.125   6.872  69.780  1.00  0.00    -0.196 A  
HETATM   15  C   UNL     1     -11.875   7.366  71.419  1.00  0.00    -0.329 A  
HETATM   16  C   UNL     1     -10.634   5.319  71.612  1.00  0.00    -0.261 A  
HETATM   17  C   UNL     1      -9.879   5.677  70.490  1.00  0.00    -0.249 A  
HETATM   18  C   UNL     1     -11.118   7.724  70.296  1.00  0.00    -0.242 A  
HETATM   19  C   UNL     1     -11.643   6.156  72.068  1.00  0.00    -0.364 A  
ENDBRANCH   3  14
ENDBRANCH   2   3
TORSDOF 2
ENDMDL
MODEL      144
REMARK 921   NORMALIZED FREE ENERGY PREDICTED BY IDOCK:   -3.22 KCAL/MOL
REMARK 922        TOTAL FREE ENERGY PREDICTED BY IDOCK:   -3.65 KCAL/MOL
REMARK 923 INTER-LIGAND FREE ENERGY PREDICTED BY IDOCK:   -3.64 KCAL/MOL
REMARK 924 INTRA-LIGAND FREE ENERGY PREDICTED BY IDOCK:   -0.01 KCAL/MOL
REMARK 927      BINDING AFFINITY PREDICTED BY RF-SCORE:    0.00 PKD
ROOT
HETATM    1  C   UNL     1     -10.668   7.319  67.307  1.00  0.00    -0.391 C  
HETATM    2  C   UNL     1      -9.838   8.416  66.646  1.00  0.00    -0.343 C  
ENDROOT
BRANCH   2   3
HETATM    3  C   UNL     1      -9.485   9.690  67.489  1.00  0.00    -0.157 C  
HETATM    4  C   UNL     1      -9.135  10.827  66.517  1.00  0.00    -0.165 C  
HETATM    5  O   UNL     1     -11.052   9.502  69.367  1.00  0.00    -0.206 OA 
HETATM    6  C   UNL     1     -10.750  10.030  68.298  1.00  0.00    -0.240 C  
HETATM    7  N   UNL     1     -10.175  11.598  66.069  1.00  0.00    -0.224 N  
HETATM    8  O   UNL     1      -8.007  11.039  66.075  1.00  0.00    -0.155 OA 
HETATM    9  H   UNL     1     -12.552  10.982  68.159  1.00  0.00     0.000 HD 
HETATM   10  C   UNL     1     -11.383  11.739  66.677  1.00  0.00    -0.316 C  
HETATM   11  H   UNL     1     -10.029  12.114  65.201  1.00  0.00     0.000 HD 
HETATM   12  O   UNL     1     -12.189  12.589  66.322  1.00  0.00    -0.600 OA 
HETATM   13  N   UNL     1     -11.625  10.923  67.737  1.00  0.00    -0.242 N  
BRANCH   3  14
HETATM   14  C   UNL     1      -8.266   9.405  68.419  1.00  0.00    -0.117 A  
HETATM   15  C   UNL     1      -6.358   8.017  69.071  1.00  0.00    -0.040 A  
HETATM   16  C   UNL     1      -6.809  10.037  70.290  1.00  0.00    -0.147 A  
HETATM   17  C   UNL     1      -7.924  10.272  69.479  1.00  0.00    -0.171 A  
HETATM   18  C   UNL     1      -7.476   8.253  68.259  1.00  0.00    -0.097 A  
HETATM   19  C   UNL     1      -6.016   8.917  70.077  1.00  0.00    -0.030 A  
ENDBRANCH   3  14
ENDBRANCH   2   3
TORSDOF 2
ENDMDL
MODEL      145
REMARK 921   NORMALIZED FREE ENERGY PREDICTED BY IDOCK:   -3.20 KCAL/MOL
REMARK 922        TOTAL FREE ENERGY PREDICTED BY IDOCK:   -3.62 KCAL/MOL
REMARK 923 INTER-LIGAND FREE ENERGY PREDICTED BY IDOCK:   -3.52 KCAL/MOL
REMARK 924 INTRA-LIGAND FREE ENERGY PREDICTED BY IDOCK:   -0.10 KCAL/MOL
REMARK 927      BINDING AFFINITY PREDICTED BY RF-SCORE:    0.00 PKD
ROOT
HETATM    1  C   UNL     1      -9.829   9.122  66.756  1.00  0.00    -0.291 C  
HETATM    2  C   UNL     1     -10.630   8.231  67.701  1.00  0.00    -0.264 C  
ENDROOT
BRANCH   2   3
HETATM    3  C   UNL     1      -9.860   7.144  68.530  1.00  0.00    -0.155 C  
HETATM    4  C   UNL     1      -8.464   7.694  68.861  1.00  0.00    -0.129 C  
HETATM    5  O   UNL     1     -11.659   6.182  69.893  1.00  0.00    -0.404 OA 
HETATM    6  C   UNL     1     -10.682   6.926  69.813  1.00  0.00    -0.244 C  
HETATM    7  N   UNL     1      -8.347   8.432  70.008  1.00  0.00    -0.120 N  
HETATM    8  O   UNL     1      -7.479   7.566  68.136  1.00  0.00    -0.099 OA 
HETATM    9  H   UNL     1     -11.006   7.695  71.677  1.00  0.00     0.000 HD 
HETATM   10  C   UNL     1      -9.196   8.396  71.070  1.00  0.00    -0.168 C  
HETATM   11  H   UNL     1      -7.552   9.066  70.072  1.00  0.00     0.000 HD 
HETATM   12  O   UNL     1      -8.924   8.940  72.133  1.00  0.00    -0.381 OA 
HETATM   13  N   UNL     1     -10.338   7.676  70.907  1.00  0.00    -0.201 N  
BRANCH   3  14
HETATM   14  C   UNL     1      -9.721   5.829  67.704  1.00  0.00    -0.127 A  
HETATM   15  C   UNL     1      -8.863   3.551  67.446  1.00  0.00    -0.149 A  
HETATM   16  C   UNL     1     -10.233   4.491  65.711  1.00  0.00    -0.289 A  
HETATM   17  C   UNL     1     -10.326   5.682  66.437  1.00  0.00    -0.241 A  
HETATM   18  C   UNL     1      -8.957   4.746  68.173  1.00  0.00    -0.129 A  
HETATM   19  C   UNL     1      -9.514   3.419  66.222  1.00  0.00    -0.128 A  
ENDBRANCH   3  14
ENDBRANCH   2   3
TORSDOF 2
ENDMDL
MODEL      146
REMARK 921   NORMALIZED FREE ENERGY PREDICTED BY IDOCK:   -3.18 KCAL/MOL
REMARK 922        TOTAL FREE ENERGY PREDICTED BY IDOCK:   -3.60 KCAL/MOL
REMARK 923 INTER-LIGAND FREE ENERGY PREDICTED BY IDOCK:   -3.54 KCAL/MOL
REMARK 924 INTRA-LIGAND FREE ENERGY PREDICTED BY IDOCK:   -0.06 KCAL/MOL
REMARK 927      BINDING AFFINITY PREDICTED BY RF-SCORE:    0.00 PKD
ROOT
HETATM    1  C   UNL     1     -11.042   6.771  67.251  1.00  0.00    -0.394 C  
HETATM    2  C   UNL     1     -10.372   6.311  68.543  1.00  0.00    -0.238 C  
ENDROOT
BRANCH   2   3
HETATM    3  C   UNL     1      -9.598   7.374  69.399  1.00  0.00    -0.155 C  
HETATM    4  C   UNL     1      -8.093   7.157  69.186  1.00  0.00    -0.121 C  
HETATM    5  O   UNL     1     -11.061   9.334  69.209  1.00  0.00    -0.147 OA 
HETATM    6  C   UNL     1     -10.035   8.749  68.864  1.00  0.00    -0.192 C  
HETATM    7  N   UNL     1      -7.517   7.812  68.130  1.00  0.00    -0.105 N  
HETATM    8  O   UNL     1      -7.401   6.393  69.858  1.00  0.00    -0.078 OA 
HETATM    9  H   UNL     1      -9.659  10.103  67.381  1.00  0.00     0.000 HD 
HETATM   10  C   UNL     1      -8.011   8.918  67.513  1.00  0.00    -0.101 C  
HETATM   11  H   UNL     1      -6.638   7.437  67.775  1.00  0.00     0.000 HD 
HETATM   12  O   UNL     1      -7.349   9.557  66.705  1.00  0.00    -0.089 OA 
HETATM   13  N   UNL     1      -9.259   9.310  67.884  1.00  0.00    -0.130 N  
BRANCH   3  14
HETATM   14  C   UNL     1      -9.942   7.208  70.911  1.00  0.00    -0.193 A  
HETATM   15  C   UNL     1     -11.111   6.042  72.718  1.00  0.00    -0.305 A  
HETATM   16  C   UNL     1      -9.679   7.895  73.252  1.00  0.00    -0.352 A  
HETATM   17  C   UNL     1      -9.401   8.066  71.892  1.00  0.00    -0.225 A  
HETATM   18  C   UNL     1     -10.833   6.215  71.355  1.00  0.00    -0.319 A  
HETATM   19  C   UNL     1     -10.522   6.873  73.667  1.00  0.00    -0.400 A  
ENDBRANCH   3  14
ENDBRANCH   2   3
TORSDOF 2
ENDMDL
MODEL      147
REMARK 921   NORMALIZED FREE ENERGY PREDICTED BY IDOCK:   -3.18 KCAL/MOL
REMARK 922        TOTAL FREE ENERGY PREDICTED BY IDOCK:   -3.59 KCAL/MOL
REMARK 923 INTER-LIGAND FREE ENERGY PREDICTED BY IDOCK:   -3.50 KCAL/MOL
REMARK 924 INTRA-LIGAND FREE ENERGY PREDICTED BY IDOCK:   -0.10 KCAL/MOL
REMARK 927      BINDING AFFINITY PREDICTED BY RF-SCORE:    0.00 PKD
ROOT
HETATM    1  C   UNL     1     -10.995   9.564  70.785  1.00  0.00    -0.389 C  
HETATM    2  C   UNL     1      -9.529   9.538  70.360  1.00  0.00    -0.317 C  
ENDROOT
BRANCH   2   3
HETATM    3  C   UNL     1      -9.199   9.563  68.827  1.00  0.00    -0.140 C  
HETATM    4  C   UNL     1     -10.423   9.036  68.064  1.00  0.00    -0.216 C  
HETATM    5  O   UNL     1      -7.844  11.599  68.637  1.00  0.00    -0.137 OA 
HETATM    6  C   UNL     1      -8.926  11.036  68.474  1.00  0.00    -0.163 C  
HETATM    7  N   UNL     1     -11.378   9.954  67.718  1.00  0.00    -0.447 N  
HETATM    8  O   UNL     1     -10.623   7.849  67.809  1.00  0.00    -0.223 OA 
HETATM    9  H   UNL     1      -9.865  12.787  68.000  1.00  0.00     0.000 HD 
HETATM   10  C   UNL     1     -11.191  11.297  67.608  1.00  0.00    -0.292 C  
HETATM   11  H   UNL     1     -12.315   9.600  67.526  1.00  0.00     0.000 HD 
HETATM   12  O   UNL     1     -12.038  12.028  67.111  1.00  0.00    -0.587 OA 
HETATM   13  N   UNL     1      -9.988  11.775  68.025  1.00  0.00    -0.182 N  
BRANCH   3  14
HETATM   14  C   UNL     1      -7.965   8.659  68.522  1.00  0.00    -0.116 A  
HETATM   15  C   UNL     1      -6.249   7.074  69.253  1.00  0.00    -0.034 A  
HETATM   16  C   UNL     1      -6.326   7.737  66.946  1.00  0.00    -0.054 A  
HETATM   17  C   UNL     1      -7.409   8.575  67.228  1.00  0.00    -0.088 A  
HETATM   18  C   UNL     1      -7.334   7.915  69.535  1.00  0.00    -0.087 A  
HETATM   19  C   UNL     1      -5.755   6.974  67.955  1.00  0.00    -0.024 A  
ENDBRANCH   3  14
ENDBRANCH   2   3
TORSDOF 2
ENDMDL
MODEL      148
REMARK 921   NORMALIZED FREE ENERGY PREDICTED BY IDOCK:   -3.17 KCAL/MOL
REMARK 922        TOTAL FREE ENERGY PREDICTED BY IDOCK:   -3.58 KCAL/MOL
REMARK 923 INTER-LIGAND FREE ENERGY PREDICTED BY IDOCK:   -3.49 KCAL/MOL
REMARK 924 INTRA-LIGAND FREE ENERGY PREDICTED BY IDOCK:   -0.10 KCAL/MOL
REMARK 927      BINDING AFFINITY PREDICTED BY RF-SCORE:    0.00 PKD
ROOT
HETATM    1  C   UNL     1      -7.314   7.101  70.584  1.00  0.00    -0.075 C  
HETATM    2  C   UNL     1      -8.802   7.067  70.249  1.00  0.00    -0.148 C  
ENDROOT
BRANCH   2   3
HETATM    3  C   UNL     1      -9.263   7.615  68.854  1.00  0.00    -0.139 C  
HETATM    4  C   UNL     1      -8.009   7.974  68.042  1.00  0.00    -0.128 C  
HETATM    5  O   UNL     1     -11.229   6.223  68.390  1.00  0.00    -0.335 OA 
HETATM    6  C   UNL     1     -10.042   6.469  68.183  1.00  0.00    -0.155 C  
HETATM    7  N   UNL     1      -7.450   6.972  67.293  1.00  0.00    -0.097 N  
HETATM    8  O   UNL     1      -7.452   9.069  68.076  1.00  0.00    -0.083 OA 
HETATM    9  H   UNL     1      -9.787   4.758  67.097  1.00  0.00     0.000 HD 
HETATM   10  C   UNL     1      -8.083   5.845  66.870  1.00  0.00    -0.102 C  
HETATM   11  H   UNL     1      -6.472   7.081  67.030  1.00  0.00     0.000 HD 
HETATM   12  O   UNL     1      -7.577   5.091  66.049  1.00  0.00    -0.085 OA 
HETATM   13  N   UNL     1      -9.332   5.631  67.363  1.00  0.00    -0.112 N  
BRANCH   3  14
HETATM   14  C   UNL     1     -10.149   8.886  69.035  1.00  0.00    -0.205 A  
HETATM   15  C   UNL     1     -11.402  10.766  68.093  1.00  0.00    -0.377 A  
HETATM   16  C   UNL     1     -11.356  10.464  70.476  1.00  0.00    -0.424 A  
HETATM   17  C   UNL     1     -10.531   9.346  70.313  1.00  0.00    -0.298 A  
HETATM   18  C   UNL     1     -10.575   9.646  67.931  1.00  0.00    -0.308 A  
HETATM   19  C   UNL     1     -11.804  11.165  69.365  1.00  0.00    -0.415 A  
ENDBRANCH   3  14
ENDBRANCH   2   3
TORSDOF 2
ENDMDL
MODEL      149
REMARK 921   NORMALIZED FREE ENERGY PREDICTED BY IDOCK:   -3.14 KCAL/MOL
REMARK 922        TOTAL FREE ENERGY PREDICTED BY IDOCK:   -3.55 KCAL/MOL
REMARK 923 INTER-LIGAND FREE ENERGY PREDICTED BY IDOCK:   -3.47 KCAL/MOL
REMARK 924 INTRA-LIGAND FREE ENERGY PREDICTED BY IDOCK:   -0.08 KCAL/MOL
REMARK 927      BINDING AFFINITY PREDICTED BY RF-SCORE:    0.00 PKD
ROOT
HETATM    1  C   UNL     1      -9.973  10.817  68.875  1.00  0.00    -0.213 C  
HETATM    2  C   UNL     1     -10.576   9.416  68.814  1.00  0.00    -0.234 C  
ENDROOT
BRANCH   2   3
HETATM    3  C   UNL     1      -9.851   8.260  69.588  1.00  0.00    -0.184 C  
HETATM    4  C   UNL     1      -9.279   8.841  70.890  1.00  0.00    -0.212 C  
HETATM    5  O   UNL     1     -11.293   6.339  69.091  1.00  0.00    -0.395 OA 
HETATM    6  C   UNL     1     -10.932   7.205  69.886  1.00  0.00    -0.253 C  
HETATM    7  N   UNL     1     -10.108   8.846  71.981  1.00  0.00    -0.329 N  
HETATM    8  O   UNL     1      -8.165   9.351  70.991  1.00  0.00    -0.294 OA 
HETATM    9  H   UNL     1     -12.429   6.748  71.199  1.00  0.00     0.000 HD 
HETATM   10  C   UNL     1     -11.198   8.052  72.158  1.00  0.00    -0.319 C  
HETATM   11  H   UNL     1      -9.888   9.505  72.727  1.00  0.00     0.000 HD 
HETATM   12  O   UNL     1     -11.776   7.980  73.235  1.00  0.00    -0.182 OA 
HETATM   13  N   UNL     1     -11.577   7.299  71.091  1.00  0.00    -0.281 N  
BRANCH   3  14
HETATM   14  C   UNL     1      -8.693   7.672  68.726  1.00  0.00    -0.128 A  
HETATM   15  C   UNL     1      -6.889   6.050  68.397  1.00  0.00    -0.074 A  
HETATM   16  C   UNL     1      -7.349   7.658  66.673  1.00  0.00    -0.088 A  
HETATM   17  C   UNL     1      -8.364   8.208  67.463  1.00  0.00    -0.123 A  
HETATM   18  C   UNL     1      -7.905   6.602  69.188  1.00  0.00    -0.111 A  
HETATM   19  C   UNL     1      -6.622   6.569  67.132  1.00  0.00    -0.055 A  
ENDBRANCH   3  14
ENDBRANCH   2   3
TORSDOF 2
ENDMDL
MODEL      150
REMARK 921   NORMALIZED FREE ENERGY PREDICTED BY IDOCK:   -3.13 KCAL/MOL
REMARK 922        TOTAL FREE ENERGY PREDICTED BY IDOCK:   -3.54 KCAL/MOL
REMARK 923 INTER-LIGAND FREE ENERGY PREDICTED BY IDOCK:   -3.49 KCAL/MOL
REMARK 924 INTRA-LIGAND FREE ENERGY PREDICTED BY IDOCK:   -0.06 KCAL/MOL
REMARK 927      BINDING AFFINITY PREDICTED BY RF-SCORE:    0.00 PKD
ROOT
HETATM    1  C   UNL     1     -11.972   7.184  71.619  1.00  0.00    -0.353 C  
HETATM    2  C   UNL     1     -11.540   6.245  70.495  1.00  0.00    -0.357 C  
ENDROOT
BRANCH   2   3
HETATM    3  C   UNL     1     -10.252   6.609  69.677  1.00  0.00    -0.213 C  
HETATM    4  C   UNL     1     -10.688   7.328  68.391  1.00  0.00    -0.121 C  
HETATM    5  O   UNL     1      -8.662   7.163  71.460  1.00  0.00    -0.120 OA 
HETATM    6  C   UNL     1      -9.427   7.546  70.576  1.00  0.00    -0.164 C  
HETATM    7  N   UNL     1     -10.840   8.687  68.465  1.00  0.00    -0.441 N  
HETATM    8  O   UNL     1     -10.966   6.757  67.338  1.00  0.00    -0.318 OA 
HETATM    9  H   UNL     1      -9.254   9.498  71.152  1.00  0.00     0.000 HD 
HETATM   10  C   UNL     1     -10.274   9.504  69.394  1.00  0.00    -0.206 C  
HETATM   11  H   UNL     1     -11.430   9.126  67.759  1.00  0.00     0.000 HD 
HETATM   12  O   UNL     1     -10.301  10.723  69.283  1.00  0.00    -0.213 OA 
HETATM   13  N   UNL     1      -9.628   8.893  70.422  1.00  0.00    -0.181 N  
BRANCH   3  14
HETATM   14  C   UNL     1      -9.460   5.317  69.309  1.00  0.00    -0.185 A  
HETATM   15  C   UNL     1      -9.213   2.882  69.346  1.00  0.00    -0.212 A  
HETATM   16  C   UNL     1      -7.553   4.211  68.229  1.00  0.00    -0.067 A  
HETATM   17  C   UNL     1      -8.246   5.371  68.591  1.00  0.00    -0.094 A  
HETATM   18  C   UNL     1      -9.906   4.045  69.709  1.00  0.00    -0.173 A  
HETATM   19  C   UNL     1      -8.045   2.965  68.593  1.00  0.00    -0.068 A  
ENDBRANCH   3  14
ENDBRANCH   2   3
TORSDOF 2
ENDMDL
MODEL      151
REMARK 921   NORMALIZED FREE ENERGY PREDICTED BY IDOCK:   -3.10 KCAL/MOL
REMARK 922        TOTAL FREE ENERGY PREDICTED BY IDOCK:   -3.51 KCAL/MOL
REMARK 923 INTER-LIGAND FREE ENERGY PREDICTED BY IDOCK:   -3.48 KCAL/MOL
REMARK 924 INTRA-LIGAND FREE ENERGY PREDICTED BY IDOCK:   -0.03 KCAL/MOL
REMARK 927      BINDING AFFINITY PREDICTED BY RF-SCORE:    0.00 PKD
ROOT
HETATM    1  C   UNL     1     -11.398   9.523  70.297  1.00  0.00    -0.284 C  
HETATM    2  C   UNL     1     -11.347   8.062  70.735  1.00  0.00    -0.282 C  
ENDROOT
BRANCH   2   3
HETATM    3  C   UNL     1      -9.944   7.414  71.002  1.00  0.00    -0.183 C  
HETATM    4  C   UNL     1      -9.408   6.867  69.671  1.00  0.00    -0.145 C  
HETATM    5  O   UNL     1      -9.013   8.915  72.705  1.00  0.00    -0.337 OA 
HETATM    6  C   UNL     1      -9.047   8.547  71.531  1.00  0.00    -0.216 C  
HETATM    7  N   UNL     1      -8.689   7.734  68.891  1.00  0.00    -0.135 N  
HETATM    8  O   UNL     1      -9.637   5.737  69.244  1.00  0.00    -0.131 OA 
HETATM    9  H   UNL     1      -7.881  10.109  70.918  1.00  0.00     0.000 HD 
HETATM   10  C   UNL     1      -8.062   8.862  69.322  1.00  0.00    -0.109 C  
HETATM   11  H   UNL     1      -8.618   7.515  67.898  1.00  0.00     0.000 HD 
HETATM   12  O   UNL     1      -7.285   9.481  68.607  1.00  0.00    -0.072 OA 
HETATM   13  N   UNL     1      -8.300   9.232  70.608  1.00  0.00    -0.198 N  
BRANCH   3  14
HETATM   14  C   UNL     1     -10.071   6.250  72.032  1.00  0.00    -0.205 A  
HETATM   15  C   UNL     1      -9.049   4.573  73.493  1.00  0.00    -0.106 A  
HETATM   16  C   UNL     1     -11.442   4.765  73.424  1.00  0.00    -0.332 A  
HETATM   17  C   UNL     1     -11.328   5.784  72.473  1.00  0.00    -0.358 A  
HETATM   18  C   UNL     1      -8.935   5.593  72.539  1.00  0.00    -0.133 A  
HETATM   19  C   UNL     1     -10.302   4.170  73.946  1.00  0.00    -0.248 A  
ENDBRANCH   3  14
ENDBRANCH   2   3
TORSDOF 2
ENDMDL
MODEL      152
REMARK 921   NORMALIZED FREE ENERGY PREDICTED BY IDOCK:   -3.09 KCAL/MOL
REMARK 922        TOTAL FREE ENERGY PREDICTED BY IDOCK:   -3.50 KCAL/MOL
REMARK 923 INTER-LIGAND FREE ENERGY PREDICTED BY IDOCK:   -3.44 KCAL/MOL
REMARK 924 INTRA-LIGAND FREE ENERGY PREDICTED BY IDOCK:   -0.06 KCAL/MOL
REMARK 927      BINDING AFFINITY PREDICTED BY RF-SCORE:    0.00 PKD
ROOT
HETATM    1  C   UNL     1      -6.968   8.138  68.243  1.00  0.00    -0.076 C  
HETATM    2  C   UNL     1      -8.183   8.702  68.976  1.00  0.00    -0.122 C  
ENDROOT
BRANCH   2   3
HETATM    3  C   UNL     1      -9.517   8.887  68.172  1.00  0.00    -0.155 C  
HETATM    4  C   UNL     1      -9.306   8.325  66.758  1.00  0.00    -0.182 C  
HETATM    5  O   UNL     1     -11.207   8.497  69.906  1.00  0.00    -0.172 OA 
HETATM    6  C   UNL     1     -10.585   8.080  68.930  1.00  0.00    -0.140 C  
HETATM    7  N   UNL     1      -9.562   6.991  66.580  1.00  0.00    -0.283 N  
HETATM    8  O   UNL     1      -8.867   8.976  65.811  1.00  0.00    -0.156 OA 
HETATM    9  H   UNL     1     -11.328   6.190  69.155  1.00  0.00     0.000 HD 
HETATM   10  C   UNL     1     -10.347   6.216  67.375  1.00  0.00    -0.211 C  
HETATM   11  H   UNL     1      -9.124   6.539  65.778  1.00  0.00     0.000 HD 
HETATM   12  O   UNL     1     -10.681   5.085  67.046  1.00  0.00    -0.158 OA 
HETATM   13  N   UNL     1     -10.789   6.786  68.527  1.00  0.00    -0.233 N  
BRANCH   3  14
HETATM   14  C   UNL     1      -9.891  10.398  68.082  1.00  0.00    -0.168 A  
HETATM   15  C   UNL     1      -9.270  12.762  68.212  1.00  0.00    -0.186 A  
HETATM   16  C   UNL     1     -11.533  12.174  67.667  1.00  0.00    -0.399 A  
HETATM   17  C   UNL     1     -11.205  10.820  67.783  1.00  0.00    -0.385 A  
HETATM   18  C   UNL     1      -8.941  11.405  68.330  1.00  0.00    -0.175 A  
HETATM   19  C   UNL     1     -10.563  13.146  67.865  1.00  0.00    -0.243 A  
ENDBRANCH   3  14
ENDBRANCH   2   3
TORSDOF 2
ENDMDL
MODEL      153
REMARK 921   NORMALIZED FREE ENERGY PREDICTED BY IDOCK:   -3.07 KCAL/MOL
REMARK 922        TOTAL FREE ENERGY PREDICTED BY IDOCK:   -3.47 KCAL/MOL
REMARK 923 INTER-LIGAND FREE ENERGY PREDICTED BY IDOCK:   -3.41 KCAL/MOL
REMARK 924 INTRA-LIGAND FREE ENERGY PREDICTED BY IDOCK:   -0.06 KCAL/MOL
REMARK 927      BINDING AFFINITY PREDICTED BY RF-SCORE:    0.00 PKD
ROOT
HETATM    1  C   UNL     1     -11.087   6.142  67.671  1.00  0.00    -0.311 C  
HETATM    2  C   UNL     1     -10.544   7.447  67.096  1.00  0.00    -0.413 C  
ENDROOT
BRANCH   2   3
HETATM    3  C   UNL     1      -9.684   8.370  68.029  1.00  0.00    -0.184 C  
HETATM    4  C   UNL     1     -10.117   8.119  69.481  1.00  0.00    -0.193 C  
HETATM    5  O   UNL     1      -7.511   8.351  66.891  1.00  0.00    -0.085 OA 
HETATM    6  C   UNL     1      -8.220   7.947  67.812  1.00  0.00    -0.129 C  
HETATM    7  N   UNL     1      -9.480   7.108  70.150  1.00  0.00    -0.162 N  
HETATM    8  O   UNL     1     -11.030   8.720  70.046  1.00  0.00    -0.245 OA 
HETATM    9  H   UNL     1      -6.832   6.566  68.393  1.00  0.00     0.000 HD 
HETATM   10  C   UNL     1      -8.266   6.583  69.834  1.00  0.00    -0.126 C  
HETATM   11  H   UNL     1      -9.960   6.713  70.958  1.00  0.00     0.000 HD 
HETATM   12  O   UNL     1      -7.678   5.817  70.586  1.00  0.00    -0.088 OA 
HETATM   13  N   UNL     1      -7.713   7.002  68.664  1.00  0.00    -0.117 N  
BRANCH   3  14
HETATM   14  C   UNL     1      -9.912   9.870  67.667  1.00  0.00    -0.212 A  
HETATM   15  C   UNL     1     -10.961  11.596  66.287  1.00  0.00    -0.338 A  
HETATM   16  C   UNL     1      -9.514  12.255  68.087  1.00  0.00    -0.213 A  
HETATM   17  C   UNL     1      -9.282  10.908  68.386  1.00  0.00    -0.168 A  
HETATM   18  C   UNL     1     -10.728  10.247  66.587  1.00  0.00    -0.183 A  
HETATM   19  C   UNL     1     -10.366  12.600  67.047  1.00  0.00    -0.241 A  
ENDBRANCH   3  14
ENDBRANCH   2   3
TORSDOF 2
ENDMDL
MODEL      154
REMARK 921   NORMALIZED FREE ENERGY PREDICTED BY IDOCK:   -3.04 KCAL/MOL
REMARK 922        TOTAL FREE ENERGY PREDICTED BY IDOCK:   -3.44 KCAL/MOL
REMARK 923 INTER-LIGAND FREE ENERGY PREDICTED BY IDOCK:   -3.31 KCAL/MOL
REMARK 924 INTRA-LIGAND FREE ENERGY PREDICTED BY IDOCK:   -0.13 KCAL/MOL
REMARK 927      BINDING AFFINITY PREDICTED BY RF-SCORE:    0.00 PKD
ROOT
HETATM    1  C   UNL     1      -9.246   5.478  65.915  1.00  0.00    -0.158 C  
HETATM    2  C   UNL     1      -8.505   6.501  66.771  1.00  0.00    -0.113 C  
ENDROOT
BRANCH   2   3
HETATM    3  C   UNL     1      -9.322   7.307  67.840  1.00  0.00    -0.131 C  
HETATM    4  C   UNL     1     -10.549   6.471  68.236  1.00  0.00    -0.249 C  
HETATM    5  O   UNL     1      -7.537   8.391  69.126  1.00  0.00    -0.084 OA 
HETATM    6  C   UNL     1      -8.379   7.498  69.041  1.00  0.00    -0.129 C  
HETATM    7  N   UNL     1     -10.382   5.576  69.260  1.00  0.00    -0.250 N  
HETATM    8  O   UNL     1     -11.632   6.511  67.655  1.00  0.00     0.035 OA 
HETATM    9  H   UNL     1      -7.678   6.559  70.714  1.00  0.00     0.000 HD 
HETATM   10  C   UNL     1      -9.413   5.625  70.212  1.00  0.00    -0.161 C  
HETATM   11  H   UNL     1     -11.046   4.804  69.313  1.00  0.00     0.000 HD 
HETATM   12  O   UNL     1      -9.442   4.903  71.200  1.00  0.00    -0.143 OA 
HETATM   13  N   UNL     1      -8.440   6.558  70.036  1.00  0.00    -0.134 N  
BRANCH   3  14
HETATM   14  C   UNL     1      -9.790   8.673  67.251  1.00  0.00    -0.256 A  
HETATM   15  C   UNL     1      -9.757  10.351  65.469  1.00  0.00    -0.307 A  
HETATM   16  C   UNL     1     -11.137  10.719  67.400  1.00  0.00    -0.363 A  
HETATM   17  C   UNL     1     -10.688   9.511  67.945  1.00  0.00    -0.285 A  
HETATM   18  C   UNL     1      -9.308   9.141  66.016  1.00  0.00    -0.300 A  
HETATM   19  C   UNL     1     -10.683  11.132  66.155  1.00  0.00    -0.285 A  
ENDBRANCH   3  14
ENDBRANCH   2   3
TORSDOF 2
ENDMDL
MODEL      155
REMARK 921   NORMALIZED FREE ENERGY PREDICTED BY IDOCK:   -3.04 KCAL/MOL
REMARK 922        TOTAL FREE ENERGY PREDICTED BY IDOCK:   -3.44 KCAL/MOL
REMARK 923 INTER-LIGAND FREE ENERGY PREDICTED BY IDOCK:   -3.65 KCAL/MOL
REMARK 924 INTRA-LIGAND FREE ENERGY PREDICTED BY IDOCK:    0.21 KCAL/MOL
REMARK 927      BINDING AFFINITY PREDICTED BY RF-SCORE:    0.00 PKD
ROOT
HETATM    1  C   UNL     1      -7.846   7.178  71.988  1.00  0.00    -0.091 C  
HETATM    2  C   UNL     1      -9.214   7.377  71.340  1.00  0.00    -0.148 C  
ENDROOT
BRANCH   2   3
HETATM    3  C   UNL     1      -9.724   6.289  70.332  1.00  0.00    -0.189 C  
HETATM    4  C   UNL     1     -11.088   6.740  69.789  1.00  0.00    -0.316 C  
HETATM    5  O   UNL     1      -7.635   5.578  69.259  1.00  0.00    -0.082 OA 
HETATM    6  C   UNL     1      -8.677   6.230  69.205  1.00  0.00    -0.123 C  
HETATM    7  N   UNL     1     -11.076   7.544  68.680  1.00  0.00    -0.424 N  
HETATM    8  O   UNL     1     -12.166   6.480  70.320  1.00  0.00    -0.278 OA 
HETATM    9  H   UNL     1      -8.113   7.150  67.470  1.00  0.00     0.000 HD 
HETATM   10  C   UNL     1     -10.058   7.653  67.784  1.00  0.00    -0.186 C  
HETATM   11  H   UNL     1     -11.906   8.111  68.510  1.00  0.00     0.000 HD 
HETATM   12  O   UNL     1     -10.195   8.243  66.721  1.00  0.00    -0.279 OA 
HETATM   13  N   UNL     1      -8.899   7.021  68.108  1.00  0.00    -0.129 N  
BRANCH   3  14
HETATM   14  C   UNL     1      -9.877   4.913  71.049  1.00  0.00    -0.266 A  
HETATM   15  C   UNL     1      -9.757   2.468  71.025  1.00  0.00    -0.155 A  
HETATM   16  C   UNL     1     -10.378   3.591  73.055  1.00  0.00    -0.245 A  
HETATM   17  C   UNL     1     -10.276   4.822  72.400  1.00  0.00    -0.252 A  
HETATM   18  C   UNL     1      -9.656   3.702  70.369  1.00  0.00    -0.254 A  
HETATM   19  C   UNL     1     -10.104   2.414  72.373  1.00  0.00    -0.230 A  
ENDBRANCH   3  14
ENDBRANCH   2   3
TORSDOF 2
ENDMDL
MODEL      156
REMARK 921   NORMALIZED FREE ENERGY PREDICTED BY IDOCK:   -3.02 KCAL/MOL
REMARK 922        TOTAL FREE ENERGY PREDICTED BY IDOCK:   -3.42 KCAL/MOL
REMARK 923 INTER-LIGAND FREE ENERGY PREDICTED BY IDOCK:   -4.42 KCAL/MOL
REMARK 924 INTRA-LIGAND FREE ENERGY PREDICTED BY IDOCK:    1.00 KCAL/MOL
REMARK 927      BINDING AFFINITY PREDICTED BY RF-SCORE:    0.00 PKD
ROOT
HETATM    1  C   UNL     1     -11.035  14.308  64.974  1.00  0.00    -0.394 C  
HETATM    2  C   UNL     1     -10.220  15.579  65.199  1.00  0.00    -0.334 C  
ENDROOT
BRANCH   2   3
HETATM    3  C   UNL     1      -9.592  15.818  66.616  1.00  0.00    -0.266 C  
HETATM    4  C   UNL     1      -8.475  16.863  66.475  1.00  0.00    -0.271 C  
HETATM    5  O   UNL     1     -11.555  15.637  68.075  1.00  0.00    -0.332 OA 
HETATM    6  C   UNL     1     -10.732  16.350  67.503  1.00  0.00    -0.298 C  
HETATM    7  N   UNL     1      -8.842  18.178  66.585  1.00  0.00    -0.269 N  
HETATM    8  O   UNL     1      -7.304  16.595  66.210  1.00  0.00    -0.239 OA 
HETATM    9  H   UNL     1     -11.742  18.058  67.989  1.00  0.00     0.000 HD 
HETATM   10  C   UNL     1      -9.966  18.645  67.192  1.00  0.00    -0.331 C  
HETATM   11  H   UNL     1      -8.215  18.870  66.174  1.00  0.00     0.000 HD 
HETATM   12  O   UNL     1     -10.130  19.837  67.416  1.00  0.00    -0.368 OA 
HETATM   13  N   UNL     1     -10.870  17.710  67.588  1.00  0.00    -0.304 N  
BRANCH   3  14
HETATM   14  C   UNL     1      -8.997  14.490  67.177  1.00  0.00    -0.244 A  
HETATM   15  C   UNL     1      -7.548  13.296  68.747  1.00  0.00    -0.043 A  
HETATM   16  C   UNL     1      -8.847  12.040  67.166  1.00  0.00    -0.188 A  
HETATM   17  C   UNL     1      -9.352  13.234  66.640  1.00  0.00    -0.247 A  
HETATM   18  C   UNL     1      -8.053  14.492  68.220  1.00  0.00    -0.140 A  
HETATM   19  C   UNL     1      -7.957  12.070  68.230  1.00  0.00    -0.149 A  
ENDBRANCH   3  14
ENDBRANCH   2   3
TORSDOF 2
ENDMDL
MODEL      157
REMARK 921   NORMALIZED FREE ENERGY PREDICTED BY IDOCK:   -3.02 KCAL/MOL
REMARK 922        TOTAL FREE ENERGY PREDICTED BY IDOCK:   -3.42 KCAL/MOL
REMARK 923 INTER-LIGAND FREE ENERGY PREDICTED BY IDOCK:   -3.38 KCAL/MOL
REMARK 924 INTRA-LIGAND FREE ENERGY PREDICTED BY IDOCK:   -0.04 KCAL/MOL
REMARK 927      BINDING AFFINITY PREDICTED BY RF-SCORE:    0.00 PKD
ROOT
HETATM    1  C   UNL     1     -12.024  11.276  68.349  1.00  0.00    -0.255 C  
HETATM    2  C   UNL     1     -10.716  11.261  69.135  1.00  0.00    -0.247 C  
ENDROOT
BRANCH   2   3
HETATM    3  C   UNL     1      -9.704  10.093  68.871  1.00  0.00    -0.189 C  
HETATM    4  C   UNL     1     -10.233   9.256  67.697  1.00  0.00    -0.230 C  
HETATM    5  O   UNL     1      -7.552  11.176  69.333  1.00  0.00    -0.107 OA 
HETATM    6  C   UNL     1      -8.366  10.762  68.509  1.00  0.00    -0.138 C  
HETATM    7  N   UNL     1      -9.865   9.654  66.439  1.00  0.00    -0.225 N  
HETATM    8  O   UNL     1     -11.006   8.306  67.815  1.00  0.00    -0.057 OA 
HETATM    9  H   UNL     1      -7.347  11.602  66.951  1.00  0.00     0.000 HD 
HETATM   10  C   UNL     1      -8.790  10.428  66.130  1.00  0.00    -0.158 C  
HETATM   11  H   UNL     1     -10.449   9.342  65.665  1.00  0.00     0.000 HD 
HETATM   12  O   UNL     1      -8.418  10.583  64.975  1.00  0.00    -0.173 OA 
HETATM   13  N   UNL     1      -8.116  10.972  67.178  1.00  0.00    -0.129 N  
BRANCH   3  14
HETATM   14  C   UNL     1      -9.573   9.192  70.138  1.00  0.00    -0.235 A  
HETATM   15  C   UNL     1      -8.332   7.566  71.481  1.00  0.00    -0.111 A  
HETATM   16  C   UNL     1     -10.443   8.381  72.284  1.00  0.00    -0.407 A  
HETATM   17  C   UNL     1     -10.576   9.161  71.131  1.00  0.00    -0.379 A  
HETATM   18  C   UNL     1      -8.466   8.346  70.325  1.00  0.00    -0.126 A  
HETATM   19  C   UNL     1      -9.314   7.595  72.468  1.00  0.00    -0.215 A  
ENDBRANCH   3  14
ENDBRANCH   2   3
TORSDOF 2
ENDMDL
MODEL      158
REMARK 921   NORMALIZED FREE ENERGY PREDICTED BY IDOCK:   -3.01 KCAL/MOL
REMARK 922        TOTAL FREE ENERGY PREDICTED BY IDOCK:   -3.40 KCAL/MOL
REMARK 923 INTER-LIGAND FREE ENERGY PREDICTED BY IDOCK:   -3.25 KCAL/MOL
REMARK 924 INTRA-LIGAND FREE ENERGY PREDICTED BY IDOCK:   -0.16 KCAL/MOL
REMARK 927      BINDING AFFINITY PREDICTED BY RF-SCORE:    0.00 PKD
ROOT
HETATM    1  C   UNL     1      -6.582   6.854  70.352  1.00  0.00    -0.052 C  
HETATM    2  C   UNL     1      -7.871   7.206  69.613  1.00  0.00    -0.118 C  
ENDROOT
BRANCH   2   3
HETATM    3  C   UNL     1      -8.716   8.422  70.131  1.00  0.00    -0.136 C  
HETATM    4  C   UNL     1      -7.877   9.181  71.171  1.00  0.00    -0.076 C  
HETATM    5  O   UNL     1      -9.907   9.109  68.101  1.00  0.00    -0.154 OA 
HETATM    6  C   UNL     1      -8.993   9.303  68.901  1.00  0.00    -0.136 C  
HETATM    7  N   UNL     1      -7.044  10.159  70.697  1.00  0.00    -0.069 N  
HETATM    8  O   UNL     1      -7.863   8.921  72.373  1.00  0.00    -0.368 OA 
HETATM    9  H   UNL     1      -8.163  10.758  67.732  1.00  0.00     0.000 HD 
HETATM   10  C   UNL     1      -7.165  10.801  69.504  1.00  0.00    -0.132 C  
HETATM   11  H   UNL     1      -6.262  10.430  71.292  1.00  0.00     0.000 HD 
HETATM   12  O   UNL     1      -6.498  11.791  69.234  1.00  0.00    -0.088 OA 
HETATM   13  N   UNL     1      -8.108  10.319  68.652  1.00  0.00    -0.107 N  
BRANCH   3  14
HETATM   14  C   UNL     1     -10.037   7.921  70.792  1.00  0.00    -0.201 A  
HETATM   15  C   UNL     1     -12.240   8.367  71.762  1.00  0.00    -0.377 A  
HETATM   16  C   UNL     1     -11.470   6.098  71.595  1.00  0.00    -0.331 A  
HETATM   17  C   UNL     1     -10.271   6.551  71.036  1.00  0.00    -0.218 A  
HETATM   18  C   UNL     1     -11.038   8.820  71.203  1.00  0.00    -0.340 A  
HETATM   19  C   UNL     1     -12.462   7.004  71.943  1.00  0.00    -0.346 A  
ENDBRANCH   3  14
ENDBRANCH   2   3
TORSDOF 2
ENDMDL
MODEL      159
REMARK 921   NORMALIZED FREE ENERGY PREDICTED BY IDOCK:   -2.99 KCAL/MOL
REMARK 922        TOTAL FREE ENERGY PREDICTED BY IDOCK:   -3.39 KCAL/MOL
REMARK 923 INTER-LIGAND FREE ENERGY PREDICTED BY IDOCK:   -3.23 KCAL/MOL
REMARK 924 INTRA-LIGAND FREE ENERGY PREDICTED BY IDOCK:   -0.16 KCAL/MOL
REMARK 927      BINDING AFFINITY PREDICTED BY RF-SCORE:    0.00 PKD
ROOT
HETATM    1  C   UNL     1     -12.247   7.042  70.591  1.00  0.00    -0.289 C  
HETATM    2  C   UNL     1     -11.213   6.341  69.715  1.00  0.00    -0.499 C  
ENDROOT
BRANCH   2   3
HETATM    3  C   UNL     1      -9.724   6.829  69.786  1.00  0.00    -0.162 C  
HETATM    4  C   UNL     1      -9.558   7.676  71.057  1.00  0.00    -0.163 C  
HETATM    5  O   UNL     1      -8.516   4.897  68.879  1.00  0.00    -0.083 OA 
HETATM    6  C   UNL     1      -8.862   5.557  69.858  1.00  0.00    -0.127 C  
HETATM    7  N   UNL     1      -9.234   7.007  72.207  1.00  0.00    -0.134 N  
HETATM    8  O   UNL     1      -9.760   8.888  71.113  1.00  0.00    -0.223 OA 
HETATM    9  H   UNL     1      -8.154   4.153  71.163  1.00  0.00     0.000 HD 
HETATM   10  C   UNL     1      -8.656   5.778  72.279  1.00  0.00    -0.125 C  
HETATM   11  H   UNL     1      -9.444   7.473  73.089  1.00  0.00     0.000 HD 
HETATM   12  O   UNL     1      -8.223   5.329  73.332  1.00  0.00    -0.110 OA 
HETATM   13  N   UNL     1      -8.532   5.100  71.107  1.00  0.00    -0.120 N  
BRANCH   3  14
HETATM   14  C   UNL     1      -9.376   7.692  68.534  1.00  0.00    -0.147 A  
HETATM   15  C   UNL     1      -7.744   8.872  67.143  1.00  0.00    -0.095 A  
HETATM   16  C   UNL     1     -10.050   8.842  66.474  1.00  0.00    -0.356 A  
HETATM   17  C   UNL     1     -10.367   8.099  67.616  1.00  0.00    -0.313 A  
HETATM   18  C   UNL     1      -8.062   8.129  68.288  1.00  0.00    -0.128 A  
HETATM   19  C   UNL     1      -8.736   9.216  66.229  1.00  0.00    -0.159 A  
ENDBRANCH   3  14
ENDBRANCH   2   3
TORSDOF 2
ENDMDL
MODEL      160
REMARK 921   NORMALIZED FREE ENERGY PREDICTED BY IDOCK:   -2.99 KCAL/MOL
REMARK 922        TOTAL FREE ENERGY PREDICTED BY IDOCK:   -3.39 KCAL/MOL
REMARK 923 INTER-LIGAND FREE ENERGY PREDICTED BY IDOCK:   -3.37 KCAL/MOL
REMARK 924 INTRA-LIGAND FREE ENERGY PREDICTED BY IDOCK:   -0.01 KCAL/MOL
REMARK 927      BINDING AFFINITY PREDICTED BY RF-SCORE:    0.00 PKD
ROOT
HETATM    1  C   UNL     1     -11.100   6.424  68.338  1.00  0.00    -0.374 C  
HETATM    2  C   UNL     1     -10.458   7.216  67.202  1.00  0.00    -0.389 C  
ENDROOT
BRANCH   2   3
HETATM    3  C   UNL     1      -9.502   8.404  67.572  1.00  0.00    -0.182 C  
HETATM    4  C   UNL     1      -9.533   9.420  66.420  1.00  0.00    -0.201 C  
HETATM    5  O   UNL     1      -9.846   8.592  69.993  1.00  0.00    -0.175 OA 
HETATM    6  C   UNL     1     -10.070   9.021  68.862  1.00  0.00    -0.196 C  
HETATM    7  N   UNL     1     -10.503  10.385  66.473  1.00  0.00    -0.223 N  
HETATM    8  O   UNL     1      -8.791   9.378  65.439  1.00  0.00    -0.159 OA 
HETATM    9  H   UNL     1     -11.481  10.331  69.545  1.00  0.00     0.000 HD 
HETATM   10  C   UNL     1     -11.164  10.792  67.590  1.00  0.00    -0.299 C  
HETATM   11  H   UNL     1     -10.753  10.839  65.595  1.00  0.00     0.000 HD 
HETATM   12  O   UNL     1     -11.878  11.786  67.591  1.00  0.00    -0.558 OA 
HETATM   13  N   UNL     1     -10.942  10.068  68.719  1.00  0.00    -0.220 N  
BRANCH   3  14
HETATM   14  C   UNL     1      -8.045   7.886  67.773  1.00  0.00    -0.128 A  
HETATM   15  C   UNL     1      -6.400   6.074  67.734  1.00  0.00    -0.037 A  
HETATM   16  C   UNL     1      -5.688   8.291  68.324  1.00  0.00    -0.034 A  
HETATM   17  C   UNL     1      -7.002   8.746  68.179  1.00  0.00    -0.074 A  
HETATM   18  C   UNL     1      -7.717   6.531  67.590  1.00  0.00    -0.106 A  
HETATM   19  C   UNL     1      -5.383   6.958  68.087  1.00  0.00    -0.015 A  
ENDBRANCH   3  14
ENDBRANCH   2   3
TORSDOF 2
ENDMDL
MODEL      161
REMARK 921   NORMALIZED FREE ENERGY PREDICTED BY IDOCK:   -2.97 KCAL/MOL
REMARK 922        TOTAL FREE ENERGY PREDICTED BY IDOCK:   -3.37 KCAL/MOL
REMARK 923 INTER-LIGAND FREE ENERGY PREDICTED BY IDOCK:   -3.32 KCAL/MOL
REMARK 924 INTRA-LIGAND FREE ENERGY PREDICTED BY IDOCK:   -0.04 KCAL/MOL
REMARK 927      BINDING AFFINITY PREDICTED BY RF-SCORE:    0.00 PKD
ROOT
HETATM    1  C   UNL     1      -6.645   6.154  66.910  1.00  0.00    -0.059 C  
HETATM    2  C   UNL     1      -8.025   6.719  67.240  1.00  0.00    -0.114 C  
ENDROOT
BRANCH   2   3
HETATM    3  C   UNL     1      -9.131   5.730  67.748  1.00  0.00    -0.106 C  
HETATM    4  C   UNL     1     -10.394   5.947  66.901  1.00  0.00    -0.247 C  
HETATM    5  O   UNL     1      -7.807   3.746  68.321  1.00  0.00    -0.071 OA 
HETATM    6  C   UNL     1      -8.565   4.314  67.537  1.00  0.00    -0.104 C  
HETATM    7  N   UNL     1     -10.493   5.222  65.743  1.00  0.00    -0.468 N  
HETATM    8  O   UNL     1     -11.273   6.766  67.165  1.00  0.00    -0.379 OA 
HETATM    9  H   UNL     1      -8.331   2.860  66.122  1.00  0.00     0.000 HD 
HETATM   10  C   UNL     1      -9.829   4.068  65.465  1.00  0.00    -0.186 C  
HETATM   11  H   UNL     1     -11.122   5.579  65.025  1.00  0.00     0.000 HD 
HETATM   12  O   UNL     1     -10.111   3.379  64.493  1.00  0.00    -0.168 OA 
HETATM   13  N   UNL     1      -8.874   3.691  66.356  1.00  0.00    -0.121 N  
BRANCH   3  14
HETATM   14  C   UNL     1      -9.455   6.003  69.249  1.00  0.00    -0.152 A  
HETATM   15  C   UNL     1      -9.108   7.279  71.309  1.00  0.00    -0.146 A  
HETATM   16  C   UNL     1     -10.723   5.501  71.289  1.00  0.00    -0.288 A  
HETATM   17  C   UNL     1     -10.404   5.233  69.954  1.00  0.00    -0.374 A  
HETATM   18  C   UNL     1      -8.789   7.009  69.971  1.00  0.00    -0.142 A  
HETATM   19  C   UNL     1     -10.086   6.534  71.963  1.00  0.00    -0.201 A  
ENDBRANCH   3  14
ENDBRANCH   2   3
TORSDOF 2
ENDMDL
MODEL      162
REMARK 921   NORMALIZED FREE ENERGY PREDICTED BY IDOCK:   -2.96 KCAL/MOL
REMARK 922        TOTAL FREE ENERGY PREDICTED BY IDOCK:   -3.35 KCAL/MOL
REMARK 923 INTER-LIGAND FREE ENERGY PREDICTED BY IDOCK:   -3.99 KCAL/MOL
REMARK 924 INTRA-LIGAND FREE ENERGY PREDICTED BY IDOCK:    0.63 KCAL/MOL
REMARK 927      BINDING AFFINITY PREDICTED BY RF-SCORE:    0.00 PKD
ROOT
HETATM    1  C   UNL     1     -10.629   9.897  68.101  1.00  0.00    -0.270 C  
HETATM    2  C   UNL     1     -11.081  11.132  67.326  1.00  0.00    -0.366 C  
ENDROOT
BRANCH   2   3
HETATM    3  C   UNL     1      -9.987  12.008  66.620  1.00  0.00    -0.219 C  
HETATM    4  C   UNL     1      -8.733  11.143  66.426  1.00  0.00    -0.177 C  
HETATM    5  O   UNL     1     -11.342  13.378  65.102  1.00  0.00    -0.293 OA 
HETATM    6  C   UNL     1     -10.584  12.422  65.264  1.00  0.00    -0.290 C  
HETATM    7  N   UNL     1      -8.665  10.404  65.275  1.00  0.00    -0.172 N  
HETATM    8  O   UNL     1      -7.834  11.029  67.257  1.00  0.00    -0.114 OA 
HETATM    9  H   UNL     1     -10.868  11.762  63.351  1.00  0.00     0.000 HD 
HETATM   10  C   UNL     1      -9.356  10.646  64.129  1.00  0.00    -0.258 C  
HETATM   11  H   UNL     1      -8.039   9.599  65.277  1.00  0.00     0.000 HD 
HETATM   12  O   UNL     1      -9.102  10.059  63.085  1.00  0.00    -0.237 OA 
HETATM   13  N   UNL     1     -10.305  11.618  64.190  1.00  0.00    -0.305 N  
BRANCH   3  14
HETATM   14  C   UNL     1      -9.636  13.248  67.499  1.00  0.00    -0.218 A  
HETATM   15  C   UNL     1     -10.322  15.137  68.895  1.00  0.00    -0.243 A  
HETATM   16  C   UNL     1      -7.981  14.731  68.540  1.00  0.00    -0.136 A  
HETATM   17  C   UNL     1      -8.299  13.641  67.723  1.00  0.00    -0.181 A  
HETATM   18  C   UNL     1     -10.640  14.046  68.076  1.00  0.00    -0.250 A  
HETATM   19  C   UNL     1      -8.992  15.470  69.139  1.00  0.00    -0.256 A  
ENDBRANCH   3  14
ENDBRANCH   2   3
TORSDOF 2
ENDMDL
MODEL      163
REMARK 921   NORMALIZED FREE ENERGY PREDICTED BY IDOCK:   -2.94 KCAL/MOL
REMARK 922        TOTAL FREE ENERGY PREDICTED BY IDOCK:   -3.33 KCAL/MOL
REMARK 923 INTER-LIGAND FREE ENERGY PREDICTED BY IDOCK:   -3.17 KCAL/MOL
REMARK 924 INTRA-LIGAND FREE ENERGY PREDICTED BY IDOCK:   -0.16 KCAL/MOL
REMARK 927      BINDING AFFINITY PREDICTED BY RF-SCORE:    0.00 PKD
ROOT
HETATM    1  C   UNL     1      -6.526   7.184  72.559  1.00  0.00    -0.052 C  
HETATM    2  C   UNL     1      -7.823   6.914  73.318  1.00  0.00    -0.102 C  
ENDROOT
BRANCH   2   3
HETATM    3  C   UNL     1      -8.921   6.035  72.623  1.00  0.00    -0.127 C  
HETATM    4  C   UNL     1      -8.285   5.347  71.406  1.00  0.00    -0.117 C  
HETATM    5  O   UNL     1     -10.197   5.210  74.549  1.00  0.00    -0.234 OA 
HETATM    6  C   UNL     1      -9.361   4.997  73.671  1.00  0.00    -0.129 C  
HETATM    7  N   UNL     1      -7.676   4.141  71.626  1.00  0.00    -0.068 N  
HETATM    8  O   UNL     1      -8.236   5.839  70.279  1.00  0.00    -0.106 OA 
HETATM    9  H   UNL     1      -8.846   3.193  74.477  1.00  0.00     0.000 HD 
HETATM   10  C   UNL     1      -7.913   3.307  72.674  1.00  0.00    -0.068 C  
HETATM   11  H   UNL     1      -6.982   3.840  70.942  1.00  0.00     0.000 HD 
HETATM   12  O   UNL     1      -7.472   2.165  72.703  1.00  0.00    -0.037 OA 
HETATM   13  N   UNL     1      -8.714   3.790  73.661  1.00  0.00    -0.089 N  
BRANCH   3  14
HETATM   14  C   UNL     1     -10.114   6.925  72.157  1.00  0.00    -0.198 A  
HETATM   15  C   UNL     1     -12.328   7.165  71.142  1.00  0.00    -0.404 A  
HETATM   16  C   UNL     1     -11.181   9.123  71.930  1.00  0.00    -0.400 A  
HETATM   17  C   UNL     1     -10.097   8.328  72.315  1.00  0.00    -0.370 A  
HETATM   18  C   UNL     1     -11.241   6.369  71.527  1.00  0.00    -0.334 A  
HETATM   19  C   UNL     1     -12.304   8.541  71.358  1.00  0.00    -0.332 A  
ENDBRANCH   3  14
ENDBRANCH   2   3
TORSDOF 2
ENDMDL
MODEL      164
REMARK 921   NORMALIZED FREE ENERGY PREDICTED BY IDOCK:   -2.93 KCAL/MOL
REMARK 922        TOTAL FREE ENERGY PREDICTED BY IDOCK:   -3.32 KCAL/MOL
REMARK 923 INTER-LIGAND FREE ENERGY PREDICTED BY IDOCK:   -3.47 KCAL/MOL
REMARK 924 INTRA-LIGAND FREE ENERGY PREDICTED BY IDOCK:    0.15 KCAL/MOL
REMARK 927      BINDING AFFINITY PREDICTED BY RF-SCORE:    0.00 PKD
ROOT
HETATM    1  C   UNL     1      -7.151   6.163  73.049  1.00  0.00    -0.080 C  
HETATM    2  C   UNL     1      -8.665   6.108  73.234  1.00  0.00    -0.123 C  
ENDROOT
BRANCH   2   3
HETATM    3  C   UNL     1      -9.569   6.047  71.953  1.00  0.00    -0.166 C  
HETATM    4  C   UNL     1     -11.026   6.276  72.383  1.00  0.00    -0.254 C  
HETATM    5  O   UNL     1      -8.125   7.094  70.269  1.00  0.00    -0.114 OA 
HETATM    6  C   UNL     1      -9.083   7.184  71.036  1.00  0.00    -0.151 C  
HETATM    7  N   UNL     1     -11.456   7.575  72.440  1.00  0.00    -0.300 N  
HETATM    8  O   UNL     1     -11.793   5.381  72.735  1.00  0.00    -0.268 OA 
HETATM    9  H   UNL     1      -9.267   9.192  70.712  1.00  0.00     0.000 HD 
HETATM   10  C   UNL     1     -10.897   8.630  71.789  1.00  0.00    -0.325 C  
HETATM   11  H   UNL     1     -12.270   7.768  73.023  1.00  0.00     0.000 HD 
HETATM   12  O   UNL     1     -11.448   9.722  71.736  1.00  0.00    -0.322 OA 
HETATM   13  N   UNL     1      -9.721   8.391  71.150  1.00  0.00    -0.175 N  
BRANCH   3  14
HETATM   14  C   UNL     1      -9.440   4.655  71.263  1.00  0.00    -0.221 A  
HETATM   15  C   UNL     1      -9.041   2.243  71.383  1.00  0.00    -0.161 A  
HETATM   16  C   UNL     1      -9.527   3.246  69.256  1.00  0.00    -0.199 A  
HETATM   17  C   UNL     1      -9.606   4.500  69.870  1.00  0.00    -0.269 A  
HETATM   18  C   UNL     1      -9.119   3.499  71.998  1.00  0.00    -0.157 A  
HETATM   19  C   UNL     1      -9.260   2.114  70.014  1.00  0.00    -0.183 A  
ENDBRANCH   3  14
ENDBRANCH   2   3
TORSDOF 2
ENDMDL
MODEL      165
REMARK 921   NORMALIZED FREE ENERGY PREDICTED BY IDOCK:   -2.91 KCAL/MOL
REMARK 922        TOTAL FREE ENERGY PREDICTED BY IDOCK:   -3.30 KCAL/MOL
REMARK 923 INTER-LIGAND FREE ENERGY PREDICTED BY IDOCK:   -3.25 KCAL/MOL
REMARK 924 INTRA-LIGAND FREE ENERGY PREDICTED BY IDOCK:   -0.05 KCAL/MOL
REMARK 927      BINDING AFFINITY PREDICTED BY RF-SCORE:    0.00 PKD
ROOT
HETATM    1  C   UNL     1      -7.838   9.854  64.464  1.00  0.00    -0.142 C  
HETATM    2  C   UNL     1      -8.962   9.115  65.186  1.00  0.00    -0.238 C  
ENDROOT
BRANCH   2   3
HETATM    3  C   UNL     1      -9.061   9.253  66.745  1.00  0.00    -0.170 C  
HETATM    4  C   UNL     1      -9.728   7.984  67.297  1.00  0.00    -0.177 C  
HETATM    5  O   UNL     1      -6.977  10.430  67.280  1.00  0.00    -0.083 OA 
HETATM    6  C   UNL     1      -7.614   9.378  67.254  1.00  0.00    -0.091 C  
HETATM    7  N   UNL     1      -8.903   6.933  67.596  1.00  0.00    -0.119 N  
HETATM    8  O   UNL     1     -10.943   7.838  67.423  1.00  0.00    -0.189 OA 
HETATM    9  H   UNL     1      -5.973   8.269  67.752  1.00  0.00     0.000 HD 
HETATM   10  C   UNL     1      -7.568   7.011  67.844  1.00  0.00    -0.111 C  
HETATM   11  H   UNL     1      -9.328   6.007  67.636  1.00  0.00     0.000 HD 
HETATM   12  O   UNL     1      -6.937   6.061  68.288  1.00  0.00    -0.071 OA 
HETATM   13  N   UNL     1      -6.984   8.220  67.626  1.00  0.00    -0.077 N  
BRANCH   3  14
HETATM   14  C   UNL     1      -9.916  10.500  67.126  1.00  0.00    -0.234 A  
HETATM   15  C   UNL     1     -10.718  12.112  68.785  1.00  0.00    -0.252 A  
HETATM   16  C   UNL     1     -11.427  12.331  66.500  1.00  0.00    -0.438 A  
HETATM   17  C   UNL     1     -10.688  11.191  66.167  1.00  0.00    -0.285 A  
HETATM   18  C   UNL     1      -9.980  10.969  68.451  1.00  0.00    -0.194 A  
HETATM   19  C   UNL     1     -11.430  12.801  67.806  1.00  0.00    -0.376 A  
ENDBRANCH   3  14
ENDBRANCH   2   3
TORSDOF 2
ENDMDL
MODEL      166
REMARK 921   NORMALIZED FREE ENERGY PREDICTED BY IDOCK:   -2.87 KCAL/MOL
REMARK 922        TOTAL FREE ENERGY PREDICTED BY IDOCK:   -3.26 KCAL/MOL
REMARK 923 INTER-LIGAND FREE ENERGY PREDICTED BY IDOCK:   -3.22 KCAL/MOL
REMARK 924 INTRA-LIGAND FREE ENERGY PREDICTED BY IDOCK:   -0.04 KCAL/MOL
REMARK 927      BINDING AFFINITY PREDICTED BY RF-SCORE:    0.00 PKD
ROOT
HETATM    1  C   UNL     1      -8.423  11.072  68.300  1.00  0.00    -0.138 C  
HETATM    2  C   UNL     1      -8.456  10.187  69.543  1.00  0.00    -0.179 C  
ENDROOT
BRANCH   2   3
HETATM    3  C   UNL     1      -9.547   9.064  69.629  1.00  0.00    -0.175 C  
HETATM    4  C   UNL     1      -9.832   8.785  71.112  1.00  0.00    -0.244 C  
HETATM    5  O   UNL     1     -10.978   9.606  67.712  1.00  0.00    -0.260 OA 
HETATM    6  C   UNL     1     -10.795   9.630  68.928  1.00  0.00    -0.174 C  
HETATM    7  N   UNL     1     -10.794   9.553  71.712  1.00  0.00    -0.190 N  
HETATM    8  O   UNL     1      -9.213   7.971  71.796  1.00  0.00    -0.141 OA 
HETATM    9  H   UNL     1     -12.423  10.825  69.237  1.00  0.00     0.000 HD 
HETATM   10  C   UNL     1     -11.785  10.232  71.074  1.00  0.00    -0.370 C  
HETATM   11  H   UNL     1     -10.765   9.623  72.729  1.00  0.00     0.000 HD 
HETATM   12  O   UNL     1     -12.717  10.739  71.685  1.00  0.00    -0.411 OA 
HETATM   13  N   UNL     1     -11.716  10.267  69.717  1.00  0.00    -0.222 N  
BRANCH   3  14
HETATM   14  C   UNL     1      -9.040   7.761  68.940  1.00  0.00    -0.141 A  
HETATM   15  C   UNL     1      -7.239   6.436  67.942  1.00  0.00    -0.087 A  
HETATM   16  C   UNL     1      -9.444   5.495  68.087  1.00  0.00    -0.133 A  
HETATM   17  C   UNL     1      -9.906   6.679  68.672  1.00  0.00    -0.138 A  
HETATM   18  C   UNL     1      -7.703   7.623  68.527  1.00  0.00    -0.119 A  
HETATM   19  C   UNL     1      -8.107   5.367  67.737  1.00  0.00    -0.100 A  
ENDBRANCH   3  14
ENDBRANCH   2   3
TORSDOF 2
ENDMDL
MODEL      167
REMARK 921   NORMALIZED FREE ENERGY PREDICTED BY IDOCK:   -2.84 KCAL/MOL
REMARK 922        TOTAL FREE ENERGY PREDICTED BY IDOCK:   -3.22 KCAL/MOL
REMARK 923 INTER-LIGAND FREE ENERGY PREDICTED BY IDOCK:   -3.81 KCAL/MOL
REMARK 924 INTRA-LIGAND FREE ENERGY PREDICTED BY IDOCK:    0.59 KCAL/MOL
REMARK 927      BINDING AFFINITY PREDICTED BY RF-SCORE:    0.00 PKD
ROOT
HETATM    1  C   UNL     1     -11.445  11.248  69.846  1.00  0.00    -0.373 C  
HETATM    2  C   UNL     1     -11.562   9.793  70.290  1.00  0.00    -0.283 C  
ENDROOT
BRANCH   2   3
HETATM    3  C   UNL     1     -10.389   8.812  69.940  1.00  0.00    -0.212 C  
HETATM    4  C   UNL     1      -9.218   9.106  70.890  1.00  0.00    -0.261 C  
HETATM    5  O   UNL     1     -11.604   6.765  69.346  1.00  0.00    -0.199 OA 
HETATM    6  C   UNL     1     -10.938   7.393  70.169  1.00  0.00    -0.255 C  
HETATM    7  N   UNL     1      -9.213   8.442  72.088  1.00  0.00    -0.221 N  
HETATM    8  O   UNL     1      -8.338   9.936  70.669  1.00  0.00    -0.180 OA 
HETATM    9  H   UNL     1     -11.272   6.003  71.628  1.00  0.00     0.000 HD 
HETATM   10  C   UNL     1      -9.873   7.285  72.361  1.00  0.00    -0.155 C  
HETATM   11  H   UNL     1      -8.665   8.852  72.843  1.00  0.00     0.000 HD 
HETATM   12  O   UNL     1      -9.669   6.653  73.389  1.00  0.00    -0.162 OA 
HETATM   13  N   UNL     1     -10.729   6.837  71.404  1.00  0.00    -0.222 N  
BRANCH   3  14
HETATM   14  C   UNL     1      -9.929   9.021  68.464  1.00  0.00    -0.193 A  
HETATM   15  C   UNL     1     -10.074  10.215  66.332  1.00  0.00    -0.300 A  
HETATM   16  C   UNL     1      -8.492   8.423  66.567  1.00  0.00    -0.116 A  
HETATM   17  C   UNL     1      -8.931   8.213  67.878  1.00  0.00    -0.133 A  
HETATM   18  C   UNL     1     -10.514  10.003  67.646  1.00  0.00    -0.297 A  
HETATM   19  C   UNL     1      -9.052   9.434  65.799  1.00  0.00    -0.249 A  
ENDBRANCH   3  14
ENDBRANCH   2   3
TORSDOF 2
ENDMDL
MODEL      168
REMARK 921   NORMALIZED FREE ENERGY PREDICTED BY IDOCK:   -2.83 KCAL/MOL
REMARK 922        TOTAL FREE ENERGY PREDICTED BY IDOCK:   -3.21 KCAL/MOL
REMARK 923 INTER-LIGAND FREE ENERGY PREDICTED BY IDOCK:   -3.06 KCAL/MOL
REMARK 924 INTRA-LIGAND FREE ENERGY PREDICTED BY IDOCK:   -0.15 KCAL/MOL
REMARK 927      BINDING AFFINITY PREDICTED BY RF-SCORE:    0.00 PKD
ROOT
HETATM    1  C   UNL     1     -11.406   6.328  70.014  1.00  0.00    -0.486 C  
HETATM    2  C   UNL     1      -9.899   6.421  69.789  1.00  0.00    -0.189 C  
ENDROOT
BRANCH   2   3
HETATM    3  C   UNL     1      -9.386   6.948  68.404  1.00  0.00    -0.129 C  
HETATM    4  C   UNL     1     -10.572   7.583  67.662  1.00  0.00    -0.233 C  
HETATM    5  O   UNL     1      -7.134   7.740  68.969  1.00  0.00    -0.070 OA 
HETATM    6  C   UNL     1      -8.310   8.002  68.721  1.00  0.00    -0.127 C  
HETATM    7  N   UNL     1     -10.814   8.909  67.905  1.00  0.00    -0.484 N  
HETATM    8  O   UNL     1     -11.342   6.965  66.928  1.00  0.00    -0.269 OA 
HETATM    9  H   UNL     1      -8.070   9.967  69.225  1.00  0.00     0.000 HD 
HETATM   10  C   UNL     1      -9.916   9.808  68.389  1.00  0.00    -0.156 C  
HETATM   11  H   UNL     1     -11.753   9.253  67.705  1.00  0.00     0.000 HD 
HETATM   12  O   UNL     1     -10.148  11.010  68.399  1.00  0.00    -0.170 OA 
HETATM   13  N   UNL     1      -8.724   9.306  68.806  1.00  0.00    -0.130 N  
BRANCH   3  14
HETATM   14  C   UNL     1      -8.809   5.773  67.556  1.00  0.00    -0.106 A  
HETATM   15  C   UNL     1      -7.756   4.932  65.513  1.00  0.00    -0.086 A  
HETATM   16  C   UNL     1      -8.245   3.399  67.296  1.00  0.00    -0.086 A  
HETATM   17  C   UNL     1      -8.795   4.447  68.040  1.00  0.00    -0.125 A  
HETATM   18  C   UNL     1      -8.308   5.982  66.259  1.00  0.00    -0.122 A  
HETATM   19  C   UNL     1      -7.711   3.643  66.038  1.00  0.00    -0.089 A  
ENDBRANCH   3  14
ENDBRANCH   2   3
TORSDOF 2
ENDMDL
MODEL      169
REMARK 921   NORMALIZED FREE ENERGY PREDICTED BY IDOCK:   -2.80 KCAL/MOL
REMARK 922        TOTAL FREE ENERGY PREDICTED BY IDOCK:   -3.18 KCAL/MOL
REMARK 923 INTER-LIGAND FREE ENERGY PREDICTED BY IDOCK:   -3.13 KCAL/MOL
REMARK 924 INTRA-LIGAND FREE ENERGY PREDICTED BY IDOCK:   -0.05 KCAL/MOL
REMARK 927      BINDING AFFINITY PREDICTED BY RF-SCORE:    0.00 PKD
ROOT
HETATM    1  C   UNL     1      -8.455   6.466  65.469  1.00  0.00    -0.141 C  
HETATM    2  C   UNL     1      -7.986   6.974  66.830  1.00  0.00    -0.115 C  
ENDROOT
BRANCH   2   3
HETATM    3  C   UNL     1      -9.072   7.340  67.902  1.00  0.00    -0.132 C  
HETATM    4  C   UNL     1      -8.624   8.622  68.619  1.00  0.00    -0.131 C  
HETATM    5  O   UNL     1     -11.143   6.681  66.764  1.00  0.00    -0.354 OA 
HETATM    6  C   UNL     1     -10.377   7.576  67.121  1.00  0.00    -0.313 C  
HETATM    7  N   UNL     1      -9.002   9.811  68.053  1.00  0.00    -0.119 N  
HETATM    8  O   UNL     1      -7.905   8.643  69.617  1.00  0.00    -0.090 OA 
HETATM    9  H   UNL     1     -11.387   8.989  66.045  1.00  0.00     0.000 HD 
HETATM   10  C   UNL     1     -10.037   9.990  67.190  1.00  0.00    -0.212 C  
HETATM   11  H   UNL     1      -8.457  10.636  68.301  1.00  0.00     0.000 HD 
HETATM   12  O   UNL     1     -10.430  11.106  66.876  1.00  0.00    -0.224 OA 
HETATM   13  N   UNL     1     -10.649   8.863  66.739  1.00  0.00    -0.204 N  
BRANCH   3  14
HETATM   14  C   UNL     1      -9.221   6.186  68.939  1.00  0.00    -0.125 A  
HETATM   15  C   UNL     1      -8.421   4.101  69.942  1.00  0.00    -0.087 A  
HETATM   16  C   UNL     1     -10.410   5.130  70.809  1.00  0.00    -0.294 A  
HETATM   17  C   UNL     1     -10.296   6.145  69.854  1.00  0.00    -0.272 A  
HETATM   18  C   UNL     1      -8.307   5.118  68.984  1.00  0.00    -0.087 A  
HETATM   19  C   UNL     1      -9.465   4.116  70.864  1.00  0.00    -0.232 A  
ENDBRANCH   3  14
ENDBRANCH   2   3
TORSDOF 2
ENDMDL
MODEL      170
REMARK 921   NORMALIZED FREE ENERGY PREDICTED BY IDOCK:   -2.77 KCAL/MOL
REMARK 922        TOTAL FREE ENERGY PREDICTED BY IDOCK:   -3.14 KCAL/MOL
REMARK 923 INTER-LIGAND FREE ENERGY PREDICTED BY IDOCK:   -3.18 KCAL/MOL
REMARK 924 INTRA-LIGAND FREE ENERGY PREDICTED BY IDOCK:    0.04 KCAL/MOL
REMARK 927      BINDING AFFINITY PREDICTED BY RF-SCORE:    0.00 PKD
ROOT
HETATM    1  C   UNL     1      -6.707   8.213  67.173  1.00  0.00    -0.065 C  
HETATM    2  C   UNL     1      -7.778   9.084  66.522  1.00  0.00    -0.096 C  
ENDROOT
BRANCH   2   3
HETATM    3  C   UNL     1      -9.072   9.412  67.346  1.00  0.00    -0.141 C  
HETATM    4  C   UNL     1      -9.966   8.163  67.352  1.00  0.00    -0.209 C  
HETATM    5  O   UNL     1      -8.186  10.857  69.119  1.00  0.00    -0.146 OA 
HETATM    6  C   UNL     1      -8.595   9.751  68.770  1.00  0.00    -0.127 C  
HETATM    7  N   UNL     1      -9.746   7.250  68.349  1.00  0.00    -0.146 N  
HETATM    8  O   UNL     1     -10.808   7.910  66.491  1.00  0.00     0.052 OA 
HETATM    9  H   UNL     1      -8.042   8.892  70.539  1.00  0.00     0.000 HD 
HETATM   10  C   UNL     1      -9.132   7.498  69.536  1.00  0.00    -0.143 C  
HETATM   11  H   UNL     1     -10.073   6.299  68.186  1.00  0.00     0.000 HD 
HETATM   12  O   UNL     1      -9.142   6.684  70.450  1.00  0.00    -0.151 OA 
HETATM   13  N   UNL     1      -8.556   8.722  69.674  1.00  0.00    -0.127 N  
BRANCH   3  14
HETATM   14  C   UNL     1      -9.841  10.603  66.697  1.00  0.00    -0.245 A  
HETATM   15  C   UNL     1     -10.199  12.152  64.836  1.00  0.00    -0.309 A  
HETATM   16  C   UNL     1     -11.621  12.291  66.766  1.00  0.00    -0.434 A  
HETATM   17  C   UNL     1     -10.907  11.247  67.362  1.00  0.00    -0.311 A  
HETATM   18  C   UNL     1      -9.482  11.107  65.434  1.00  0.00    -0.253 A  
HETATM   19  C   UNL     1     -11.278  12.734  65.496  1.00  0.00    -0.329 A  
ENDBRANCH   3  14
ENDBRANCH   2   3
TORSDOF 2
ENDMDL
MODEL      171
REMARK 921   NORMALIZED FREE ENERGY PREDICTED BY IDOCK:   -2.76 KCAL/MOL
REMARK 922        TOTAL FREE ENERGY PREDICTED BY IDOCK:   -3.13 KCAL/MOL
REMARK 923 INTER-LIGAND FREE ENERGY PREDICTED BY IDOCK:   -3.23 KCAL/MOL
REMARK 924 INTRA-LIGAND FREE ENERGY PREDICTED BY IDOCK:    0.10 KCAL/MOL
REMARK 927      BINDING AFFINITY PREDICTED BY RF-SCORE:    0.00 PKD
ROOT
HETATM    1  C   UNL     1     -10.297   8.172  66.759  1.00  0.00    -0.361 C  
HETATM    2  C   UNL     1     -10.658   7.746  68.180  1.00  0.00    -0.182 C  
ENDROOT
BRANCH   2   3
HETATM    3  C   UNL     1      -9.701   6.750  68.924  1.00  0.00    -0.137 C  
HETATM    4  C   UNL     1      -9.516   5.511  68.036  1.00  0.00    -0.114 C  
HETATM    5  O   UNL     1      -8.135   8.284  70.024  1.00  0.00    -0.111 OA 
HETATM    6  C   UNL     1      -8.369   7.498  69.107  1.00  0.00    -0.135 C  
HETATM    7  N   UNL     1      -8.503   5.556  67.115  1.00  0.00    -0.111 N  
HETATM    8  O   UNL     1     -10.251   4.525  68.059  1.00  0.00    -0.028 OA 
HETATM    9  H   UNL     1      -6.635   7.977  68.139  1.00  0.00     0.000 HD 
HETATM   10  C   UNL     1      -7.416   6.372  67.165  1.00  0.00    -0.084 C  
HETATM   11  H   UNL     1      -8.571   4.921  66.320  1.00  0.00     0.000 HD 
HETATM   12  O   UNL     1      -6.463   6.223  66.411  1.00  0.00    -0.043 OA 
HETATM   13  N   UNL     1      -7.419   7.324  68.135  1.00  0.00    -0.100 N  
BRANCH   3  14
HETATM   14  C   UNL     1     -10.318   6.325  70.291  1.00  0.00    -0.258 A  
HETATM   15  C   UNL     1     -12.079   6.493  71.983  1.00  0.00    -0.358 A  
HETATM   16  C   UNL     1     -10.263   4.960  72.330  1.00  0.00    -0.255 A  
HETATM   17  C   UNL     1      -9.693   5.369  71.121  1.00  0.00    -0.229 A  
HETATM   18  C   UNL     1     -11.507   6.903  70.771  1.00  0.00    -0.381 A  
HETATM   19  C   UNL     1     -11.465   5.511  72.755  1.00  0.00    -0.339 A  
ENDBRANCH   3  14
ENDBRANCH   2   3
TORSDOF 2
ENDMDL
MODEL      172
REMARK 921   NORMALIZED FREE ENERGY PREDICTED BY IDOCK:   -2.73 KCAL/MOL
REMARK 922        TOTAL FREE ENERGY PREDICTED BY IDOCK:   -3.10 KCAL/MOL
REMARK 923 INTER-LIGAND FREE ENERGY PREDICTED BY IDOCK:   -3.08 KCAL/MOL
REMARK 924 INTRA-LIGAND FREE ENERGY PREDICTED BY IDOCK:   -0.02 KCAL/MOL
REMARK 927      BINDING AFFINITY PREDICTED BY RF-SCORE:    0.00 PKD
ROOT
HETATM    1  C   UNL     1      -9.951  10.917  68.857  1.00  0.00    -0.208 C  
HETATM    2  C   UNL     1     -10.235   9.437  68.613  1.00  0.00    -0.222 C  
ENDROOT
BRANCH   2   3
HETATM    3  C   UNL     1      -9.316   8.378  69.317  1.00  0.00    -0.154 C  
HETATM    4  C   UNL     1      -8.742   7.448  68.238  1.00  0.00    -0.122 C  
HETATM    5  O   UNL     1      -8.301   9.707  71.111  1.00  0.00    -0.221 OA 
HETATM    6  C   UNL     1      -8.196   9.178  70.006  1.00  0.00    -0.143 C  
HETATM    7  N   UNL     1      -7.573   7.841  67.643  1.00  0.00    -0.110 N  
HETATM    8  O   UNL     1      -9.294   6.424  67.840  1.00  0.00    -0.117 OA 
HETATM    9  H   UNL     1      -6.393  10.071  69.652  1.00  0.00     0.000 HD 
HETATM   10  C   UNL     1      -6.670   8.718  68.159  1.00  0.00    -0.065 C  
HETATM   11  H   UNL     1      -7.360   7.441  66.730  1.00  0.00     0.000 HD 
HETATM   12  O   UNL     1      -5.563   8.874  67.660  1.00  0.00    -0.038 OA 
HETATM   13  N   UNL     1      -7.041   9.369  69.294  1.00  0.00    -0.056 N  
BRANCH   3  14
HETATM   14  C   UNL     1     -10.141   7.541  70.343  1.00  0.00    -0.196 A  
HETATM   15  C   UNL     1     -10.287   5.766  72.022  1.00  0.00    -0.254 A  
HETATM   16  C   UNL     1     -12.249   7.050  71.500  1.00  0.00    -0.407 A  
HETATM   17  C   UNL     1     -11.517   7.775  70.555  1.00  0.00    -0.219 A  
HETATM   18  C   UNL     1      -9.554   6.493  71.074  1.00  0.00    -0.185 A  
HETATM   19  C   UNL     1     -11.631   6.056  72.245  1.00  0.00    -0.359 A  
ENDBRANCH   3  14
ENDBRANCH   2   3
TORSDOF 2
ENDMDL
MODEL      173
REMARK 921   NORMALIZED FREE ENERGY PREDICTED BY IDOCK:   -2.66 KCAL/MOL
REMARK 922        TOTAL FREE ENERGY PREDICTED BY IDOCK:   -3.02 KCAL/MOL
REMARK 923 INTER-LIGAND FREE ENERGY PREDICTED BY IDOCK:   -2.96 KCAL/MOL
REMARK 924 INTRA-LIGAND FREE ENERGY PREDICTED BY IDOCK:   -0.06 KCAL/MOL
REMARK 927      BINDING AFFINITY PREDICTED BY RF-SCORE:    0.00 PKD
ROOT
HETATM    1  C   UNL     1      -7.309   5.071  68.120  1.00  0.00    -0.074 C  
HETATM    2  C   UNL     1      -8.659   5.782  68.159  1.00  0.00    -0.108 C  
ENDROOT
BRANCH   2   3
HETATM    3  C   UNL     1      -9.081   6.505  69.486  1.00  0.00    -0.140 C  
HETATM    4  C   UNL     1     -10.141   5.641  70.187  1.00  0.00    -0.227 C  
HETATM    5  O   UNL     1      -6.958   7.490  70.219  1.00  0.00    -0.053 OA 
HETATM    6  C   UNL     1      -7.804   6.606  70.340  1.00  0.00    -0.106 C  
HETATM    7  N   UNL     1      -9.682   4.672  71.039  1.00  0.00    -0.175 N  
HETATM    8  O   UNL     1     -11.350   5.724  69.980  1.00  0.00    -0.285 OA 
HETATM    9  H   UNL     1      -6.636   5.544  71.636  1.00  0.00     0.000 HD 
HETATM   10  C   UNL     1      -8.462   4.649  71.639  1.00  0.00    -0.112 C  
HETATM   11  H   UNL     1     -10.314   3.897  71.243  1.00  0.00     0.000 HD 
HETATM   12  O   UNL     1      -8.197   3.855  72.532  1.00  0.00    -0.090 OA 
HETATM   13  N   UNL     1      -7.572   5.594  71.234  1.00  0.00    -0.097 N  
BRANCH   3  14
HETATM   14  C   UNL     1      -9.678   7.911  69.173  1.00  0.00    -0.162 A  
HETATM   15  C   UNL     1     -10.422   9.604  67.569  1.00  0.00    -0.321 A  
HETATM   16  C   UNL     1     -10.608  10.055  69.921  1.00  0.00    -0.324 A  
HETATM   17  C   UNL     1     -10.039   8.808  70.200  1.00  0.00    -0.203 A  
HETATM   18  C   UNL     1      -9.850   8.355  67.850  1.00  0.00    -0.208 A  
HETATM   19  C   UNL     1     -10.814  10.447  68.605  1.00  0.00    -0.270 A  
ENDBRANCH   3  14
ENDBRANCH   2   3
TORSDOF 2
ENDMDL
MODEL      174
REMARK 921   NORMALIZED FREE ENERGY PREDICTED BY IDOCK:   -2.65 KCAL/MOL
REMARK 922        TOTAL FREE ENERGY PREDICTED BY IDOCK:   -3.00 KCAL/MOL
REMARK 923 INTER-LIGAND FREE ENERGY PREDICTED BY IDOCK:   -3.06 KCAL/MOL
REMARK 924 INTRA-LIGAND FREE ENERGY PREDICTED BY IDOCK:    0.06 KCAL/MOL
REMARK 927      BINDING AFFINITY PREDICTED BY RF-SCORE:    0.00 PKD
ROOT
HETATM    1  C   UNL     1     -10.672   7.371  67.157  1.00  0.00    -0.400 C  
HETATM    2  C   UNL     1      -9.562   7.831  66.215  1.00  0.00    -0.179 C  
ENDROOT
BRANCH   2   3
HETATM    3  C   UNL     1      -8.954   9.262  66.426  1.00  0.00    -0.185 C  
HETATM    4  C   UNL     1      -8.082   9.596  65.206  1.00  0.00    -0.125 C  
HETATM    5  O   UNL     1     -10.793  10.429  67.553  1.00  0.00    -0.270 OA 
HETATM    6  C   UNL     1     -10.152  10.223  66.523  1.00  0.00    -0.231 C  
HETATM    7  N   UNL     1      -8.709  10.186  64.141  1.00  0.00    -0.187 N  
HETATM    8  O   UNL     1      -6.889   9.311  65.108  1.00  0.00    -0.079 OA 
HETATM    9  H   UNL     1     -11.478  11.277  65.382  1.00  0.00     0.000 HD 
HETATM   10  C   UNL     1      -9.887  10.866  64.185  1.00  0.00    -0.314 C  
HETATM   11  H   UNL     1      -8.252  10.109  63.233  1.00  0.00     0.000 HD 
HETATM   12  O   UNL     1     -10.287  11.525  63.235  1.00  0.00    -0.375 OA 
HETATM   13  N   UNL     1     -10.567  10.820  65.362  1.00  0.00    -0.205 N  
BRANCH   3  14
HETATM   14  C   UNL     1      -8.081   9.295  67.717  1.00  0.00    -0.104 A  
HETATM   15  C   UNL     1      -6.803  10.534  69.397  1.00  0.00    -0.088 A  
HETATM   16  C   UNL     1      -6.999   8.149  69.598  1.00  0.00    -0.049 A  
HETATM   17  C   UNL     1      -7.752   8.116  68.420  1.00  0.00    -0.113 A  
HETATM   18  C   UNL     1      -7.556  10.501  68.216  1.00  0.00    -0.096 A  
HETATM   19  C   UNL     1      -6.538   9.359  70.096  1.00  0.00    -0.062 A  
ENDBRANCH   3  14
ENDBRANCH   2   3
TORSDOF 2
ENDMDL
MODEL      175
REMARK 921   NORMALIZED FREE ENERGY PREDICTED BY IDOCK:   -2.58 KCAL/MOL
REMARK 922        TOTAL FREE ENERGY PREDICTED BY IDOCK:   -2.93 KCAL/MOL
REMARK 923 INTER-LIGAND FREE ENERGY PREDICTED BY IDOCK:   -2.75 KCAL/MOL
REMARK 924 INTRA-LIGAND FREE ENERGY PREDICTED BY IDOCK:   -0.18 KCAL/MOL
REMARK 927      BINDING AFFINITY PREDICTED BY RF-SCORE:    0.00 PKD
ROOT
HETATM    1  C   UNL     1      -8.680   9.544  68.981  1.00  0.00    -0.142 C  
HETATM    2  C   UNL     1      -9.458   8.650  68.019  1.00  0.00    -0.154 C  
ENDROOT
BRANCH   2   3
HETATM    3  C   UNL     1      -9.332   7.095  68.181  1.00  0.00    -0.129 C  
HETATM    4  C   UNL     1      -8.764   6.804  69.578  1.00  0.00    -0.133 C  
HETATM    5  O   UNL     1     -11.309   6.300  66.967  1.00  0.00    -0.263 OA 
HETATM    6  C   UNL     1     -10.759   6.536  68.041  1.00  0.00    -0.283 C  
HETATM    7  N   UNL     1      -9.668   6.684  70.600  1.00  0.00    -0.172 N  
HETATM    8  O   UNL     1      -7.564   6.738  69.838  1.00  0.00    -0.095 OA 
HETATM    9  H   UNL     1     -12.479   6.210  69.093  1.00  0.00     0.000 HD 
HETATM   10  C   UNL     1     -10.990   6.392  70.465  1.00  0.00    -0.306 C  
HETATM   11  H   UNL     1      -9.319   6.826  71.547  1.00  0.00     0.000 HD 
HETATM   12  O   UNL     1     -11.691   6.114  71.430  1.00  0.00    -0.284 OA 
HETATM   13  N   UNL     1     -11.477   6.368  69.196  1.00  0.00    -0.311 N  
BRANCH   3  14
HETATM   14  C   UNL     1      -8.375   6.512  67.096  1.00  0.00    -0.113 A  
HETATM   15  C   UNL     1      -6.841   6.823  65.214  1.00  0.00    -0.051 A  
HETATM   16  C   UNL     1      -7.257   4.604  66.034  1.00  0.00    -0.076 A  
HETATM   17  C   UNL     1      -8.143   5.125  66.982  1.00  0.00    -0.104 A  
HETATM   18  C   UNL     1      -7.730   7.344  66.164  1.00  0.00    -0.094 A  
HETATM   19  C   UNL     1      -6.594   5.454  65.160  1.00  0.00    -0.040 A  
ENDBRANCH   3  14
ENDBRANCH   2   3
TORSDOF 2
ENDMDL
MODEL      176
REMARK 921   NORMALIZED FREE ENERGY PREDICTED BY IDOCK:   -2.58 KCAL/MOL
REMARK 922        TOTAL FREE ENERGY PREDICTED BY IDOCK:   -2.92 KCAL/MOL
REMARK 923 INTER-LIGAND FREE ENERGY PREDICTED BY IDOCK:   -4.11 KCAL/MOL
REMARK 924 INTRA-LIGAND FREE ENERGY PREDICTED BY IDOCK:    1.18 KCAL/MOL
REMARK 927      BINDING AFFINITY PREDICTED BY RF-SCORE:    0.00 PKD
ROOT
HETATM    1  C   UNL     1      -9.737   5.695  69.570  1.00  0.00    -0.206 C  
HETATM    2  C   UNL     1     -10.006   6.000  71.041  1.00  0.00    -0.230 C  
ENDROOT
BRANCH   2   3
HETATM    3  C   UNL     1      -9.582   7.404  71.598  1.00  0.00    -0.165 C  
HETATM    4  C   UNL     1      -9.237   7.244  73.087  1.00  0.00    -0.159 C  
HETATM    5  O   UNL     1      -8.386   8.365  69.685  1.00  0.00    -0.118 OA 
HETATM    6  C   UNL     1      -8.342   7.826  70.790  1.00  0.00    -0.116 C  
HETATM    7  N   UNL     1      -7.945   6.905  73.388  1.00  0.00    -0.097 N  
HETATM    8  O   UNL     1     -10.054   7.339  74.002  1.00  0.00    -0.307 OA 
HETATM    9  H   UNL     1      -6.317   7.583  70.689  1.00  0.00     0.000 HD 
HETATM   10  C   UNL     1      -6.864   7.086  72.584  1.00  0.00    -0.068 C  
HETATM   11  H   UNL     1      -7.779   6.476  74.299  1.00  0.00     0.000 HD 
HETATM   12  O   UNL     1      -5.721   6.934  72.995  1.00  0.00    -0.041 OA 
HETATM   13  N   UNL     1      -7.119   7.503  71.315  1.00  0.00    -0.058 N  
BRANCH   3  14
HETATM   14  C   UNL     1     -10.750   8.425  71.440  1.00  0.00    -0.298 A  
HETATM   15  C   UNL     1     -11.754  10.363  70.330  1.00  0.00    -0.419 A  
HETATM   16  C   UNL     1     -12.964   9.262  72.089  1.00  0.00    -0.503 A  
HETATM   17  C   UNL     1     -11.900   8.369  72.255  1.00  0.00    -0.456 A  
HETATM   18  C   UNL     1     -10.688   9.468  70.498  1.00  0.00    -0.359 A  
HETATM   19  C   UNL     1     -12.898  10.249  71.116  1.00  0.00    -0.504 A  
ENDBRANCH   3  14
ENDBRANCH   2   3
TORSDOF 2
ENDMDL
MODEL      177
REMARK 921   NORMALIZED FREE ENERGY PREDICTED BY IDOCK:   -2.55 KCAL/MOL
REMARK 922        TOTAL FREE ENERGY PREDICTED BY IDOCK:   -2.89 KCAL/MOL
REMARK 923 INTER-LIGAND FREE ENERGY PREDICTED BY IDOCK:   -2.94 KCAL/MOL
REMARK 924 INTRA-LIGAND FREE ENERGY PREDICTED BY IDOCK:    0.05 KCAL/MOL
REMARK 927      BINDING AFFINITY PREDICTED BY RF-SCORE:    0.00 PKD
ROOT
HETATM    1  C   UNL     1     -12.317   7.261  71.179  1.00  0.00    -0.381 C  
HETATM    2  C   UNL     1     -11.479   6.749  70.011  1.00  0.00    -0.390 C  
ENDROOT
BRANCH   2   3
HETATM    3  C   UNL     1     -10.007   7.272  69.867  1.00  0.00    -0.183 C  
HETATM    4  C   UNL     1      -9.317   7.145  71.233  1.00  0.00    -0.155 C  
HETATM    5  O   UNL     1      -9.423   6.514  67.608  1.00  0.00    -0.124 OA 
HETATM    6  C   UNL     1      -9.333   6.361  68.825  1.00  0.00    -0.125 C  
HETATM    7  N   UNL     1      -8.705   5.951  71.508  1.00  0.00    -0.132 N  
HETATM    8  O   UNL     1      -9.339   8.014  72.104  1.00  0.00    -0.156 OA 
HETATM    9  H   UNL     1      -8.400   4.556  68.617  1.00  0.00     0.000 HD 
HETATM   10  C   UNL     1      -8.290   5.037  70.589  1.00  0.00    -0.106 C  
HETATM   11  H   UNL     1      -8.545   5.727  72.489  1.00  0.00     0.000 HD 
HETATM   12  O   UNL     1      -7.583   4.087  70.898  1.00  0.00    -0.046 OA 
HETATM   13  N   UNL     1      -8.656   5.269  69.300  1.00  0.00    -0.100 N  
BRANCH   3  14
HETATM   14  C   UNL     1     -10.003   8.765  69.416  1.00  0.00    -0.196 A  
HETATM   15  C   UNL     1     -11.196  10.821  68.831  1.00  0.00    -0.328 A  
HETATM   16  C   UNL     1      -8.794  10.812  68.806  1.00  0.00    -0.163 A  
HETATM   17  C   UNL     1      -8.800   9.462  69.174  1.00  0.00    -0.143 A  
HETATM   18  C   UNL     1     -11.201   9.468  69.200  1.00  0.00    -0.004 A  
HETATM   19  C   UNL     1      -9.992  11.496  68.649  1.00  0.00    -0.207 A  
ENDBRANCH   3  14
ENDBRANCH   2   3
TORSDOF 2
ENDMDL
MODEL      178
REMARK 921   NORMALIZED FREE ENERGY PREDICTED BY IDOCK:   -2.54 KCAL/MOL
REMARK 922        TOTAL FREE ENERGY PREDICTED BY IDOCK:   -2.89 KCAL/MOL
REMARK 923 INTER-LIGAND FREE ENERGY PREDICTED BY IDOCK:   -2.84 KCAL/MOL
REMARK 924 INTRA-LIGAND FREE ENERGY PREDICTED BY IDOCK:   -0.04 KCAL/MOL
REMARK 927      BINDING AFFINITY PREDICTED BY RF-SCORE:    0.00 PKD
ROOT
HETATM    1  C   UNL     1     -11.356   6.325  69.829  1.00  0.00    -0.506 C  
HETATM    2  C   UNL     1      -9.836   6.248  69.724  1.00  0.00    -0.195 C  
ENDROOT
BRANCH   2   3
HETATM    3  C   UNL     1      -9.157   6.740  68.398  1.00  0.00    -0.125 C  
HETATM    4  C   UNL     1      -8.157   5.665  67.944  1.00  0.00    -0.101 C  
HETATM    5  O   UNL     1     -11.010   7.896  67.282  1.00  0.00    -0.199 OA 
HETATM    6  C   UNL     1     -10.293   6.900  67.373  1.00  0.00    -0.231 C  
HETATM    7  N   UNL     1      -8.646   4.666  67.144  1.00  0.00    -0.105 N  
HETATM    8  O   UNL     1      -6.982   5.615  68.304  1.00  0.00    -0.064 OA 
HETATM    9  H   UNL     1     -11.438   5.848  66.048  1.00  0.00     0.000 HD 
HETATM   10  C   UNL     1      -9.775   4.729  66.389  1.00  0.00    -0.195 C  
HETATM   11  H   UNL     1      -8.114   3.797  67.111  1.00  0.00     0.000 HD 
HETATM   12  O   UNL     1     -10.044   3.873  65.557  1.00  0.00    -0.158 OA 
HETATM   13  N   UNL     1     -10.560   5.825  66.567  1.00  0.00    -0.256 N  
BRANCH   3  14
HETATM   14  C   UNL     1      -8.404   8.084  68.640  1.00  0.00    -0.127 A  
HETATM   15  C   UNL     1      -7.110   9.986  67.804  1.00  0.00    -0.086 A  
HETATM   16  C   UNL     1      -7.669   9.884  70.137  1.00  0.00    -0.188 A  
HETATM   17  C   UNL     1      -8.313   8.661  69.925  1.00  0.00    -0.123 A  
HETATM   18  C   UNL     1      -7.754   8.759  67.592  1.00  0.00    -0.101 A  
HETATM   19  C   UNL     1      -7.081  10.555  69.074  1.00  0.00    -0.081 A  
ENDBRANCH   3  14
ENDBRANCH   2   3
TORSDOF 2
ENDMDL
MODEL      179
REMARK 921   NORMALIZED FREE ENERGY PREDICTED BY IDOCK:   -2.53 KCAL/MOL
REMARK 922        TOTAL FREE ENERGY PREDICTED BY IDOCK:   -2.88 KCAL/MOL
REMARK 923 INTER-LIGAND FREE ENERGY PREDICTED BY IDOCK:   -2.88 KCAL/MOL
REMARK 924 INTRA-LIGAND FREE ENERGY PREDICTED BY IDOCK:    0.00 KCAL/MOL
REMARK 927      BINDING AFFINITY PREDICTED BY RF-SCORE:    0.00 PKD
ROOT
HETATM    1  C   UNL     1      -8.948  10.427  69.795  1.00  0.00     0.024 C  
HETATM    2  C   UNL     1     -10.006  10.786  68.756  1.00  0.00    -0.201 C  
ENDROOT
BRANCH   2   3
HETATM    3  C   UNL     1      -9.559  10.933  67.259  1.00  0.00    -0.184 C  
HETATM    4  C   UNL     1     -10.665  11.681  66.500  1.00  0.00    -0.272 C  
HETATM    5  O   UNL     1      -7.142  11.279  67.488  1.00  0.00    -0.088 OA 
HETATM    6  C   UNL     1      -8.258  11.754  67.283  1.00  0.00    -0.163 C  
HETATM    7  N   UNL     1     -10.595  13.049  66.496  1.00  0.00    -0.279 N  
HETATM    8  O   UNL     1     -11.627  11.135  65.961  1.00  0.00    -0.082 OA 
HETATM    9  H   UNL     1      -7.555  13.670  67.373  1.00  0.00     0.000 HD 
HETATM   10  C   UNL     1      -9.479  13.791  66.725  1.00  0.00    -0.275 C  
HETATM   11  H   UNL     1     -11.458  13.557  66.303  1.00  0.00     0.000 HD 
HETATM   12  O   UNL     1      -9.452  14.997  66.517  1.00  0.00    -0.247 OA 
HETATM   13  N   UNL     1      -8.377  13.112  67.141  1.00  0.00    -0.169 N  
BRANCH   3  14
HETATM   14  C   UNL     1      -9.344   9.528  66.617  1.00  0.00    -0.207 A  
HETATM   15  C   UNL     1      -8.433   8.110  64.842  1.00  0.00    -0.094 A  
HETATM   16  C   UNL     1      -9.631   7.091  66.657  1.00  0.00    -0.220 A  
HETATM   17  C   UNL     1      -9.855   8.355  67.213  1.00  0.00    -0.264 A  
HETATM   18  C   UNL     1      -8.659   9.377  65.398  1.00  0.00    -0.176 A  
HETATM   19  C   UNL     1      -8.906   6.967  65.480  1.00  0.00     0.020 A  
ENDBRANCH   3  14
ENDBRANCH   2   3
TORSDOF 2
ENDMDL
MODEL      180
REMARK 921   NORMALIZED FREE ENERGY PREDICTED BY IDOCK:   -2.53 KCAL/MOL
REMARK 922        TOTAL FREE ENERGY PREDICTED BY IDOCK:   -2.87 KCAL/MOL
REMARK 923 INTER-LIGAND FREE ENERGY PREDICTED BY IDOCK:   -3.55 KCAL/MOL
REMARK 924 INTRA-LIGAND FREE ENERGY PREDICTED BY IDOCK:    0.68 KCAL/MOL
REMARK 927      BINDING AFFINITY PREDICTED BY RF-SCORE:    0.00 PKD
ROOT
HETATM    1  C   UNL     1      -9.523  19.054  69.113  1.00  0.00    -0.238 C  
HETATM    2  C   UNL     1      -9.321  18.008  68.019  1.00  0.00    -0.273 C  
ENDROOT
BRANCH   2   3
HETATM    3  C   UNL     1      -7.854  17.615  67.628  1.00  0.00    -0.212 C  
HETATM    4  C   UNL     1      -7.063  17.367  68.922  1.00  0.00    -0.251 C  
HETATM    5  O   UNL     1      -8.212  16.293  65.594  1.00  0.00     0.077 OA 
HETATM    6  C   UNL     1      -7.966  16.324  66.799  1.00  0.00    -0.271 C  
HETATM    7  N   UNL     1      -7.103  16.099  69.437  1.00  0.00    -0.222 N  
HETATM    8  O   UNL     1      -6.461  18.241  69.544  1.00  0.00    -0.255 OA 
HETATM    9  H   UNL     1      -8.148  14.297  66.976  1.00  0.00     0.000 HD 
HETATM   10  C   UNL     1      -7.409  14.967  68.748  1.00  0.00    -0.125 C  
HETATM   11  H   UNL     1      -6.883  15.994  70.427  1.00  0.00     0.000 HD 
HETATM   12  O   UNL     1      -7.239  13.854  69.228  1.00  0.00    -0.081 OA 
HETATM   13  N   UNL     1      -7.860  15.138  67.477  1.00  0.00    -0.164 N  
BRANCH   3  14
HETATM   14  C   UNL     1      -7.181  18.765  66.818  1.00  0.00    -0.228 A  
HETATM   15  C   UNL     1      -5.784  19.532  64.960  1.00  0.00    -0.244 A  
HETATM   16  C   UNL     1      -6.771  21.154  66.432  1.00  0.00    -0.186 A  
HETATM   17  C   UNL     1      -7.343  20.119  67.179  1.00  0.00    -0.308 A  
HETATM   18  C   UNL     1      -6.357  18.496  65.710  1.00  0.00    -0.291 A  
HETATM   19  C   UNL     1      -6.004  20.861  65.313  1.00  0.00    -0.280 A  
ENDBRANCH   3  14
ENDBRANCH   2   3
TORSDOF 2
ENDMDL
MODEL      181
REMARK 921   NORMALIZED FREE ENERGY PREDICTED BY IDOCK:   -2.53 KCAL/MOL
REMARK 922        TOTAL FREE ENERGY PREDICTED BY IDOCK:   -2.87 KCAL/MOL
REMARK 923 INTER-LIGAND FREE ENERGY PREDICTED BY IDOCK:   -2.86 KCAL/MOL
REMARK 924 INTRA-LIGAND FREE ENERGY PREDICTED BY IDOCK:   -0.01 KCAL/MOL
REMARK 927      BINDING AFFINITY PREDICTED BY RF-SCORE:    0.00 PKD
ROOT
HETATM    1  C   UNL     1      -6.369   6.576  66.651  1.00  0.00    -0.042 C  
HETATM    2  C   UNL     1      -6.838   7.826  65.911  1.00  0.00    -0.057 C  
ENDROOT
BRANCH   2   3
HETATM    3  C   UNL     1      -8.112   8.570  66.443  1.00  0.00    -0.103 C  
HETATM    4  C   UNL     1      -9.107   7.516  66.951  1.00  0.00    -0.141 C  
HETATM    5  O   UNL     1      -7.136  10.586  67.443  1.00  0.00    -0.087 OA 
HETATM    6  C   UNL     1      -7.629   9.469  67.595  1.00  0.00    -0.094 C  
HETATM    7  N   UNL     1      -8.977   7.124  68.257  1.00  0.00    -0.126 N  
HETATM    8  O   UNL     1      -9.954   6.966  66.249  1.00  0.00    -0.055 OA 
HETATM    9  H   UNL     1      -7.174   9.443  69.586  1.00  0.00     0.000 HD 
HETATM   10  C   UNL     1      -8.361   7.828  69.244  1.00  0.00    -0.136 C  
HETATM   11  H   UNL     1      -9.379   6.222  68.513  1.00  0.00     0.000 HD 
HETATM   12  O   UNL     1      -8.451   7.503  70.421  1.00  0.00    -0.136 OA 
HETATM   13  N   UNL     1      -7.688   8.945  68.859  1.00  0.00    -0.093 N  
BRANCH   3  14
HETATM   14  C   UNL     1      -8.772   9.402  65.300  1.00  0.00    -0.204 A  
HETATM   15  C   UNL     1     -10.464  10.989  64.519  1.00  0.00    -0.411 A  
HETATM   16  C   UNL     1      -8.860  10.122  62.956  1.00  0.00    -0.231 A  
HETATM   17  C   UNL     1      -8.292   9.349  63.974  1.00  0.00    -0.174 A  
HETATM   18  C   UNL     1      -9.895  10.213  65.539  1.00  0.00    -0.365 A  
HETATM   19  C   UNL     1      -9.936  10.954  63.231  1.00  0.00    -0.399 A  
ENDBRANCH   3  14
ENDBRANCH   2   3
TORSDOF 2
ENDMDL
MODEL      182
REMARK 921   NORMALIZED FREE ENERGY PREDICTED BY IDOCK:   -2.48 KCAL/MOL
REMARK 922        TOTAL FREE ENERGY PREDICTED BY IDOCK:   -2.82 KCAL/MOL
REMARK 923 INTER-LIGAND FREE ENERGY PREDICTED BY IDOCK:   -2.86 KCAL/MOL
REMARK 924 INTRA-LIGAND FREE ENERGY PREDICTED BY IDOCK:    0.04 KCAL/MOL
REMARK 927      BINDING AFFINITY PREDICTED BY RF-SCORE:    0.00 PKD
ROOT
HETATM    1  C   UNL     1      -9.011  10.757  67.229  1.00  0.00    -0.143 C  
HETATM    2  C   UNL     1      -9.622   9.362  67.329  1.00  0.00    -0.194 C  
ENDROOT
BRANCH   2   3
HETATM    3  C   UNL     1      -8.958   8.328  68.304  1.00  0.00    -0.136 C  
HETATM    4  C   UNL     1      -7.435   8.517  68.238  1.00  0.00    -0.096 C  
HETATM    5  O   UNL     1     -10.571   8.270  70.150  1.00  0.00    -0.225 OA 
HETATM    6  C   UNL     1      -9.492   8.663  69.707  1.00  0.00    -0.166 C  
HETATM    7  N   UNL     1      -6.890   9.440  69.091  1.00  0.00    -0.050 N  
HETATM    8  O   UNL     1      -6.699   7.946  67.435  1.00  0.00    -0.065 OA 
HETATM    9  H   UNL     1      -9.193   9.909  71.298  1.00  0.00     0.000 HD 
HETATM   10  C   UNL     1      -7.458   9.900  70.238  1.00  0.00    -0.162 C  
HETATM   11  H   UNL     1      -5.975   9.817  68.844  1.00  0.00     0.000 HD 
HETATM   12  O   UNL     1      -6.832  10.577  71.042  1.00  0.00    -0.203 OA 
HETATM   13  N   UNL     1      -8.742   9.518  70.471  1.00  0.00    -0.229 N  
BRANCH   3  14
HETATM   14  C   UNL     1      -9.321   6.872  67.880  1.00  0.00    -0.118 A  
HETATM   15  C   UNL     1     -10.571   5.309  66.470  1.00  0.00    -0.348 A  
HETATM   16  C   UNL     1      -9.036   4.445  68.103  1.00  0.00    -0.161 A  
HETATM   17  C   UNL     1      -8.738   5.750  68.507  1.00  0.00    -0.111 A  
HETATM   18  C   UNL     1     -10.273   6.617  66.876  1.00  0.00    -0.287 A  
HETATM   19  C   UNL     1      -9.941   4.224  67.074  1.00  0.00    -0.166 A  
ENDBRANCH   3  14
ENDBRANCH   2   3
TORSDOF 2
ENDMDL
MODEL      183
REMARK 921   NORMALIZED FREE ENERGY PREDICTED BY IDOCK:   -2.45 KCAL/MOL
REMARK 922        TOTAL FREE ENERGY PREDICTED BY IDOCK:   -2.79 KCAL/MOL
REMARK 923 INTER-LIGAND FREE ENERGY PREDICTED BY IDOCK:   -2.70 KCAL/MOL
REMARK 924 INTRA-LIGAND FREE ENERGY PREDICTED BY IDOCK:   -0.09 KCAL/MOL
REMARK 927      BINDING AFFINITY PREDICTED BY RF-SCORE:    0.00 PKD
ROOT
HETATM    1  C   UNL     1      -8.490   5.801  65.019  1.00  0.00    -0.124 C  
HETATM    2  C   UNL     1      -8.173   6.827  66.104  1.00  0.00    -0.124 C  
ENDROOT
BRANCH   2   3
HETATM    3  C   UNL     1      -8.964   6.747  67.456  1.00  0.00    -0.115 C  
HETATM    4  C   UNL     1     -10.305   6.050  67.186  1.00  0.00    -0.230 C  
HETATM    5  O   UNL     1      -7.159   6.362  69.072  1.00  0.00    -0.076 OA 
HETATM    6  C   UNL     1      -8.092   5.911  68.410  1.00  0.00    -0.109 C  
HETATM    7  N   UNL     1     -10.319   4.683  67.274  1.00  0.00    -0.068 N  
HETATM    8  O   UNL     1     -11.332   6.632  66.840  1.00  0.00    -0.333 OA 
HETATM    9  H   UNL     1      -7.629   3.985  68.908  1.00  0.00     0.000 HD 
HETATM   10  C   UNL     1      -9.421   3.917  67.950  1.00  0.00    -0.173 C  
HETATM   11  H   UNL     1     -11.072   4.195  66.788  1.00  0.00     0.000 HD 
HETATM   12  O   UNL     1      -9.606   2.723  68.141  1.00  0.00    -0.196 OA 
HETATM   13  N   UNL     1      -8.335   4.563  68.452  1.00  0.00    -0.089 N  
BRANCH   3  14
HETATM   14  C   UNL     1      -9.223   8.179  68.018  1.00  0.00    -0.137 A  
HETATM   15  C   UNL     1      -9.132  10.613  67.781  1.00  0.00    -0.144 A  
HETATM   16  C   UNL     1     -10.064   9.664  69.782  1.00  0.00    -0.258 A  
HETATM   17  C   UNL     1      -9.797   8.382  69.292  1.00  0.00    -0.186 A  
HETATM   18  C   UNL     1      -8.864   9.328  67.292  1.00  0.00    -0.132 A  
HETATM   19  C   UNL     1      -9.746  10.780  69.020  1.00  0.00    -0.201 A  
ENDBRANCH   3  14
ENDBRANCH   2   3
TORSDOF 2
ENDMDL
MODEL      184
REMARK 921   NORMALIZED FREE ENERGY PREDICTED BY IDOCK:   -2.42 KCAL/MOL
REMARK 922        TOTAL FREE ENERGY PREDICTED BY IDOCK:   -2.75 KCAL/MOL
REMARK 923 INTER-LIGAND FREE ENERGY PREDICTED BY IDOCK:   -2.74 KCAL/MOL
REMARK 924 INTRA-LIGAND FREE ENERGY PREDICTED BY IDOCK:   -0.01 KCAL/MOL
REMARK 927      BINDING AFFINITY PREDICTED BY RF-SCORE:    0.00 PKD
ROOT
HETATM    1  C   UNL     1      -7.663   9.068  68.385  1.00  0.00    -0.098 C  
HETATM    2  C   UNL     1      -7.916   8.334  69.699  1.00  0.00    -0.111 C  
ENDROOT
BRANCH   2   3
HETATM    3  C   UNL     1      -8.685   6.968  69.652  1.00  0.00    -0.141 C  
HETATM    4  C   UNL     1      -9.666   7.011  68.472  1.00  0.00    -0.141 C  
HETATM    5  O   UNL     1      -6.941   5.385  70.337  1.00  0.00    -0.053 OA 
HETATM    6  C   UNL     1      -7.614   5.884  69.437  1.00  0.00    -0.092 C  
HETATM    7  N   UNL     1      -9.186   6.607  67.254  1.00  0.00    -0.123 N  
HETATM    8  O   UNL     1     -10.817   7.439  68.542  1.00  0.00    -0.143 OA 
HETATM    9  H   UNL     1      -6.504   4.972  67.984  1.00  0.00     0.000 HD 
HETATM   10  C   UNL     1      -8.103   5.811  67.048  1.00  0.00    -0.102 C  
HETATM   11  H   UNL     1      -9.685   6.934  66.427  1.00  0.00     0.000 HD 
HETATM   12  O   UNL     1      -7.849   5.340  65.947  1.00  0.00    -0.100 OA 
HETATM   13  N   UNL     1      -7.351   5.519  68.143  1.00  0.00    -0.072 N  
BRANCH   3  14
HETATM   14  C   UNL     1      -9.474   6.744  70.979  1.00  0.00    -0.165 A  
HETATM   15  C   UNL     1     -10.670   5.274  72.528  1.00  0.00    -0.290 A  
HETATM   16  C   UNL     1     -10.403   7.595  73.085  1.00  0.00    -0.411 A  
HETATM   17  C   UNL     1      -9.727   7.802  71.878  1.00  0.00    -0.216 A  
HETATM   18  C   UNL     1      -9.994   5.482  71.318  1.00  0.00    -0.249 A  
HETATM   19  C   UNL     1     -10.861   6.327  73.418  1.00  0.00    -0.238 A  
ENDBRANCH   3  14
ENDBRANCH   2   3
TORSDOF 2
ENDMDL
MODEL      185
REMARK 921   NORMALIZED FREE ENERGY PREDICTED BY IDOCK:   -2.42 KCAL/MOL
REMARK 922        TOTAL FREE ENERGY PREDICTED BY IDOCK:   -2.75 KCAL/MOL
REMARK 923 INTER-LIGAND FREE ENERGY PREDICTED BY IDOCK:   -2.60 KCAL/MOL
REMARK 924 INTRA-LIGAND FREE ENERGY PREDICTED BY IDOCK:   -0.15 KCAL/MOL
REMARK 927      BINDING AFFINITY PREDICTED BY RF-SCORE:    0.00 PKD
ROOT
HETATM    1  C   UNL     1      -7.600   8.803  68.761  1.00  0.00    -0.095 C  
HETATM    2  C   UNL     1      -8.532   7.643  68.420  1.00  0.00    -0.125 C  
ENDROOT
BRANCH   2   3
HETATM    3  C   UNL     1      -9.145   6.810  69.600  1.00  0.00    -0.143 C  
HETATM    4  C   UNL     1      -8.755   7.491  70.920  1.00  0.00    -0.142 C  
HETATM    5  O   UNL     1     -11.285   6.086  68.645  1.00  0.00    -0.307 OA 
HETATM    6  C   UNL     1     -10.670   6.843  69.395  1.00  0.00    -0.246 C  
HETATM    7  N   UNL     1      -9.592   8.472  71.380  1.00  0.00    -0.193 N  
HETATM    8  O   UNL     1      -7.720   7.255  71.543  1.00  0.00    -0.086 OA 
HETATM    9  H   UNL     1     -12.324   7.991  69.737  1.00  0.00     0.000 HD 
HETATM   10  C   UNL     1     -10.899   8.631  71.038  1.00  0.00    -0.247 C  
HETATM   11  H   UNL     1      -9.200   9.145  72.039  1.00  0.00     0.000 HD 
HETATM   12  O   UNL     1     -11.631   9.412  71.632  1.00  0.00    -0.362 OA 
HETATM   13  N   UNL     1     -11.363   7.834  70.039  1.00  0.00    -0.124 N  
BRANCH   3  14
HETATM   14  C   UNL     1      -8.591   5.353  69.580  1.00  0.00    -0.103 A  
HETATM   15  C   UNL     1      -7.130   3.638  68.623  1.00  0.00    -0.050 A  
HETATM   16  C   UNL     1      -8.507   3.084  70.511  1.00  0.00    -0.096 A  
HETATM   17  C   UNL     1      -9.029   4.381  70.505  1.00  0.00    -0.155 A  
HETATM   18  C   UNL     1      -7.655   4.937  68.616  1.00  0.00    -0.077 A  
HETATM   19  C   UNL     1      -7.545   2.716  69.580  1.00  0.00    -0.043 A  
ENDBRANCH   3  14
ENDBRANCH   2   3
TORSDOF 2
ENDMDL
MODEL      186
REMARK 921   NORMALIZED FREE ENERGY PREDICTED BY IDOCK:   -2.42 KCAL/MOL
REMARK 922        TOTAL FREE ENERGY PREDICTED BY IDOCK:   -2.75 KCAL/MOL
REMARK 923 INTER-LIGAND FREE ENERGY PREDICTED BY IDOCK:   -2.60 KCAL/MOL
REMARK 924 INTRA-LIGAND FREE ENERGY PREDICTED BY IDOCK:   -0.15 KCAL/MOL
REMARK 927      BINDING AFFINITY PREDICTED BY RF-SCORE:    0.00 PKD
ROOT
HETATM    1  C   UNL     1      -8.157   6.495  63.584  1.00  0.00    -0.014 C  
HETATM    2  C   UNL     1      -7.610   7.731  64.294  1.00  0.00    -0.111 C  
ENDROOT
BRANCH   2   3
HETATM    3  C   UNL     1      -8.121   8.042  65.744  1.00  0.00    -0.121 C  
HETATM    4  C   UNL     1      -8.814   6.783  66.288  1.00  0.00    -0.147 C  
HETATM    5  O   UNL     1      -6.339   9.490  66.606  1.00  0.00    -0.064 OA 
HETATM    6  C   UNL     1      -6.869   8.380  66.572  1.00  0.00    -0.067 C  
HETATM    7  N   UNL     1      -8.020   5.869  66.928  1.00  0.00    -0.102 N  
HETATM    8  O   UNL     1     -10.006   6.524  66.128  1.00  0.00    -0.004 OA 
HETATM    9  H   UNL     1      -5.337   7.520  67.614  1.00  0.00     0.000 HD 
HETATM   10  C   UNL     1      -6.805   6.119  67.485  1.00  0.00    -0.063 C  
HETATM   11  H   UNL     1      -8.372   4.914  66.993  1.00  0.00     0.000 HD 
HETATM   12  O   UNL     1      -6.243   5.302  68.203  1.00  0.00    -0.031 OA 
HETATM   13  N   UNL     1      -6.274   7.348  67.250  1.00  0.00    -0.049 N  
BRANCH   3  14
HETATM   14  C   UNL     1      -9.135   9.227  65.720  1.00  0.00    -0.260 A  
HETATM   15  C   UNL     1     -10.333  10.986  64.511  1.00  0.00    -0.420 A  
HETATM   16  C   UNL     1     -10.745  10.688  66.858  1.00  0.00    -0.297 A  
HETATM   17  C   UNL     1      -9.808   9.649  66.886  1.00  0.00    -0.257 A  
HETATM   18  C   UNL     1      -9.394   9.946  64.539  1.00  0.00    -0.336 A  
HETATM   19  C   UNL     1     -11.019  11.346  65.667  1.00  0.00    -0.254 A  
ENDBRANCH   3  14
ENDBRANCH   2   3
TORSDOF 2
ENDMDL
MODEL      187
REMARK 921   NORMALIZED FREE ENERGY PREDICTED BY IDOCK:   -2.40 KCAL/MOL
REMARK 922        TOTAL FREE ENERGY PREDICTED BY IDOCK:   -2.73 KCAL/MOL
REMARK 923 INTER-LIGAND FREE ENERGY PREDICTED BY IDOCK:   -2.79 KCAL/MOL
REMARK 924 INTRA-LIGAND FREE ENERGY PREDICTED BY IDOCK:    0.06 KCAL/MOL
REMARK 927      BINDING AFFINITY PREDICTED BY RF-SCORE:    0.00 PKD
ROOT
HETATM    1  C   UNL     1      -7.148  10.258  69.288  1.00  0.00    -0.083 C  
HETATM    2  C   UNL     1      -7.258  11.453  68.345  1.00  0.00    -0.087 C  
ENDROOT
BRANCH   2   3
HETATM    3  C   UNL     1      -8.589  11.642  67.537  1.00  0.00    -0.149 C  
HETATM    4  C   UNL     1      -8.585  10.647  66.367  1.00  0.00    -0.149 C  
HETATM    5  O   UNL     1     -10.196  12.135  69.323  1.00  0.00     0.089 OA 
HETATM    6  C   UNL     1      -9.731  11.328  68.519  1.00  0.00    -0.198 C  
HETATM    7  N   UNL     1      -9.092   9.399  66.615  1.00  0.00    -0.145 N  
HETATM    8  O   UNL     1      -8.102  10.881  65.259  1.00  0.00    -0.077 OA 
HETATM    9  H   UNL     1     -10.789   9.780  69.330  1.00  0.00     0.000 HD 
HETATM   10  C   UNL     1      -9.948   9.071  67.620  1.00  0.00    -0.201 C  
HETATM   11  H   UNL     1      -8.802   8.648  65.990  1.00  0.00     0.000 HD 
HETATM   12  O   UNL     1     -10.504   7.982  67.664  1.00  0.00    -0.231 OA 
HETATM   13  N   UNL     1     -10.196  10.039  68.541  1.00  0.00    -0.168 N  
BRANCH   3  14
HETATM   14  C   UNL     1      -8.687  13.097  66.985  1.00  0.00    -0.193 A  
HETATM   15  C   UNL     1      -9.827  14.799  65.646  1.00  0.00    -0.361 A  
HETATM   16  C   UNL     1      -7.833  15.393  66.844  1.00  0.00    -0.196 A  
HETATM   17  C   UNL     1      -7.726  14.079  67.309  1.00  0.00    -0.120 A  
HETATM   18  C   UNL     1      -9.720  13.482  66.111  1.00  0.00    -0.264 A  
HETATM   19  C   UNL     1      -8.892  15.758  66.025  1.00  0.00    -0.260 A  
ENDBRANCH   3  14
ENDBRANCH   2   3
TORSDOF 2
ENDMDL
MODEL      188
REMARK 921   NORMALIZED FREE ENERGY PREDICTED BY IDOCK:   -2.39 KCAL/MOL
REMARK 922        TOTAL FREE ENERGY PREDICTED BY IDOCK:   -2.72 KCAL/MOL
REMARK 923 INTER-LIGAND FREE ENERGY PREDICTED BY IDOCK:   -2.67 KCAL/MOL
REMARK 924 INTRA-LIGAND FREE ENERGY PREDICTED BY IDOCK:   -0.05 KCAL/MOL
REMARK 927      BINDING AFFINITY PREDICTED BY RF-SCORE:    0.00 PKD
ROOT
HETATM    1  C   UNL     1      -9.227   9.630  70.022  1.00  0.00    -0.275 C  
HETATM    2  C   UNL     1      -8.818   8.431  70.874  1.00  0.00    -0.185 C  
ENDROOT
BRANCH   2   3
HETATM    3  C   UNL     1      -9.266   7.002  70.410  1.00  0.00    -0.156 C  
HETATM    4  C   UNL     1      -9.516   6.147  71.662  1.00  0.00    -0.148 C  
HETATM    5  O   UNL     1     -10.611   7.515  68.424  1.00  0.00    -0.193 OA 
HETATM    6  C   UNL     1     -10.567   7.201  69.613  1.00  0.00    -0.234 C  
HETATM    7  N   UNL     1     -10.773   6.198  72.203  1.00  0.00    -0.226 N  
HETATM    8  O   UNL     1      -8.652   5.484  72.233  1.00  0.00    -0.125 OA 
HETATM    9  H   UNL     1     -12.583   7.437  69.840  1.00  0.00     0.000 HD 
HETATM   10  C   UNL     1     -11.906   6.579  71.554  1.00  0.00    -0.333 C  
HETATM   11  H   UNL     1     -10.868   5.927  73.181  1.00  0.00     0.000 HD 
HETATM   12  O   UNL     1     -13.016   6.417  72.045  1.00  0.00    -0.199 OA 
HETATM   13  N   UNL     1     -11.744   7.094  70.307  1.00  0.00    -0.228 N  
BRANCH   3  14
HETATM   14  C   UNL     1      -8.153   6.340  69.541  1.00  0.00    -0.117 A  
HETATM   15  C   UNL     1      -7.351   4.502  68.137  1.00  0.00    -0.065 A  
HETATM   16  C   UNL     1      -5.917   6.388  68.530  1.00  0.00    -0.021 A  
HETATM   17  C   UNL     1      -6.902   6.963  69.339  1.00  0.00    -0.054 A  
HETATM   18  C   UNL     1      -8.338   5.078  68.949  1.00  0.00    -0.083 A  
HETATM   19  C   UNL     1      -6.147   5.164  67.916  1.00  0.00    -0.027 A  
ENDBRANCH   3  14
ENDBRANCH   2   3
TORSDOF 2
ENDMDL
MODEL      189
REMARK 921   NORMALIZED FREE ENERGY PREDICTED BY IDOCK:   -2.32 KCAL/MOL
REMARK 922        TOTAL FREE ENERGY PREDICTED BY IDOCK:   -2.64 KCAL/MOL
REMARK 923 INTER-LIGAND FREE ENERGY PREDICTED BY IDOCK:   -2.67 KCAL/MOL
REMARK 924 INTRA-LIGAND FREE ENERGY PREDICTED BY IDOCK:    0.03 KCAL/MOL
REMARK 927      BINDING AFFINITY PREDICTED BY RF-SCORE:    0.00 PKD
ROOT
HETATM    1  C   UNL     1      -5.648   9.315  68.089  1.00  0.00    -0.038 C  
HETATM    2  C   UNL     1      -6.253   8.377  69.130  1.00  0.00    -0.043 C  
ENDROOT
BRANCH   2   3
HETATM    3  C   UNL     1      -7.816   8.297  69.239  1.00  0.00    -0.108 C  
HETATM    4  C   UNL     1      -8.297   9.468  70.108  1.00  0.00    -0.192 C  
HETATM    5  O   UNL     1      -8.435   7.490  67.007  1.00  0.00    -0.118 OA 
HETATM    6  C   UNL     1      -8.350   8.426  67.801  1.00  0.00    -0.130 C  
HETATM    7  N   UNL     1      -8.555  10.650  69.465  1.00  0.00    -0.381 N  
HETATM    8  O   UNL     1      -8.399   9.426  71.333  1.00  0.00    -0.295 OA 
HETATM    9  H   UNL     1      -8.815   9.802  66.365  1.00  0.00     0.000 HD 
HETATM   10  C   UNL     1      -8.825  10.794  68.140  1.00  0.00    -0.133 C  
HETATM   11  H   UNL     1      -8.544  11.497  70.031  1.00  0.00     0.000 HD 
HETATM   12  O   UNL     1      -9.231  11.852  67.676  1.00  0.00    -0.173 OA 
HETATM   13  N   UNL     1      -8.673   9.685  67.369  1.00  0.00    -0.128 N  
BRANCH   3  14
HETATM   14  C   UNL     1      -8.246   6.949  69.895  1.00  0.00    -0.127 A  
HETATM   15  C   UNL     1      -9.953   5.269  70.397  1.00  0.00    -0.303 A  
HETATM   16  C   UNL     1      -7.703   4.916  71.157  1.00  0.00    -0.083 A  
HETATM   17  C   UNL     1      -7.327   6.142  70.600  1.00  0.00    -0.086 A  
HETATM   18  C   UNL     1      -9.576   6.498  69.839  1.00  0.00    -0.163 A  
HETATM   19  C   UNL     1      -9.012   4.471  71.042  1.00  0.00    -0.165 A  
ENDBRANCH   3  14
ENDBRANCH   2   3
TORSDOF 2
ENDMDL
MODEL      190
REMARK 921   NORMALIZED FREE ENERGY PREDICTED BY IDOCK:   -2.24 KCAL/MOL
REMARK 922        TOTAL FREE ENERGY PREDICTED BY IDOCK:   -2.55 KCAL/MOL
REMARK 923 INTER-LIGAND FREE ENERGY PREDICTED BY IDOCK:   -2.54 KCAL/MOL
REMARK 924 INTRA-LIGAND FREE ENERGY PREDICTED BY IDOCK:   -0.01 KCAL/MOL
REMARK 927      BINDING AFFINITY PREDICTED BY RF-SCORE:    0.00 PKD
ROOT
HETATM    1  C   UNL     1      -5.516   9.196  67.876  1.00  0.00    -0.034 C  
HETATM    2  C   UNL     1      -6.559   8.197  67.382  1.00  0.00    -0.058 C  
ENDROOT
BRANCH   2   3
HETATM    3  C   UNL     1      -7.894   8.755  66.774  1.00  0.00    -0.097 C  
HETATM    4  C   UNL     1      -7.558  10.002  65.944  1.00  0.00    -0.114 C  
HETATM    5  O   UNL     1      -9.128   6.691  66.290  1.00  0.00    -0.155 OA 
HETATM    6  C   UNL     1      -8.454   7.635  65.880  1.00  0.00    -0.143 C  
HETATM    7  N   UNL     1      -7.224   9.799  64.631  1.00  0.00    -0.125 N  
HETATM    8  O   UNL     1      -7.509  11.145  66.398  1.00  0.00    -0.144 OA 
HETATM    9  H   UNL     1      -8.291   6.820  64.014  1.00  0.00     0.000 HD 
HETATM   10  C   UNL     1      -7.541   8.706  63.887  1.00  0.00    -0.127 C  
HETATM   11  H   UNL     1      -6.689  10.535  64.170  1.00  0.00     0.000 HD 
HETATM   12  O   UNL     1      -7.375   8.680  62.675  1.00  0.00    -0.097 OA 
HETATM   13  N   UNL     1      -8.107   7.665  64.555  1.00  0.00    -0.128 N  
BRANCH   3  14
HETATM   14  C   UNL     1      -8.889   9.137  67.912  1.00  0.00    -0.128 A  
HETATM   15  C   UNL     1      -9.619   9.001  70.245  1.00  0.00    -0.230 A  
HETATM   16  C   UNL     1     -10.867  10.355  68.703  1.00  0.00    -0.270 A  
HETATM   17  C   UNL     1      -9.995   9.982  67.676  1.00  0.00    -0.214 A  
HETATM   18  C   UNL     1      -8.745   8.627  69.215  1.00  0.00    -0.133 A  
HETATM   19  C   UNL     1     -10.671   9.878  69.991  1.00  0.00    -0.338 A  
ENDBRANCH   3  14
ENDBRANCH   2   3
TORSDOF 2
ENDMDL
MODEL      191
REMARK 921   NORMALIZED FREE ENERGY PREDICTED BY IDOCK:   -2.15 KCAL/MOL
REMARK 922        TOTAL FREE ENERGY PREDICTED BY IDOCK:   -2.45 KCAL/MOL
REMARK 923 INTER-LIGAND FREE ENERGY PREDICTED BY IDOCK:   -2.45 KCAL/MOL
REMARK 924 INTRA-LIGAND FREE ENERGY PREDICTED BY IDOCK:    0.00 KCAL/MOL
REMARK 927      BINDING AFFINITY PREDICTED BY RF-SCORE:    0.00 PKD
ROOT
HETATM    1  C   UNL     1     -10.108   8.864  69.185  1.00  0.00    -0.202 C  
HETATM    2  C   UNL     1     -10.170   8.841  67.660  1.00  0.00    -0.298 C  
ENDROOT
BRANCH   2   3
HETATM    3  C   UNL     1      -8.888   8.403  66.870  1.00  0.00    -0.157 C  
HETATM    4  C   UNL     1      -7.663   9.008  67.573  1.00  0.00    -0.096 C  
HETATM    5  O   UNL     1      -9.477   6.126  66.175  1.00  0.00    -0.147 OA 
HETATM    6  C   UNL     1      -8.853   6.866  66.934  1.00  0.00    -0.120 C  
HETATM    7  N   UNL     1      -7.105   8.272  68.584  1.00  0.00    -0.071 N  
HETATM    8  O   UNL     1      -7.202  10.122  67.327  1.00  0.00    -0.088 OA 
HETATM    9  H   UNL     1      -8.289   5.308  68.129  1.00  0.00     0.000 HD 
HETATM   10  C   UNL     1      -7.244   6.931  68.766  1.00  0.00    -0.091 C  
HETATM   11  H   UNL     1      -6.534   8.775  69.263  1.00  0.00     0.000 HD 
HETATM   12  O   UNL     1      -6.564   6.316  69.577  1.00  0.00    -0.044 OA 
HETATM   13  N   UNL     1      -8.137   6.302  67.957  1.00  0.00    -0.114 N  
BRANCH   3  14
HETATM   14  C   UNL     1      -8.954   8.919  65.400  1.00  0.00    -0.232 A  
HETATM   15  C   UNL     1     -10.033  10.248  63.651  1.00  0.00    -0.065 A  
HETATM   16  C   UNL     1      -8.029   9.031  63.129  1.00  0.00    -0.151 A  
HETATM   17  C   UNL     1      -7.992   8.541  64.439  1.00  0.00    -0.147 A  
HETATM   18  C   UNL     1      -9.996   9.755  64.963  1.00  0.00    -0.132 A  
HETATM   19  C   UNL     1      -9.041   9.897  62.739  1.00  0.00    -0.300 A  
ENDBRANCH   3  14
ENDBRANCH   2   3
TORSDOF 2
ENDMDL
MODEL      192
REMARK 921   NORMALIZED FREE ENERGY PREDICTED BY IDOCK:   -2.14 KCAL/MOL
REMARK 922        TOTAL FREE ENERGY PREDICTED BY IDOCK:   -2.44 KCAL/MOL
REMARK 923 INTER-LIGAND FREE ENERGY PREDICTED BY IDOCK:   -2.28 KCAL/MOL
REMARK 924 INTRA-LIGAND FREE ENERGY PREDICTED BY IDOCK:   -0.16 KCAL/MOL
REMARK 927      BINDING AFFINITY PREDICTED BY RF-SCORE:    0.00 PKD
ROOT
HETATM    1  C   UNL     1      -5.765   7.812  68.645  1.00  0.00    -0.028 C  
HETATM    2  C   UNL     1      -7.189   7.626  69.162  1.00  0.00    -0.080 C  
ENDROOT
BRANCH   2   3
HETATM    3  C   UNL     1      -8.348   7.482  68.114  1.00  0.00    -0.125 C  
HETATM    4  C   UNL     1      -7.755   6.902  66.821  1.00  0.00    -0.102 C  
HETATM    5  O   UNL     1     -10.237   6.837  69.539  1.00  0.00    -0.174 OA 
HETATM    6  C   UNL     1      -9.365   6.509  68.736  1.00  0.00    -0.130 C  
HETATM    7  N   UNL     1      -7.703   5.537  66.723  1.00  0.00    -0.099 N  
HETATM    8  O   UNL     1      -7.275   7.580  65.914  1.00  0.00    -0.064 OA 
HETATM    9  H   UNL     1      -9.751   4.520  68.996  1.00  0.00     0.000 HD 
HETATM   10  C   UNL     1      -8.461   4.657  67.430  1.00  0.00    -0.104 C  
HETATM   11  H   UNL     1      -7.035   5.145  66.060  1.00  0.00     0.000 HD 
HETATM   12  O   UNL     1      -8.494   3.465  67.153  1.00  0.00    -0.096 OA 
HETATM   13  N   UNL     1      -9.226   5.182  68.424  1.00  0.00    -0.112 N  
BRANCH   3  14
HETATM   14  C   UNL     1      -8.987   8.873  67.817  1.00  0.00    -0.140 A  
HETATM   15  C   UNL     1      -9.133  11.284  68.217  1.00  0.00    -0.173 A  
HETATM   16  C   UNL     1     -10.568  10.279  66.574  1.00  0.00    -0.202 A  
HETATM   17  C   UNL     1     -10.019   9.027  66.867  1.00  0.00    -0.313 A  
HETATM   18  C   UNL     1      -8.584  10.028  68.511  1.00  0.00    -0.119 A  
HETATM   19  C   UNL     1     -10.114  11.411  67.237  1.00  0.00    -0.218 A  
ENDBRANCH   3  14
ENDBRANCH   2   3
TORSDOF 2
ENDMDL
MODEL      193
REMARK 921   NORMALIZED FREE ENERGY PREDICTED BY IDOCK:   -2.13 KCAL/MOL
REMARK 922        TOTAL FREE ENERGY PREDICTED BY IDOCK:   -2.42 KCAL/MOL
REMARK 923 INTER-LIGAND FREE ENERGY PREDICTED BY IDOCK:   -2.33 KCAL/MOL
REMARK 924 INTRA-LIGAND FREE ENERGY PREDICTED BY IDOCK:   -0.10 KCAL/MOL
REMARK 927      BINDING AFFINITY PREDICTED BY RF-SCORE:    0.00 PKD
ROOT
HETATM    1  C   UNL     1     -10.851   5.880  68.944  1.00  0.00    -0.373 C  
HETATM    2  C   UNL     1     -10.253   6.964  69.837  1.00  0.00    -0.214 C  
ENDROOT
BRANCH   2   3
HETATM    3  C   UNL     1      -8.743   7.340  69.640  1.00  0.00    -0.141 C  
HETATM    4  C   UNL     1      -8.038   6.154  68.964  1.00  0.00    -0.112 C  
HETATM    5  O   UNL     1      -8.883   9.733  69.124  1.00  0.00    -0.141 OA 
HETATM    6  C   UNL     1      -8.729   8.579  68.728  1.00  0.00    -0.139 C  
HETATM    7  N   UNL     1      -8.052   6.127  67.595  1.00  0.00    -0.112 N  
HETATM    8  O   UNL     1      -7.528   5.213  69.571  1.00  0.00    -0.056 OA 
HETATM    9  H   UNL     1      -8.820   9.147  66.768  1.00  0.00     0.000 HD 
HETATM   10  C   UNL     1      -8.249   7.195  66.777  1.00  0.00    -0.114 C  
HETATM   11  H   UNL     1      -7.900   5.223  67.148  1.00  0.00     0.000 HD 
HETATM   12  O   UNL     1      -8.058   7.128  65.570  1.00  0.00    -0.122 OA 
HETATM   13  N   UNL     1      -8.612   8.358  67.381  1.00  0.00    -0.124 N  
BRANCH   3  14
HETATM   14  C   UNL     1      -8.072   7.629  71.018  1.00  0.00    -0.095 A  
HETATM   15  C   UNL     1      -8.142   7.643  73.465  1.00  0.00    -0.190 A  
HETATM   16  C   UNL     1      -6.146   8.372  72.345  1.00  0.00    -0.067 A  
HETATM   17  C   UNL     1      -6.762   8.146  71.110  1.00  0.00    -0.044 A  
HETATM   18  C   UNL     1      -8.759   7.419  72.227  1.00  0.00    -0.138 A  
HETATM   19  C   UNL     1      -6.830   8.106  73.523  1.00  0.00    -0.144 A  
ENDBRANCH   3  14
ENDBRANCH   2   3
TORSDOF 2
ENDMDL
MODEL      194
REMARK 921   NORMALIZED FREE ENERGY PREDICTED BY IDOCK:   -1.95 KCAL/MOL
REMARK 922        TOTAL FREE ENERGY PREDICTED BY IDOCK:   -2.23 KCAL/MOL
REMARK 923 INTER-LIGAND FREE ENERGY PREDICTED BY IDOCK:   -2.19 KCAL/MOL
REMARK 924 INTRA-LIGAND FREE ENERGY PREDICTED BY IDOCK:   -0.04 KCAL/MOL
REMARK 927      BINDING AFFINITY PREDICTED BY RF-SCORE:    0.00 PKD
ROOT
HETATM    1  C   UNL     1      -8.489   7.379  71.922  1.00  0.00    -0.117 C  
HETATM    2  C   UNL     1      -7.896   7.556  70.526  1.00  0.00    -0.096 C  
ENDROOT
BRANCH   2   3
HETATM    3  C   UNL     1      -8.548   6.768  69.337  1.00  0.00    -0.132 C  
HETATM    4  C   UNL     1      -7.781   5.450  69.157  1.00  0.00    -0.089 C  
HETATM    5  O   UNL     1     -10.924   7.310  69.617  1.00  0.00    -0.237 OA 
HETATM    6  C   UNL     1     -10.006   6.502  69.752  1.00  0.00    -0.166 C  
HETATM    7  N   UNL     1      -8.208   4.380  69.899  1.00  0.00    -0.062 N  
HETATM    8  O   UNL     1      -6.784   5.319  68.448  1.00  0.00    -0.051 OA 
HETATM    9  H   UNL     1     -11.171   5.229  70.846  1.00  0.00     0.000 HD 
HETATM   10  C   UNL     1      -9.443   4.234  70.450  1.00  0.00    -0.174 C  
HETATM   11  H   UNL     1      -7.540   3.626  70.051  1.00  0.00     0.000 HD 
HETATM   12  O   UNL     1      -9.811   3.172  70.935  1.00  0.00    -0.148 OA 
HETATM   13  N   UNL     1     -10.267   5.313  70.381  1.00  0.00    -0.251 N  
BRANCH   3  14
HETATM   14  C   UNL     1      -8.466   7.604  68.023  1.00  0.00    -0.123 A  
HETATM   15  C   UNL     1      -9.109   7.984  65.692  1.00  0.00    -0.049 A  
HETATM   16  C   UNL     1      -7.626   9.537  66.767  1.00  0.00    -0.098 A  
HETATM   17  C   UNL     1      -7.672   8.767  67.933  1.00  0.00    -0.102 A  
HETATM   18  C   UNL     1      -9.154   7.212  66.861  1.00  0.00    -0.159 A  
HETATM   19  C   UNL     1      -8.357   9.155  65.651  1.00  0.00    -0.131 A  
ENDBRANCH   3  14
ENDBRANCH   2   3
TORSDOF 2
ENDMDL
MODEL      195
REMARK 921   NORMALIZED FREE ENERGY PREDICTED BY IDOCK:   -1.86 KCAL/MOL
REMARK 922        TOTAL FREE ENERGY PREDICTED BY IDOCK:   -2.12 KCAL/MOL
REMARK 923 INTER-LIGAND FREE ENERGY PREDICTED BY IDOCK:   -2.62 KCAL/MOL
REMARK 924 INTRA-LIGAND FREE ENERGY PREDICTED BY IDOCK:    0.50 KCAL/MOL
REMARK 927      BINDING AFFINITY PREDICTED BY RF-SCORE:    0.00 PKD
ROOT
HETATM    1  C   UNL     1      -9.803   4.993  68.442  1.00  0.00    -0.209 C  
HETATM    2  C   UNL     1      -9.740   4.697  69.938  1.00  0.00    -0.279 C  
ENDROOT
BRANCH   2   3
HETATM    3  C   UNL     1      -9.078   5.763  70.879  1.00  0.00    -0.157 C  
HETATM    4  C   UNL     1      -9.664   5.588  72.289  1.00  0.00    -0.156 C  
HETATM    5  O   UNL     1      -6.788   5.854  70.007  1.00  0.00    -0.053 OA 
HETATM    6  C   UNL     1      -7.570   5.460  70.871  1.00  0.00    -0.089 C  
HETATM    7  N   UNL     1      -9.035   4.693  73.112  1.00  0.00    -0.116 N  
HETATM    8  O   UNL     1     -10.685   6.145  72.689  1.00  0.00    -0.208 OA 
HETATM    9  H   UNL     1      -6.156   4.260  71.727  1.00  0.00     0.000 HD 
HETATM   10  C   UNL     1      -7.752   4.258  72.986  1.00  0.00    -0.082 C  
HETATM   11  H   UNL     1      -9.576   4.320  73.891  1.00  0.00     0.000 HD 
HETATM   12  O   UNL     1      -7.201   3.608  73.865  1.00  0.00    -0.050 OA 
HETATM   13  N   UNL     1      -7.096   4.633  71.855  1.00  0.00    -0.058 N  
BRANCH   3  14
HETATM   14  C   UNL     1      -9.380   7.204  70.364  1.00  0.00    -0.159 A  
HETATM   15  C   UNL     1      -8.794   9.574  70.188  1.00  0.00    -0.266 A  
HETATM   16  C   UNL     1     -10.776   8.772  69.093  1.00  0.00    -0.150 A  
HETATM   17  C   UNL     1     -10.523   7.488  69.587  1.00  0.00    -0.235 A  
HETATM   18  C   UNL     1      -8.542   8.287  70.682  1.00  0.00    -0.139 A  
HETATM   19  C   UNL     1      -9.903   9.812  69.381  1.00  0.00    -0.217 A  
ENDBRANCH   3  14
ENDBRANCH   2   3
TORSDOF 2
ENDMDL
MODEL      196
REMARK 921   NORMALIZED FREE ENERGY PREDICTED BY IDOCK:    1.01 KCAL/MOL
REMARK 922        TOTAL FREE ENERGY PREDICTED BY IDOCK:    1.08 KCAL/MOL
REMARK 923 INTER-LIGAND FREE ENERGY PREDICTED BY IDOCK:    0.84 KCAL/MOL
REMARK 924 INTRA-LIGAND FREE ENERGY PREDICTED BY IDOCK:    0.24 KCAL/MOL
REMARK 927      BINDING AFFINITY PREDICTED BY RF-SCORE:    0.00 PKD
ROOT
HETATM    1  C   UNL     1     -12.014  10.607  68.160  1.00  0.00     0.313 C  
HETATM    2  C   UNL     1     -11.630  11.941  67.526  1.00  0.00    -0.374 C  
ENDROOT
BRANCH   2   3
HETATM    3  C   UNL     1     -10.266  12.595  67.939  1.00  0.00    -0.220 C  
HETATM    4  C   UNL     1      -9.969  12.205  69.395  1.00  0.00     0.689 C  
HETATM    5  O   UNL     1      -8.980  12.438  65.857  1.00  0.00     0.003 OA 
HETATM    6  C   UNL     1      -9.207  12.010  66.988  1.00  0.00    -0.195 C  
HETATM    7  N   UNL     1      -9.291  11.031  69.594  1.00  0.00    -0.247 N  
HETATM    8  O   UNL     1     -10.353  12.840  70.376  1.00  0.00     2.293 OA 
HETATM    9  H   UNL     1      -8.005  10.383  66.709  1.00  0.00     0.000 HD 
HETATM   10  C   UNL     1      -8.514  10.394  68.678  1.00  0.00    -0.129 C  
HETATM   11  H   UNL     1      -9.378  10.596  70.511  1.00  0.00     0.000 HD 
HETATM   12  O   UNL     1      -7.791   9.455  68.986  1.00  0.00    -0.077 OA 
HETATM   13  N   UNL     1      -8.538  10.893  67.413  1.00  0.00    -0.127 N  
BRANCH   3  14
HETATM   14  C   UNL     1     -10.351  14.148  67.823  1.00  0.00    -0.242 A  
HETATM   15  C   UNL     1     -11.368  16.164  66.878  1.00  0.00     0.262 A  
HETATM   16  C   UNL     1      -9.592  16.388  68.480  1.00  0.00    -0.229 A  
HETATM   17  C   UNL     1      -9.492  14.995  68.556  1.00  0.00    -0.203 A  
HETATM   18  C   UNL     1     -11.267  14.769  66.954  1.00  0.00    -0.347 A  
HETATM   19  C   UNL     1     -10.541  16.973  67.653  1.00  0.00    -0.333 A  
ENDBRANCH   3  14
ENDBRANCH   2   3
TORSDOF 2
ENDMDL
MODEL      197
REMARK 921   NORMALIZED FREE ENERGY PREDICTED BY IDOCK:    4.82 KCAL/MOL
REMARK 922        TOTAL FREE ENERGY PREDICTED BY IDOCK:    5.34 KCAL/MOL
REMARK 923 INTER-LIGAND FREE ENERGY PREDICTED BY IDOCK:    3.85 KCAL/MOL
REMARK 924 INTRA-LIGAND FREE ENERGY PREDICTED BY IDOCK:    1.49 KCAL/MOL
REMARK 927      BINDING AFFINITY PREDICTED BY RF-SCORE:    0.00 PKD
ROOT
HETATM    1  C   UNL     1     -12.138   6.947  65.961  1.00  0.00     5.920 C  
HETATM    2  C   UNL     1     -11.352   5.756  66.502  1.00  0.00     0.430 C  
ENDROOT
BRANCH   2   3
HETATM    3  C   UNL     1     -10.011   6.035  67.266  1.00  0.00    -0.177 C  
HETATM    4  C   UNL     1      -8.932   6.383  66.229  1.00  0.00    -0.156 C  
HETATM    5  O   UNL     1     -10.813   7.146  69.300  1.00  0.00    -0.225 OA 
HETATM    6  C   UNL     1     -10.290   7.234  68.190  1.00  0.00    -0.194 C  
HETATM    7  N   UNL     1      -8.823   7.700  65.869  1.00  0.00    -0.256 N  
HETATM    8  O   UNL     1      -8.218   5.554  65.667  1.00  0.00    -0.116 OA 
HETATM    9  H   UNL     1     -10.383   9.274  68.211  1.00  0.00     0.000 HD 
HETATM   10  C   UNL     1      -9.260   8.764  66.594  1.00  0.00    -0.177 C  
HETATM   11  H   UNL     1      -8.374   7.900  64.976  1.00  0.00     0.000 HD 
HETATM   12  O   UNL     1      -8.959   9.913  66.299  1.00  0.00    -0.141 OA 
HETATM   13  N   UNL     1     -10.002   8.479  67.698  1.00  0.00    -0.184 N  
BRANCH   3  14
HETATM   14  C   UNL     1      -9.573   4.774  68.072  1.00  0.00    -0.199 A  
HETATM   15  C   UNL     1      -8.287   2.700  68.257  1.00  0.00    -0.088 A  
HETATM   16  C   UNL     1      -9.631   3.415  70.115  1.00  0.00    -0.211 A  
HETATM   17  C   UNL     1     -10.051   4.526  69.377  1.00  0.00    -0.124 A  
HETATM   18  C   UNL     1      -8.709   3.813  67.518  1.00  0.00    -0.123 A  
HETATM   19  C   UNL     1      -8.736   2.510  69.561  1.00  0.00    -0.129 A  
ENDBRANCH   3  14
ENDBRANCH   2   3
TORSDOF 2
ENDMDL
