MODEL        1
REMARK 921   NORMALIZED FREE ENERGY PREDICTED BY IDOCK:   -6.96 KCAL/MOL
REMARK 922        TOTAL FREE ENERGY PREDICTED BY IDOCK:   -8.53 KCAL/MOL
REMARK 923 INTER-LIGAND FREE ENERGY PREDICTED BY IDOCK:   -8.18 KCAL/MOL
REMARK 924 INTRA-LIGAND FREE ENERGY PREDICTED BY IDOCK:   -0.34 KCAL/MOL
REMARK 927      BINDING AFFINITY PREDICTED BY RF-SCORE:    0.00 PKD
ROOT
HETATM    1  O   UNL     1     -12.412  14.185  63.315  1.00  0.00    -1.146 OA 
HETATM    2  C   UNL     1     -11.939  13.877  64.559  1.00  0.00    -0.437 A  
HETATM    3  H   UNL     1     -12.251  15.060  62.979  1.00  0.00     0.000 HD 
HETATM    4  C   UNL     1     -12.178  12.589  65.054  1.00  0.00    -0.519 A  
HETATM    5  C   UNL     1     -11.716  12.224  66.318  1.00  0.00    -0.431 A  
HETATM    6  C   UNL     1     -11.012  13.139  67.092  1.00  0.00    -0.289 A  
HETATM    7  C   UNL     1     -10.772  14.424  66.600  1.00  0.00    -0.292 A  
HETATM    8  C   UNL     1     -11.235  14.814  65.328  1.00  0.00    -0.366 A  
ENDROOT
BRANCH   8   9
HETATM    9  C   UNL     1     -10.894  16.207  64.904  1.00  0.00    -0.334 C  
HETATM   10  O   UNL     1     -11.568  16.811  64.078  1.00  0.00    -1.195 OA 
BRANCH   9  11
HETATM   11  O   UNL     1      -9.793  16.700  65.574  1.00  0.00    -0.549 OA 
BRANCH  11  12
HETATM   12  C   UNL     1      -9.998  17.712  66.528  1.00  0.00    -0.332 A  
HETATM   13  C   UNL     1      -9.822  17.471  67.891  1.00  0.00    -0.293 A  
HETATM   14  C   UNL     1      -9.942  18.524  68.797  1.00  0.00    -0.417 A  
HETATM   15  C   UNL     1     -10.215  19.812  68.335  1.00  0.00    -0.568 A  
HETATM   16  C   UNL     1     -10.369  20.051  66.968  1.00  0.00    -0.555 A  
HETATM   17  C   UNL     1     -10.255  18.999  66.056  1.00  0.00    -0.462 A  
ENDBRANCH  11  12
ENDBRANCH   9  11
ENDBRANCH   8   9
TORSDOF 3
ENDMDL
MODEL        2
REMARK 921   NORMALIZED FREE ENERGY PREDICTED BY IDOCK:   -6.76 KCAL/MOL
REMARK 922        TOTAL FREE ENERGY PREDICTED BY IDOCK:   -8.29 KCAL/MOL
REMARK 923 INTER-LIGAND FREE ENERGY PREDICTED BY IDOCK:   -7.89 KCAL/MOL
REMARK 924 INTRA-LIGAND FREE ENERGY PREDICTED BY IDOCK:   -0.39 KCAL/MOL
REMARK 927      BINDING AFFINITY PREDICTED BY RF-SCORE:    0.00 PKD
ROOT
HETATM    1  O   UNL     1     -12.618  14.524  63.569  1.00  0.00    -1.034 OA 
HETATM    2  C   UNL     1     -12.107  14.149  64.779  1.00  0.00    -0.441 A  
HETATM    3  H   UNL     1     -12.360  15.368  63.218  1.00  0.00     0.000 HD 
HETATM    4  C   UNL     1     -12.487  12.905  65.298  1.00  0.00    -0.552 A  
HETATM    5  C   UNL     1     -11.994  12.475  66.530  1.00  0.00    -0.367 A  
HETATM    6  C   UNL     1     -11.118  13.280  67.247  1.00  0.00    -0.301 A  
HETATM    7  C   UNL     1     -10.737  14.522  66.732  1.00  0.00    -0.291 A  
HETATM    8  C   UNL     1     -11.228  14.976  65.492  1.00  0.00    -0.344 A  
ENDROOT
BRANCH   8   9
HETATM    9  C   UNL     1     -10.728  16.309  65.037  1.00  0.00    -0.298 C  
HETATM   10  O   UNL     1     -11.287  16.937  64.146  1.00  0.00    -1.208 OA 
BRANCH   9  11
HETATM   11  O   UNL     1      -9.627  16.726  65.759  1.00  0.00    -0.506 OA 
BRANCH  11  12
HETATM   12  C   UNL     1      -9.751  17.885  66.543  1.00  0.00    -0.329 A  
HETATM   13  C   UNL     1     -10.065  19.119  65.971  1.00  0.00    -0.437 A  
HETATM   14  C   UNL     1     -10.272  20.226  66.793  1.00  0.00    -0.497 A  
HETATM   15  C   UNL     1     -10.187  20.089  68.180  1.00  0.00    -0.535 A  
HETATM   16  C   UNL     1      -9.893  18.848  68.746  1.00  0.00    -0.461 A  
HETATM   17  C   UNL     1      -9.679  17.737  67.928  1.00  0.00    -0.294 A  
ENDBRANCH  11  12
ENDBRANCH   9  11
ENDBRANCH   8   9
TORSDOF 3
ENDMDL
MODEL        3
REMARK 921   NORMALIZED FREE ENERGY PREDICTED BY IDOCK:   -6.38 KCAL/MOL
REMARK 922        TOTAL FREE ENERGY PREDICTED BY IDOCK:   -7.84 KCAL/MOL
REMARK 923 INTER-LIGAND FREE ENERGY PREDICTED BY IDOCK:   -7.32 KCAL/MOL
REMARK 924 INTRA-LIGAND FREE ENERGY PREDICTED BY IDOCK:   -0.53 KCAL/MOL
REMARK 927      BINDING AFFINITY PREDICTED BY RF-SCORE:    0.00 PKD
ROOT
HETATM    1  O   UNL     1      -8.838  14.447  66.080  1.00  0.00    -0.470 OA 
HETATM    2  C   UNL     1     -10.090  13.985  65.789  1.00  0.00    -0.327 A  
HETATM    3  H   UNL     1      -8.632  15.349  65.861  1.00  0.00     0.000 HD 
HETATM    4  C   UNL     1     -10.393  12.656  66.112  1.00  0.00    -0.273 A  
HETATM    5  C   UNL     1     -11.657  12.135  65.836  1.00  0.00    -0.425 A  
HETATM    6  C   UNL     1     -12.624  12.937  65.241  1.00  0.00    -0.502 A  
HETATM    7  C   UNL     1     -12.324  14.263  64.918  1.00  0.00    -0.435 A  
HETATM    8  C   UNL     1     -11.051  14.806  65.184  1.00  0.00    -0.389 A  
ENDROOT
BRANCH   8   9
HETATM    9  C   UNL     1     -10.861  16.242  64.816  1.00  0.00    -0.224 C  
HETATM   10  O   UNL     1     -11.627  16.817  64.052  1.00  0.00    -1.195 OA 
BRANCH   9  11
HETATM   11  O   UNL     1      -9.779  16.806  65.461  1.00  0.00    -0.537 OA 
BRANCH  11  12
HETATM   12  C   UNL     1     -10.027  17.793  66.429  1.00  0.00    -0.344 A  
HETATM   13  C   UNL     1     -10.049  17.486  67.790  1.00  0.00    -0.330 A  
HETATM   14  C   UNL     1     -10.205  18.509  68.725  1.00  0.00    -0.326 A  
HETATM   15  C   UNL     1     -10.315  19.833  68.296  1.00  0.00    -0.536 A  
HETATM   16  C   UNL     1     -10.271  20.136  66.934  1.00  0.00    -0.566 A  
HETATM   17  C   UNL     1     -10.122  19.115  65.993  1.00  0.00    -0.437 A  
ENDBRANCH  11  12
ENDBRANCH   9  11
ENDBRANCH   8   9
TORSDOF 3
ENDMDL
MODEL        4
REMARK 921   NORMALIZED FREE ENERGY PREDICTED BY IDOCK:   -6.35 KCAL/MOL
REMARK 922        TOTAL FREE ENERGY PREDICTED BY IDOCK:   -7.81 KCAL/MOL
REMARK 923 INTER-LIGAND FREE ENERGY PREDICTED BY IDOCK:   -7.17 KCAL/MOL
REMARK 924 INTRA-LIGAND FREE ENERGY PREDICTED BY IDOCK:   -0.64 KCAL/MOL
REMARK 927      BINDING AFFINITY PREDICTED BY RF-SCORE:    0.00 PKD
ROOT
HETATM    1  O   UNL     1     -11.737  16.098  63.933  1.00  0.00    -1.348 OA 
HETATM    2  C   UNL     1     -11.815  14.866  64.517  1.00  0.00    -0.396 A  
HETATM    3  H   UNL     1     -11.419  16.823  64.459  1.00  0.00     0.000 HD 
HETATM    4  C   UNL     1     -12.284  13.798  63.741  1.00  0.00    -0.364 A  
HETATM    5  C   UNL     1     -12.383  12.519  64.290  1.00  0.00    -0.541 A  
HETATM    6  C   UNL     1     -12.011  12.299  65.611  1.00  0.00    -0.373 A  
HETATM    7  C   UNL     1     -11.542  13.362  66.386  1.00  0.00    -0.381 A  
HETATM    8  C   UNL     1     -11.440  14.662  65.852  1.00  0.00    -0.338 A  
ENDROOT
BRANCH   8   9
HETATM    9  C   UNL     1     -10.901  15.709  66.773  1.00  0.00    -0.277 C  
HETATM   10  O   UNL     1     -11.325  15.842  67.915  1.00  0.00    -0.338 OA 
BRANCH   9  11
HETATM   11  O   UNL     1      -9.881  16.438  66.193  1.00  0.00    -0.298 OA 
BRANCH  11  12
HETATM   12  C   UNL     1      -9.688  17.761  66.624  1.00  0.00    -0.313 A  
HETATM   13  C   UNL     1      -8.668  18.093  67.517  1.00  0.00    -0.249 A  
HETATM   14  C   UNL     1      -8.449  19.429  67.846  1.00  0.00    -0.348 A  
HETATM   15  C   UNL     1      -9.233  20.427  67.264  1.00  0.00    -0.525 A  
HETATM   16  C   UNL     1     -10.237  20.091  66.355  1.00  0.00    -0.598 A  
HETATM   17  C   UNL     1     -10.465  18.753  66.027  1.00  0.00    -0.483 A  
ENDBRANCH  11  12
ENDBRANCH   9  11
ENDBRANCH   8   9
TORSDOF 3
ENDMDL
MODEL        5
REMARK 921   NORMALIZED FREE ENERGY PREDICTED BY IDOCK:   -6.29 KCAL/MOL
REMARK 922        TOTAL FREE ENERGY PREDICTED BY IDOCK:   -7.74 KCAL/MOL
REMARK 923 INTER-LIGAND FREE ENERGY PREDICTED BY IDOCK:   -7.10 KCAL/MOL
REMARK 924 INTRA-LIGAND FREE ENERGY PREDICTED BY IDOCK:   -0.65 KCAL/MOL
REMARK 927      BINDING AFFINITY PREDICTED BY RF-SCORE:    0.00 PKD
ROOT
HETATM    1  O   UNL     1     -13.078  12.655  65.197  1.00  0.00    -0.726 OA 
HETATM    2  C   UNL     1     -12.265  13.722  65.457  1.00  0.00    -0.442 A  
HETATM    3  H   UNL     1     -13.203  12.010  65.884  1.00  0.00     0.000 HD 
HETATM    4  C   UNL     1     -12.080  14.671  64.444  1.00  0.00    -0.481 A  
HETATM    5  C   UNL     1     -11.260  15.779  64.659  1.00  0.00    -0.373 A  
HETATM    6  C   UNL     1     -10.625  15.947  65.885  1.00  0.00    -0.348 A  
HETATM    7  C   UNL     1     -10.809  15.002  66.896  1.00  0.00    -0.315 A  
HETATM    8  C   UNL     1     -11.629  13.873  66.697  1.00  0.00    -0.392 A  
ENDROOT
BRANCH   8   9
HETATM    9  C   UNL     1     -11.766  12.948  67.863  1.00  0.00    -0.357 C  
HETATM   10  O   UNL     1     -12.219  11.816  67.737  1.00  0.00    -0.536 OA 
BRANCH   9  11
HETATM   11  O   UNL     1     -11.294  13.510  69.032  1.00  0.00    -0.259 OA 
BRANCH  11  12
HETATM   12  C   UNL     1     -12.210  13.738  70.073  1.00  0.00    -0.342 A  
HETATM   13  C   UNL     1     -12.560  12.727  70.968  1.00  0.00    -0.362 A  
HETATM   14  C   UNL     1     -13.398  13.018  72.042  1.00  0.00    -0.588 A  
HETATM   15  C   UNL     1     -13.863  14.321  72.230  1.00  0.00    -0.622 A  
HETATM   16  C   UNL     1     -13.492  15.333  71.343  1.00  0.00    -0.588 A  
HETATM   17  C   UNL     1     -12.658  15.046  70.261  1.00  0.00    -0.363 A  
ENDBRANCH  11  12
ENDBRANCH   9  11
ENDBRANCH   8   9
TORSDOF 3
ENDMDL
MODEL        6
REMARK 921   NORMALIZED FREE ENERGY PREDICTED BY IDOCK:   -6.24 KCAL/MOL
REMARK 922        TOTAL FREE ENERGY PREDICTED BY IDOCK:   -7.68 KCAL/MOL
REMARK 923 INTER-LIGAND FREE ENERGY PREDICTED BY IDOCK:   -7.16 KCAL/MOL
REMARK 924 INTRA-LIGAND FREE ENERGY PREDICTED BY IDOCK:   -0.52 KCAL/MOL
REMARK 927      BINDING AFFINITY PREDICTED BY RF-SCORE:    0.00 PKD
ROOT
HETATM    1  O   UNL     1     -11.918  11.138  67.544  1.00  0.00    -0.580 OA 
HETATM    2  C   UNL     1     -11.784  12.307  66.850  1.00  0.00    -0.334 A  
HETATM    3  H   UNL     1     -11.999  11.186  68.490  1.00  0.00     0.000 HD 
HETATM    4  C   UNL     1     -11.664  12.236  65.457  1.00  0.00    -0.433 A  
HETATM    5  C   UNL     1     -11.524  13.400  64.702  1.00  0.00    -0.375 A  
HETATM    6  C   UNL     1     -11.507  14.639  65.331  1.00  0.00    -0.352 A  
HETATM    7  C   UNL     1     -11.627  14.713  66.721  1.00  0.00    -0.370 A  
HETATM    8  C   UNL     1     -11.763  13.548  67.502  1.00  0.00    -0.403 A  
ENDROOT
BRANCH   8   9
HETATM    9  C   UNL     1     -11.908  13.759  68.975  1.00  0.00    -0.357 C  
HETATM   10  O   UNL     1     -11.811  12.832  69.771  1.00  0.00    -0.315 OA 
BRANCH   9  11
HETATM   11  O   UNL     1     -12.113  15.086  69.293  1.00  0.00    -0.298 OA 
BRANCH  11  12
HETATM   12  C   UNL     1     -12.575  15.393  70.585  1.00  0.00    -0.439 A  
HETATM   13  C   UNL     1     -13.880  15.097  70.978  1.00  0.00    -0.423 A  
HETATM   14  C   UNL     1     -14.272  15.330  72.296  1.00  0.00    -0.642 A  
HETATM   15  C   UNL     1     -13.352  15.835  73.216  1.00  0.00    -0.649 A  
HETATM   16  C   UNL     1     -12.042  16.109  72.821  1.00  0.00    -0.653 A  
HETATM   17  C   UNL     1     -11.646  15.884  71.501  1.00  0.00    -0.537 A  
ENDBRANCH  11  12
ENDBRANCH   9  11
ENDBRANCH   8   9
TORSDOF 3
ENDMDL
MODEL        7
REMARK 921   NORMALIZED FREE ENERGY PREDICTED BY IDOCK:   -6.18 KCAL/MOL
REMARK 922        TOTAL FREE ENERGY PREDICTED BY IDOCK:   -7.61 KCAL/MOL
REMARK 923 INTER-LIGAND FREE ENERGY PREDICTED BY IDOCK:   -7.03 KCAL/MOL
REMARK 924 INTRA-LIGAND FREE ENERGY PREDICTED BY IDOCK:   -0.58 KCAL/MOL
REMARK 927      BINDING AFFINITY PREDICTED BY RF-SCORE:    0.00 PKD
ROOT
HETATM    1  O   UNL     1      -9.207  13.941  66.157  1.00  0.00    -0.479 OA 
HETATM    2  C   UNL     1     -10.201  13.607  65.281  1.00  0.00    -0.323 A  
HETATM    3  H   UNL     1      -9.099  14.858  66.382  1.00  0.00     0.000 HD 
HETATM    4  C   UNL     1     -10.361  12.256  64.949  1.00  0.00    -0.319 A  
HETATM    5  C   UNL     1     -11.360  11.863  64.060  1.00  0.00    -0.475 A  
HETATM    6  C   UNL     1     -12.207  12.813  63.501  1.00  0.00    -0.613 A  
HETATM    7  C   UNL     1     -12.050  14.161  63.831  1.00  0.00    -0.301 A  
HETATM    8  C   UNL     1     -11.043  14.580  64.724  1.00  0.00    -0.400 A  
ENDROOT
BRANCH   8   9
HETATM    9  C   UNL     1     -10.992  16.044  65.016  1.00  0.00    -0.380 C  
HETATM   10  O   UNL     1     -11.295  16.880  64.172  1.00  0.00    -1.208 OA 
BRANCH   9  11
HETATM   11  O   UNL     1     -10.615  16.303  66.318  1.00  0.00    -0.304 OA 
BRANCH  11  12
HETATM   12  C   UNL     1      -9.986  17.529  66.594  1.00  0.00    -0.314 A  
HETATM   13  C   UNL     1      -8.663  17.767  66.220  1.00  0.00    -0.206 A  
HETATM   14  C   UNL     1      -8.106  19.028  66.426  1.00  0.00    -0.308 A  
HETATM   15  C   UNL     1      -8.879  20.048  66.982  1.00  0.00    -0.433 A  
HETATM   16  C   UNL     1     -10.208  19.810  67.335  1.00  0.00    -0.575 A  
HETATM   17  C   UNL     1     -10.770  18.547  67.137  1.00  0.00    -0.396 A  
ENDBRANCH  11  12
ENDBRANCH   9  11
ENDBRANCH   8   9
TORSDOF 3
ENDMDL
MODEL        8
REMARK 921   NORMALIZED FREE ENERGY PREDICTED BY IDOCK:   -6.07 KCAL/MOL
REMARK 922        TOTAL FREE ENERGY PREDICTED BY IDOCK:   -7.48 KCAL/MOL
REMARK 923 INTER-LIGAND FREE ENERGY PREDICTED BY IDOCK:   -6.86 KCAL/MOL
REMARK 924 INTRA-LIGAND FREE ENERGY PREDICTED BY IDOCK:   -0.62 KCAL/MOL
REMARK 927      BINDING AFFINITY PREDICTED BY RF-SCORE:    0.00 PKD
ROOT
HETATM    1  O   UNL     1     -11.422  12.459  70.112  1.00  0.00    -0.519 OA 
HETATM    2  C   UNL     1     -12.290  13.353  70.672  1.00  0.00    -0.348 A  
HETATM    3  H   UNL     1     -10.790  12.785  69.482  1.00  0.00     0.000 HD 
HETATM    4  C   UNL     1     -13.222  12.873  71.600  1.00  0.00    -0.416 A  
HETATM    5  C   UNL     1     -14.131  13.745  72.200  1.00  0.00    -0.604 A  
HETATM    6  C   UNL     1     -14.111  15.098  71.881  1.00  0.00    -0.649 A  
HETATM    7  C   UNL     1     -13.182  15.579  70.956  1.00  0.00    -0.539 A  
HETATM    8  C   UNL     1     -12.259  14.713  70.335  1.00  0.00    -0.391 A  
ENDROOT
BRANCH   8   9
HETATM    9  C   UNL     1     -11.300  15.352  69.382  1.00  0.00    -0.307 C  
HETATM   10  O   UNL     1     -11.013  16.541  69.459  1.00  0.00    -0.318 OA 
BRANCH   9  11
HETATM   11  O   UNL     1     -10.782  14.446  68.479  1.00  0.00    -0.239 OA 
BRANCH  11  12
HETATM   12  C   UNL     1     -11.203  14.531  67.141  1.00  0.00    -0.333 A  
HETATM   13  C   UNL     1     -10.559  15.370  66.230  1.00  0.00    -0.311 A  
HETATM   14  C   UNL     1     -10.945  15.356  64.891  1.00  0.00    -0.453 A  
HETATM   15  C   UNL     1     -11.954  14.491  64.466  1.00  0.00    -0.482 A  
HETATM   16  C   UNL     1     -12.580  13.640  65.378  1.00  0.00    -0.533 A  
HETATM   17  C   UNL     1     -12.202  13.653  66.722  1.00  0.00    -0.416 A  
ENDBRANCH  11  12
ENDBRANCH   9  11
ENDBRANCH   8   9
TORSDOF 3
ENDMDL
MODEL        9
REMARK 921   NORMALIZED FREE ENERGY PREDICTED BY IDOCK:   -6.04 KCAL/MOL
REMARK 922        TOTAL FREE ENERGY PREDICTED BY IDOCK:   -7.45 KCAL/MOL
REMARK 923 INTER-LIGAND FREE ENERGY PREDICTED BY IDOCK:   -6.98 KCAL/MOL
REMARK 924 INTRA-LIGAND FREE ENERGY PREDICTED BY IDOCK:   -0.47 KCAL/MOL
REMARK 927      BINDING AFFINITY PREDICTED BY RF-SCORE:    0.00 PKD
ROOT
HETATM    1  O   UNL     1     -11.450  16.424  63.722  1.00  0.00    -1.590 OA 
HETATM    2  C   UNL     1     -11.117  15.995  64.975  1.00  0.00    -0.336 A  
HETATM    3  H   UNL     1     -11.898  15.816  63.145  1.00  0.00     0.000 HD 
HETATM    4  C   UNL     1     -10.458  16.891  65.825  1.00  0.00    -0.279 A  
HETATM    5  C   UNL     1     -10.095  16.502  67.114  1.00  0.00    -0.274 A  
HETATM    6  C   UNL     1     -10.392  15.220  67.563  1.00  0.00    -0.244 A  
HETATM    7  C   UNL     1     -11.050  14.324  66.717  1.00  0.00    -0.316 A  
HETATM    8  C   UNL     1     -11.420  14.697  65.409  1.00  0.00    -0.352 A  
ENDROOT
BRANCH   8   9
HETATM    9  C   UNL     1     -12.141  13.659  64.611  1.00  0.00    -0.412 C  
HETATM   10  O   UNL     1     -12.672  13.925  63.539  1.00  0.00    -0.797 OA 
BRANCH   9  11
HETATM   11  O   UNL     1     -12.087  12.414  65.205  1.00  0.00    -0.429 OA 
BRANCH  11  12
HETATM   12  C   UNL     1     -11.080  11.526  64.791  1.00  0.00    -0.233 A  
HETATM   13  C   UNL     1     -10.602  11.530  63.480  1.00  0.00    -0.487 A  
HETATM   14  C   UNL     1      -9.538  10.700  63.132  1.00  0.00    -0.382 A  
HETATM   15  C   UNL     1      -8.944   9.888  64.099  1.00  0.00    -0.274 A  
HETATM   16  C   UNL     1      -9.412   9.903  65.414  1.00  0.00    -0.319 A  
HETATM   17  C   UNL     1     -10.482  10.729  65.767  1.00  0.00    -0.256 A  
ENDBRANCH  11  12
ENDBRANCH   9  11
ENDBRANCH   8   9
TORSDOF 3
ENDMDL
MODEL       10
REMARK 921   NORMALIZED FREE ENERGY PREDICTED BY IDOCK:   -6.04 KCAL/MOL
REMARK 922        TOTAL FREE ENERGY PREDICTED BY IDOCK:   -7.44 KCAL/MOL
REMARK 923 INTER-LIGAND FREE ENERGY PREDICTED BY IDOCK:   -6.93 KCAL/MOL
REMARK 924 INTRA-LIGAND FREE ENERGY PREDICTED BY IDOCK:   -0.52 KCAL/MOL
REMARK 927      BINDING AFFINITY PREDICTED BY RF-SCORE:    0.00 PKD
ROOT
HETATM    1  O   UNL     1     -11.016  19.598  64.898  1.00  0.00    -0.219 OA 
HETATM    2  C   UNL     1     -10.516  19.173  66.096  1.00  0.00    -0.477 A  
HETATM    3  H   UNL     1     -11.274  18.939  64.262  1.00  0.00     0.000 HD 
HETATM    4  C   UNL     1     -10.136  20.143  67.032  1.00  0.00    -0.599 A  
HETATM    5  C   UNL     1      -9.619  19.763  68.270  1.00  0.00    -0.467 A  
HETATM    6  C   UNL     1      -9.483  18.415  68.582  1.00  0.00    -0.356 A  
HETATM    7  C   UNL     1      -9.862  17.446  67.650  1.00  0.00    -0.282 A  
HETATM    8  C   UNL     1     -10.381  17.810  66.392  1.00  0.00    -0.351 A  
ENDROOT
BRANCH   8   9
HETATM    9  C   UNL     1     -10.772  16.682  65.492  1.00  0.00    -0.223 C  
HETATM   10  O   UNL     1     -11.192  16.879  64.358  1.00  0.00    -1.159 OA 
BRANCH   9  11
HETATM   11  O   UNL     1     -10.564  15.451  66.081  1.00  0.00    -0.298 OA 
BRANCH  11  12
HETATM   12  C   UNL     1     -11.057  14.311  65.422  1.00  0.00    -0.327 A  
HETATM   13  C   UNL     1     -12.384  13.905  65.569  1.00  0.00    -0.506 A  
HETATM   14  C   UNL     1     -12.860  12.826  64.826  1.00  0.00    -0.374 A  
HETATM   15  C   UNL     1     -12.015  12.175  63.925  1.00  0.00    -0.581 A  
HETATM   16  C   UNL     1     -10.695  12.599  63.767  1.00  0.00    -0.454 A  
HETATM   17  C   UNL     1     -10.211  13.676  64.513  1.00  0.00    -0.253 A  
ENDBRANCH  11  12
ENDBRANCH   9  11
ENDBRANCH   8   9
TORSDOF 3
ENDMDL
MODEL       11
REMARK 921   NORMALIZED FREE ENERGY PREDICTED BY IDOCK:   -6.03 KCAL/MOL
REMARK 922        TOTAL FREE ENERGY PREDICTED BY IDOCK:   -7.43 KCAL/MOL
REMARK 923 INTER-LIGAND FREE ENERGY PREDICTED BY IDOCK:   -6.93 KCAL/MOL
REMARK 924 INTRA-LIGAND FREE ENERGY PREDICTED BY IDOCK:   -0.50 KCAL/MOL
REMARK 927      BINDING AFFINITY PREDICTED BY RF-SCORE:    0.00 PKD
ROOT
HETATM    1  O   UNL     1     -10.676  16.245  67.153  1.00  0.00    -0.309 OA 
HETATM    2  C   UNL     1     -11.060  15.073  66.565  1.00  0.00    -0.329 A  
HETATM    3  H   UNL     1     -10.801  16.337  68.091  1.00  0.00     0.000 HD 
HETATM    4  C   UNL     1     -10.877  14.938  65.184  1.00  0.00    -0.428 A  
HETATM    5  C   UNL     1     -11.253  13.762  64.535  1.00  0.00    -0.381 A  
HETATM    6  C   UNL     1     -11.809  12.715  65.261  1.00  0.00    -0.452 A  
HETATM    7  C   UNL     1     -11.992  12.848  66.639  1.00  0.00    -0.436 A  
HETATM    8  C   UNL     1     -11.624  14.030  67.312  1.00  0.00    -0.396 A  
ENDROOT
BRANCH   8   9
HETATM    9  C   UNL     1     -11.848  14.040  68.790  1.00  0.00    -0.361 C  
HETATM   10  O   UNL     1     -11.756  13.019  69.462  1.00  0.00    -0.297 OA 
BRANCH   9  11
HETATM   11  O   UNL     1     -12.116  15.307  69.267  1.00  0.00    -0.306 OA 
BRANCH  11  12
HETATM   12  C   UNL     1     -12.535  15.435  70.603  1.00  0.00    -0.428 A  
HETATM   13  C   UNL     1     -11.675  15.916  71.591  1.00  0.00    -0.563 A  
HETATM   14  C   UNL     1     -12.155  16.118  72.883  1.00  0.00    -0.643 A  
HETATM   15  C   UNL     1     -13.496  15.860  73.176  1.00  0.00    -0.650 A  
HETATM   16  C   UNL     1     -14.356  15.400  72.178  1.00  0.00    -0.642 A  
HETATM   17  C   UNL     1     -13.879  15.190  70.883  1.00  0.00    -0.312 A  
ENDBRANCH  11  12
ENDBRANCH   9  11
ENDBRANCH   8   9
TORSDOF 3
ENDMDL
MODEL       12
REMARK 921   NORMALIZED FREE ENERGY PREDICTED BY IDOCK:   -5.98 KCAL/MOL
REMARK 922        TOTAL FREE ENERGY PREDICTED BY IDOCK:   -7.37 KCAL/MOL
REMARK 923 INTER-LIGAND FREE ENERGY PREDICTED BY IDOCK:   -6.74 KCAL/MOL
REMARK 924 INTRA-LIGAND FREE ENERGY PREDICTED BY IDOCK:   -0.63 KCAL/MOL
REMARK 927      BINDING AFFINITY PREDICTED BY RF-SCORE:    0.00 PKD
ROOT
HETATM    1  O   UNL     1     -10.964  17.695  64.712  1.00  0.00    -0.917 OA 
HETATM    2  C   UNL     1     -10.601  18.035  65.984  1.00  0.00    -0.251 A  
HETATM    3  H   UNL     1     -11.092  16.774  64.515  1.00  0.00     0.000 HD 
HETATM    4  C   UNL     1     -10.412  19.392  66.275  1.00  0.00    -0.586 A  
HETATM    5  C   UNL     1     -10.041  19.792  67.558  1.00  0.00    -0.554 A  
HETATM    6  C   UNL     1      -9.863  18.843  68.558  1.00  0.00    -0.455 A  
HETATM    7  C   UNL     1     -10.052  17.489  68.271  1.00  0.00    -0.346 A  
HETATM    8  C   UNL     1     -10.421  17.064  66.979  1.00  0.00    -0.279 A  
ENDROOT
BRANCH   8   9
HETATM    9  C   UNL     1     -10.617  15.593  66.804  1.00  0.00    -0.307 C  
HETATM   10  O   UNL     1     -11.321  14.942  67.568  1.00  0.00    -0.321 OA 
BRANCH   9  11
HETATM   11  O   UNL     1      -9.959  15.108  65.692  1.00  0.00    -0.316 OA 
BRANCH  11  12
HETATM   12  C   UNL     1     -10.535  14.029  65.000  1.00  0.00    -0.420 A  
HETATM   13  C   UNL     1     -10.073  12.724  65.176  1.00  0.00    -0.246 A  
HETATM   14  C   UNL     1     -10.731  11.670  64.545  1.00  0.00    -0.378 A  
HETATM   15  C   UNL     1     -11.859  11.923  63.762  1.00  0.00    -0.558 A  
HETATM   16  C   UNL     1     -12.329  13.228  63.608  1.00  0.00    -0.456 A  
HETATM   17  C   UNL     1     -11.670  14.288  64.232  1.00  0.00    -0.348 A  
ENDBRANCH  11  12
ENDBRANCH   9  11
ENDBRANCH   8   9
TORSDOF 3
ENDMDL
MODEL       13
REMARK 921   NORMALIZED FREE ENERGY PREDICTED BY IDOCK:   -5.98 KCAL/MOL
REMARK 922        TOTAL FREE ENERGY PREDICTED BY IDOCK:   -7.37 KCAL/MOL
REMARK 923 INTER-LIGAND FREE ENERGY PREDICTED BY IDOCK:   -6.76 KCAL/MOL
REMARK 924 INTRA-LIGAND FREE ENERGY PREDICTED BY IDOCK:   -0.61 KCAL/MOL
REMARK 927      BINDING AFFINITY PREDICTED BY RF-SCORE:    0.00 PKD
ROOT
HETATM    1  O   UNL     1     -13.357  11.646  72.118  1.00  0.00    -0.576 OA 
HETATM    2  C   UNL     1     -13.183  12.948  71.743  1.00  0.00    -0.384 A  
HETATM    3  H   UNL     1     -12.977  10.969  71.571  1.00  0.00     0.000 HD 
HETATM    4  C   UNL     1     -13.744  13.946  72.550  1.00  0.00    -0.665 A  
HETATM    5  C   UNL     1     -13.595  15.291  72.211  1.00  0.00    -0.586 A  
HETATM    6  C   UNL     1     -12.884  15.647  71.071  1.00  0.00    -0.521 A  
HETATM    7  C   UNL     1     -12.323  14.653  70.266  1.00  0.00    -0.406 A  
HETATM    8  C   UNL     1     -12.467  13.288  70.587  1.00  0.00    -0.373 A  
ENDROOT
BRANCH   8   9
HETATM    9  C   UNL     1     -11.800  12.322  69.662  1.00  0.00    -0.324 C  
HETATM   10  O   UNL     1     -11.990  11.115  69.746  1.00  0.00    -0.300 OA 
BRANCH   9  11
HETATM   11  O   UNL     1     -11.014  12.959  68.722  1.00  0.00    -0.244 OA 
BRANCH  11  12
HETATM   12  C   UNL     1     -11.361  12.822  67.367  1.00  0.00    -0.313 A  
HETATM   13  C   UNL     1     -12.226  13.722  66.744  1.00  0.00    -0.440 A  
HETATM   14  C   UNL     1     -12.471  13.607  65.377  1.00  0.00    -0.537 A  
HETATM   15  C   UNL     1     -11.834  12.609  64.637  1.00  0.00    -0.437 A  
HETATM   16  C   UNL     1     -10.954  11.725  65.262  1.00  0.00    -0.350 A  
HETATM   17  C   UNL     1     -10.709  11.831  66.633  1.00  0.00    -0.300 A  
ENDBRANCH  11  12
ENDBRANCH   9  11
ENDBRANCH   8   9
TORSDOF 3
ENDMDL
MODEL       14
REMARK 921   NORMALIZED FREE ENERGY PREDICTED BY IDOCK:   -5.97 KCAL/MOL
REMARK 922        TOTAL FREE ENERGY PREDICTED BY IDOCK:   -7.36 KCAL/MOL
REMARK 923 INTER-LIGAND FREE ENERGY PREDICTED BY IDOCK:   -6.80 KCAL/MOL
REMARK 924 INTRA-LIGAND FREE ENERGY PREDICTED BY IDOCK:   -0.57 KCAL/MOL
REMARK 927      BINDING AFFINITY PREDICTED BY RF-SCORE:    0.00 PKD
ROOT
HETATM    1  O   UNL     1     -12.202  14.714  67.691  1.00  0.00    -0.593 OA 
HETATM    2  C   UNL     1     -11.807  14.066  66.555  1.00  0.00    -0.417 A  
HETATM    3  H   UNL     1     -12.080  15.656  67.733  1.00  0.00     0.000 HD 
HETATM    4  C   UNL     1     -11.986  12.678  66.492  1.00  0.00    -0.401 A  
HETATM    5  C   UNL     1     -11.599  11.969  65.355  1.00  0.00    -0.343 A  
HETATM    6  C   UNL     1     -11.037  12.640  64.275  1.00  0.00    -0.405 A  
HETATM    7  C   UNL     1     -10.858  14.024  64.335  1.00  0.00    -0.265 A  
HETATM    8  C   UNL     1     -11.237  14.758  65.477  1.00  0.00    -0.346 A  
ENDROOT
BRANCH   8   9
HETATM    9  C   UNL     1     -11.017  16.235  65.411  1.00  0.00    -0.197 C  
HETATM   10  O   UNL     1     -11.183  16.864  64.372  1.00  0.00    -1.159 OA 
BRANCH   9  11
HETATM   11  O   UNL     1     -10.659  16.764  66.634  1.00  0.00    -0.286 OA 
BRANCH  11  12
HETATM   12  C   UNL     1      -9.934  17.968  66.647  1.00  0.00    -0.362 A  
HETATM   13  C   UNL     1     -10.545  19.180  66.970  1.00  0.00    -0.551 A  
HETATM   14  C   UNL     1      -9.773  20.336  67.064  1.00  0.00    -0.598 A  
HETATM   15  C   UNL     1      -8.394  20.272  66.858  1.00  0.00    -0.348 A  
HETATM   16  C   UNL     1      -7.785  19.052  66.557  1.00  0.00    -0.272 A  
HETATM   17  C   UNL     1      -8.555  17.891  66.455  1.00  0.00    -0.254 A  
ENDBRANCH  11  12
ENDBRANCH   9  11
ENDBRANCH   8   9
TORSDOF 3
ENDMDL
MODEL       15
REMARK 921   NORMALIZED FREE ENERGY PREDICTED BY IDOCK:   -5.97 KCAL/MOL
REMARK 922        TOTAL FREE ENERGY PREDICTED BY IDOCK:   -7.36 KCAL/MOL
REMARK 923 INTER-LIGAND FREE ENERGY PREDICTED BY IDOCK:   -6.73 KCAL/MOL
REMARK 924 INTRA-LIGAND FREE ENERGY PREDICTED BY IDOCK:   -0.62 KCAL/MOL
REMARK 927      BINDING AFFINITY PREDICTED BY RF-SCORE:    0.00 PKD
ROOT
HETATM    1  O   UNL     1     -12.219   9.924  70.033  1.00  0.00    -0.475 OA 
HETATM    2  C   UNL     1     -12.410  11.213  70.444  1.00  0.00    -0.344 A  
HETATM    3  H   UNL     1     -11.734   9.779  69.229  1.00  0.00     0.000 HD 
HETATM    4  C   UNL     1     -13.125  11.428  71.629  1.00  0.00    -0.498 A  
HETATM    5  C   UNL     1     -13.348  12.725  72.091  1.00  0.00    -0.593 A  
HETATM    6  C   UNL     1     -12.856  13.812  71.378  1.00  0.00    -0.449 A  
HETATM    7  C   UNL     1     -12.142  13.600  70.196  1.00  0.00    -0.431 A  
HETATM    8  C   UNL     1     -11.911  12.298  69.709  1.00  0.00    -0.388 A  
ENDROOT
BRANCH   8   9
HETATM    9  C   UNL     1     -11.113  12.201  68.449  1.00  0.00    -0.245 C  
HETATM   10  O   UNL     1      -9.955  12.595  68.388  1.00  0.00    -0.226 OA 
BRANCH   9  11
HETATM   11  O   UNL     1     -11.821  11.596  67.429  1.00  0.00    -0.603 OA 
BRANCH  11  12
HETATM   12  C   UNL     1     -11.776  12.184  66.154  1.00  0.00    -0.315 A  
HETATM   13  C   UNL     1     -11.237  11.505  65.060  1.00  0.00    -0.226 A  
HETATM   14  C   UNL     1     -11.297  12.084  63.794  1.00  0.00    -0.526 A  
HETATM   15  C   UNL     1     -11.913  13.325  63.623  1.00  0.00    -0.547 A  
HETATM   16  C   UNL     1     -12.469  13.989  64.718  1.00  0.00    -0.392 A  
HETATM   17  C   UNL     1     -12.407  13.417  65.990  1.00  0.00    -0.471 A  
ENDBRANCH  11  12
ENDBRANCH   9  11
ENDBRANCH   8   9
TORSDOF 3
ENDMDL
MODEL       16
REMARK 921   NORMALIZED FREE ENERGY PREDICTED BY IDOCK:   -5.95 KCAL/MOL
REMARK 922        TOTAL FREE ENERGY PREDICTED BY IDOCK:   -7.34 KCAL/MOL
REMARK 923 INTER-LIGAND FREE ENERGY PREDICTED BY IDOCK:   -6.75 KCAL/MOL
REMARK 924 INTRA-LIGAND FREE ENERGY PREDICTED BY IDOCK:   -0.59 KCAL/MOL
REMARK 927      BINDING AFFINITY PREDICTED BY RF-SCORE:    0.00 PKD
ROOT
HETATM    1  O   UNL     1     -12.291  13.602  62.966  1.00  0.00    -1.041 OA 
HETATM    2  C   UNL     1     -11.607  12.709  63.741  1.00  0.00    -0.476 A  
HETATM    3  H   UNL     1     -12.816  14.262  63.404  1.00  0.00     0.000 HD 
HETATM    4  C   UNL     1     -10.833  11.736  63.097  1.00  0.00    -0.299 A  
HETATM    5  C   UNL     1     -10.115  10.800  63.842  1.00  0.00    -0.397 A  
HETATM    6  C   UNL     1     -10.163  10.833  65.231  1.00  0.00    -0.351 A  
HETATM    7  C   UNL     1     -10.934  11.803  65.876  1.00  0.00    -0.354 A  
HETATM    8  C   UNL     1     -11.671  12.754  65.141  1.00  0.00    -0.396 A  
ENDROOT
BRANCH   8   9
HETATM    9  C   UNL     1     -12.436  13.754  65.945  1.00  0.00    -0.468 C  
HETATM   10  O   UNL     1     -13.512  14.199  65.563  1.00  0.00    -0.643 OA 
BRANCH   9  11
HETATM   11  O   UNL     1     -11.807  14.056  67.136  1.00  0.00    -0.369 OA 
BRANCH  11  12
HETATM   12  C   UNL     1     -11.014  15.215  67.190  1.00  0.00    -0.326 A  
HETATM   13  C   UNL     1     -10.141  15.546  66.153  1.00  0.00    -0.329 A  
HETATM   14  C   UNL     1      -9.441  16.751  66.200  1.00  0.00    -0.295 A  
HETATM   15  C   UNL     1      -9.635  17.627  67.269  1.00  0.00    -0.271 A  
HETATM   16  C   UNL     1     -10.525  17.299  68.293  1.00  0.00    -0.385 A  
HETATM   17  C   UNL     1     -11.224  16.091  68.254  1.00  0.00    -0.350 A  
ENDBRANCH  11  12
ENDBRANCH   9  11
ENDBRANCH   8   9
TORSDOF 3
ENDMDL
MODEL       17
REMARK 921   NORMALIZED FREE ENERGY PREDICTED BY IDOCK:   -5.95 KCAL/MOL
REMARK 922        TOTAL FREE ENERGY PREDICTED BY IDOCK:   -7.34 KCAL/MOL
REMARK 923 INTER-LIGAND FREE ENERGY PREDICTED BY IDOCK:   -6.83 KCAL/MOL
REMARK 924 INTRA-LIGAND FREE ENERGY PREDICTED BY IDOCK:   -0.50 KCAL/MOL
REMARK 927      BINDING AFFINITY PREDICTED BY RF-SCORE:    0.00 PKD
ROOT
HETATM    1  O   UNL     1     -12.615  16.217  69.722  1.00  0.00    -0.489 OA 
HETATM    2  C   UNL     1     -12.826  15.096  70.475  1.00  0.00    -0.348 A  
HETATM    3  H   UNL     1     -12.074  16.137  68.945  1.00  0.00     0.000 HD 
HETATM    4  C   UNL     1     -13.623  15.213  71.620  1.00  0.00    -0.560 A  
HETATM    5  C   UNL     1     -13.869  14.100  72.424  1.00  0.00    -0.638 A  
HETATM    6  C   UNL     1     -13.324  12.866  72.087  1.00  0.00    -0.615 A  
HETATM    7  C   UNL     1     -12.529  12.747  70.945  1.00  0.00    -0.373 A  
HETATM    8  C   UNL     1     -12.264  13.861  70.123  1.00  0.00    -0.425 A  
ENDROOT
BRANCH   8   9
HETATM    9  C   UNL     1     -11.421  13.601  68.917  1.00  0.00    -0.303 C  
HETATM   10  O   UNL     1     -10.383  14.220  68.712  1.00  0.00    -0.237 OA 
BRANCH   9  11
HETATM   11  O   UNL     1     -11.933  12.587  68.132  1.00  0.00    -0.333 OA 
BRANCH  11  12
HETATM   12  C   UNL     1     -11.830  12.715  66.737  1.00  0.00    -0.370 A  
HETATM   13  C   UNL     1     -12.364  13.817  66.067  1.00  0.00    -0.499 A  
HETATM   14  C   UNL     1     -12.159  13.955  64.696  1.00  0.00    -0.458 A  
HETATM   15  C   UNL     1     -11.405  13.005  64.006  1.00  0.00    -0.458 A  
HETATM   16  C   UNL     1     -10.856  11.916  64.684  1.00  0.00    -0.363 A  
HETATM   17  C   UNL     1     -11.063  11.769  66.058  1.00  0.00    -0.363 A  
ENDBRANCH  11  12
ENDBRANCH   9  11
ENDBRANCH   8   9
TORSDOF 3
ENDMDL
MODEL       18
REMARK 921   NORMALIZED FREE ENERGY PREDICTED BY IDOCK:   -5.93 KCAL/MOL
REMARK 922        TOTAL FREE ENERGY PREDICTED BY IDOCK:   -7.32 KCAL/MOL
REMARK 923 INTER-LIGAND FREE ENERGY PREDICTED BY IDOCK:   -6.77 KCAL/MOL
REMARK 924 INTRA-LIGAND FREE ENERGY PREDICTED BY IDOCK:   -0.55 KCAL/MOL
REMARK 927      BINDING AFFINITY PREDICTED BY RF-SCORE:    0.00 PKD
ROOT
HETATM    1  O   UNL     1     -12.706  15.470  69.994  1.00  0.00    -0.598 OA 
HETATM    2  C   UNL     1     -12.729  14.211  70.524  1.00  0.00    -0.309 A  
HETATM    3  H   UNL     1     -12.291  15.591  69.148  1.00  0.00     0.000 HD 
HETATM    4  C   UNL     1     -13.340  14.033  71.771  1.00  0.00    -0.465 A  
HETATM    5  C   UNL     1     -13.390  12.768  72.357  1.00  0.00    -0.479 A  
HETATM    6  C   UNL     1     -12.835  11.676  71.700  1.00  0.00    -0.454 A  
HETATM    7  C   UNL     1     -12.225  11.851  70.455  1.00  0.00    -0.426 A  
HETATM    8  C   UNL     1     -12.160  13.122  69.850  1.00  0.00    -0.357 A  
ENDROOT
BRANCH   8   9
HETATM    9  C   UNL     1     -11.504  13.176  68.508  1.00  0.00    -0.303 C  
HETATM   10  O   UNL     1     -10.651  14.015  68.241  1.00  0.00    -0.236 OA 
BRANCH   9  11
HETATM   11  O   UNL     1     -11.947  12.172  67.671  1.00  0.00    -0.529 OA 
BRANCH  11  12
HETATM   12  C   UNL     1     -11.563  12.219  66.320  1.00  0.00    -0.385 A  
HETATM   13  C   UNL     1     -10.501  11.453  65.839  1.00  0.00    -0.309 A  
HETATM   14  C   UNL     1     -10.211  11.456  64.476  1.00  0.00    -0.352 A  
HETATM   15  C   UNL     1     -10.998  12.205  63.599  1.00  0.00    -0.527 A  
HETATM   16  C   UNL     1     -12.072  12.952  64.083  1.00  0.00    -0.503 A  
HETATM   17  C   UNL     1     -12.363  12.958  65.449  1.00  0.00    -0.538 A  
ENDBRANCH  11  12
ENDBRANCH   9  11
ENDBRANCH   8   9
TORSDOF 3
ENDMDL
MODEL       19
REMARK 921   NORMALIZED FREE ENERGY PREDICTED BY IDOCK:   -5.92 KCAL/MOL
REMARK 922        TOTAL FREE ENERGY PREDICTED BY IDOCK:   -7.30 KCAL/MOL
REMARK 923 INTER-LIGAND FREE ENERGY PREDICTED BY IDOCK:   -6.74 KCAL/MOL
REMARK 924 INTRA-LIGAND FREE ENERGY PREDICTED BY IDOCK:   -0.56 KCAL/MOL
REMARK 927      BINDING AFFINITY PREDICTED BY RF-SCORE:    0.00 PKD
ROOT
HETATM    1  O   UNL     1     -11.145  13.710  69.545  1.00  0.00    -0.401 OA 
HETATM    2  C   UNL     1     -12.035  13.986  70.543  1.00  0.00    -0.320 A  
HETATM    3  H   UNL     1     -11.007  12.800  69.308  1.00  0.00     0.000 HD 
HETATM    4  C   UNL     1     -12.237  15.327  70.893  1.00  0.00    -0.409 A  
HETATM    5  C   UNL     1     -13.135  15.663  71.906  1.00  0.00    -0.545 A  
HETATM    6  C   UNL     1     -13.838  14.665  72.571  1.00  0.00    -0.561 A  
HETATM    7  C   UNL     1     -13.638  13.327  72.224  1.00  0.00    -0.703 A  
HETATM    8  C   UNL     1     -12.731  12.967  71.207  1.00  0.00    -0.371 A  
ENDROOT
BRANCH   8   9
HETATM    9  C   UNL     1     -12.625  11.506  70.911  1.00  0.00    -0.341 C  
HETATM   10  O   UNL     1     -12.281  11.095  69.809  1.00  0.00    -0.315 OA 
BRANCH   9  11
HETATM   11  O   UNL     1     -12.913  10.728  72.015  1.00  0.00    -0.463 OA 
BRANCH  11  12
HETATM   12  C   UNL     1     -12.700   9.342  71.922  1.00  0.00    -0.401 A  
HETATM   13  C   UNL     1     -11.451   8.781  72.191  1.00  0.00    -0.421 A  
HETATM   14  C   UNL     1     -11.303   7.395  72.180  1.00  0.00    -0.311 A  
HETATM   15  C   UNL     1     -12.406   6.579  71.923  1.00  0.00    -0.339 A  
HETATM   16  C   UNL     1     -13.657   7.146  71.675  1.00  0.00    -0.399 A  
HETATM   17  C   UNL     1     -13.810   8.534  71.679  1.00  0.00    -0.437 A  
ENDBRANCH  11  12
ENDBRANCH   9  11
ENDBRANCH   8   9
TORSDOF 3
ENDMDL
MODEL       20
REMARK 921   NORMALIZED FREE ENERGY PREDICTED BY IDOCK:   -5.89 KCAL/MOL
REMARK 922        TOTAL FREE ENERGY PREDICTED BY IDOCK:   -7.26 KCAL/MOL
REMARK 923 INTER-LIGAND FREE ENERGY PREDICTED BY IDOCK:   -6.59 KCAL/MOL
REMARK 924 INTRA-LIGAND FREE ENERGY PREDICTED BY IDOCK:   -0.68 KCAL/MOL
REMARK 927      BINDING AFFINITY PREDICTED BY RF-SCORE:    0.00 PKD
ROOT
HETATM    1  O   UNL     1      -9.921  16.324  66.001  1.00  0.00    -0.305 OA 
HETATM    2  C   UNL     1     -10.578  15.130  66.090  1.00  0.00    -0.313 A  
HETATM    3  H   UNL     1      -9.905  16.883  66.769  1.00  0.00     0.000 HD 
HETATM    4  C   UNL     1     -10.603  14.306  64.957  1.00  0.00    -0.444 A  
HETATM    5  C   UNL     1     -11.261  13.076  64.995  1.00  0.00    -0.324 A  
HETATM    6  C   UNL     1     -11.891  12.661  66.162  1.00  0.00    -0.477 A  
HETATM    7  C   UNL     1     -11.867  13.481  67.293  1.00  0.00    -0.427 A  
HETATM    8  C   UNL     1     -11.213  14.729  67.273  1.00  0.00    -0.351 A  
ENDROOT
BRANCH   8   9
HETATM    9  C   UNL     1     -11.236  15.502  68.552  1.00  0.00    -0.333 C  
HETATM   10  O   UNL     1     -11.269  16.727  68.564  1.00  0.00    -0.319 OA 
BRANCH   9  11
HETATM   11  O   UNL     1     -11.256  14.677  69.659  1.00  0.00    -0.260 OA 
BRANCH  11  12
HETATM   12  C   UNL     1     -12.020  15.077  70.769  1.00  0.00    -0.318 A  
HETATM   13  C   UNL     1     -13.405  14.908  70.796  1.00  0.00    -0.338 A  
HETATM   14  C   UNL     1     -14.115  15.231  71.951  1.00  0.00    -0.656 A  
HETATM   15  C   UNL     1     -13.436  15.697  73.078  1.00  0.00    -0.654 A  
HETATM   16  C   UNL     1     -12.049  15.844  73.052  1.00  0.00    -0.615 A  
HETATM   17  C   UNL     1     -11.332  15.529  71.895  1.00  0.00    -0.456 A  
ENDBRANCH  11  12
ENDBRANCH   9  11
ENDBRANCH   8   9
TORSDOF 3
ENDMDL
MODEL       21
REMARK 921   NORMALIZED FREE ENERGY PREDICTED BY IDOCK:   -5.87 KCAL/MOL
REMARK 922        TOTAL FREE ENERGY PREDICTED BY IDOCK:   -7.24 KCAL/MOL
REMARK 923 INTER-LIGAND FREE ENERGY PREDICTED BY IDOCK:   -6.63 KCAL/MOL
REMARK 924 INTRA-LIGAND FREE ENERGY PREDICTED BY IDOCK:   -0.61 KCAL/MOL
REMARK 927      BINDING AFFINITY PREDICTED BY RF-SCORE:    0.00 PKD
ROOT
HETATM    1  O   UNL     1      -8.160  16.248  66.324  1.00  0.00    -0.308 OA 
HETATM    2  C   UNL     1      -8.786  17.456  66.446  1.00  0.00    -0.242 A  
HETATM    3  H   UNL     1      -8.626  15.545  65.886  1.00  0.00     0.000 HD 
HETATM    4  C   UNL     1      -8.099  18.491  67.092  1.00  0.00    -0.248 A  
HETATM    5  C   UNL     1      -8.694  19.744  67.244  1.00  0.00    -0.382 A  
HETATM    6  C   UNL     1      -9.973  19.970  66.748  1.00  0.00    -0.585 A  
HETATM    7  C   UNL     1     -10.660  18.939  66.103  1.00  0.00    -0.476 A  
HETATM    8  C   UNL     1     -10.078  17.665  65.945  1.00  0.00    -0.192 A  
ENDROOT
BRANCH   8   9
HETATM    9  C   UNL     1     -10.903  16.653  65.217  1.00  0.00    -0.183 C  
HETATM   10  O   UNL     1     -11.397  16.894  64.122  1.00  0.00    -1.208 OA 
BRANCH   9  11
HETATM   11  O   UNL     1     -10.986  15.458  65.902  1.00  0.00    -0.325 OA 
BRANCH  11  12
HETATM   12  C   UNL     1     -11.251  14.291  65.166  1.00  0.00    -0.345 A  
HETATM   13  C   UNL     1     -10.230  13.591  64.522  1.00  0.00    -0.296 A  
HETATM   14  C   UNL     1     -10.518  12.387  63.881  1.00  0.00    -0.469 A  
HETATM   15  C   UNL     1     -11.817  11.878  63.907  1.00  0.00    -0.509 A  
HETATM   16  C   UNL     1     -12.830  12.572  64.571  1.00  0.00    -0.352 A  
HETATM   17  C   UNL     1     -12.549  13.782  65.209  1.00  0.00    -0.510 A  
ENDBRANCH  11  12
ENDBRANCH   9  11
ENDBRANCH   8   9
TORSDOF 3
ENDMDL
MODEL       22
REMARK 921   NORMALIZED FREE ENERGY PREDICTED BY IDOCK:   -5.84 KCAL/MOL
REMARK 922        TOTAL FREE ENERGY PREDICTED BY IDOCK:   -7.21 KCAL/MOL
REMARK 923 INTER-LIGAND FREE ENERGY PREDICTED BY IDOCK:   -6.65 KCAL/MOL
REMARK 924 INTRA-LIGAND FREE ENERGY PREDICTED BY IDOCK:   -0.56 KCAL/MOL
REMARK 927      BINDING AFFINITY PREDICTED BY RF-SCORE:    0.00 PKD
ROOT
HETATM    1  O   UNL     1     -11.339  16.704  70.590  1.00  0.00    -0.518 OA 
HETATM    2  C   UNL     1     -11.976  15.598  71.075  1.00  0.00    -0.400 A  
HETATM    3  H   UNL     1     -10.959  16.656  69.720  1.00  0.00     0.000 HD 
HETATM    4  C   UNL     1     -12.536  15.669  72.357  1.00  0.00    -0.513 A  
HETATM    5  C   UNL     1     -13.196  14.567  72.899  1.00  0.00    -0.612 A  
HETATM    6  C   UNL     1     -13.306  13.391  72.165  1.00  0.00    -0.613 A  
HETATM    7  C   UNL     1     -12.749  13.318  70.886  1.00  0.00    -0.332 A  
HETATM    8  C   UNL     1     -12.073  14.419  70.323  1.00  0.00    -0.396 A  
ENDROOT
BRANCH   8   9
HETATM    9  C   UNL     1     -11.543  14.225  68.939  1.00  0.00    -0.305 C  
HETATM   10  O   UNL     1     -10.467  14.696  68.589  1.00  0.00    -0.230 OA 
BRANCH   9  11
HETATM   11  O   UNL     1     -12.379  13.444  68.166  1.00  0.00    -0.190 OA 
BRANCH  11  12
HETATM   12  C   UNL     1     -12.031  13.234  66.821  1.00  0.00    -0.382 A  
HETATM   13  C   UNL     1     -11.340  12.090  66.420  1.00  0.00    -0.411 A  
HETATM   14  C   UNL     1     -11.096  11.872  65.065  1.00  0.00    -0.360 A  
HETATM   15  C   UNL     1     -11.563  12.786  64.118  1.00  0.00    -0.456 A  
HETATM   16  C   UNL     1     -12.271  13.918  64.524  1.00  0.00    -0.451 A  
HETATM   17  C   UNL     1     -12.513  14.144  65.881  1.00  0.00    -0.479 A  
ENDBRANCH  11  12
ENDBRANCH   9  11
ENDBRANCH   8   9
TORSDOF 3
ENDMDL
MODEL       23
REMARK 921   NORMALIZED FREE ENERGY PREDICTED BY IDOCK:   -5.84 KCAL/MOL
REMARK 922        TOTAL FREE ENERGY PREDICTED BY IDOCK:   -7.21 KCAL/MOL
REMARK 923 INTER-LIGAND FREE ENERGY PREDICTED BY IDOCK:   -6.64 KCAL/MOL
REMARK 924 INTRA-LIGAND FREE ENERGY PREDICTED BY IDOCK:   -0.56 KCAL/MOL
REMARK 927      BINDING AFFINITY PREDICTED BY RF-SCORE:    0.00 PKD
ROOT
HETATM    1  O   UNL     1     -13.158  13.912  65.399  1.00  0.00    -0.752 OA 
HETATM    2  C   UNL     1     -12.211  12.994  65.043  1.00  0.00    -0.453 A  
HETATM    3  H   UNL     1     -13.317  14.055  66.325  1.00  0.00     0.000 HD 
HETATM    4  C   UNL     1     -11.977  12.784  63.679  1.00  0.00    -0.616 A  
HETATM    5  C   UNL     1     -11.021  11.857  63.263  1.00  0.00    -0.399 A  
HETATM    6  C   UNL     1     -10.292  11.141  64.205  1.00  0.00    -0.423 A  
HETATM    7  C   UNL     1     -10.523  11.350  65.566  1.00  0.00    -0.322 A  
HETATM    8  C   UNL     1     -11.488  12.277  66.007  1.00  0.00    -0.434 A  
ENDROOT
BRANCH   8   9
HETATM    9  C   UNL     1     -11.625  12.428  67.487  1.00  0.00    -0.365 C  
HETATM   10  O   UNL     1     -11.216  13.424  68.073  1.00  0.00    -0.246 OA 
BRANCH   9  11
HETATM   11  O   UNL     1     -12.281  11.359  68.062  1.00  0.00    -0.607 OA 
BRANCH  11  12
HETATM   12  C   UNL     1     -11.700  10.754  69.189  1.00  0.00    -0.296 A  
HETATM   13  C   UNL     1     -12.360  10.723  70.418  1.00  0.00    -0.438 A  
HETATM   14  C   UNL     1     -11.792  10.032  71.487  1.00  0.00    -0.406 A  
HETATM   15  C   UNL     1     -10.582   9.358  71.317  1.00  0.00    -0.400 A  
HETATM   16  C   UNL     1      -9.936   9.376  70.079  1.00  0.00    -0.253 A  
HETATM   17  C   UNL     1     -10.497  10.072  69.006  1.00  0.00    -0.233 A  
ENDBRANCH  11  12
ENDBRANCH   9  11
ENDBRANCH   8   9
TORSDOF 3
ENDMDL
MODEL       24
REMARK 921   NORMALIZED FREE ENERGY PREDICTED BY IDOCK:   -5.83 KCAL/MOL
REMARK 922        TOTAL FREE ENERGY PREDICTED BY IDOCK:   -7.20 KCAL/MOL
REMARK 923 INTER-LIGAND FREE ENERGY PREDICTED BY IDOCK:   -6.35 KCAL/MOL
REMARK 924 INTRA-LIGAND FREE ENERGY PREDICTED BY IDOCK:   -0.85 KCAL/MOL
REMARK 927      BINDING AFFINITY PREDICTED BY RF-SCORE:    0.00 PKD
ROOT
HETATM    1  O   UNL     1     -12.490  14.380  67.917  1.00  0.00    -0.586 OA 
HETATM    2  C   UNL     1     -11.447  14.954  67.247  1.00  0.00    -0.340 A  
HETATM    3  H   UNL     1     -13.126  13.885  67.414  1.00  0.00     0.000 HD 
HETATM    4  C   UNL     1     -10.510  15.685  67.988  1.00  0.00    -0.263 A  
HETATM    5  C   UNL     1      -9.427  16.291  67.352  1.00  0.00    -0.227 A  
HETATM    6  C   UNL     1      -9.272  16.169  65.976  1.00  0.00    -0.363 A  
HETATM    7  C   UNL     1     -10.205  15.440  65.235  1.00  0.00    -0.390 A  
HETATM    8  C   UNL     1     -11.309  14.825  65.858  1.00  0.00    -0.331 A  
ENDROOT
BRANCH   8   9
HETATM    9  C   UNL     1     -12.222  14.053  64.961  1.00  0.00    -0.433 C  
HETATM   10  O   UNL     1     -12.656  14.530  63.919  1.00  0.00    -0.827 OA 
BRANCH   9  11
HETATM   11  O   UNL     1     -12.460  12.778  65.433  1.00  0.00    -0.539 OA 
BRANCH  11  12
HETATM   12  C   UNL     1     -11.393  11.863  65.434  1.00  0.00    -0.277 A  
HETATM   13  C   UNL     1     -10.962  11.252  66.612  1.00  0.00    -0.326 A  
HETATM   14  C   UNL     1      -9.964  10.280  66.557  1.00  0.00    -0.280 A  
HETATM   15  C   UNL     1      -9.420   9.910  65.326  1.00  0.00    -0.331 A  
HETATM   16  C   UNL     1      -9.870  10.510  64.150  1.00  0.00    -0.401 A  
HETATM   17  C   UNL     1     -10.865  11.488  64.199  1.00  0.00    -0.435 A  
ENDBRANCH  11  12
ENDBRANCH   9  11
ENDBRANCH   8   9
TORSDOF 3
ENDMDL
MODEL       25
REMARK 921   NORMALIZED FREE ENERGY PREDICTED BY IDOCK:   -5.83 KCAL/MOL
REMARK 922        TOTAL FREE ENERGY PREDICTED BY IDOCK:   -7.20 KCAL/MOL
REMARK 923 INTER-LIGAND FREE ENERGY PREDICTED BY IDOCK:   -6.66 KCAL/MOL
REMARK 924 INTRA-LIGAND FREE ENERGY PREDICTED BY IDOCK:   -0.54 KCAL/MOL
REMARK 927      BINDING AFFINITY PREDICTED BY RF-SCORE:    0.00 PKD
ROOT
HETATM    1  O   UNL     1     -13.261  14.035  65.257  1.00  0.00    -0.782 OA 
HETATM    2  C   UNL     1     -12.296  13.067  65.269  1.00  0.00    -0.486 A  
HETATM    3  H   UNL     1     -13.428  14.509  66.063  1.00  0.00     0.000 HD 
HETATM    4  C   UNL     1     -12.050  12.368  64.081  1.00  0.00    -0.539 A  
HETATM    5  C   UNL     1     -11.076  11.370  64.040  1.00  0.00    -0.400 A  
HETATM    6  C   UNL     1     -10.340  11.070  65.181  1.00  0.00    -0.346 A  
HETATM    7  C   UNL     1     -10.583  11.767  66.367  1.00  0.00    -0.293 A  
HETATM    8  C   UNL     1     -11.567  12.774  66.430  1.00  0.00    -0.435 A  
ENDROOT
BRANCH   8   9
HETATM    9  C   UNL     1     -11.716  13.463  67.748  1.00  0.00    -0.359 C  
HETATM   10  O   UNL     1     -12.370  14.493  67.865  1.00  0.00    -0.188 OA 
BRANCH   9  11
HETATM   11  O   UNL     1     -11.077  12.784  68.766  1.00  0.00    -0.239 OA 
BRANCH  11  12
HETATM   12  C   UNL     1     -11.868  12.216  69.779  1.00  0.00    -0.327 A  
HETATM   13  C   UNL     1     -12.030  10.834  69.884  1.00  0.00    -0.418 A  
HETATM   14  C   UNL     1     -12.744  10.304  70.957  1.00  0.00    -0.491 A  
HETATM   15  C   UNL     1     -13.271  11.155  71.930  1.00  0.00    -0.488 A  
HETATM   16  C   UNL     1     -13.088  12.535  71.831  1.00  0.00    -0.473 A  
HETATM   17  C   UNL     1     -12.379  13.072  70.754  1.00  0.00    -0.394 A  
ENDBRANCH  11  12
ENDBRANCH   9  11
ENDBRANCH   8   9
TORSDOF 3
ENDMDL
MODEL       26
REMARK 921   NORMALIZED FREE ENERGY PREDICTED BY IDOCK:   -5.83 KCAL/MOL
REMARK 922        TOTAL FREE ENERGY PREDICTED BY IDOCK:   -7.19 KCAL/MOL
REMARK 923 INTER-LIGAND FREE ENERGY PREDICTED BY IDOCK:   -6.54 KCAL/MOL
REMARK 924 INTRA-LIGAND FREE ENERGY PREDICTED BY IDOCK:   -0.65 KCAL/MOL
REMARK 927      BINDING AFFINITY PREDICTED BY RF-SCORE:    0.00 PKD
ROOT
HETATM    1  O   UNL     1     -12.380  13.467  63.055  1.00  0.00    -0.970 OA 
HETATM    2  C   UNL     1     -11.584  12.626  63.779  1.00  0.00    -0.476 A  
HETATM    3  H   UNL     1     -12.870  14.133  63.524  1.00  0.00     0.000 HD 
HETATM    4  C   UNL     1     -10.861  11.646  63.087  1.00  0.00    -0.281 A  
HETATM    5  C   UNL     1     -10.034  10.761  63.779  1.00  0.00    -0.411 A  
HETATM    6  C   UNL     1      -9.920  10.853  65.162  1.00  0.00    -0.341 A  
HETATM    7  C   UNL     1     -10.639  11.830  65.854  1.00  0.00    -0.314 A  
HETATM    8  C   UNL     1     -11.485  12.730  65.173  1.00  0.00    -0.356 A  
ENDROOT
BRANCH   8   9
HETATM    9  C   UNL     1     -12.181  13.745  66.021  1.00  0.00    -0.457 C  
HETATM   10  O   UNL     1     -13.356  14.039  65.838  1.00  0.00    -0.400 OA 
BRANCH   9  11
HETATM   11  O   UNL     1     -11.362  14.244  67.014  1.00  0.00    -0.314 OA 
BRANCH  11  12
HETATM   12  C   UNL     1     -11.814  14.173  68.342  1.00  0.00    -0.353 A  
HETATM   13  C   UNL     1     -11.870  12.958  69.026  1.00  0.00    -0.352 A  
HETATM   14  C   UNL     1     -12.235  12.942  70.372  1.00  0.00    -0.381 A  
HETATM   15  C   UNL     1     -12.518  14.139  71.031  1.00  0.00    -0.438 A  
HETATM   16  C   UNL     1     -12.440  15.353  70.347  1.00  0.00    -0.447 A  
HETATM   17  C   UNL     1     -12.081  15.375  68.997  1.00  0.00    -0.254 A  
ENDBRANCH  11  12
ENDBRANCH   9  11
ENDBRANCH   8   9
TORSDOF 3
ENDMDL
MODEL       27
REMARK 921   NORMALIZED FREE ENERGY PREDICTED BY IDOCK:   -5.82 KCAL/MOL
REMARK 922        TOTAL FREE ENERGY PREDICTED BY IDOCK:   -7.19 KCAL/MOL
REMARK 923 INTER-LIGAND FREE ENERGY PREDICTED BY IDOCK:   -6.62 KCAL/MOL
REMARK 924 INTRA-LIGAND FREE ENERGY PREDICTED BY IDOCK:   -0.56 KCAL/MOL
REMARK 927      BINDING AFFINITY PREDICTED BY RF-SCORE:    0.00 PKD
ROOT
HETATM    1  O   UNL     1     -10.033  12.219  68.730  1.00  0.00    -0.376 OA 
HETATM    2  C   UNL     1     -10.782  12.541  67.635  1.00  0.00    -0.218 A  
HETATM    3  H   UNL     1     -10.045  12.815  69.471  1.00  0.00     0.000 HD 
HETATM    4  C   UNL     1     -10.765  11.663  66.543  1.00  0.00    -0.313 A  
HETATM    5  C   UNL     1     -11.512  11.946  65.400  1.00  0.00    -0.310 A  
HETATM    6  C   UNL     1     -12.282  13.101  65.341  1.00  0.00    -0.510 A  
HETATM    7  C   UNL     1     -12.302  13.978  66.428  1.00  0.00    -0.468 A  
HETATM    8  C   UNL     1     -11.549  13.713  67.590  1.00  0.00    -0.381 A  
ENDROOT
BRANCH   8   9
HETATM    9  C   UNL     1     -11.673  14.714  68.694  1.00  0.00    -0.329 C  
HETATM   10  O   UNL     1     -11.761  15.915  68.467  1.00  0.00    -0.383 OA 
BRANCH   9  11
HETATM   11  O   UNL     1     -11.713  14.116  69.937  1.00  0.00    -0.280 OA 
BRANCH  11  12
HETATM   12  C   UNL     1     -12.340  14.811  70.985  1.00  0.00    -0.330 A  
HETATM   13  C   UNL     1     -13.729  14.839  71.110  1.00  0.00    -0.413 A  
HETATM   14  C   UNL     1     -14.309  15.459  72.215  1.00  0.00    -0.576 A  
HETATM   15  C   UNL     1     -13.499  16.027  73.199  1.00  0.00    -0.587 A  
HETATM   16  C   UNL     1     -12.109  15.978  73.080  1.00  0.00    -0.628 A  
HETATM   17  C   UNL     1     -11.523  15.363  71.972  1.00  0.00    -0.521 A  
ENDBRANCH  11  12
ENDBRANCH   9  11
ENDBRANCH   8   9
TORSDOF 3
ENDMDL
MODEL       28
REMARK 921   NORMALIZED FREE ENERGY PREDICTED BY IDOCK:   -5.80 KCAL/MOL
REMARK 922        TOTAL FREE ENERGY PREDICTED BY IDOCK:   -7.16 KCAL/MOL
REMARK 923 INTER-LIGAND FREE ENERGY PREDICTED BY IDOCK:   -6.55 KCAL/MOL
REMARK 924 INTRA-LIGAND FREE ENERGY PREDICTED BY IDOCK:   -0.61 KCAL/MOL
REMARK 927      BINDING AFFINITY PREDICTED BY RF-SCORE:    0.00 PKD
ROOT
HETATM    1  O   UNL     1     -11.631  16.354  63.713  1.00  0.00    -1.605 OA 
HETATM    2  C   UNL     1     -11.567  15.391  64.679  1.00  0.00    -0.311 A  
HETATM    3  H   UNL     1     -11.215  17.190  63.886  1.00  0.00     0.000 HD 
HETATM    4  C   UNL     1     -12.181  14.158  64.423  1.00  0.00    -0.466 A  
HETATM    5  C   UNL     1     -12.144  13.142  65.378  1.00  0.00    -0.478 A  
HETATM    6  C   UNL     1     -11.493  13.348  66.588  1.00  0.00    -0.376 A  
HETATM    7  C   UNL     1     -10.879  14.576  66.845  1.00  0.00    -0.305 A  
HETATM    8  C   UNL     1     -10.910  15.617  65.897  1.00  0.00    -0.297 A  
ENDROOT
BRANCH   8   9
HETATM    9  C   UNL     1     -10.197  16.874  66.279  1.00  0.00    -0.329 C  
HETATM   10  O   UNL     1     -10.226  17.872  65.569  1.00  0.00    -0.576 OA 
BRANCH   9  11
HETATM   11  O   UNL     1      -9.569  16.765  67.504  1.00  0.00    -0.236 OA 
BRANCH  11  12
HETATM   12  C   UNL     1      -8.379  17.484  67.703  1.00  0.00    -0.214 A  
HETATM   13  C   UNL     1      -7.202  17.139  67.038  1.00  0.00    -0.219 A  
HETATM   14  C   UNL     1      -6.067  17.934  67.190  1.00  0.00    -0.167 A  
HETATM   15  C   UNL     1      -6.121  19.080  67.986  1.00  0.00    -0.228 A  
HETATM   16  C   UNL     1      -7.307  19.431  68.632  1.00  0.00    -0.375 A  
HETATM   17  C   UNL     1      -8.445  18.635  68.488  1.00  0.00    -0.367 A  
ENDBRANCH  11  12
ENDBRANCH   9  11
ENDBRANCH   8   9
TORSDOF 3
ENDMDL
MODEL       29
REMARK 921   NORMALIZED FREE ENERGY PREDICTED BY IDOCK:   -5.78 KCAL/MOL
REMARK 922        TOTAL FREE ENERGY PREDICTED BY IDOCK:   -7.13 KCAL/MOL
REMARK 923 INTER-LIGAND FREE ENERGY PREDICTED BY IDOCK:   -6.69 KCAL/MOL
REMARK 924 INTRA-LIGAND FREE ENERGY PREDICTED BY IDOCK:   -0.44 KCAL/MOL
REMARK 927      BINDING AFFINITY PREDICTED BY RF-SCORE:    0.00 PKD
ROOT
HETATM    1  O   UNL     1      -9.886  10.232  70.085  1.00  0.00    -0.411 OA 
HETATM    2  C   UNL     1     -10.972   9.850  70.819  1.00  0.00    -0.337 A  
HETATM    3  H   UNL     1      -9.911  11.080  69.657  1.00  0.00     0.000 HD 
HETATM    4  C   UNL     1     -10.936   8.600  71.449  1.00  0.00    -0.341 A  
HETATM    5  C   UNL     1     -12.020   8.163  72.210  1.00  0.00    -0.434 A  
HETATM    6  C   UNL     1     -13.142   8.972  72.351  1.00  0.00    -0.487 A  
HETATM    7  C   UNL     1     -13.180  10.220  71.724  1.00  0.00    -0.534 A  
HETATM    8  C   UNL     1     -12.097  10.677  70.946  1.00  0.00    -0.489 A  
ENDROOT
BRANCH   8   9
HETATM    9  C   UNL     1     -12.249  12.038  70.348  1.00  0.00    -0.294 C  
HETATM   10  O   UNL     1     -11.650  12.363  69.329  1.00  0.00    -0.282 OA 
BRANCH   9  11
HETATM   11  O   UNL     1     -13.145  12.819  71.050  1.00  0.00    -0.146 OA 
BRANCH  11  12
HETATM   12  C   UNL     1     -12.663  13.987  71.665  1.00  0.00    -0.339 A  
HETATM   13  C   UNL     1     -12.003  14.974  70.933  1.00  0.00    -0.374 A  
HETATM   14  C   UNL     1     -11.625  16.160  71.561  1.00  0.00    -0.502 A  
HETATM   15  C   UNL     1     -11.928  16.361  72.909  1.00  0.00    -0.569 A  
HETATM   16  C   UNL     1     -12.606  15.379  73.630  1.00  0.00    -0.723 A  
HETATM   17  C   UNL     1     -12.983  14.186  73.008  1.00  0.00    -0.432 A  
ENDBRANCH  11  12
ENDBRANCH   9  11
ENDBRANCH   8   9
TORSDOF 3
ENDMDL
MODEL       30
REMARK 921   NORMALIZED FREE ENERGY PREDICTED BY IDOCK:   -5.67 KCAL/MOL
REMARK 922        TOTAL FREE ENERGY PREDICTED BY IDOCK:   -7.01 KCAL/MOL
REMARK 923 INTER-LIGAND FREE ENERGY PREDICTED BY IDOCK:   -6.17 KCAL/MOL
REMARK 924 INTRA-LIGAND FREE ENERGY PREDICTED BY IDOCK:   -0.84 KCAL/MOL
REMARK 927      BINDING AFFINITY PREDICTED BY RF-SCORE:    0.00 PKD
ROOT
HETATM    1  O   UNL     1     -13.240  13.964  65.092  1.00  0.00    -0.768 OA 
HETATM    2  C   UNL     1     -12.299  12.982  64.956  1.00  0.00    -0.473 A  
HETATM    3  H   UNL     1     -13.456  14.256  65.970  1.00  0.00     0.000 HD 
HETATM    4  C   UNL     1     -11.981  12.550  63.662  1.00  0.00    -0.621 A  
HETATM    5  C   UNL     1     -11.028  11.550  63.468  1.00  0.00    -0.453 A  
HETATM    6  C   UNL     1     -10.386  10.980  64.561  1.00  0.00    -0.420 A  
HETATM    7  C   UNL     1     -10.701  11.410  65.852  1.00  0.00    -0.311 A  
HETATM    8  C   UNL     1     -11.665  12.415  66.070  1.00  0.00    -0.469 A  
ENDROOT
BRANCH   8   9
HETATM    9  C   UNL     1     -11.896  12.805  67.494  1.00  0.00    -0.343 C  
HETATM   10  O   UNL     1     -12.135  11.971  68.359  1.00  0.00    -0.412 OA 
BRANCH   9  11
HETATM   11  O   UNL     1     -11.766  14.166  67.689  1.00  0.00    -0.344 OA 
BRANCH  11  12
HETATM   12  C   UNL     1     -10.502  14.745  67.487  1.00  0.00    -0.245 A  
HETATM   13  C   UNL     1      -9.378  14.298  68.183  1.00  0.00    -0.206 A  
HETATM   14  C   UNL     1      -8.126  14.834  67.886  1.00  0.00    -0.146 A  
HETATM   15  C   UNL     1      -8.001  15.794  66.881  1.00  0.00    -0.285 A  
HETATM   16  C   UNL     1      -9.125  16.222  66.174  1.00  0.00    -0.377 A  
HETATM   17  C   UNL     1     -10.383  15.694  66.471  1.00  0.00    -0.296 A  
ENDBRANCH  11  12
ENDBRANCH   9  11
ENDBRANCH   8   9
TORSDOF 3
ENDMDL
MODEL       31
REMARK 921   NORMALIZED FREE ENERGY PREDICTED BY IDOCK:   -5.67 KCAL/MOL
REMARK 922        TOTAL FREE ENERGY PREDICTED BY IDOCK:   -7.01 KCAL/MOL
REMARK 923 INTER-LIGAND FREE ENERGY PREDICTED BY IDOCK:   -6.64 KCAL/MOL
REMARK 924 INTRA-LIGAND FREE ENERGY PREDICTED BY IDOCK:   -0.37 KCAL/MOL
REMARK 927      BINDING AFFINITY PREDICTED BY RF-SCORE:    0.00 PKD
ROOT
HETATM    1  O   UNL     1     -13.048   8.413  73.011  1.00  0.00    -0.672 OA 
HETATM    2  C   UNL     1     -11.790   8.496  72.484  1.00  0.00    -0.328 A  
HETATM    3  H   UNL     1     -13.715   8.996  72.667  1.00  0.00     0.000 HD 
HETATM    4  C   UNL     1     -10.806   7.638  72.990  1.00  0.00    -0.457 A  
HETATM    5  C   UNL     1      -9.506   7.682  72.486  1.00  0.00    -0.222 A  
HETATM    6  C   UNL     1      -9.183   8.579  71.474  1.00  0.00    -0.288 A  
HETATM    7  C   UNL     1     -10.163   9.436  70.967  1.00  0.00    -0.369 A  
HETATM    8  C   UNL     1     -11.481   9.410  71.467  1.00  0.00    -0.467 A  
ENDROOT
BRANCH   8   9
HETATM    9  C   UNL     1     -12.443  10.357  70.826  1.00  0.00    -0.368 C  
HETATM   10  O   UNL     1     -13.623  10.067  70.669  1.00  0.00    -0.194 OA 
BRANCH   9  11
HETATM   11  O   UNL     1     -11.849  11.558  70.494  1.00  0.00    -0.346 OA 
BRANCH  11  12
HETATM   12  C   UNL     1     -12.490  12.745  70.891  1.00  0.00    -0.283 A  
HETATM   13  C   UNL     1     -13.307  12.786  72.021  1.00  0.00    -0.565 A  
HETATM   14  C   UNL     1     -13.848  14.002  72.435  1.00  0.00    -0.653 A  
HETATM   15  C   UNL     1     -13.552  15.171  71.732  1.00  0.00    -0.553 A  
HETATM   16  C   UNL     1     -12.717  15.127  70.614  1.00  0.00    -0.451 A  
HETATM   17  C   UNL     1     -12.177  13.910  70.191  1.00  0.00    -0.425 A  
ENDBRANCH  11  12
ENDBRANCH   9  11
ENDBRANCH   8   9
TORSDOF 3
ENDMDL
MODEL       32
REMARK 921   NORMALIZED FREE ENERGY PREDICTED BY IDOCK:   -5.67 KCAL/MOL
REMARK 922        TOTAL FREE ENERGY PREDICTED BY IDOCK:   -7.01 KCAL/MOL
REMARK 923 INTER-LIGAND FREE ENERGY PREDICTED BY IDOCK:   -6.48 KCAL/MOL
REMARK 924 INTRA-LIGAND FREE ENERGY PREDICTED BY IDOCK:   -0.52 KCAL/MOL
REMARK 927      BINDING AFFINITY PREDICTED BY RF-SCORE:    0.00 PKD
ROOT
HETATM    1  O   UNL     1     -13.974   8.891  73.212  1.00  0.00    -1.203 OA 
HETATM    2  C   UNL     1     -13.081   9.418  72.323  1.00  0.00    -0.428 A  
HETATM    3  H   UNL     1     -13.758   8.064  73.626  1.00  0.00     0.000 HD 
HETATM    4  C   UNL     1     -13.400  10.638  71.713  1.00  0.00    -0.437 A  
HETATM    5  C   UNL     1     -12.522  11.218  70.798  1.00  0.00    -0.471 A  
HETATM    6  C   UNL     1     -11.321  10.588  70.491  1.00  0.00    -0.400 A  
HETATM    7  C   UNL     1     -11.001   9.372  71.098  1.00  0.00    -0.430 A  
HETATM    8  C   UNL     1     -11.877   8.767  72.021  1.00  0.00    -0.442 A  
ENDROOT
BRANCH   8   9
HETATM    9  C   UNL     1     -11.410   7.480  72.621  1.00  0.00    -0.344 C  
HETATM   10  O   UNL     1     -10.735   7.454  73.644  1.00  0.00    -0.371 OA 
BRANCH   9  11
HETATM   11  O   UNL     1     -11.863   6.382  71.917  1.00  0.00    -0.315 OA 
BRANCH  11  12
HETATM   12  C   UNL     1     -10.961   5.730  71.058  1.00  0.00    -0.230 A  
HETATM   13  C   UNL     1     -10.109   4.728  71.525  1.00  0.00    -0.260 A  
HETATM   14  C   UNL     1      -9.298   4.041  70.624  1.00  0.00    -0.217 A  
HETATM   15  C   UNL     1      -9.358   4.342  69.262  1.00  0.00    -0.231 A  
HETATM   16  C   UNL     1     -10.227   5.330  68.799  1.00  0.00    -0.231 A  
HETATM   17  C   UNL     1     -11.039   6.027  69.698  1.00  0.00    -0.474 A  
ENDBRANCH  11  12
ENDBRANCH   9  11
ENDBRANCH   8   9
TORSDOF 3
ENDMDL
MODEL       33
REMARK 921   NORMALIZED FREE ENERGY PREDICTED BY IDOCK:   -5.65 KCAL/MOL
REMARK 922        TOTAL FREE ENERGY PREDICTED BY IDOCK:   -6.98 KCAL/MOL
REMARK 923 INTER-LIGAND FREE ENERGY PREDICTED BY IDOCK:   -6.51 KCAL/MOL
REMARK 924 INTRA-LIGAND FREE ENERGY PREDICTED BY IDOCK:   -0.47 KCAL/MOL
REMARK 927      BINDING AFFINITY PREDICTED BY RF-SCORE:    0.00 PKD
ROOT
HETATM    1  O   UNL     1     -10.549  17.315  65.108  1.00  0.00    -0.686 OA 
HETATM    2  C   UNL     1     -10.357  18.091  66.216  1.00  0.00    -0.382 A  
HETATM    3  H   UNL     1     -10.575  16.372  65.222  1.00  0.00     0.000 HD 
HETATM    4  C   UNL     1     -10.319  19.481  66.048  1.00  0.00    -0.604 A  
HETATM    5  C   UNL     1     -10.125  20.317  67.147  1.00  0.00    -0.556 A  
HETATM    6  C   UNL     1      -9.973  19.773  68.417  1.00  0.00    -0.549 A  
HETATM    7  C   UNL     1     -10.012  18.387  68.587  1.00  0.00    -0.415 A  
HETATM    8  C   UNL     1     -10.201  17.525  67.488  1.00  0.00    -0.340 A  
ENDROOT
BRANCH   8   9
HETATM    9  C   UNL     1     -10.248  16.064  67.802  1.00  0.00    -0.260 C  
HETATM   10  O   UNL     1      -9.230  15.384  67.856  1.00  0.00    -0.179 OA 
BRANCH   9  11
HETATM   11  O   UNL     1     -11.534  15.626  68.051  1.00  0.00    -0.345 OA 
BRANCH  11  12
HETATM   12  C   UNL     1     -11.778  14.942  69.253  1.00  0.00    -0.316 A  
HETATM   13  C   UNL     1     -12.184  15.618  70.404  1.00  0.00    -0.429 A  
HETATM   14  C   UNL     1     -12.508  14.894  71.550  1.00  0.00    -0.397 A  
HETATM   15  C   UNL     1     -12.446  13.500  71.534  1.00  0.00    -0.289 A  
HETATM   16  C   UNL     1     -12.059  12.828  70.373  1.00  0.00    -0.382 A  
HETATM   17  C   UNL     1     -11.728  13.548  69.224  1.00  0.00    -0.382 A  
ENDBRANCH  11  12
ENDBRANCH   9  11
ENDBRANCH   8   9
TORSDOF 3
ENDMDL
MODEL       34
REMARK 921   NORMALIZED FREE ENERGY PREDICTED BY IDOCK:   -5.63 KCAL/MOL
REMARK 922        TOTAL FREE ENERGY PREDICTED BY IDOCK:   -6.96 KCAL/MOL
REMARK 923 INTER-LIGAND FREE ENERGY PREDICTED BY IDOCK:   -6.41 KCAL/MOL
REMARK 924 INTRA-LIGAND FREE ENERGY PREDICTED BY IDOCK:   -0.55 KCAL/MOL
REMARK 927      BINDING AFFINITY PREDICTED BY RF-SCORE:    0.00 PKD
ROOT
HETATM    1  O   UNL     1     -13.033  14.376  66.132  1.00  0.00    -0.409 OA 
HETATM    2  C   UNL     1     -12.133  13.409  66.482  1.00  0.00    -0.388 A  
HETATM    3  H   UNL     1     -13.189  15.085  66.745  1.00  0.00     0.000 HD 
HETATM    4  C   UNL     1     -11.903  12.364  65.579  1.00  0.00    -0.469 A  
HETATM    5  C   UNL     1     -10.995  11.352  65.888  1.00  0.00    -0.268 A  
HETATM    6  C   UNL     1     -10.309  11.380  67.097  1.00  0.00    -0.247 A  
HETATM    7  C   UNL     1     -10.536  12.421  68.000  1.00  0.00    -0.238 A  
HETATM    8  C   UNL     1     -11.454  13.450  67.708  1.00  0.00    -0.351 A  
ENDROOT
BRANCH   8   9
HETATM    9  C   UNL     1     -11.590  14.520  68.742  1.00  0.00    -0.312 C  
HETATM   10  O   UNL     1     -11.906  15.667  68.445  1.00  0.00    -0.346 OA 
BRANCH   9  11
HETATM   11  O   UNL     1     -11.363  14.044  70.018  1.00  0.00    -0.209 OA 
BRANCH  11  12
HETATM   12  C   UNL     1     -12.072  14.631  71.079  1.00  0.00    -0.329 A  
HETATM   13  C   UNL     1     -11.436  15.454  72.010  1.00  0.00    -0.521 A  
HETATM   14  C   UNL     1     -12.190  16.093  72.993  1.00  0.00    -0.641 A  
HETATM   15  C   UNL     1     -13.576  15.925  73.025  1.00  0.00    -0.616 A  
HETATM   16  C   UNL     1     -14.208  15.119  72.079  1.00  0.00    -0.673 A  
HETATM   17  C   UNL     1     -13.457  14.471  71.096  1.00  0.00    -0.396 A  
ENDBRANCH  11  12
ENDBRANCH   9  11
ENDBRANCH   8   9
TORSDOF 3
ENDMDL
MODEL       35
REMARK 921   NORMALIZED FREE ENERGY PREDICTED BY IDOCK:   -5.62 KCAL/MOL
REMARK 922        TOTAL FREE ENERGY PREDICTED BY IDOCK:   -6.94 KCAL/MOL
REMARK 923 INTER-LIGAND FREE ENERGY PREDICTED BY IDOCK:   -6.45 KCAL/MOL
REMARK 924 INTRA-LIGAND FREE ENERGY PREDICTED BY IDOCK:   -0.49 KCAL/MOL
REMARK 927      BINDING AFFINITY PREDICTED BY RF-SCORE:    0.00 PKD
ROOT
HETATM    1  O   UNL     1     -10.173  15.159  70.659  1.00  0.00    -0.480 OA 
HETATM    2  C   UNL     1     -11.400  14.975  71.229  1.00  0.00    -0.267 A  
HETATM    3  H   UNL     1      -9.876  14.519  70.022  1.00  0.00     0.000 HD 
HETATM    4  C   UNL     1     -11.838  15.917  72.168  1.00  0.00    -0.615 A  
HETATM    5  C   UNL     1     -13.083  15.776  72.780  1.00  0.00    -0.596 A  
HETATM    6  C   UNL     1     -13.899  14.699  72.455  1.00  0.00    -0.580 A  
HETATM    7  C   UNL     1     -13.466  13.758  71.518  1.00  0.00    -0.356 A  
HETATM    8  C   UNL     1     -12.208  13.880  70.893  1.00  0.00    -0.436 A  
ENDROOT
BRANCH   8   9
HETATM    9  C   UNL     1     -11.869  12.824  69.891  1.00  0.00    -0.301 C  
HETATM   10  O   UNL     1     -10.962  12.974  69.080  1.00  0.00    -0.244 OA 
BRANCH   9  11
HETATM   11  O   UNL     1     -12.657  11.700  70.032  1.00  0.00    -0.118 OA 
BRANCH  11  12
HETATM   12  C   UNL     1     -12.159  10.636  70.804  1.00  0.00    -0.374 A  
HETATM   13  C   UNL     1     -12.919  10.061  71.823  1.00  0.00    -0.560 A  
HETATM   14  C   UNL     1     -12.428   8.948  72.503  1.00  0.00    -0.344 A  
HETATM   15  C   UNL     1     -11.194   8.402  72.146  1.00  0.00    -0.431 A  
HETATM   16  C   UNL     1     -10.448   8.969  71.112  1.00  0.00    -0.363 A  
HETATM   17  C   UNL     1     -10.932  10.089  70.431  1.00  0.00    -0.384 A  
ENDBRANCH  11  12
ENDBRANCH   9  11
ENDBRANCH   8   9
TORSDOF 3
ENDMDL
MODEL       36
REMARK 921   NORMALIZED FREE ENERGY PREDICTED BY IDOCK:   -5.61 KCAL/MOL
REMARK 922        TOTAL FREE ENERGY PREDICTED BY IDOCK:   -6.94 KCAL/MOL
REMARK 923 INTER-LIGAND FREE ENERGY PREDICTED BY IDOCK:   -6.24 KCAL/MOL
REMARK 924 INTRA-LIGAND FREE ENERGY PREDICTED BY IDOCK:   -0.70 KCAL/MOL
REMARK 927      BINDING AFFINITY PREDICTED BY RF-SCORE:    0.00 PKD
ROOT
HETATM    1  O   UNL     1     -11.748  11.988  70.431  1.00  0.00    -0.506 OA 
HETATM    2  C   UNL     1     -12.414  13.110  70.833  1.00  0.00    -0.323 A  
HETATM    3  H   UNL     1     -11.140  12.065  69.704  1.00  0.00     0.000 HD 
HETATM    4  C   UNL     1     -13.310  12.997  71.904  1.00  0.00    -0.539 A  
HETATM    5  C   UNL     1     -14.015  14.113  72.353  1.00  0.00    -0.613 A  
HETATM    6  C   UNL     1     -13.828  15.347  71.740  1.00  0.00    -0.620 A  
HETATM    7  C   UNL     1     -12.935  15.462  70.673  1.00  0.00    -0.450 A  
HETATM    8  C   UNL     1     -12.217  14.346  70.200  1.00  0.00    -0.401 A  
ENDROOT
BRANCH   8   9
HETATM    9  C   UNL     1     -11.274  14.602  69.069  1.00  0.00    -0.269 C  
HETATM   10  O   UNL     1     -10.292  13.896  68.877  1.00  0.00    -0.225 OA 
BRANCH   9  11
HETATM   11  O   UNL     1     -11.674  15.670  68.290  1.00  0.00    -0.349 OA 
BRANCH  11  12
HETATM   12  C   UNL     1     -10.714  16.640  67.956  1.00  0.00    -0.350 A  
HETATM   13  C   UNL     1     -10.199  16.736  66.662  1.00  0.00    -0.310 A  
HETATM   14  C   UNL     1      -9.320  17.771  66.346  1.00  0.00    -0.264 A  
HETATM   15  C   UNL     1      -8.979  18.715  67.316  1.00  0.00    -0.283 A  
HETATM   16  C   UNL     1      -9.513  18.625  68.602  1.00  0.00    -0.396 A  
HETATM   17  C   UNL     1     -10.390  17.587  68.926  1.00  0.00    -0.338 A  
ENDBRANCH  11  12
ENDBRANCH   9  11
ENDBRANCH   8   9
TORSDOF 3
ENDMDL
MODEL       37
REMARK 921   NORMALIZED FREE ENERGY PREDICTED BY IDOCK:   -5.54 KCAL/MOL
REMARK 922        TOTAL FREE ENERGY PREDICTED BY IDOCK:   -6.85 KCAL/MOL
REMARK 923 INTER-LIGAND FREE ENERGY PREDICTED BY IDOCK:   -6.24 KCAL/MOL
REMARK 924 INTRA-LIGAND FREE ENERGY PREDICTED BY IDOCK:   -0.61 KCAL/MOL
REMARK 927      BINDING AFFINITY PREDICTED BY RF-SCORE:    0.00 PKD
ROOT
HETATM    1  O   UNL     1     -10.486  10.556  65.801  1.00  0.00    -0.223 OA 
HETATM    2  C   UNL     1     -11.101  11.720  65.437  1.00  0.00    -0.279 A  
HETATM    3  H   UNL     1     -10.415  10.359  66.728  1.00  0.00     0.000 HD 
HETATM    4  C   UNL     1     -11.206  12.010  64.071  1.00  0.00    -0.468 A  
HETATM    5  C   UNL     1     -11.824  13.186  63.646  1.00  0.00    -0.549 A  
HETATM    6  C   UNL     1     -12.344  14.075  64.580  1.00  0.00    -0.425 A  
HETATM    7  C   UNL     1     -12.241  13.787  65.943  1.00  0.00    -0.501 A  
HETATM    8  C   UNL     1     -11.615  12.607  66.393  1.00  0.00    -0.441 A  
ENDROOT
BRANCH   8   9
HETATM    9  C   UNL     1     -11.589  12.401  67.873  1.00  0.00    -0.356 C  
HETATM   10  O   UNL     1     -11.159  13.260  68.635  1.00  0.00    -0.245 OA 
BRANCH   9  11
HETATM   11  O   UNL     1     -12.130  11.185  68.239  1.00  0.00    -0.620 OA 
BRANCH  11  12
HETATM   12  C   UNL     1     -11.640  10.567  69.402  1.00  0.00    -0.246 A  
HETATM   13  C   UNL     1     -12.459  10.358  70.513  1.00  0.00    -0.403 A  
HETATM   14  C   UNL     1     -11.963   9.657  71.611  1.00  0.00    -0.470 A  
HETATM   15  C   UNL     1     -10.662   9.151  71.584  1.00  0.00    -0.441 A  
HETATM   16  C   UNL     1      -9.856   9.346  70.462  1.00  0.00    -0.331 A  
HETATM   17  C   UNL     1     -10.345  10.052  69.361  1.00  0.00    -0.245 A  
ENDBRANCH  11  12
ENDBRANCH   9  11
ENDBRANCH   8   9
TORSDOF 3
ENDMDL
MODEL       38
REMARK 921   NORMALIZED FREE ENERGY PREDICTED BY IDOCK:   -5.54 KCAL/MOL
REMARK 922        TOTAL FREE ENERGY PREDICTED BY IDOCK:   -6.85 KCAL/MOL
REMARK 923 INTER-LIGAND FREE ENERGY PREDICTED BY IDOCK:   -6.21 KCAL/MOL
REMARK 924 INTRA-LIGAND FREE ENERGY PREDICTED BY IDOCK:   -0.64 KCAL/MOL
REMARK 927      BINDING AFFINITY PREDICTED BY RF-SCORE:    0.00 PKD
ROOT
HETATM    1  O   UNL     1      -8.119  15.086  69.671  1.00  0.00    -0.372 OA 
HETATM    2  C   UNL     1      -8.660  16.111  68.947  1.00  0.00    -0.245 A  
HETATM    3  H   UNL     1      -8.690  14.371  69.928  1.00  0.00     0.000 HD 
HETATM    4  C   UNL     1      -7.819  17.166  68.569  1.00  0.00    -0.257 A  
HETATM    5  C   UNL     1      -8.322  18.236  67.830  1.00  0.00    -0.261 A  
HETATM    6  C   UNL     1      -9.662  18.258  67.461  1.00  0.00    -0.305 A  
HETATM    7  C   UNL     1     -10.502  17.207  67.836  1.00  0.00    -0.369 A  
HETATM    8  C   UNL     1     -10.015  16.119  68.588  1.00  0.00    -0.228 A  
ENDROOT
BRANCH   8   9
HETATM    9  C   UNL     1     -11.005  15.046  68.906  1.00  0.00    -0.252 C  
HETATM   10  O   UNL     1     -10.703  13.859  68.868  1.00  0.00    -0.247 OA 
BRANCH   9  11
HETATM   11  O   UNL     1     -12.233  15.562  69.271  1.00  0.00    -0.301 OA 
BRANCH  11  12
HETATM   12  C   UNL     1     -12.563  15.582  70.636  1.00  0.00    -0.443 A  
HETATM   13  C   UNL     1     -11.670  16.070  71.592  1.00  0.00    -0.583 A  
HETATM   14  C   UNL     1     -12.070  16.161  72.924  1.00  0.00    -0.643 A  
HETATM   15  C   UNL     1     -13.364  15.786  73.290  1.00  0.00    -0.649 A  
HETATM   16  C   UNL     1     -14.259  15.319  72.326  1.00  0.00    -0.642 A  
HETATM   17  C   UNL     1     -13.862  15.219  70.991  1.00  0.00    -0.414 A  
ENDBRANCH  11  12
ENDBRANCH   9  11
ENDBRANCH   8   9
TORSDOF 3
ENDMDL
MODEL       39
REMARK 921   NORMALIZED FREE ENERGY PREDICTED BY IDOCK:   -5.52 KCAL/MOL
REMARK 922        TOTAL FREE ENERGY PREDICTED BY IDOCK:   -6.83 KCAL/MOL
REMARK 923 INTER-LIGAND FREE ENERGY PREDICTED BY IDOCK:   -6.42 KCAL/MOL
REMARK 924 INTRA-LIGAND FREE ENERGY PREDICTED BY IDOCK:   -0.41 KCAL/MOL
REMARK 927      BINDING AFFINITY PREDICTED BY RF-SCORE:    0.00 PKD
ROOT
HETATM    1  O   UNL     1     -10.173  19.646  69.595  1.00  0.00    -0.595 OA 
HETATM    2  C   UNL     1     -10.315  19.010  68.394  1.00  0.00    -0.308 A  
HETATM    3  H   UNL     1     -10.125  19.112  70.380  1.00  0.00     0.000 HD 
HETATM    4  C   UNL     1     -10.386  19.796  67.237  1.00  0.00    -0.581 A  
HETATM    5  C   UNL     1     -10.531  19.197  65.986  1.00  0.00    -0.546 A  
HETATM    6  C   UNL     1     -10.602  17.812  65.883  1.00  0.00    -0.205 A  
HETATM    7  C   UNL     1     -10.531  17.026  67.035  1.00  0.00    -0.279 A  
HETATM    8  C   UNL     1     -10.390  17.613  68.309  1.00  0.00    -0.384 A  
ENDROOT
BRANCH   8   9
HETATM    9  C   UNL     1     -10.300  16.666  69.461  1.00  0.00    -0.245 C  
HETATM   10  O   UNL     1      -9.538  15.706  69.448  1.00  0.00    -0.256 OA 
BRANCH   9  11
HETATM   11  O   UNL     1     -11.126  17.034  70.504  1.00  0.00     0.093 OA 
BRANCH  11  12
HETATM   12  C   UNL     1     -11.799  16.019  71.205  1.00  0.00    -0.420 A  
HETATM   13  C   UNL     1     -11.985  16.090  72.586  1.00  0.00    -0.646 A  
HETATM   14  C   UNL     1     -12.738  15.111  73.231  1.00  0.00    -0.628 A  
HETATM   15  C   UNL     1     -13.321  14.081  72.491  1.00  0.00    -0.639 A  
HETATM   16  C   UNL     1     -13.149  14.026  71.107  1.00  0.00    -0.373 A  
HETATM   17  C   UNL     1     -12.390  15.001  70.456  1.00  0.00    -0.411 A  
ENDBRANCH  11  12
ENDBRANCH   9  11
ENDBRANCH   8   9
TORSDOF 3
ENDMDL
MODEL       40
REMARK 921   NORMALIZED FREE ENERGY PREDICTED BY IDOCK:   -5.46 KCAL/MOL
REMARK 922        TOTAL FREE ENERGY PREDICTED BY IDOCK:   -6.77 KCAL/MOL
REMARK 923 INTER-LIGAND FREE ENERGY PREDICTED BY IDOCK:   -6.12 KCAL/MOL
REMARK 924 INTRA-LIGAND FREE ENERGY PREDICTED BY IDOCK:   -0.65 KCAL/MOL
REMARK 927      BINDING AFFINITY PREDICTED BY RF-SCORE:    0.00 PKD
ROOT
HETATM    1  O   UNL     1     -12.132  15.156  67.602  1.00  0.00    -0.420 OA 
HETATM    2  C   UNL     1     -11.791  14.112  66.790  1.00  0.00    -0.425 A  
HETATM    3  H   UNL     1     -12.292  14.974  68.521  1.00  0.00     0.000 HD 
HETATM    4  C   UNL     1     -11.556  14.380  65.436  1.00  0.00    -0.347 A  
HETATM    5  C   UNL     1     -11.206  13.349  64.564  1.00  0.00    -0.393 A  
HETATM    6  C   UNL     1     -11.085  12.048  65.039  1.00  0.00    -0.368 A  
HETATM    7  C   UNL     1     -11.318  11.778  66.389  1.00  0.00    -0.361 A  
HETATM    8  C   UNL     1     -11.679  12.805  67.285  1.00  0.00    -0.440 A  
ENDROOT
BRANCH   8   9
HETATM    9  C   UNL     1     -11.878  12.394  68.708  1.00  0.00    -0.311 C  
HETATM   10  O   UNL     1     -11.751  13.190  69.632  1.00  0.00    -0.298 OA 
BRANCH   9  11
HETATM   11  O   UNL     1     -12.246  11.069  68.821  1.00  0.00    -0.546 OA 
BRANCH  11  12
HETATM   12  C   UNL     1     -11.834  10.363  69.964  1.00  0.00    -0.273 A  
HETATM   13  C   UNL     1     -12.755   9.917  70.913  1.00  0.00    -0.376 A  
HETATM   14  C   UNL     1     -12.318   9.139  71.984  1.00  0.00    -0.448 A  
HETATM   15  C   UNL     1     -10.969   8.793  72.089  1.00  0.00    -0.404 A  
HETATM   16  C   UNL     1     -10.057   9.225  71.125  1.00  0.00    -0.374 A  
HETATM   17  C   UNL     1     -10.488  10.010  70.053  1.00  0.00    -0.337 A  
ENDBRANCH  11  12
ENDBRANCH   9  11
ENDBRANCH   8   9
TORSDOF 3
ENDMDL
MODEL       41
REMARK 921   NORMALIZED FREE ENERGY PREDICTED BY IDOCK:   -5.46 KCAL/MOL
REMARK 922        TOTAL FREE ENERGY PREDICTED BY IDOCK:   -6.76 KCAL/MOL
REMARK 923 INTER-LIGAND FREE ENERGY PREDICTED BY IDOCK:   -6.09 KCAL/MOL
REMARK 924 INTRA-LIGAND FREE ENERGY PREDICTED BY IDOCK:   -0.67 KCAL/MOL
REMARK 927      BINDING AFFINITY PREDICTED BY RF-SCORE:    0.00 PKD
ROOT
HETATM    1  O   UNL     1     -12.447  14.645  68.558  1.00  0.00    -0.587 OA 
HETATM    2  C   UNL     1     -12.012  13.383  68.272  1.00  0.00    -0.317 A  
HETATM    3  H   UNL     1     -12.618  15.234  67.832  1.00  0.00     0.000 HD 
HETATM    4  C   UNL     1     -11.760  12.514  69.342  1.00  0.00    -0.383 A  
HETATM    5  C   UNL     1     -11.314  11.215  69.104  1.00  0.00    -0.340 A  
HETATM    6  C   UNL     1     -11.121  10.774  67.800  1.00  0.00    -0.381 A  
HETATM    7  C   UNL     1     -11.373  11.637  66.731  1.00  0.00    -0.354 A  
HETATM    8  C   UNL     1     -11.818  12.956  66.951  1.00  0.00    -0.444 A  
ENDROOT
BRANCH   8   9
HETATM    9  C   UNL     1     -12.076  13.774  65.727  1.00  0.00    -0.429 C  
HETATM   10  O   UNL     1     -13.211  14.091  65.391  1.00  0.00    -0.761 OA 
BRANCH   9  11
HETATM   11  O   UNL     1     -10.907  14.136  65.087  1.00  0.00    -0.328 OA 
BRANCH  11  12
HETATM   12  C   UNL     1     -10.220  15.269  65.557  1.00  0.00    -0.388 A  
HETATM   13  C   UNL     1     -10.757  16.550  65.426  1.00  0.00    -0.273 A  
HETATM   14  C   UNL     1     -10.089  17.637  65.988  1.00  0.00    -0.263 A  
HETATM   15  C   UNL     1      -8.904  17.435  66.697  1.00  0.00    -0.278 A  
HETATM   16  C   UNL     1      -8.383  16.149  66.842  1.00  0.00    -0.271 A  
HETATM   17  C   UNL     1      -9.044  15.057  66.276  1.00  0.00    -0.288 A  
ENDBRANCH  11  12
ENDBRANCH   9  11
ENDBRANCH   8   9
TORSDOF 3
ENDMDL
MODEL       42
REMARK 921   NORMALIZED FREE ENERGY PREDICTED BY IDOCK:   -5.45 KCAL/MOL
REMARK 922        TOTAL FREE ENERGY PREDICTED BY IDOCK:   -6.75 KCAL/MOL
REMARK 923 INTER-LIGAND FREE ENERGY PREDICTED BY IDOCK:   -6.08 KCAL/MOL
REMARK 924 INTRA-LIGAND FREE ENERGY PREDICTED BY IDOCK:   -0.67 KCAL/MOL
REMARK 927      BINDING AFFINITY PREDICTED BY RF-SCORE:    0.00 PKD
ROOT
HETATM    1  O   UNL     1     -13.716  13.689  72.668  1.00  0.00    -0.668 OA 
HETATM    2  C   UNL     1     -13.178  12.846  71.738  1.00  0.00    -0.384 A  
HETATM    3  H   UNL     1     -13.565  14.622  72.567  1.00  0.00     0.000 HD 
HETATM    4  C   UNL     1     -13.401  11.472  71.887  1.00  0.00    -0.408 A  
HETATM    5  C   UNL     1     -12.873  10.569  70.965  1.00  0.00    -0.502 A  
HETATM    6  C   UNL     1     -12.126  11.032  69.888  1.00  0.00    -0.435 A  
HETATM    7  C   UNL     1     -11.903  12.402  69.737  1.00  0.00    -0.387 A  
HETATM    8  C   UNL     1     -12.423  13.330  70.661  1.00  0.00    -0.373 A  
ENDROOT
BRANCH   8   9
HETATM    9  C   UNL     1     -12.137  14.769  70.377  1.00  0.00    -0.321 C  
HETATM   10  O   UNL     1     -12.956  15.648  70.617  1.00  0.00    -0.463 OA 
BRANCH   9  11
HETATM   11  O   UNL     1     -10.867  14.958  69.869  1.00  0.00    -0.250 OA 
BRANCH  11  12
HETATM   12  C   UNL     1     -10.721  15.787  68.744  1.00  0.00    -0.253 A  
HETATM   13  C   UNL     1     -10.415  17.142  68.875  1.00  0.00    -0.346 A  
HETATM   14  C   UNL     1     -10.185  17.909  67.734  1.00  0.00    -0.372 A  
HETATM   15  C   UNL     1     -10.239  17.314  66.472  1.00  0.00    -0.325 A  
HETATM   16  C   UNL     1     -10.524  15.953  66.349  1.00  0.00    -0.311 A  
HETATM   17  C   UNL     1     -10.761  15.181  67.488  1.00  0.00    -0.284 A  
ENDBRANCH  11  12
ENDBRANCH   9  11
ENDBRANCH   8   9
TORSDOF 3
ENDMDL
MODEL       43
REMARK 921   NORMALIZED FREE ENERGY PREDICTED BY IDOCK:   -5.44 KCAL/MOL
REMARK 922        TOTAL FREE ENERGY PREDICTED BY IDOCK:   -6.74 KCAL/MOL
REMARK 923 INTER-LIGAND FREE ENERGY PREDICTED BY IDOCK:   -6.30 KCAL/MOL
REMARK 924 INTRA-LIGAND FREE ENERGY PREDICTED BY IDOCK:   -0.44 KCAL/MOL
REMARK 927      BINDING AFFINITY PREDICTED BY RF-SCORE:    0.00 PKD
ROOT
HETATM    1  O   UNL     1     -11.076  17.692  64.714  1.00  0.00    -0.915 OA 
HETATM    2  C   UNL     1     -10.683  17.990  65.988  1.00  0.00    -0.133 A  
HETATM    3  H   UNL     1     -11.112  16.777  64.460  1.00  0.00     0.000 HD 
HETATM    4  C   UNL     1     -10.630  19.339  66.362  1.00  0.00    -0.542 A  
HETATM    5  C   UNL     1     -10.235  19.697  67.651  1.00  0.00    -0.567 A  
HETATM    6  C   UNL     1      -9.896  18.713  68.572  1.00  0.00    -0.427 A  
HETATM    7  C   UNL     1      -9.949  17.367  68.202  1.00  0.00    -0.308 A  
HETATM    8  C   UNL     1     -10.340  16.985  66.903  1.00  0.00    -0.303 A  
ENDROOT
BRANCH   8   9
HETATM    9  C   UNL     1     -10.381  15.515  66.636  1.00  0.00    -0.286 C  
HETATM   10  O   UNL     1      -9.378  14.893  66.304  1.00  0.00    -0.286 OA 
BRANCH   9  11
HETATM   11  O   UNL     1     -11.637  14.982  66.847  1.00  0.00    -0.323 OA 
BRANCH  11  12
HETATM   12  C   UNL     1     -11.769  13.959  67.800  1.00  0.00    -0.366 A  
HETATM   13  C   UNL     1     -11.402  12.644  67.510  1.00  0.00    -0.361 A  
HETATM   14  C   UNL     1     -11.459  11.676  68.512  1.00  0.00    -0.358 A  
HETATM   15  C   UNL     1     -11.859  12.031  69.801  1.00  0.00    -0.401 A  
HETATM   16  C   UNL     1     -12.205  13.352  70.090  1.00  0.00    -0.385 A  
HETATM   17  C   UNL     1     -12.155  14.325  69.089  1.00  0.00    -0.337 A  
ENDBRANCH  11  12
ENDBRANCH   9  11
ENDBRANCH   8   9
TORSDOF 3
ENDMDL
MODEL       44
REMARK 921   NORMALIZED FREE ENERGY PREDICTED BY IDOCK:   -5.44 KCAL/MOL
REMARK 922        TOTAL FREE ENERGY PREDICTED BY IDOCK:   -6.74 KCAL/MOL
REMARK 923 INTER-LIGAND FREE ENERGY PREDICTED BY IDOCK:   -6.06 KCAL/MOL
REMARK 924 INTRA-LIGAND FREE ENERGY PREDICTED BY IDOCK:   -0.68 KCAL/MOL
REMARK 927      BINDING AFFINITY PREDICTED BY RF-SCORE:    0.00 PKD
ROOT
HETATM    1  O   UNL     1      -9.009  12.465  66.243  1.00  0.00    -0.379 OA 
HETATM    2  C   UNL     1     -10.188  12.460  65.554  1.00  0.00    -0.274 A  
HETATM    3  H   UNL     1      -8.976  12.935  67.069  1.00  0.00     0.000 HD 
HETATM    4  C   UNL     1     -10.237  11.769  64.337  1.00  0.00    -0.332 A  
HETATM    5  C   UNL     1     -11.417  11.733  63.594  1.00  0.00    -0.524 A  
HETATM    6  C   UNL     1     -12.553  12.381  64.063  1.00  0.00    -0.510 A  
HETATM    7  C   UNL     1     -12.508  13.071  65.277  1.00  0.00    -0.555 A  
HETATM    8  C   UNL     1     -11.324  13.124  66.039  1.00  0.00    -0.337 A  
ENDROOT
BRANCH   8   9
HETATM    9  C   UNL     1     -11.408  13.871  67.331  1.00  0.00    -0.326 C  
HETATM   10  O   UNL     1     -12.032  14.921  67.427  1.00  0.00    -0.309 OA 
BRANCH   9  11
HETATM   11  O   UNL     1     -10.751  13.218  68.354  1.00  0.00    -0.242 OA 
BRANCH  11  12
HETATM   12  C   UNL     1     -11.523  12.514  69.293  1.00  0.00    -0.293 A  
HETATM   13  C   UNL     1     -11.643  11.125  69.240  1.00  0.00    -0.388 A  
HETATM   14  C   UNL     1     -12.340  10.454  70.243  1.00  0.00    -0.327 A  
HETATM   15  C   UNL     1     -12.893  11.172  71.305  1.00  0.00    -0.515 A  
HETATM   16  C   UNL     1     -12.752  12.559  71.364  1.00  0.00    -0.345 A  
HETATM   17  C   UNL     1     -12.060  13.237  70.358  1.00  0.00    -0.401 A  
ENDBRANCH  11  12
ENDBRANCH   9  11
ENDBRANCH   8   9
TORSDOF 3
ENDMDL
MODEL       45
REMARK 921   NORMALIZED FREE ENERGY PREDICTED BY IDOCK:   -5.40 KCAL/MOL
REMARK 922        TOTAL FREE ENERGY PREDICTED BY IDOCK:   -6.69 KCAL/MOL
REMARK 923 INTER-LIGAND FREE ENERGY PREDICTED BY IDOCK:   -5.86 KCAL/MOL
REMARK 924 INTRA-LIGAND FREE ENERGY PREDICTED BY IDOCK:   -0.83 KCAL/MOL
REMARK 927      BINDING AFFINITY PREDICTED BY RF-SCORE:    0.00 PKD
ROOT
HETATM    1  O   UNL     1     -12.077  11.833  68.204  1.00  0.00    -0.556 OA 
HETATM    2  C   UNL     1     -11.389  11.517  67.066  1.00  0.00    -0.269 A  
HETATM    3  H   UNL     1     -12.624  12.610  68.194  1.00  0.00     0.000 HD 
HETATM    4  C   UNL     1     -10.582  10.373  67.081  1.00  0.00    -0.319 A  
HETATM    5  C   UNL     1      -9.859  10.007  65.945  1.00  0.00    -0.330 A  
HETATM    6  C   UNL     1      -9.940  10.777  64.791  1.00  0.00    -0.382 A  
HETATM    7  C   UNL     1     -10.745  11.919  64.775  1.00  0.00    -0.356 A  
HETATM    8  C   UNL     1     -11.479  12.309  65.913  1.00  0.00    -0.428 A  
ENDROOT
BRANCH   8   9
HETATM    9  C   UNL     1     -12.321  13.534  65.762  1.00  0.00    -0.468 C  
HETATM   10  O   UNL     1     -13.082  13.679  64.813  1.00  0.00    -0.658 OA 
BRANCH   9  11
HETATM   11  O   UNL     1     -12.156  14.412  66.815  1.00  0.00    -0.424 OA 
BRANCH  11  12
HETATM   12  C   UNL     1     -10.901  15.022  66.977  1.00  0.00    -0.311 A  
HETATM   13  C   UNL     1     -10.308  15.749  65.943  1.00  0.00    -0.372 A  
HETATM   14  C   UNL     1      -9.107  16.418  66.173  1.00  0.00    -0.362 A  
HETATM   15  C   UNL     1      -8.518  16.375  67.438  1.00  0.00    -0.195 A  
HETATM   16  C   UNL     1      -9.126  15.664  68.473  1.00  0.00    -0.196 A  
HETATM   17  C   UNL     1     -10.327  14.987  68.247  1.00  0.00    -0.236 A  
ENDBRANCH  11  12
ENDBRANCH   9  11
ENDBRANCH   8   9
TORSDOF 3
ENDMDL
MODEL       46
REMARK 921   NORMALIZED FREE ENERGY PREDICTED BY IDOCK:   -5.39 KCAL/MOL
REMARK 922        TOTAL FREE ENERGY PREDICTED BY IDOCK:   -6.69 KCAL/MOL
REMARK 923 INTER-LIGAND FREE ENERGY PREDICTED BY IDOCK:   -6.25 KCAL/MOL
REMARK 924 INTRA-LIGAND FREE ENERGY PREDICTED BY IDOCK:   -0.43 KCAL/MOL
REMARK 927      BINDING AFFINITY PREDICTED BY RF-SCORE:    0.00 PKD
ROOT
HETATM    1  O   UNL     1     -12.934  14.203  65.927  1.00  0.00    -0.486 OA 
HETATM    2  C   UNL     1     -12.133  13.183  65.496  1.00  0.00    -0.442 A  
HETATM    3  H   UNL     1     -12.942  14.402  66.856  1.00  0.00     0.000 HD 
HETATM    4  C   UNL     1     -12.121  12.889  64.127  1.00  0.00    -0.503 A  
HETATM    5  C   UNL     1     -11.321  11.857  63.635  1.00  0.00    -0.536 A  
HETATM    6  C   UNL     1     -10.527  11.119  64.505  1.00  0.00    -0.415 A  
HETATM    7  C   UNL     1     -10.537  11.411  65.871  1.00  0.00    -0.317 A  
HETATM    8  C   UNL     1     -11.342  12.445  66.388  1.00  0.00    -0.392 A  
ENDROOT
BRANCH   8   9
HETATM    9  C   UNL     1     -11.247  12.677  67.861  1.00  0.00    -0.266 C  
HETATM   10  O   UNL     1     -10.323  12.222  68.526  1.00  0.00    -0.226 OA 
BRANCH   9  11
HETATM   11  O   UNL     1     -12.274  13.471  68.331  1.00  0.00    -0.315 OA 
BRANCH  11  12
HETATM   12  C   UNL     1     -12.060  14.196  69.516  1.00  0.00    -0.340 A  
HETATM   13  C   UNL     1     -11.434  15.443  69.501  1.00  0.00    -0.330 A  
HETATM   14  C   UNL     1     -11.325  16.172  70.684  1.00  0.00    -0.394 A  
HETATM   15  C   UNL     1     -11.861  15.663  71.868  1.00  0.00    -0.536 A  
HETATM   16  C   UNL     1     -12.505  14.425  71.872  1.00  0.00    -0.387 A  
HETATM   17  C   UNL     1     -12.611  13.686  70.692  1.00  0.00    -0.366 A  
ENDBRANCH  11  12
ENDBRANCH   9  11
ENDBRANCH   8   9
TORSDOF 3
ENDMDL
MODEL       47
REMARK 921   NORMALIZED FREE ENERGY PREDICTED BY IDOCK:   -5.37 KCAL/MOL
REMARK 922        TOTAL FREE ENERGY PREDICTED BY IDOCK:   -6.66 KCAL/MOL
REMARK 923 INTER-LIGAND FREE ENERGY PREDICTED BY IDOCK:   -6.10 KCAL/MOL
REMARK 924 INTRA-LIGAND FREE ENERGY PREDICTED BY IDOCK:   -0.55 KCAL/MOL
REMARK 927      BINDING AFFINITY PREDICTED BY RF-SCORE:    0.00 PKD
ROOT
HETATM    1  O   UNL     1      -9.917  17.390  69.642  1.00  0.00     0.021 OA 
HETATM    2  C   UNL     1     -10.045  18.197  68.548  1.00  0.00    -0.400 A  
HETATM    3  H   UNL     1     -10.020  16.453  69.521  1.00  0.00     0.000 HD 
HETATM    4  C   UNL     1      -9.893  19.578  68.727  1.00  0.00    -0.532 A  
HETATM    5  C   UNL     1     -10.014  20.446  67.642  1.00  0.00    -0.514 A  
HETATM    6  C   UNL     1     -10.283  19.942  66.375  1.00  0.00    -0.617 A  
HETATM    7  C   UNL     1     -10.434  18.565  66.194  1.00  0.00    -0.447 A  
HETATM    8  C   UNL     1     -10.321  17.672  67.278  1.00  0.00    -0.354 A  
ENDROOT
BRANCH   8   9
HETATM    9  C   UNL     1     -10.478  16.222  66.952  1.00  0.00    -0.302 C  
HETATM   10  O   UNL     1     -10.209  15.346  67.767  1.00  0.00    -0.236 OA 
BRANCH   9  11
HETATM   11  O   UNL     1     -10.984  16.025  65.683  1.00  0.00    -0.272 OA 
BRANCH  11  12
HETATM   12  C   UNL     1     -11.243  14.706  65.272  1.00  0.00    -0.358 A  
HETATM   13  C   UNL     1     -12.518  14.150  65.377  1.00  0.00    -0.488 A  
HETATM   14  C   UNL     1     -12.756  12.873  64.872  1.00  0.00    -0.474 A  
HETATM   15  C   UNL     1     -11.726  12.169  64.244  1.00  0.00    -0.451 A  
HETATM   16  C   UNL     1     -10.458  12.740  64.123  1.00  0.00    -0.437 A  
HETATM   17  C   UNL     1     -10.212  14.016  64.633  1.00  0.00    -0.242 A  
ENDBRANCH  11  12
ENDBRANCH   9  11
ENDBRANCH   8   9
TORSDOF 3
ENDMDL
MODEL       48
REMARK 921   NORMALIZED FREE ENERGY PREDICTED BY IDOCK:   -5.35 KCAL/MOL
REMARK 922        TOTAL FREE ENERGY PREDICTED BY IDOCK:   -6.63 KCAL/MOL
REMARK 923 INTER-LIGAND FREE ENERGY PREDICTED BY IDOCK:   -6.08 KCAL/MOL
REMARK 924 INTRA-LIGAND FREE ENERGY PREDICTED BY IDOCK:   -0.55 KCAL/MOL
REMARK 927      BINDING AFFINITY PREDICTED BY RF-SCORE:    0.00 PKD
ROOT
HETATM    1  O   UNL     1     -11.686  10.296  69.198  1.00  0.00    -0.461 OA 
HETATM    2  C   UNL     1     -12.157  11.237  70.069  1.00  0.00    -0.348 A  
HETATM    3  H   UNL     1     -11.829   9.381  69.410  1.00  0.00     0.000 HD 
HETATM    4  C   UNL     1     -11.947  12.586  69.757  1.00  0.00    -0.359 A  
HETATM    5  C   UNL     1     -12.408  13.587  70.613  1.00  0.00    -0.432 A  
HETATM    6  C   UNL     1     -13.083  13.247  71.780  1.00  0.00    -0.472 A  
HETATM    7  C   UNL     1     -13.294  11.902  72.092  1.00  0.00    -0.361 A  
HETATM    8  C   UNL     1     -12.832  10.877  71.243  1.00  0.00    -0.536 A  
ENDROOT
BRANCH   8   9
HETATM    9  C   UNL     1     -13.141   9.479  71.674  1.00  0.00    -0.401 C  
HETATM   10  O   UNL     1     -14.049   9.234  72.460  1.00  0.00    -0.440 OA 
BRANCH   9  11
HETATM   11  O   UNL     1     -12.325   8.552  71.059  1.00  0.00    -0.250 OA 
BRANCH  11  12
HETATM   12  C   UNL     1     -11.637   7.634  71.872  1.00  0.00    -0.280 A  
HETATM   13  C   UNL     1     -10.636   8.049  72.751  1.00  0.00    -0.420 A  
HETATM   14  C   UNL     1     -10.044   7.122  73.607  1.00  0.00    -0.389 A  
HETATM   15  C   UNL     1     -10.471   5.793  73.597  1.00  0.00    -0.286 A  
HETATM   16  C   UNL     1     -11.487   5.388  72.730  1.00  0.00    -0.333 A  
HETATM   17  C   UNL     1     -12.079   6.311  71.865  1.00  0.00    -0.311 A  
ENDBRANCH  11  12
ENDBRANCH   9  11
ENDBRANCH   8   9
TORSDOF 3
ENDMDL
MODEL       49
REMARK 921   NORMALIZED FREE ENERGY PREDICTED BY IDOCK:   -5.34 KCAL/MOL
REMARK 922        TOTAL FREE ENERGY PREDICTED BY IDOCK:   -6.62 KCAL/MOL
REMARK 923 INTER-LIGAND FREE ENERGY PREDICTED BY IDOCK:   -5.94 KCAL/MOL
REMARK 924 INTRA-LIGAND FREE ENERGY PREDICTED BY IDOCK:   -0.68 KCAL/MOL
REMARK 927      BINDING AFFINITY PREDICTED BY RF-SCORE:    0.00 PKD
ROOT
HETATM    1  O   UNL     1     -10.454  10.841  64.198  1.00  0.00    -0.389 OA 
HETATM    2  C   UNL     1     -11.065  11.866  64.863  1.00  0.00    -0.307 A  
HETATM    3  H   UNL     1     -10.097  10.125  64.712  1.00  0.00     0.000 HD 
HETATM    4  C   UNL     1     -11.589  12.921  64.106  1.00  0.00    -0.456 A  
HETATM    5  C   UNL     1     -12.223  13.992  64.736  1.00  0.00    -0.454 A  
HETATM    6  C   UNL     1     -12.339  14.014  66.121  1.00  0.00    -0.491 A  
HETATM    7  C   UNL     1     -11.817  12.963  66.878  1.00  0.00    -0.444 A  
HETATM    8  C   UNL     1     -11.169  11.874  66.261  1.00  0.00    -0.392 A  
ENDROOT
BRANCH   8   9
HETATM    9  C   UNL     1     -10.675  10.800  67.176  1.00  0.00    -0.272 C  
HETATM   10  O   UNL     1     -10.552   9.640  66.800  1.00  0.00    -0.209 OA 
BRANCH   9  11
HETATM   11  O   UNL     1     -10.356  11.288  68.427  1.00  0.00    -0.178 OA 
BRANCH  11  12
HETATM   12  C   UNL     1     -10.846  10.600  69.550  1.00  0.00    -0.259 A  
HETATM   13  C   UNL     1     -10.049   9.694  70.251  1.00  0.00    -0.331 A  
HETATM   14  C   UNL     1     -10.539   9.103  71.414  1.00  0.00    -0.412 A  
HETATM   15  C   UNL     1     -11.811   9.437  71.882  1.00  0.00    -0.402 A  
HETATM   16  C   UNL     1     -12.595  10.359  71.188  1.00  0.00    -0.512 A  
HETATM   17  C   UNL     1     -12.112  10.950  70.019  1.00  0.00    -0.433 A  
ENDBRANCH  11  12
ENDBRANCH   9  11
ENDBRANCH   8   9
TORSDOF 3
ENDMDL
MODEL       50
REMARK 921   NORMALIZED FREE ENERGY PREDICTED BY IDOCK:   -5.33 KCAL/MOL
REMARK 922        TOTAL FREE ENERGY PREDICTED BY IDOCK:   -6.61 KCAL/MOL
REMARK 923 INTER-LIGAND FREE ENERGY PREDICTED BY IDOCK:   -6.18 KCAL/MOL
REMARK 924 INTRA-LIGAND FREE ENERGY PREDICTED BY IDOCK:   -0.43 KCAL/MOL
REMARK 927      BINDING AFFINITY PREDICTED BY RF-SCORE:    0.00 PKD
ROOT
HETATM    1  O   UNL     1     -10.384  10.455  65.284  1.00  0.00    -0.284 OA 
HETATM    2  C   UNL     1     -11.059  11.643  65.286  1.00  0.00    -0.236 A  
HETATM    3  H   UNL     1     -10.257  10.011  66.114  1.00  0.00     0.000 HD 
HETATM    4  C   UNL     1     -11.246  12.297  64.062  1.00  0.00    -0.456 A  
HETATM    5  C   UNL     1     -11.929  13.512  64.010  1.00  0.00    -0.501 A  
HETATM    6  C   UNL     1     -12.431  14.077  65.177  1.00  0.00    -0.472 A  
HETATM    7  C   UNL     1     -12.247  13.426  66.399  1.00  0.00    -0.435 A  
HETATM    8  C   UNL     1     -11.555  12.201  66.473  1.00  0.00    -0.425 A  
ENDROOT
BRANCH   8   9
HETATM    9  C   UNL     1     -11.445  11.591  67.833  1.00  0.00    -0.301 C  
HETATM   10  O   UNL     1     -11.664  10.400  68.024  1.00  0.00    -0.383 OA 
BRANCH   9  11
HETATM   11  O   UNL     1     -11.042  12.507  68.783  1.00  0.00    -0.245 OA 
BRANCH  11  12
HETATM   12  C   UNL     1     -11.954  12.856  69.794  1.00  0.00    -0.296 A  
HETATM   13  C   UNL     1     -12.318  11.948  70.789  1.00  0.00    -0.416 A  
HETATM   14  C   UNL     1     -13.152  12.362  71.827  1.00  0.00    -0.446 A  
HETATM   15  C   UNL     1     -13.598  13.684  71.877  1.00  0.00    -0.512 A  
HETATM   16  C   UNL     1     -13.214  14.592  70.890  1.00  0.00    -0.392 A  
HETATM   17  C   UNL     1     -12.384  14.182  69.845  1.00  0.00    -0.382 A  
ENDBRANCH  11  12
ENDBRANCH   9  11
ENDBRANCH   8   9
TORSDOF 3
ENDMDL
MODEL       51
REMARK 921   NORMALIZED FREE ENERGY PREDICTED BY IDOCK:   -5.33 KCAL/MOL
REMARK 922        TOTAL FREE ENERGY PREDICTED BY IDOCK:   -6.61 KCAL/MOL
REMARK 923 INTER-LIGAND FREE ENERGY PREDICTED BY IDOCK:   -6.09 KCAL/MOL
REMARK 924 INTRA-LIGAND FREE ENERGY PREDICTED BY IDOCK:   -0.52 KCAL/MOL
REMARK 927      BINDING AFFINITY PREDICTED BY RF-SCORE:    0.00 PKD
ROOT
HETATM    1  O   UNL     1      -9.718  13.800  65.637  1.00  0.00    -0.467 OA 
HETATM    2  C   UNL     1     -10.103  12.641  66.249  1.00  0.00    -0.253 A  
HETATM    3  H   UNL     1     -10.071  14.618  65.966  1.00  0.00     0.000 HD 
HETATM    4  C   UNL     1      -9.583  11.435  65.763  1.00  0.00    -0.260 A  
HETATM    5  C   UNL     1      -9.944  10.223  66.352  1.00  0.00    -0.287 A  
HETATM    6  C   UNL     1     -10.822  10.209  67.430  1.00  0.00    -0.323 A  
HETATM    7  C   UNL     1     -11.342  11.411  67.917  1.00  0.00    -0.371 A  
HETATM    8  C   UNL     1     -10.993  12.645  67.331  1.00  0.00    -0.289 A  
ENDROOT
BRANCH   8   9
HETATM    9  C   UNL     1     -11.595  13.861  67.957  1.00  0.00    -0.333 C  
HETATM   10  O   UNL     1     -12.361  14.591  67.339  1.00  0.00    -0.260 OA 
BRANCH   9  11
HETATM   11  O   UNL     1     -11.216  14.010  69.276  1.00  0.00    -0.254 OA 
BRANCH  11  12
HETATM   12  C   UNL     1     -12.225  14.053  70.254  1.00  0.00    -0.361 A  
HETATM   13  C   UNL     1     -12.590  12.914  70.971  1.00  0.00    -0.376 A  
HETATM   14  C   UNL     1     -13.528  13.017  71.997  1.00  0.00    -0.584 A  
HETATM   15  C   UNL     1     -14.078  14.261  72.315  1.00  0.00    -0.621 A  
HETATM   16  C   UNL     1     -13.692  15.400  71.608  1.00  0.00    -0.606 A  
HETATM   17  C   UNL     1     -12.758  15.302  70.575  1.00  0.00    -0.440 A  
ENDBRANCH  11  12
ENDBRANCH   9  11
ENDBRANCH   8   9
TORSDOF 3
ENDMDL
MODEL       52
REMARK 921   NORMALIZED FREE ENERGY PREDICTED BY IDOCK:   -5.31 KCAL/MOL
REMARK 922        TOTAL FREE ENERGY PREDICTED BY IDOCK:   -6.58 KCAL/MOL
REMARK 923 INTER-LIGAND FREE ENERGY PREDICTED BY IDOCK:   -6.11 KCAL/MOL
REMARK 924 INTRA-LIGAND FREE ENERGY PREDICTED BY IDOCK:   -0.47 KCAL/MOL
REMARK 927      BINDING AFFINITY PREDICTED BY RF-SCORE:    0.00 PKD
ROOT
HETATM    1  O   UNL     1      -9.330  10.051  69.127  1.00  0.00    -0.171 OA 
HETATM    2  C   UNL     1     -10.477  10.289  69.830  1.00  0.00    -0.259 A  
HETATM    3  H   UNL     1      -9.131  10.618  68.391  1.00  0.00     0.000 HD 
HETATM    4  C   UNL     1     -10.771   9.452  70.914  1.00  0.00    -0.393 A  
HETATM    5  C   UNL     1     -11.930   9.652  71.664  1.00  0.00    -0.470 A  
HETATM    6  C   UNL     1     -12.798  10.688  71.339  1.00  0.00    -0.556 A  
HETATM    7  C   UNL     1     -12.506  11.524  70.258  1.00  0.00    -0.284 A  
HETATM    8  C   UNL     1     -11.343  11.335  69.485  1.00  0.00    -0.362 A  
ENDROOT
BRANCH   8   9
HETATM    9  C   UNL     1     -11.131  12.309  68.372  1.00  0.00    -0.243 C  
HETATM   10  O   UNL     1     -10.139  13.028  68.326  1.00  0.00    -0.230 OA 
BRANCH   9  11
HETATM   11  O   UNL     1     -12.139  12.254  67.431  1.00  0.00    -0.533 OA 
BRANCH  11  12
HETATM   12  C   UNL     1     -11.778  12.093  66.083  1.00  0.00    -0.315 A  
HETATM   13  C   UNL     1     -12.328  12.896  65.083  1.00  0.00    -0.547 A  
HETATM   14  C   UNL     1     -11.874  12.769  63.771  1.00  0.00    -0.572 A  
HETATM   15  C   UNL     1     -10.860  11.858  63.470  1.00  0.00    -0.502 A  
HETATM   16  C   UNL     1     -10.300  11.073  64.478  1.00  0.00    -0.420 A  
HETATM   17  C   UNL     1     -10.754  11.191  65.793  1.00  0.00    -0.252 A  
ENDBRANCH  11  12
ENDBRANCH   9  11
ENDBRANCH   8   9
TORSDOF 3
ENDMDL
MODEL       53
REMARK 921   NORMALIZED FREE ENERGY PREDICTED BY IDOCK:   -5.29 KCAL/MOL
REMARK 922        TOTAL FREE ENERGY PREDICTED BY IDOCK:   -6.57 KCAL/MOL
REMARK 923 INTER-LIGAND FREE ENERGY PREDICTED BY IDOCK:   -5.99 KCAL/MOL
REMARK 924 INTRA-LIGAND FREE ENERGY PREDICTED BY IDOCK:   -0.57 KCAL/MOL
REMARK 927      BINDING AFFINITY PREDICTED BY RF-SCORE:    0.00 PKD
ROOT
HETATM    1  O   UNL     1     -11.704   6.501  69.101  1.00  0.00    -0.623 OA 
HETATM    2  C   UNL     1     -11.258   5.977  70.281  1.00  0.00    -0.322 A  
HETATM    3  H   UNL     1     -12.392   7.156  69.134  1.00  0.00     0.000 HD 
HETATM    4  C   UNL     1     -10.245   5.011  70.232  1.00  0.00    -0.328 A  
HETATM    5  C   UNL     1      -9.755   4.444  71.408  1.00  0.00    -0.248 A  
HETATM    6  C   UNL     1     -10.269   4.840  72.637  1.00  0.00    -0.242 A  
HETATM    7  C   UNL     1     -11.279   5.803  72.689  1.00  0.00    -0.348 A  
HETATM    8  C   UNL     1     -11.792   6.384  71.511  1.00  0.00    -0.355 A  
ENDROOT
BRANCH   8   9
HETATM    9  C   UNL     1     -12.852   7.420  71.699  1.00  0.00    -0.367 C  
HETATM   10  O   UNL     1     -14.019   7.211  71.387  1.00  0.00    -0.370 OA 
BRANCH   9  11
HETATM   11  O   UNL     1     -12.360   8.570  72.283  1.00  0.00    -0.355 OA 
BRANCH  11  12
HETATM   12  C   UNL     1     -12.302   9.736  71.501  1.00  0.00    -0.405 A  
HETATM   13  C   UNL     1     -13.051  10.867  71.828  1.00  0.00    -0.564 A  
HETATM   14  C   UNL     1     -12.895  12.035  71.083  1.00  0.00    -0.331 A  
HETATM   15  C   UNL     1     -11.976  12.073  70.033  1.00  0.00    -0.400 A  
HETATM   16  C   UNL     1     -11.215  10.945  69.724  1.00  0.00    -0.351 A  
HETATM   17  C   UNL     1     -11.372   9.770  70.463  1.00  0.00    -0.382 A  
ENDBRANCH  11  12
ENDBRANCH   9  11
ENDBRANCH   8   9
TORSDOF 3
ENDMDL
MODEL       54
REMARK 921   NORMALIZED FREE ENERGY PREDICTED BY IDOCK:   -5.28 KCAL/MOL
REMARK 922        TOTAL FREE ENERGY PREDICTED BY IDOCK:   -6.55 KCAL/MOL
REMARK 923 INTER-LIGAND FREE ENERGY PREDICTED BY IDOCK:   -5.97 KCAL/MOL
REMARK 924 INTRA-LIGAND FREE ENERGY PREDICTED BY IDOCK:   -0.58 KCAL/MOL
REMARK 927      BINDING AFFINITY PREDICTED BY RF-SCORE:    0.00 PKD
ROOT
HETATM    1  O   UNL     1     -11.521  10.180  67.975  1.00  0.00    -0.587 OA 
HETATM    2  C   UNL     1     -11.719  11.441  68.460  1.00  0.00    -0.318 A  
HETATM    3  H   UNL     1     -11.528   9.457  68.592  1.00  0.00     0.000 HD 
HETATM    4  C   UNL     1     -11.709  12.506  67.551  1.00  0.00    -0.439 A  
HETATM    5  C   UNL     1     -11.906  13.813  67.995  1.00  0.00    -0.408 A  
HETATM    6  C   UNL     1     -12.118  14.064  69.346  1.00  0.00    -0.386 A  
HETATM    7  C   UNL     1     -12.129  13.004  70.255  1.00  0.00    -0.388 A  
HETATM    8  C   UNL     1     -11.926  11.676  69.827  1.00  0.00    -0.402 A  
ENDROOT
BRANCH   8   9
HETATM    9  C   UNL     1     -11.985  10.628  70.890  1.00  0.00    -0.363 C  
HETATM   10  O   UNL     1     -12.942  10.536  71.650  1.00  0.00    -0.412 OA 
BRANCH   9  11
HETATM   11  O   UNL     1     -10.883   9.797  70.865  1.00  0.00    -0.310 OA 
BRANCH  11  12
HETATM   12  C   UNL     1     -11.052   8.462  71.270  1.00  0.00    -0.255 A  
HETATM   13  C   UNL     1     -11.321   7.451  70.347  1.00  0.00    -0.273 A  
HETATM   14  C   UNL     1     -11.388   6.127  70.776  1.00  0.00    -0.364 A  
HETATM   15  C   UNL     1     -11.163   5.818  72.119  1.00  0.00    -0.327 A  
HETATM   16  C   UNL     1     -10.873   6.832  73.034  1.00  0.00    -0.314 A  
HETATM   17  C   UNL     1     -10.811   8.161  72.611  1.00  0.00    -0.429 A  
ENDBRANCH  11  12
ENDBRANCH   9  11
ENDBRANCH   8   9
TORSDOF 3
ENDMDL
MODEL       55
REMARK 921   NORMALIZED FREE ENERGY PREDICTED BY IDOCK:   -5.27 KCAL/MOL
REMARK 922        TOTAL FREE ENERGY PREDICTED BY IDOCK:   -6.54 KCAL/MOL
REMARK 923 INTER-LIGAND FREE ENERGY PREDICTED BY IDOCK:   -6.01 KCAL/MOL
REMARK 924 INTRA-LIGAND FREE ENERGY PREDICTED BY IDOCK:   -0.53 KCAL/MOL
REMARK 927      BINDING AFFINITY PREDICTED BY RF-SCORE:    0.00 PKD
ROOT
HETATM    1  O   UNL     1     -10.150  19.478  69.687  1.00  0.00    -0.517 OA 
HETATM    2  C   UNL     1     -10.258  19.198  68.354  1.00  0.00    -0.389 A  
HETATM    3  H   UNL     1     -10.171  18.751  70.299  1.00  0.00     0.000 HD 
HETATM    4  C   UNL     1     -10.228  20.269  67.452  1.00  0.00    -0.494 A  
HETATM    5  C   UNL     1     -10.335  20.038  66.081  1.00  0.00    -0.570 A  
HETATM    6  C   UNL     1     -10.468  18.739  65.603  1.00  0.00    -0.175 A  
HETATM    7  C   UNL     1     -10.498  17.669  66.501  1.00  0.00    -0.283 A  
HETATM    8  C   UNL     1     -10.397  17.883  67.891  1.00  0.00    -0.396 A  
ENDROOT
BRANCH   8   9
HETATM    9  C   UNL     1     -10.416  16.657  68.745  1.00  0.00    -0.324 C  
HETATM   10  O   UNL     1      -9.418  16.274  69.344  1.00  0.00    -0.241 OA 
BRANCH   9  11
HETATM   11  O   UNL     1     -11.667  16.075  68.793  1.00  0.00    -0.385 OA 
BRANCH  11  12
HETATM   12  C   UNL     1     -11.781  14.721  68.431  1.00  0.00    -0.314 A  
HETATM   13  C   UNL     1     -11.922  14.335  67.098  1.00  0.00    -0.449 A  
HETATM   14  C   UNL     1     -11.937  12.980  66.771  1.00  0.00    -0.434 A  
HETATM   15  C   UNL     1     -11.787  12.021  67.774  1.00  0.00    -0.308 A  
HETATM   16  C   UNL     1     -11.625  12.414  69.103  1.00  0.00    -0.369 A  
HETATM   17  C   UNL     1     -11.616  13.770  69.437  1.00  0.00    -0.365 A  
ENDBRANCH  11  12
ENDBRANCH   9  11
ENDBRANCH   8   9
TORSDOF 3
ENDMDL
MODEL       56
REMARK 921   NORMALIZED FREE ENERGY PREDICTED BY IDOCK:   -5.25 KCAL/MOL
REMARK 922        TOTAL FREE ENERGY PREDICTED BY IDOCK:   -6.52 KCAL/MOL
REMARK 923 INTER-LIGAND FREE ENERGY PREDICTED BY IDOCK:   -6.10 KCAL/MOL
REMARK 924 INTRA-LIGAND FREE ENERGY PREDICTED BY IDOCK:   -0.42 KCAL/MOL
REMARK 927      BINDING AFFINITY PREDICTED BY RF-SCORE:    0.00 PKD
ROOT
HETATM    1  O   UNL     1      -9.775   9.998  70.324  1.00  0.00    -0.375 OA 
HETATM    2  C   UNL     1     -10.992   9.736  70.885  1.00  0.00    -0.341 A  
HETATM    3  H   UNL     1      -9.641  10.850  69.925  1.00  0.00     0.000 HD 
HETATM    4  C   UNL     1     -11.189   8.480  71.474  1.00  0.00    -0.345 A  
HETATM    5  C   UNL     1     -12.414   8.162  72.060  1.00  0.00    -0.375 A  
HETATM    6  C   UNL     1     -13.446   9.094  72.065  1.00  0.00    -0.510 A  
HETATM    7  C   UNL     1     -13.251  10.347  71.479  1.00  0.00    -0.485 A  
HETATM    8  C   UNL     1     -12.023  10.686  70.877  1.00  0.00    -0.469 A  
ENDROOT
BRANCH   8   9
HETATM    9  C   UNL     1     -11.930  12.064  70.306  1.00  0.00    -0.314 C  
HETATM   10  O   UNL     1     -12.579  12.996  70.767  1.00  0.00    -0.314 OA 
BRANCH   9  11
HETATM   11  O   UNL     1     -11.025  12.138  69.267  1.00  0.00    -0.200 OA 
BRANCH  11  12
HETATM   12  C   UNL     1     -11.490  12.574  68.015  1.00  0.00    -0.317 A  
HETATM   13  C   UNL     1     -11.914  13.889  67.815  1.00  0.00    -0.390 A  
HETATM   14  C   UNL     1     -12.279  14.308  66.537  1.00  0.00    -0.419 A  
HETATM   15  C   UNL     1     -12.195  13.420  65.463  1.00  0.00    -0.499 A  
HETATM   16  C   UNL     1     -11.750  12.113  65.665  1.00  0.00    -0.385 A  
HETATM   17  C   UNL     1     -11.389  11.685  66.945  1.00  0.00    -0.364 A  
ENDBRANCH  11  12
ENDBRANCH   9  11
ENDBRANCH   8   9
TORSDOF 3
ENDMDL
MODEL       57
REMARK 921   NORMALIZED FREE ENERGY PREDICTED BY IDOCK:   -5.25 KCAL/MOL
REMARK 922        TOTAL FREE ENERGY PREDICTED BY IDOCK:   -6.51 KCAL/MOL
REMARK 923 INTER-LIGAND FREE ENERGY PREDICTED BY IDOCK:   -5.86 KCAL/MOL
REMARK 924 INTRA-LIGAND FREE ENERGY PREDICTED BY IDOCK:   -0.65 KCAL/MOL
REMARK 927      BINDING AFFINITY PREDICTED BY RF-SCORE:    0.00 PKD
ROOT
HETATM    1  O   UNL     1     -13.364   9.808  70.602  1.00  0.00    -0.609 OA 
HETATM    2  C   UNL     1     -12.066   9.483  70.878  1.00  0.00    -0.278 A  
HETATM    3  H   UNL     1     -13.543  10.288  69.802  1.00  0.00     0.000 HD 
HETATM    4  C   UNL     1     -11.801   8.776  72.057  1.00  0.00    -0.442 A  
HETATM    5  C   UNL     1     -10.492   8.420  72.386  1.00  0.00    -0.402 A  
HETATM    6  C   UNL     1      -9.445   8.764  71.539  1.00  0.00    -0.341 A  
HETATM    7  C   UNL     1      -9.707   9.469  70.362  1.00  0.00    -0.328 A  
HETATM    8  C   UNL     1     -11.021   9.842  70.015  1.00  0.00    -0.338 A  
ENDROOT
BRANCH   8   9
HETATM    9  C   UNL     1     -11.175  10.571  68.719  1.00  0.00    -0.262 C  
HETATM   10  O   UNL     1     -10.421  10.371  67.775  1.00  0.00    -0.195 OA 
BRANCH   9  11
HETATM   11  O   UNL     1     -12.259  11.426  68.728  1.00  0.00    -0.502 OA 
BRANCH  11  12
HETATM   12  C   UNL     1     -12.010  12.809  68.743  1.00  0.00    -0.240 A  
HETATM   13  C   UNL     1     -11.755  13.514  67.565  1.00  0.00    -0.403 A  
HETATM   14  C   UNL     1     -11.606  14.899  67.610  1.00  0.00    -0.357 A  
HETATM   15  C   UNL     1     -11.735  15.574  68.825  1.00  0.00    -0.372 A  
HETATM   16  C   UNL     1     -12.011  14.866  69.996  1.00  0.00    -0.377 A  
HETATM   17  C   UNL     1     -12.155  13.478  69.958  1.00  0.00    -0.411 A  
ENDBRANCH  11  12
ENDBRANCH   9  11
ENDBRANCH   8   9
TORSDOF 3
ENDMDL
MODEL       58
REMARK 921   NORMALIZED FREE ENERGY PREDICTED BY IDOCK:   -5.24 KCAL/MOL
REMARK 922        TOTAL FREE ENERGY PREDICTED BY IDOCK:   -6.50 KCAL/MOL
REMARK 923 INTER-LIGAND FREE ENERGY PREDICTED BY IDOCK:   -6.24 KCAL/MOL
REMARK 924 INTRA-LIGAND FREE ENERGY PREDICTED BY IDOCK:   -0.27 KCAL/MOL
REMARK 927      BINDING AFFINITY PREDICTED BY RF-SCORE:    0.00 PKD
ROOT
HETATM    1  O   UNL     1      -9.332  12.855  66.318  1.00  0.00    -0.358 OA 
HETATM    2  C   UNL     1     -10.325  13.082  65.408  1.00  0.00    -0.300 A  
HETATM    3  H   UNL     1      -9.114  13.554  66.925  1.00  0.00     0.000 HD 
HETATM    4  C   UNL     1     -10.646  12.053  64.514  1.00  0.00    -0.356 A  
HETATM    5  C   UNL     1     -11.652  12.233  63.565  1.00  0.00    -0.570 A  
HETATM    6  C   UNL     1     -12.346  13.436  63.507  1.00  0.00    -0.398 A  
HETATM    7  C   UNL     1     -12.028  14.463  64.399  1.00  0.00    -0.471 A  
HETATM    8  C   UNL     1     -11.011  14.303  65.361  1.00  0.00    -0.335 A  
ENDROOT
BRANCH   8   9
HETATM    9  C   UNL     1     -10.782  15.465  66.273  1.00  0.00    -0.312 C  
HETATM   10  O   UNL     1     -11.347  15.553  67.357  1.00  0.00    -0.302 OA 
BRANCH   9  11
HETATM   11  O   UNL     1      -9.860  16.355  65.761  1.00  0.00    -0.421 OA 
BRANCH  11  12
HETATM   12  C   UNL     1      -9.780  17.632  66.344  1.00  0.00    -0.294 A  
HETATM   13  C   UNL     1     -10.514  18.707  65.841  1.00  0.00    -0.395 A  
HETATM   14  C   UNL     1     -10.480  19.933  66.503  1.00  0.00    -0.589 A  
HETATM   15  C   UNL     1      -9.733  20.072  67.674  1.00  0.00    -0.535 A  
HETATM   16  C   UNL     1      -9.018  18.987  68.183  1.00  0.00    -0.355 A  
HETATM   17  C   UNL     1      -9.043  17.758  67.521  1.00  0.00    -0.244 A  
ENDBRANCH  11  12
ENDBRANCH   9  11
ENDBRANCH   8   9
TORSDOF 3
ENDMDL
MODEL       59
REMARK 921   NORMALIZED FREE ENERGY PREDICTED BY IDOCK:   -5.22 KCAL/MOL
REMARK 922        TOTAL FREE ENERGY PREDICTED BY IDOCK:   -6.48 KCAL/MOL
REMARK 923 INTER-LIGAND FREE ENERGY PREDICTED BY IDOCK:   -5.95 KCAL/MOL
REMARK 924 INTRA-LIGAND FREE ENERGY PREDICTED BY IDOCK:   -0.53 KCAL/MOL
REMARK 927      BINDING AFFINITY PREDICTED BY RF-SCORE:    0.00 PKD
ROOT
HETATM    1  O   UNL     1     -13.539  11.080  72.416  1.00  0.00    -0.541 OA 
HETATM    2  C   UNL     1     -13.234  12.266  71.812  1.00  0.00    -0.326 A  
HETATM    3  H   UNL     1     -13.216  10.279  72.018  1.00  0.00     0.000 HD 
HETATM    4  C   UNL     1     -13.710  13.445  72.397  1.00  0.00    -0.698 A  
HETATM    5  C   UNL     1     -13.426  14.683  71.819  1.00  0.00    -0.459 A  
HETATM    6  C   UNL     1     -12.663  14.750  70.659  1.00  0.00    -0.415 A  
HETATM    7  C   UNL     1     -12.186  13.575  70.074  1.00  0.00    -0.381 A  
HETATM    8  C   UNL     1     -12.467  12.315  70.639  1.00  0.00    -0.323 A  
ENDROOT
BRANCH   8   9
HETATM    9  C   UNL     1     -11.880  11.135  69.934  1.00  0.00    -0.363 C  
HETATM   10  O   UNL     1     -11.176  10.320  70.520  1.00  0.00    -0.300 OA 
BRANCH   9  11
HETATM   11  O   UNL     1     -12.260  11.077  68.609  1.00  0.00    -0.571 OA 
BRANCH  11  12
HETATM   12  C   UNL     1     -11.265  10.844  67.644  1.00  0.00    -0.309 A  
HETATM   13  C   UNL     1     -10.599  11.898  67.018  1.00  0.00    -0.260 A  
HETATM   14  C   UNL     1      -9.554  11.625  66.137  1.00  0.00    -0.252 A  
HETATM   15  C   UNL     1      -9.165  10.304  65.906  1.00  0.00    -0.205 A  
HETATM   16  C   UNL     1      -9.821   9.255  66.552  1.00  0.00    -0.331 A  
HETATM   17  C   UNL     1     -10.873   9.522  67.430  1.00  0.00    -0.215 A  
ENDBRANCH  11  12
ENDBRANCH   9  11
ENDBRANCH   8   9
TORSDOF 3
ENDMDL
MODEL       60
REMARK 921   NORMALIZED FREE ENERGY PREDICTED BY IDOCK:   -5.22 KCAL/MOL
REMARK 922        TOTAL FREE ENERGY PREDICTED BY IDOCK:   -6.48 KCAL/MOL
REMARK 923 INTER-LIGAND FREE ENERGY PREDICTED BY IDOCK:   -5.90 KCAL/MOL
REMARK 924 INTRA-LIGAND FREE ENERGY PREDICTED BY IDOCK:   -0.58 KCAL/MOL
REMARK 927      BINDING AFFINITY PREDICTED BY RF-SCORE:    0.00 PKD
ROOT
HETATM    1  O   UNL     1     -13.009  11.495  71.683  1.00  0.00    -0.437 OA 
HETATM    2  C   UNL     1     -12.176  10.642  71.018  1.00  0.00    -0.393 A  
HETATM    3  H   UNL     1     -13.250  12.309  71.255  1.00  0.00     0.000 HD 
HETATM    4  C   UNL     1     -11.820   9.443  71.649  1.00  0.00    -0.464 A  
HETATM    5  C   UNL     1     -10.972   8.537  71.013  1.00  0.00    -0.296 A  
HETATM    6  C   UNL     1     -10.477   8.820  69.745  1.00  0.00    -0.222 A  
HETATM    7  C   UNL     1     -10.831  10.014  69.114  1.00  0.00    -0.253 A  
HETATM    8  C   UNL     1     -11.682  10.945  69.742  1.00  0.00    -0.413 A  
ENDROOT
BRANCH   8   9
HETATM    9  C   UNL     1     -12.006  12.174  68.954  1.00  0.00    -0.242 C  
HETATM   10  O   UNL     1     -12.160  13.263  69.494  1.00  0.00    -0.303 OA 
BRANCH   9  11
HETATM   11  O   UNL     1     -12.061  11.923  67.598  1.00  0.00    -0.568 OA 
BRANCH  11  12
HETATM   12  C   UNL     1     -11.636  12.935  66.720  1.00  0.00    -0.360 A  
HETATM   13  C   UNL     1     -10.335  13.437  66.767  1.00  0.00    -0.263 A  
HETATM   14  C   UNL     1      -9.924  14.373  65.819  1.00  0.00    -0.354 A  
HETATM   15  C   UNL     1     -10.806  14.783  64.818  1.00  0.00    -0.395 A  
HETATM   16  C   UNL     1     -12.099  14.262  64.764  1.00  0.00    -0.457 A  
HETATM   17  C   UNL     1     -12.519  13.329  65.715  1.00  0.00    -0.480 A  
ENDBRANCH  11  12
ENDBRANCH   9  11
ENDBRANCH   8   9
TORSDOF 3
ENDMDL
MODEL       61
REMARK 921   NORMALIZED FREE ENERGY PREDICTED BY IDOCK:   -5.19 KCAL/MOL
REMARK 922        TOTAL FREE ENERGY PREDICTED BY IDOCK:   -6.45 KCAL/MOL
REMARK 923 INTER-LIGAND FREE ENERGY PREDICTED BY IDOCK:   -5.84 KCAL/MOL
REMARK 924 INTRA-LIGAND FREE ENERGY PREDICTED BY IDOCK:   -0.61 KCAL/MOL
REMARK 927      BINDING AFFINITY PREDICTED BY RF-SCORE:    0.00 PKD
ROOT
HETATM    1  O   UNL     1     -11.154  11.152  66.673  1.00  0.00    -0.270 OA 
HETATM    2  C   UNL     1     -10.578  10.987  65.445  1.00  0.00    -0.202 A  
HETATM    3  H   UNL     1     -11.879  11.761  66.748  1.00  0.00     0.000 HD 
HETATM    4  C   UNL     1      -9.509  10.090  65.334  1.00  0.00    -0.310 A  
HETATM    5  C   UNL     1      -8.886   9.886  64.102  1.00  0.00    -0.251 A  
HETATM    6  C   UNL     1      -9.328  10.572  62.977  1.00  0.00    -0.343 A  
HETATM    7  C   UNL     1     -10.394  11.467  63.086  1.00  0.00    -0.376 A  
HETATM    8  C   UNL     1     -11.033  11.692  64.322  1.00  0.00    -0.418 A  
ENDROOT
BRANCH   8   9
HETATM    9  C   UNL     1     -12.177  12.654  64.304  1.00  0.00    -0.445 C  
HETATM   10  O   UNL     1     -13.338  12.276  64.409  1.00  0.00    -0.786 OA 
BRANCH   9  11
HETATM   11  O   UNL     1     -11.754  13.964  64.199  1.00  0.00    -0.391 OA 
BRANCH  11  12
HETATM   12  C   UNL     1     -11.350  14.624  65.372  1.00  0.00    -0.344 A  
HETATM   13  C   UNL     1     -12.034  14.451  66.576  1.00  0.00    -0.406 A  
HETATM   14  C   UNL     1     -11.546  15.048  67.737  1.00  0.00    -0.336 A  
HETATM   15  C   UNL     1     -10.367  15.794  67.693  1.00  0.00    -0.281 A  
HETATM   16  C   UNL     1      -9.676  15.946  66.491  1.00  0.00    -0.286 A  
HETATM   17  C   UNL     1     -10.163  15.355  65.323  1.00  0.00    -0.390 A  
ENDBRANCH  11  12
ENDBRANCH   9  11
ENDBRANCH   8   9
TORSDOF 3
ENDMDL
MODEL       62
REMARK 921   NORMALIZED FREE ENERGY PREDICTED BY IDOCK:   -5.18 KCAL/MOL
REMARK 922        TOTAL FREE ENERGY PREDICTED BY IDOCK:   -6.44 KCAL/MOL
REMARK 923 INTER-LIGAND FREE ENERGY PREDICTED BY IDOCK:   -5.73 KCAL/MOL
REMARK 924 INTRA-LIGAND FREE ENERGY PREDICTED BY IDOCK:   -0.71 KCAL/MOL
REMARK 927      BINDING AFFINITY PREDICTED BY RF-SCORE:    0.00 PKD
ROOT
HETATM    1  O   UNL     1      -9.469  10.086  70.421  1.00  0.00    -0.370 OA 
HETATM    2  C   UNL     1     -10.075  10.564  69.294  1.00  0.00    -0.224 A  
HETATM    3  H   UNL     1      -9.927  10.178  71.249  1.00  0.00     0.000 HD 
HETATM    4  C   UNL     1      -9.400  10.429  68.075  1.00  0.00    -0.145 A  
HETATM    5  C   UNL     1      -9.975  10.900  66.895  1.00  0.00    -0.232 A  
HETATM    6  C   UNL     1     -11.227  11.504  66.925  1.00  0.00    -0.363 A  
HETATM    7  C   UNL     1     -11.903  11.639  68.140  1.00  0.00    -0.315 A  
HETATM    8  C   UNL     1     -11.336  11.174  69.344  1.00  0.00    -0.352 A  
ENDROOT
BRANCH   8   9
HETATM    9  C   UNL     1     -12.167  11.355  70.573  1.00  0.00    -0.386 C  
HETATM   10  O   UNL     1     -12.065  10.603  71.535  1.00  0.00    -0.300 OA 
BRANCH   9  11
HETATM   11  O   UNL     1     -12.993  12.457  70.486  1.00  0.00     0.092 OA 
BRANCH  11  12
HETATM   12  C   UNL     1     -12.662  13.593  71.244  1.00  0.00    -0.361 A  
HETATM   13  C   UNL     1     -11.800  14.572  70.746  1.00  0.00    -0.367 A  
HETATM   14  C   UNL     1     -11.570  15.729  71.489  1.00  0.00    -0.531 A  
HETATM   15  C   UNL     1     -12.219  15.912  72.711  1.00  0.00    -0.604 A  
HETATM   16  C   UNL     1     -13.095  14.939  73.193  1.00  0.00    -0.615 A  
HETATM   17  C   UNL     1     -13.325  13.775  72.457  1.00  0.00    -0.656 A  
ENDBRANCH  11  12
ENDBRANCH   9  11
ENDBRANCH   8   9
TORSDOF 3
ENDMDL
MODEL       63
REMARK 921   NORMALIZED FREE ENERGY PREDICTED BY IDOCK:   -5.17 KCAL/MOL
REMARK 922        TOTAL FREE ENERGY PREDICTED BY IDOCK:   -6.42 KCAL/MOL
REMARK 923 INTER-LIGAND FREE ENERGY PREDICTED BY IDOCK:   -5.76 KCAL/MOL
REMARK 924 INTRA-LIGAND FREE ENERGY PREDICTED BY IDOCK:   -0.66 KCAL/MOL
REMARK 927      BINDING AFFINITY PREDICTED BY RF-SCORE:    0.00 PKD
ROOT
HETATM    1  O   UNL     1     -11.908  13.375  70.813  1.00  0.00    -0.509 OA 
HETATM    2  C   UNL     1     -11.706  13.021  69.509  1.00  0.00    -0.317 A  
HETATM    3  H   UNL     1     -11.981  14.300  71.018  1.00  0.00     0.000 HD 
HETATM    4  C   UNL     1     -11.598  11.658  69.206  1.00  0.00    -0.385 A  
HETATM    5  C   UNL     1     -11.391  11.243  67.891  1.00  0.00    -0.367 A  
HETATM    6  C   UNL     1     -11.296  12.183  66.872  1.00  0.00    -0.402 A  
HETATM    7  C   UNL     1     -11.405  13.543  67.171  1.00  0.00    -0.346 A  
HETATM    8  C   UNL     1     -11.608  13.983  68.495  1.00  0.00    -0.357 A  
ENDROOT
BRANCH   8   9
HETATM    9  C   UNL     1     -11.733  15.461  68.683  1.00  0.00    -0.354 C  
HETATM   10  O   UNL     1     -12.172  15.943  69.720  1.00  0.00    -0.308 OA 
BRANCH   9  11
HETATM   11  O   UNL     1     -11.267  16.166  67.591  1.00  0.00    -0.266 OA 
BRANCH  11  12
HETATM   12  C   UNL     1     -10.425  17.266  67.825  1.00  0.00    -0.371 A  
HETATM   13  C   UNL     1     -10.895  18.576  67.718  1.00  0.00    -0.289 A  
HETATM   14  C   UNL     1     -10.055  19.638  68.049  1.00  0.00    -0.555 A  
HETATM   15  C   UNL     1      -8.761  19.385  68.508  1.00  0.00    -0.407 A  
HETATM   16  C   UNL     1      -8.304  18.072  68.633  1.00  0.00    -0.282 A  
HETATM   17  C   UNL     1      -9.139  17.004  68.296  1.00  0.00    -0.241 A  
ENDBRANCH  11  12
ENDBRANCH   9  11
ENDBRANCH   8   9
TORSDOF 3
ENDMDL
MODEL       64
REMARK 921   NORMALIZED FREE ENERGY PREDICTED BY IDOCK:   -5.14 KCAL/MOL
REMARK 922        TOTAL FREE ENERGY PREDICTED BY IDOCK:   -6.39 KCAL/MOL
REMARK 923 INTER-LIGAND FREE ENERGY PREDICTED BY IDOCK:   -5.79 KCAL/MOL
REMARK 924 INTRA-LIGAND FREE ENERGY PREDICTED BY IDOCK:   -0.60 KCAL/MOL
REMARK 927      BINDING AFFINITY PREDICTED BY RF-SCORE:    0.00 PKD
ROOT
HETATM    1  O   UNL     1      -9.858   8.753  68.786  1.00  0.00    -0.163 OA 
HETATM    2  C   UNL     1     -10.784   9.368  69.580  1.00  0.00    -0.235 A  
HETATM    3  H   UNL     1      -9.721   9.096  67.911  1.00  0.00     0.000 HD 
HETATM    4  C   UNL     1     -10.985   8.861  70.871  1.00  0.00    -0.325 A  
HETATM    5  C   UNL     1     -11.920   9.453  71.721  1.00  0.00    -0.452 A  
HETATM    6  C   UNL     1     -12.653  10.553  71.291  1.00  0.00    -0.531 A  
HETATM    7  C   UNL     1     -12.453  11.060  70.005  1.00  0.00    -0.319 A  
HETATM    8  C   UNL     1     -11.518  10.473  69.128  1.00  0.00    -0.314 A  
ENDROOT
BRANCH   8   9
HETATM    9  C   UNL     1     -11.378  11.121  67.789  1.00  0.00    -0.293 C  
HETATM   10  O   UNL     1     -10.639  10.662  66.926  1.00  0.00    -0.246 OA 
BRANCH   9  11
HETATM   11  O   UNL     1     -12.190  12.230  67.659  1.00  0.00    -0.442 OA 
BRANCH  11  12
HETATM   12  C   UNL     1     -11.837  13.200  66.707  1.00  0.00    -0.385 A  
HETATM   13  C   UNL     1     -12.443  13.240  65.450  1.00  0.00    -0.543 A  
HETATM   14  C   UNL     1     -12.134  14.274  64.569  1.00  0.00    -0.499 A  
HETATM   15  C   UNL     1     -11.240  15.274  64.955  1.00  0.00    -0.422 A  
HETATM   16  C   UNL     1     -10.652  15.241  66.220  1.00  0.00    -0.312 A  
HETATM   17  C   UNL     1     -10.954  14.204  67.106  1.00  0.00    -0.304 A  
ENDBRANCH  11  12
ENDBRANCH   9  11
ENDBRANCH   8   9
TORSDOF 3
ENDMDL
MODEL       65
REMARK 921   NORMALIZED FREE ENERGY PREDICTED BY IDOCK:   -5.14 KCAL/MOL
REMARK 922        TOTAL FREE ENERGY PREDICTED BY IDOCK:   -6.39 KCAL/MOL
REMARK 923 INTER-LIGAND FREE ENERGY PREDICTED BY IDOCK:   -5.79 KCAL/MOL
REMARK 924 INTRA-LIGAND FREE ENERGY PREDICTED BY IDOCK:   -0.59 KCAL/MOL
REMARK 927      BINDING AFFINITY PREDICTED BY RF-SCORE:    0.00 PKD
ROOT
HETATM    1  O   UNL     1     -13.304   8.742  73.049  1.00  0.00    -0.846 OA 
HETATM    2  C   UNL     1     -12.513   8.219  72.066  1.00  0.00    -0.351 A  
HETATM    3  H   UNL     1     -13.474   9.677  73.037  1.00  0.00     0.000 HD 
HETATM    4  C   UNL     1     -12.262   6.841  72.085  1.00  0.00    -0.260 A  
HETATM    5  C   UNL     1     -11.460   6.258  71.104  1.00  0.00    -0.362 A  
HETATM    6  C   UNL     1     -10.908   7.045  70.099  1.00  0.00    -0.285 A  
HETATM    7  C   UNL     1     -11.157   8.419  70.078  1.00  0.00    -0.148 A  
HETATM    8  C   UNL     1     -11.960   9.028  71.063  1.00  0.00    -0.323 A  
ENDROOT
BRANCH   8   9
HETATM    9  C   UNL     1     -12.172  10.500  70.918  1.00  0.00    -0.388 C  
HETATM   10  O   UNL     1     -13.121  11.069  71.445  1.00  0.00    -0.395 OA 
BRANCH   9  11
HETATM   11  O   UNL     1     -11.172  11.100  70.179  1.00  0.00    -0.250 OA 
BRANCH  11  12
HETATM   12  C   UNL     1     -11.549  11.946  69.122  1.00  0.00    -0.312 A  
HETATM   13  C   UNL     1     -11.866  13.287  69.343  1.00  0.00    -0.386 A  
HETATM   14  C   UNL     1     -12.143  14.117  68.258  1.00  0.00    -0.297 A  
HETATM   15  C   UNL     1     -12.078  13.609  66.959  1.00  0.00    -0.423 A  
HETATM   16  C   UNL     1     -11.740  12.272  66.743  1.00  0.00    -0.411 A  
HETATM   17  C   UNL     1     -11.468  11.435  67.827  1.00  0.00    -0.353 A  
ENDBRANCH  11  12
ENDBRANCH   9  11
ENDBRANCH   8   9
TORSDOF 3
ENDMDL
MODEL       66
REMARK 921   NORMALIZED FREE ENERGY PREDICTED BY IDOCK:   -5.11 KCAL/MOL
REMARK 922        TOTAL FREE ENERGY PREDICTED BY IDOCK:   -6.35 KCAL/MOL
REMARK 923 INTER-LIGAND FREE ENERGY PREDICTED BY IDOCK:   -5.77 KCAL/MOL
REMARK 924 INTRA-LIGAND FREE ENERGY PREDICTED BY IDOCK:   -0.58 KCAL/MOL
REMARK 927      BINDING AFFINITY PREDICTED BY RF-SCORE:    0.00 PKD
ROOT
HETATM    1  O   UNL     1     -11.288   8.943  69.895  1.00  0.00    -0.429 OA 
HETATM    2  C   UNL     1     -11.737  10.180  70.262  1.00  0.00    -0.282 A  
HETATM    3  H   UNL     1     -10.694   8.885  69.156  1.00  0.00     0.000 HD 
HETATM    4  C   UNL     1     -12.612  10.266  71.352  1.00  0.00    -0.539 A  
HETATM    5  C   UNL     1     -13.101  11.505  71.767  1.00  0.00    -0.503 A  
HETATM    6  C   UNL     1     -12.716  12.662  71.101  1.00  0.00    -0.347 A  
HETATM    7  C   UNL     1     -11.842  12.579  70.014  1.00  0.00    -0.363 A  
HETATM    8  C   UNL     1     -11.342  11.336  69.576  1.00  0.00    -0.362 A  
ENDROOT
BRANCH   8   9
HETATM    9  C   UNL     1     -10.397  11.381  68.419  1.00  0.00    -0.195 C  
HETATM   10  O   UNL     1      -9.808  10.379  68.030  1.00  0.00    -0.148 OA 
BRANCH   9  11
HETATM   11  O   UNL     1     -10.321  12.639  67.856  1.00  0.00    -0.208 OA 
BRANCH  11  12
HETATM   12  C   UNL     1     -10.939  12.845  66.611  1.00  0.00    -0.276 A  
HETATM   13  C   UNL     1     -12.190  13.455  66.513  1.00  0.00    -0.414 A  
HETATM   14  C   UNL     1     -12.727  13.727  65.256  1.00  0.00    -0.481 A  
HETATM   15  C   UNL     1     -12.002  13.410  64.106  1.00  0.00    -0.505 A  
HETATM   16  C   UNL     1     -10.741  12.819  64.211  1.00  0.00    -0.419 A  
HETATM   17  C   UNL     1     -10.201  12.539  65.467  1.00  0.00    -0.295 A  
ENDBRANCH  11  12
ENDBRANCH   9  11
ENDBRANCH   8   9
TORSDOF 3
ENDMDL
MODEL       67
REMARK 921   NORMALIZED FREE ENERGY PREDICTED BY IDOCK:   -5.11 KCAL/MOL
REMARK 922        TOTAL FREE ENERGY PREDICTED BY IDOCK:   -6.35 KCAL/MOL
REMARK 923 INTER-LIGAND FREE ENERGY PREDICTED BY IDOCK:   -5.65 KCAL/MOL
REMARK 924 INTRA-LIGAND FREE ENERGY PREDICTED BY IDOCK:   -0.70 KCAL/MOL
REMARK 927      BINDING AFFINITY PREDICTED BY RF-SCORE:    0.00 PKD
ROOT
HETATM    1  O   UNL     1      -6.971  17.516  69.061  1.00  0.00    -0.236 OA 
HETATM    2  C   UNL     1      -7.897  18.317  68.455  1.00  0.00    -0.305 A  
HETATM    3  H   UNL     1      -7.243  16.648  69.338  1.00  0.00     0.000 HD 
HETATM    4  C   UNL     1      -7.496  19.595  68.047  1.00  0.00    -0.331 A  
HETATM    5  C   UNL     1      -8.403  20.452  67.424  1.00  0.00    -0.380 A  
HETATM    6  C   UNL     1      -9.711  20.037  67.201  1.00  0.00    -0.545 A  
HETATM    7  C   UNL     1     -10.113  18.762  67.607  1.00  0.00    -0.415 A  
HETATM    8  C   UNL     1      -9.213  17.884  68.243  1.00  0.00    -0.283 A  
ENDROOT
BRANCH   8   9
HETATM    9  C   UNL     1      -9.756  16.540  68.607  1.00  0.00    -0.247 C  
HETATM   10  O   UNL     1      -9.142  15.775  69.341  1.00  0.00    -0.253 OA 
BRANCH   9  11
HETATM   11  O   UNL     1     -11.002  16.315  68.057  1.00  0.00    -0.334 OA 
BRANCH  11  12
HETATM   12  C   UNL     1     -11.136  15.270  67.126  1.00  0.00    -0.323 A  
HETATM   13  C   UNL     1     -10.492  15.314  65.889  1.00  0.00    -0.345 A  
HETATM   14  C   UNL     1     -10.573  14.217  65.032  1.00  0.00    -0.444 A  
HETATM   15  C   UNL     1     -11.275  13.077  65.425  1.00  0.00    -0.317 A  
HETATM   16  C   UNL     1     -11.899  13.031  66.673  1.00  0.00    -0.455 A  
HETATM   17  C   UNL     1     -11.827  14.129  67.533  1.00  0.00    -0.437 A  
ENDBRANCH  11  12
ENDBRANCH   9  11
ENDBRANCH   8   9
TORSDOF 3
ENDMDL
MODEL       68
REMARK 921   NORMALIZED FREE ENERGY PREDICTED BY IDOCK:   -5.09 KCAL/MOL
REMARK 922        TOTAL FREE ENERGY PREDICTED BY IDOCK:   -6.32 KCAL/MOL
REMARK 923 INTER-LIGAND FREE ENERGY PREDICTED BY IDOCK:   -5.63 KCAL/MOL
REMARK 924 INTRA-LIGAND FREE ENERGY PREDICTED BY IDOCK:   -0.70 KCAL/MOL
REMARK 927      BINDING AFFINITY PREDICTED BY RF-SCORE:    0.00 PKD
ROOT
HETATM    1  O   UNL     1      -9.334  11.661  66.767  1.00  0.00    -0.177 OA 
HETATM    2  C   UNL     1     -10.207  11.820  65.729  1.00  0.00    -0.239 A  
HETATM    3  H   UNL     1      -9.564  12.040  67.607  1.00  0.00     0.000 HD 
HETATM    4  C   UNL     1      -9.867  11.262  64.490  1.00  0.00    -0.317 A  
HETATM    5  C   UNL     1     -10.725  11.396  63.398  1.00  0.00    -0.405 A  
HETATM    6  C   UNL     1     -11.925  12.084  63.537  1.00  0.00    -0.605 A  
HETATM    7  C   UNL     1     -12.266  12.641  64.772  1.00  0.00    -0.528 A  
HETATM    8  C   UNL     1     -11.411  12.521  65.886  1.00  0.00    -0.417 A  
ENDROOT
BRANCH   8   9
HETATM    9  C   UNL     1     -11.899  13.138  67.156  1.00  0.00    -0.369 C  
HETATM   10  O   UNL     1     -11.917  12.513  68.210  1.00  0.00    -0.328 OA 
BRANCH   9  11
HETATM   11  O   UNL     1     -12.267  14.458  66.987  1.00  0.00    -0.400 OA 
BRANCH  11  12
HETATM   12  C   UNL     1     -11.314  15.451  67.268  1.00  0.00    -0.220 A  
HETATM   13  C   UNL     1     -10.455  15.934  66.281  1.00  0.00    -0.324 A  
HETATM   14  C   UNL     1      -9.589  16.986  66.576  1.00  0.00    -0.295 A  
HETATM   15  C   UNL     1      -9.602  17.562  67.847  1.00  0.00    -0.277 A  
HETATM   16  C   UNL     1     -10.478  17.088  68.825  1.00  0.00    -0.347 A  
HETATM   17  C   UNL     1     -11.344  16.031  68.536  1.00  0.00    -0.382 A  
ENDBRANCH  11  12
ENDBRANCH   9  11
ENDBRANCH   8   9
TORSDOF 3
ENDMDL
MODEL       69
REMARK 921   NORMALIZED FREE ENERGY PREDICTED BY IDOCK:   -5.07 KCAL/MOL
REMARK 922        TOTAL FREE ENERGY PREDICTED BY IDOCK:   -6.30 KCAL/MOL
REMARK 923 INTER-LIGAND FREE ENERGY PREDICTED BY IDOCK:   -5.80 KCAL/MOL
REMARK 924 INTRA-LIGAND FREE ENERGY PREDICTED BY IDOCK:   -0.50 KCAL/MOL
REMARK 927      BINDING AFFINITY PREDICTED BY RF-SCORE:    0.00 PKD
ROOT
HETATM    1  O   UNL     1     -11.224  13.145  69.297  1.00  0.00    -0.328 OA 
HETATM    2  C   UNL     1     -12.074  13.407  70.333  1.00  0.00    -0.333 A  
HETATM    3  H   UNL     1     -11.035  12.236  69.092  1.00  0.00     0.000 HD 
HETATM    4  C   UNL     1     -12.352  14.746  70.634  1.00  0.00    -0.401 A  
HETATM    5  C   UNL     1     -13.213  15.068  71.683  1.00  0.00    -0.464 A  
HETATM    6  C   UNL     1     -13.804  14.057  72.432  1.00  0.00    -0.653 A  
HETATM    7  C   UNL     1     -13.529  12.721  72.133  1.00  0.00    -0.591 A  
HETATM    8  C   UNL     1     -12.657  12.375  71.081  1.00  0.00    -0.349 A  
ENDROOT
BRANCH   8   9
HETATM    9  C   UNL     1     -12.463  10.912  70.844  1.00  0.00    -0.408 C  
HETATM   10  O   UNL     1     -13.410  10.136  70.798  1.00  0.00    -0.361 OA 
BRANCH   9  11
HETATM   11  O   UNL     1     -11.135  10.587  70.655  1.00  0.00    -0.292 OA 
BRANCH  11  12
HETATM   12  C   UNL     1     -10.816   9.683  69.627  1.00  0.00    -0.244 A  
HETATM   13  C   UNL     1     -10.603   8.329  69.892  1.00  0.00    -0.232 A  
HETATM   14  C   UNL     1     -10.381   7.448  68.835  1.00  0.00    -0.214 A  
HETATM   15  C   UNL     1     -10.397   7.919  67.521  1.00  0.00    -0.329 A  
HETATM   16  C   UNL     1     -10.632   9.270  67.262  1.00  0.00    -0.303 A  
HETATM   17  C   UNL     1     -10.848  10.159  68.317  1.00  0.00    -0.297 A  
ENDBRANCH  11  12
ENDBRANCH   9  11
ENDBRANCH   8   9
TORSDOF 3
ENDMDL
MODEL       70
REMARK 921   NORMALIZED FREE ENERGY PREDICTED BY IDOCK:   -5.07 KCAL/MOL
REMARK 922        TOTAL FREE ENERGY PREDICTED BY IDOCK:   -6.30 KCAL/MOL
REMARK 923 INTER-LIGAND FREE ENERGY PREDICTED BY IDOCK:   -5.99 KCAL/MOL
REMARK 924 INTRA-LIGAND FREE ENERGY PREDICTED BY IDOCK:   -0.31 KCAL/MOL
REMARK 927      BINDING AFFINITY PREDICTED BY RF-SCORE:    0.00 PKD
ROOT
HETATM    1  O   UNL     1     -12.179   9.812  69.973  1.00  0.00    -0.472 OA 
HETATM    2  C   UNL     1     -12.379  11.091  70.411  1.00  0.00    -0.356 A  
HETATM    3  H   UNL     1     -11.751   9.689  69.133  1.00  0.00     0.000 HD 
HETATM    4  C   UNL     1     -13.009  11.272  71.648  1.00  0.00    -0.537 A  
HETATM    5  C   UNL     1     -13.237  12.557  72.140  1.00  0.00    -0.508 A  
HETATM    6  C   UNL     1     -12.835  13.665  71.404  1.00  0.00    -0.442 A  
HETATM    7  C   UNL     1     -12.205  13.487  70.170  1.00  0.00    -0.400 A  
HETATM    8  C   UNL     1     -11.971  12.197  69.653  1.00  0.00    -0.351 A  
ENDROOT
BRANCH   8   9
HETATM    9  C   UNL     1     -11.268  12.137  68.335  1.00  0.00    -0.265 C  
HETATM   10  O   UNL     1     -11.613  11.355  67.456  1.00  0.00    -0.497 OA 
BRANCH   9  11
HETATM   11  O   UNL     1     -10.254  13.069  68.242  1.00  0.00    -0.235 OA 
BRANCH  11  12
HETATM   12  C   UNL     1     -10.430  14.152  67.364  1.00  0.00    -0.271 A  
HETATM   13  C   UNL     1     -10.352  15.471  67.813  1.00  0.00    -0.263 A  
HETATM   14  C   UNL     1     -10.438  16.517  66.896  1.00  0.00    -0.282 A  
HETATM   15  C   UNL     1     -10.577  16.239  65.535  1.00  0.00    -0.369 A  
HETATM   16  C   UNL     1     -10.633  14.917  65.090  1.00  0.00    -0.450 A  
HETATM   17  C   UNL     1     -10.554  13.866  66.005  1.00  0.00    -0.293 A  
ENDBRANCH  11  12
ENDBRANCH   9  11
ENDBRANCH   8   9
TORSDOF 3
ENDMDL
MODEL       71
REMARK 921   NORMALIZED FREE ENERGY PREDICTED BY IDOCK:   -5.05 KCAL/MOL
REMARK 922        TOTAL FREE ENERGY PREDICTED BY IDOCK:   -6.28 KCAL/MOL
REMARK 923 INTER-LIGAND FREE ENERGY PREDICTED BY IDOCK:   -5.55 KCAL/MOL
REMARK 924 INTRA-LIGAND FREE ENERGY PREDICTED BY IDOCK:   -0.74 KCAL/MOL
REMARK 927      BINDING AFFINITY PREDICTED BY RF-SCORE:    0.00 PKD
ROOT
HETATM    1  O   UNL     1     -12.777  14.676  69.075  1.00  0.00    -0.482 OA 
HETATM    2  C   UNL     1     -11.434  14.734  68.830  1.00  0.00    -0.301 A  
HETATM    3  H   UNL     1     -13.197  13.823  69.061  1.00  0.00     0.000 HD 
HETATM    4  C   UNL     1     -10.815  15.990  68.851  1.00  0.00    -0.286 A  
HETATM    5  C   UNL     1      -9.446  16.104  68.606  1.00  0.00    -0.227 A  
HETATM    6  C   UNL     1      -8.690  14.968  68.344  1.00  0.00    -0.175 A  
HETATM    7  C   UNL     1      -9.305  13.714  68.323  1.00  0.00    -0.204 A  
HETATM    8  C   UNL     1     -10.687  13.578  68.562  1.00  0.00    -0.270 A  
ENDROOT
BRANCH   8   9
HETATM    9  C   UNL     1     -11.223  12.183  68.537  1.00  0.00    -0.260 C  
HETATM   10  O   UNL     1     -10.929  11.365  69.400  1.00  0.00    -0.240 OA 
BRANCH   9  11
HETATM   11  O   UNL     1     -12.085  11.975  67.479  1.00  0.00    -0.555 OA 
BRANCH  11  12
HETATM   12  C   UNL     1     -11.554  12.004  66.178  1.00  0.00    -0.304 A  
HETATM   13  C   UNL     1     -10.452  11.224  65.826  1.00  0.00    -0.310 A  
HETATM   14  C   UNL     1     -10.014  11.208  64.503  1.00  0.00    -0.350 A  
HETATM   15  C   UNL     1     -10.692  11.952  63.536  1.00  0.00    -0.504 A  
HETATM   16  C   UNL     1     -11.807  12.714  63.890  1.00  0.00    -0.544 A  
HETATM   17  C   UNL     1     -12.247  12.738  65.215  1.00  0.00    -0.535 A  
ENDBRANCH  11  12
ENDBRANCH   9  11
ENDBRANCH   8   9
TORSDOF 3
ENDMDL
MODEL       72
REMARK 921   NORMALIZED FREE ENERGY PREDICTED BY IDOCK:   -5.03 KCAL/MOL
REMARK 922        TOTAL FREE ENERGY PREDICTED BY IDOCK:   -6.26 KCAL/MOL
REMARK 923 INTER-LIGAND FREE ENERGY PREDICTED BY IDOCK:   -5.82 KCAL/MOL
REMARK 924 INTRA-LIGAND FREE ENERGY PREDICTED BY IDOCK:   -0.44 KCAL/MOL
REMARK 927      BINDING AFFINITY PREDICTED BY RF-SCORE:    0.00 PKD
ROOT
HETATM    1  O   UNL     1     -12.649  14.491  69.385  1.00  0.00    -0.566 OA 
HETATM    2  C   UNL     1     -11.686  14.727  68.445  1.00  0.00    -0.314 A  
HETATM    3  H   UNL     1     -12.874  13.588  69.577  1.00  0.00     0.000 HD 
HETATM    4  C   UNL     1     -11.355  16.058  68.161  1.00  0.00    -0.289 A  
HETATM    5  C   UNL     1     -10.379  16.353  67.209  1.00  0.00    -0.287 A  
HETATM    6  C   UNL     1      -9.727  15.324  66.540  1.00  0.00    -0.287 A  
HETATM    7  C   UNL     1     -10.055  13.996  66.822  1.00  0.00    -0.264 A  
HETATM    8  C   UNL     1     -11.042  13.677  67.776  1.00  0.00    -0.293 A  
ENDROOT
BRANCH   8   9
HETATM    9  C   UNL     1     -11.285  12.221  68.006  1.00  0.00    -0.269 C  
HETATM   10  O   UNL     1     -12.028  11.570  67.281  1.00  0.00    -0.605 OA 
BRANCH   9  11
HETATM   11  O   UNL     1     -10.557  11.733  69.073  1.00  0.00    -0.204 OA 
BRANCH  11  12
HETATM   12  C   UNL     1     -11.200  10.864  69.971  1.00  0.00    -0.263 A  
HETATM   13  C   UNL     1     -10.699   9.588  70.231  1.00  0.00    -0.315 A  
HETATM   14  C   UNL     1     -11.312   8.793  71.198  1.00  0.00    -0.345 A  
HETATM   15  C   UNL     1     -12.405   9.284  71.914  1.00  0.00    -0.454 A  
HETATM   16  C   UNL     1     -12.889  10.569  71.663  1.00  0.00    -0.581 A  
HETATM   17  C   UNL     1     -12.283  11.368  70.691  1.00  0.00    -0.484 A  
ENDBRANCH  11  12
ENDBRANCH   9  11
ENDBRANCH   8   9
TORSDOF 3
ENDMDL
MODEL       73
REMARK 921   NORMALIZED FREE ENERGY PREDICTED BY IDOCK:   -4.99 KCAL/MOL
REMARK 922        TOTAL FREE ENERGY PREDICTED BY IDOCK:   -6.20 KCAL/MOL
REMARK 923 INTER-LIGAND FREE ENERGY PREDICTED BY IDOCK:   -5.74 KCAL/MOL
REMARK 924 INTRA-LIGAND FREE ENERGY PREDICTED BY IDOCK:   -0.46 KCAL/MOL
REMARK 927      BINDING AFFINITY PREDICTED BY RF-SCORE:    0.00 PKD
ROOT
HETATM    1  O   UNL     1     -11.062   6.952  68.889  1.00  0.00    -0.423 OA 
HETATM    2  C   UNL     1     -11.022   7.052  70.251  1.00  0.00    -0.271 A  
HETATM    3  H   UNL     1     -11.003   7.753  68.381  1.00  0.00     0.000 HD 
HETATM    4  C   UNL     1     -11.108   5.872  71.001  1.00  0.00    -0.315 A  
HETATM    5  C   UNL     1     -11.073   5.919  72.394  1.00  0.00    -0.328 A  
HETATM    6  C   UNL     1     -10.946   7.141  73.046  1.00  0.00    -0.357 A  
HETATM    7  C   UNL     1     -10.859   8.319  72.300  1.00  0.00    -0.408 A  
HETATM    8  C   UNL     1     -10.899   8.293  70.891  1.00  0.00    -0.261 A  
ENDROOT
BRANCH   8   9
HETATM    9  C   UNL     1     -10.772   9.616  70.207  1.00  0.00    -0.281 C  
HETATM   10  O   UNL     1      -9.679  10.084  69.910  1.00  0.00    -0.227 OA 
BRANCH   9  11
HETATM   11  O   UNL     1     -12.001  10.183  69.937  1.00  0.00    -0.191 OA 
BRANCH  11  12
HETATM   12  C   UNL     1     -12.261  11.468  70.441  1.00  0.00    -0.355 A  
HETATM   13  C   UNL     1     -11.890  12.614  69.736  1.00  0.00    -0.379 A  
HETATM   14  C   UNL     1     -12.249  13.869  70.224  1.00  0.00    -0.428 A  
HETATM   15  C   UNL     1     -12.997  13.972  71.398  1.00  0.00    -0.427 A  
HETATM   16  C   UNL     1     -13.383  12.821  72.087  1.00  0.00    -0.593 A  
HETATM   17  C   UNL     1     -13.021  11.561  71.607  1.00  0.00    -0.499 A  
ENDBRANCH  11  12
ENDBRANCH   9  11
ENDBRANCH   8   9
TORSDOF 3
ENDMDL
MODEL       74
REMARK 921   NORMALIZED FREE ENERGY PREDICTED BY IDOCK:   -4.98 KCAL/MOL
REMARK 922        TOTAL FREE ENERGY PREDICTED BY IDOCK:   -6.19 KCAL/MOL
REMARK 923 INTER-LIGAND FREE ENERGY PREDICTED BY IDOCK:   -5.88 KCAL/MOL
REMARK 924 INTRA-LIGAND FREE ENERGY PREDICTED BY IDOCK:   -0.31 KCAL/MOL
REMARK 927      BINDING AFFINITY PREDICTED BY RF-SCORE:    0.00 PKD
ROOT
HETATM    1  O   UNL     1     -10.809  13.375  66.281  1.00  0.00    -0.286 OA 
HETATM    2  C   UNL     1     -10.727  14.689  66.646  1.00  0.00    -0.305 A  
HETATM    3  H   UNL     1     -11.037  12.739  66.950  1.00  0.00     0.000 HD 
HETATM    4  C   UNL     1     -10.392  15.626  65.661  1.00  0.00    -0.408 A  
HETATM    5  C   UNL     1     -10.295  16.980  65.982  1.00  0.00    -0.324 A  
HETATM    6  C   UNL     1     -10.535  17.406  67.283  1.00  0.00    -0.321 A  
HETATM    7  C   UNL     1     -10.870  16.473  68.267  1.00  0.00    -0.352 A  
HETATM    8  C   UNL     1     -10.968  15.100  67.965  1.00  0.00    -0.295 A  
ENDROOT
BRANCH   8   9
HETATM    9  C   UNL     1     -11.358  14.205  69.097  1.00  0.00    -0.279 C  
HETATM   10  O   UNL     1     -12.018  13.189  68.916  1.00  0.00    -0.309 OA 
BRANCH   9  11
HETATM   11  O   UNL     1     -10.856  14.645  70.305  1.00  0.00    -0.110 OA 
BRANCH  11  12
HETATM   12  C   UNL     1     -11.770  14.980  71.318  1.00  0.00    -0.347 A  
HETATM   13  C   UNL     1     -11.339  15.351  72.592  1.00  0.00    -0.256 A  
HETATM   14  C   UNL     1     -12.272  15.767  73.541  1.00  0.00    -0.632 A  
HETATM   15  C   UNL     1     -13.625  15.832  73.205  1.00  0.00    -0.588 A  
HETATM   16  C   UNL     1     -14.048  15.480  71.922  1.00  0.00    -0.586 A  
HETATM   17  C   UNL     1     -13.119  15.056  70.970  1.00  0.00    -0.482 A  
ENDBRANCH  11  12
ENDBRANCH   9  11
ENDBRANCH   8   9
TORSDOF 3
ENDMDL
MODEL       75
REMARK 921   NORMALIZED FREE ENERGY PREDICTED BY IDOCK:   -4.97 KCAL/MOL
REMARK 922        TOTAL FREE ENERGY PREDICTED BY IDOCK:   -6.19 KCAL/MOL
REMARK 923 INTER-LIGAND FREE ENERGY PREDICTED BY IDOCK:   -5.64 KCAL/MOL
REMARK 924 INTRA-LIGAND FREE ENERGY PREDICTED BY IDOCK:   -0.54 KCAL/MOL
REMARK 927      BINDING AFFINITY PREDICTED BY RF-SCORE:    0.00 PKD
ROOT
HETATM    1  O   UNL     1     -10.866  13.315  69.284  1.00  0.00    -0.415 OA 
HETATM    2  C   UNL     1     -11.748  13.494  70.311  1.00  0.00    -0.173 A  
HETATM    3  H   UNL     1     -10.844  12.467  68.856  1.00  0.00     0.000 HD 
HETATM    4  C   UNL     1     -11.780  14.744  70.942  1.00  0.00    -0.360 A  
HETATM    5  C   UNL     1     -12.663  14.978  71.996  1.00  0.00    -0.406 A  
HETATM    6  C   UNL     1     -13.520  13.970  72.422  1.00  0.00    -0.639 A  
HETATM    7  C   UNL     1     -13.490  12.723  71.794  1.00  0.00    -0.343 A  
HETATM    8  C   UNL     1     -12.602  12.465  70.731  1.00  0.00    -0.298 A  
ENDROOT
BRANCH   8   9
HETATM    9  C   UNL     1     -12.683  11.101  70.126  1.00  0.00    -0.091 C  
HETATM   10  O   UNL     1     -12.548  10.922  68.921  1.00  0.00    -0.338 OA 
BRANCH   9  11
HETATM   11  O   UNL     1     -12.880  10.119  71.076  1.00  0.00    -0.346 OA 
BRANCH  11  12
HETATM   12  C   UNL     1     -11.765   9.376  71.500  1.00  0.00    -0.394 A  
HETATM   13  C   UNL     1     -10.484   9.649  71.019  1.00  0.00    -0.327 A  
HETATM   14  C   UNL     1      -9.392   8.953  71.534  1.00  0.00    -0.335 A  
HETATM   15  C   UNL     1      -9.583   8.005  72.541  1.00  0.00    -0.306 A  
HETATM   16  C   UNL     1     -10.864   7.751  73.033  1.00  0.00    -0.451 A  
HETATM   17  C   UNL     1     -11.962   8.441  72.516  1.00  0.00    -0.418 A  
ENDBRANCH  11  12
ENDBRANCH   9  11
ENDBRANCH   8   9
TORSDOF 3
ENDMDL
MODEL       76
REMARK 921   NORMALIZED FREE ENERGY PREDICTED BY IDOCK:   -4.97 KCAL/MOL
REMARK 922        TOTAL FREE ENERGY PREDICTED BY IDOCK:   -6.19 KCAL/MOL
REMARK 923 INTER-LIGAND FREE ENERGY PREDICTED BY IDOCK:   -5.64 KCAL/MOL
REMARK 924 INTRA-LIGAND FREE ENERGY PREDICTED BY IDOCK:   -0.54 KCAL/MOL
REMARK 927      BINDING AFFINITY PREDICTED BY RF-SCORE:    0.00 PKD
ROOT
HETATM    1  O   UNL     1     -11.485   7.424  73.137  1.00  0.00    -0.588 OA 
HETATM    2  C   UNL     1     -11.895   8.495  72.394  1.00  0.00    -0.367 A  
HETATM    3  H   UNL     1     -10.568   7.180  73.100  1.00  0.00     0.000 HD 
HETATM    4  C   UNL     1     -13.248   8.854  72.448  1.00  0.00    -0.482 A  
HETATM    5  C   UNL     1     -13.717   9.940  71.708  1.00  0.00    -0.268 A  
HETATM    6  C   UNL     1     -12.841  10.674  70.917  1.00  0.00    -0.473 A  
HETATM    7  C   UNL     1     -11.491  10.318  70.863  1.00  0.00    -0.425 A  
HETATM    8  C   UNL     1     -10.998   9.221  71.598  1.00  0.00    -0.433 A  
ENDROOT
BRANCH   8   9
HETATM    9  C   UNL     1      -9.533   8.956  71.477  1.00  0.00    -0.277 C  
HETATM   10  O   UNL     1      -8.838   8.719  72.458  1.00  0.00    -0.402 OA 
BRANCH   9  11
HETATM   11  O   UNL     1      -9.107   8.973  70.164  1.00  0.00    -0.160 OA 
BRANCH  11  12
HETATM   12  C   UNL     1      -9.666   8.039  69.275  1.00  0.00    -0.167 A  
HETATM   13  C   UNL     1      -9.989   6.746  69.689  1.00  0.00    -0.184 A  
HETATM   14  C   UNL     1     -10.628   5.880  68.803  1.00  0.00    -0.340 A  
HETATM   15  C   UNL     1     -10.960   6.317  67.519  1.00  0.00    -0.444 A  
HETATM   16  C   UNL     1     -10.652   7.618  67.119  1.00  0.00    -0.410 A  
HETATM   17  C   UNL     1     -10.007   8.488  67.999  1.00  0.00    -0.221 A  
ENDBRANCH  11  12
ENDBRANCH   9  11
ENDBRANCH   8   9
TORSDOF 3
ENDMDL
MODEL       77
REMARK 921   NORMALIZED FREE ENERGY PREDICTED BY IDOCK:   -4.96 KCAL/MOL
REMARK 922        TOTAL FREE ENERGY PREDICTED BY IDOCK:   -6.18 KCAL/MOL
REMARK 923 INTER-LIGAND FREE ENERGY PREDICTED BY IDOCK:   -5.58 KCAL/MOL
REMARK 924 INTRA-LIGAND FREE ENERGY PREDICTED BY IDOCK:   -0.60 KCAL/MOL
REMARK 927      BINDING AFFINITY PREDICTED BY RF-SCORE:    0.00 PKD
ROOT
HETATM    1  O   UNL     1      -9.896  11.330  68.039  1.00  0.00    -0.168 OA 
HETATM    2  C   UNL     1     -10.798  11.821  68.940  1.00  0.00    -0.223 A  
HETATM    3  H   UNL     1      -9.489  11.941  67.435  1.00  0.00     0.000 HD 
HETATM    4  C   UNL     1     -11.398  10.921  69.829  1.00  0.00    -0.374 A  
HETATM    5  C   UNL     1     -12.325  11.371  70.768  1.00  0.00    -0.483 A  
HETATM    6  C   UNL     1     -12.656  12.720  70.827  1.00  0.00    -0.308 A  
HETATM    7  C   UNL     1     -12.058  13.620  69.942  1.00  0.00    -0.406 A  
HETATM    8  C   UNL     1     -11.123  13.184  68.982  1.00  0.00    -0.282 A  
ENDROOT
BRANCH   8   9
HETATM    9  C   UNL     1     -10.535  14.246  68.109  1.00  0.00    -0.246 C  
HETATM   10  O   UNL     1      -9.424  14.714  68.325  1.00  0.00    -0.198 OA 
BRANCH   9  11
HETATM   11  O   UNL     1     -11.367  14.574  67.057  1.00  0.00    -0.325 OA 
BRANCH  11  12
HETATM   12  C   UNL     1     -11.421  13.699  65.959  1.00  0.00    -0.324 A  
HETATM   13  C   UNL     1     -12.625  13.132  65.541  1.00  0.00    -0.468 A  
HETATM   14  C   UNL     1     -12.653  12.345  64.391  1.00  0.00    -0.489 A  
HETATM   15  C   UNL     1     -11.483  12.147  63.654  1.00  0.00    -0.566 A  
HETATM   16  C   UNL     1     -10.286  12.734  64.066  1.00  0.00    -0.392 A  
HETATM   17  C   UNL     1     -10.251  13.519  65.221  1.00  0.00    -0.323 A  
ENDBRANCH  11  12
ENDBRANCH   9  11
ENDBRANCH   8   9
TORSDOF 3
ENDMDL
MODEL       78
REMARK 921   NORMALIZED FREE ENERGY PREDICTED BY IDOCK:   -4.96 KCAL/MOL
REMARK 922        TOTAL FREE ENERGY PREDICTED BY IDOCK:   -6.17 KCAL/MOL
REMARK 923 INTER-LIGAND FREE ENERGY PREDICTED BY IDOCK:   -5.45 KCAL/MOL
REMARK 924 INTRA-LIGAND FREE ENERGY PREDICTED BY IDOCK:   -0.72 KCAL/MOL
REMARK 927      BINDING AFFINITY PREDICTED BY RF-SCORE:    0.00 PKD
ROOT
HETATM    1  O   UNL     1      -8.773  13.928  66.415  1.00  0.00    -0.451 OA 
HETATM    2  C   UNL     1     -10.040  13.921  65.906  1.00  0.00    -0.317 A  
HETATM    3  H   UNL     1      -8.508  13.199  66.965  1.00  0.00     0.000 HD 
HETATM    4  C   UNL     1     -10.430  14.995  65.095  1.00  0.00    -0.438 A  
HETATM    5  C   UNL     1     -11.714  15.036  64.551  1.00  0.00    -0.372 A  
HETATM    6  C   UNL     1     -12.611  14.007  64.808  1.00  0.00    -0.326 A  
HETATM    7  C   UNL     1     -12.225  12.934  65.615  1.00  0.00    -0.519 A  
HETATM    8  C   UNL     1     -10.934  12.877  66.180  1.00  0.00    -0.304 A  
ENDROOT
BRANCH   8   9
HETATM    9  C   UNL     1     -10.633  11.667  67.004  1.00  0.00    -0.237 C  
HETATM   10  O   UNL     1     -10.780  10.534  66.562  1.00  0.00    -0.205 OA 
BRANCH   9  11
HETATM   11  O   UNL     1     -10.150  11.997  68.255  1.00  0.00    -0.192 OA 
BRANCH  11  12
HETATM   12  C   UNL     1     -11.056  12.015  69.329  1.00  0.00    -0.185 A  
HETATM   13  C   UNL     1     -11.698  13.192  69.718  1.00  0.00    -0.350 A  
HETATM   14  C   UNL     1     -12.659  13.150  70.726  1.00  0.00    -0.338 A  
HETATM   15  C   UNL     1     -12.989  11.932  71.324  1.00  0.00    -0.334 A  
HETATM   16  C   UNL     1     -12.359  10.756  70.916  1.00  0.00    -0.497 A  
HETATM   17  C   UNL     1     -11.390  10.792  69.911  1.00  0.00    -0.385 A  
ENDBRANCH  11  12
ENDBRANCH   9  11
ENDBRANCH   8   9
TORSDOF 3
ENDMDL
MODEL       79
REMARK 921   NORMALIZED FREE ENERGY PREDICTED BY IDOCK:   -4.96 KCAL/MOL
REMARK 922        TOTAL FREE ENERGY PREDICTED BY IDOCK:   -6.17 KCAL/MOL
REMARK 923 INTER-LIGAND FREE ENERGY PREDICTED BY IDOCK:   -5.90 KCAL/MOL
REMARK 924 INTRA-LIGAND FREE ENERGY PREDICTED BY IDOCK:   -0.27 KCAL/MOL
REMARK 927      BINDING AFFINITY PREDICTED BY RF-SCORE:    0.00 PKD
ROOT
HETATM    1  O   UNL     1     -12.192  15.529  69.521  1.00  0.00    -0.494 OA 
HETATM    2  C   UNL     1     -11.488  15.809  68.384  1.00  0.00    -0.365 A  
HETATM    3  H   UNL     1     -12.618  14.682  69.587  1.00  0.00     0.000 HD 
HETATM    4  C   UNL     1     -10.861  17.057  68.288  1.00  0.00    -0.341 A  
HETATM    5  C   UNL     1     -10.131  17.392  67.147  1.00  0.00    -0.307 A  
HETATM    6  C   UNL     1     -10.020  16.483  66.101  1.00  0.00    -0.363 A  
HETATM    7  C   UNL     1     -10.644  15.237  66.196  1.00  0.00    -0.318 A  
HETATM    8  C   UNL     1     -11.391  14.882  67.337  1.00  0.00    -0.354 A  
ENDROOT
BRANCH   8   9
HETATM    9  C   UNL     1     -11.990  13.513  67.329  1.00  0.00    -0.365 C  
HETATM   10  O   UNL     1     -12.105  12.855  68.356  1.00  0.00    -0.291 OA 
BRANCH   9  11
HETATM   11  O   UNL     1     -12.410  13.135  66.069  1.00  0.00    -0.422 OA 
BRANCH  11  12
HETATM   12  C   UNL     1     -11.613  12.227  65.351  1.00  0.00    -0.363 A  
HETATM   13  C   UNL     1     -11.453  12.335  63.970  1.00  0.00    -0.483 A  
HETATM   14  C   UNL     1     -10.580  11.473  63.308  1.00  0.00    -0.405 A  
HETATM   15  C   UNL     1      -9.858  10.523  64.032  1.00  0.00    -0.387 A  
HETATM   16  C   UNL     1     -10.007  10.433  65.417  1.00  0.00    -0.362 A  
HETATM   17  C   UNL     1     -10.884  11.290  66.084  1.00  0.00    -0.281 A  
ENDBRANCH  11  12
ENDBRANCH   9  11
ENDBRANCH   8   9
TORSDOF 3
ENDMDL
MODEL       80
REMARK 921   NORMALIZED FREE ENERGY PREDICTED BY IDOCK:   -4.95 KCAL/MOL
REMARK 922        TOTAL FREE ENERGY PREDICTED BY IDOCK:   -6.16 KCAL/MOL
REMARK 923 INTER-LIGAND FREE ENERGY PREDICTED BY IDOCK:   -5.51 KCAL/MOL
REMARK 924 INTRA-LIGAND FREE ENERGY PREDICTED BY IDOCK:   -0.65 KCAL/MOL
REMARK 927      BINDING AFFINITY PREDICTED BY RF-SCORE:    0.00 PKD
ROOT
HETATM    1  O   UNL     1     -10.923  17.186  69.514  1.00  0.00    -0.344 OA 
HETATM    2  C   UNL     1     -10.895  16.554  68.303  1.00  0.00    -0.352 A  
HETATM    3  H   UNL     1     -10.713  18.113  69.539  1.00  0.00     0.000 HD 
HETATM    4  C   UNL     1     -11.203  15.188  68.266  1.00  0.00    -0.315 A  
HETATM    5  C   UNL     1     -11.189  14.496  67.055  1.00  0.00    -0.342 A  
HETATM    6  C   UNL     1     -10.872  15.162  65.877  1.00  0.00    -0.342 A  
HETATM    7  C   UNL     1     -10.565  16.524  65.911  1.00  0.00    -0.279 A  
HETATM    8  C   UNL     1     -10.568  17.241  67.125  1.00  0.00    -0.256 A  
ENDROOT
BRANCH   8   9
HETATM    9  C   UNL     1     -10.247  18.697  67.028  1.00  0.00    -0.381 C  
HETATM   10  O   UNL     1     -11.020  19.555  67.438  1.00  0.00    -0.477 OA 
BRANCH   9  11
HETATM   11  O   UNL     1      -9.002  18.920  66.477  1.00  0.00    -0.307 OA 
BRANCH  11  12
HETATM   12  C   UNL     1      -8.030  19.551  67.272  1.00  0.00    -0.272 A  
HETATM   13  C   UNL     1      -7.635  19.015  68.498  1.00  0.00    -0.364 A  
HETATM   14  C   UNL     1      -6.602  19.619  69.212  1.00  0.00    -0.379 A  
HETATM   15  C   UNL     1      -5.954  20.739  68.688  1.00  0.00    -0.381 A  
HETATM   16  C   UNL     1      -6.340  21.258  67.451  1.00  0.00    -0.426 A  
HETATM   17  C   UNL     1      -7.379  20.661  66.734  1.00  0.00    -0.294 A  
ENDBRANCH  11  12
ENDBRANCH   9  11
ENDBRANCH   8   9
TORSDOF 3
ENDMDL
MODEL       81
REMARK 921   NORMALIZED FREE ENERGY PREDICTED BY IDOCK:   -4.94 KCAL/MOL
REMARK 922        TOTAL FREE ENERGY PREDICTED BY IDOCK:   -6.16 KCAL/MOL
REMARK 923 INTER-LIGAND FREE ENERGY PREDICTED BY IDOCK:   -5.98 KCAL/MOL
REMARK 924 INTRA-LIGAND FREE ENERGY PREDICTED BY IDOCK:   -0.17 KCAL/MOL
REMARK 927      BINDING AFFINITY PREDICTED BY RF-SCORE:    0.00 PKD
ROOT
HETATM    1  O   UNL     1     -13.505  10.983  72.207  1.00  0.00    -0.603 OA 
HETATM    2  C   UNL     1     -13.255  12.239  71.732  1.00  0.00    -0.326 A  
HETATM    3  H   UNL     1     -13.156  10.244  71.721  1.00  0.00     0.000 HD 
HETATM    4  C   UNL     1     -13.769  13.328  72.447  1.00  0.00    -0.678 A  
HETATM    5  C   UNL     1     -13.544  14.631  72.005  1.00  0.00    -0.496 A  
HETATM    6  C   UNL     1     -12.802  14.855  70.851  1.00  0.00    -0.432 A  
HETATM    7  C   UNL     1     -12.287  13.770  70.136  1.00  0.00    -0.390 A  
HETATM    8  C   UNL     1     -12.509  12.446  70.564  1.00  0.00    -0.270 A  
ENDROOT
BRANCH   8   9
HETATM    9  C   UNL     1     -11.886  11.374  69.728  1.00  0.00    -0.364 C  
HETATM   10  O   UNL     1     -12.191  11.217  68.552  1.00  0.00    -0.600 OA 
BRANCH   9  11
HETATM   11  O   UNL     1     -10.939  10.653  70.427  1.00  0.00    -0.256 OA 
BRANCH  11  12
HETATM   12  C   UNL     1     -10.886   9.263  70.227  1.00  0.00    -0.246 A  
HETATM   13  C   UNL     1     -11.185   8.370  71.257  1.00  0.00    -0.309 A  
HETATM   14  C   UNL     1     -11.213   7.001  70.994  1.00  0.00    -0.309 A  
HETATM   15  C   UNL     1     -10.965   6.535  69.702  1.00  0.00    -0.394 A  
HETATM   16  C   UNL     1     -10.687   7.435  68.672  1.00  0.00    -0.134 A  
HETATM   17  C   UNL     1     -10.651   8.807  68.930  1.00  0.00    -0.178 A  
ENDBRANCH  11  12
ENDBRANCH   9  11
ENDBRANCH   8   9
TORSDOF 3
ENDMDL
MODEL       82
REMARK 921   NORMALIZED FREE ENERGY PREDICTED BY IDOCK:   -4.93 KCAL/MOL
REMARK 922        TOTAL FREE ENERGY PREDICTED BY IDOCK:   -6.13 KCAL/MOL
REMARK 923 INTER-LIGAND FREE ENERGY PREDICTED BY IDOCK:   -5.83 KCAL/MOL
REMARK 924 INTRA-LIGAND FREE ENERGY PREDICTED BY IDOCK:   -0.30 KCAL/MOL
REMARK 927      BINDING AFFINITY PREDICTED BY RF-SCORE:    0.00 PKD
ROOT
HETATM    1  O   UNL     1     -12.863  15.785  69.798  1.00  0.00    -0.571 OA 
HETATM    2  C   UNL     1     -12.875  14.591  70.463  1.00  0.00    -0.304 A  
HETATM    3  H   UNL     1     -12.326  15.856  69.017  1.00  0.00     0.000 HD 
HETATM    4  C   UNL     1     -13.665  14.486  71.614  1.00  0.00    -0.486 A  
HETATM    5  C   UNL     1     -13.711  13.289  72.329  1.00  0.00    -0.686 A  
HETATM    6  C   UNL     1     -12.974  12.193  71.898  1.00  0.00    -0.419 A  
HETATM    7  C   UNL     1     -12.186  12.295  70.749  1.00  0.00    -0.354 A  
HETATM    8  C   UNL     1     -12.121  13.497  70.016  1.00  0.00    -0.411 A  
ENDROOT
BRANCH   8   9
HETATM    9  C   UNL     1     -11.262  13.474  68.793  1.00  0.00    -0.274 C  
HETATM   10  O   UNL     1     -10.049  13.310  68.861  1.00  0.00    -0.122 OA 
BRANCH   9  11
HETATM   11  O   UNL     1     -12.000  13.613  67.635  1.00  0.00    -0.360 OA 
BRANCH  11  12
HETATM   12  C   UNL     1     -11.636  14.631  66.737  1.00  0.00    -0.360 A  
HETATM   13  C   UNL     1     -10.807  15.683  67.129  1.00  0.00    -0.297 A  
HETATM   14  C   UNL     1     -10.392  16.621  66.185  1.00  0.00    -0.340 A  
HETATM   15  C   UNL     1     -10.787  16.489  64.853  1.00  0.00    -0.222 A  
HETATM   16  C   UNL     1     -11.599  15.423  64.463  1.00  0.00    -0.296 A  
HETATM   17  C   UNL     1     -12.023  14.484  65.405  1.00  0.00    -0.332 A  
ENDBRANCH  11  12
ENDBRANCH   9  11
ENDBRANCH   8   9
TORSDOF 3
ENDMDL
MODEL       83
REMARK 921   NORMALIZED FREE ENERGY PREDICTED BY IDOCK:   -4.91 KCAL/MOL
REMARK 922        TOTAL FREE ENERGY PREDICTED BY IDOCK:   -6.12 KCAL/MOL
REMARK 923 INTER-LIGAND FREE ENERGY PREDICTED BY IDOCK:   -5.48 KCAL/MOL
REMARK 924 INTRA-LIGAND FREE ENERGY PREDICTED BY IDOCK:   -0.64 KCAL/MOL
REMARK 927      BINDING AFFINITY PREDICTED BY RF-SCORE:    0.00 PKD
ROOT
HETATM    1  O   UNL     1     -10.754  18.813  68.602  1.00  0.00    -0.319 OA 
HETATM    2  C   UNL     1      -9.461  18.824  68.162  1.00  0.00    -0.326 A  
HETATM    3  H   UNL     1     -11.426  18.503  68.007  1.00  0.00     0.000 HD 
HETATM    4  C   UNL     1      -8.470  19.282  69.039  1.00  0.00    -0.259 A  
HETATM    5  C   UNL     1      -7.134  19.314  68.638  1.00  0.00    -0.357 A  
HETATM    6  C   UNL     1      -6.781  18.885  67.364  1.00  0.00    -0.205 A  
HETATM    7  C   UNL     1      -7.767  18.427  66.488  1.00  0.00    -0.278 A  
HETATM    8  C   UNL     1      -9.123  18.393  66.872  1.00  0.00    -0.286 A  
ENDROOT
BRANCH   8   9
HETATM    9  C   UNL     1     -10.079  17.859  65.855  1.00  0.00    -0.170 C  
HETATM   10  O   UNL     1     -11.006  18.536  65.425  1.00  0.00    -0.493 OA 
BRANCH   9  11
HETATM   11  O   UNL     1      -9.758  16.576  65.461  1.00  0.00    -0.524 OA 
BRANCH  11  12
HETATM   12  C   UNL     1     -10.577  15.523  65.905  1.00  0.00    -0.339 A  
HETATM   13  C   UNL     1     -10.870  15.353  67.259  1.00  0.00    -0.316 A  
HETATM   14  C   UNL     1     -11.761  14.355  67.650  1.00  0.00    -0.421 A  
HETATM   15  C   UNL     1     -12.371  13.550  66.686  1.00  0.00    -0.351 A  
HETATM   16  C   UNL     1     -12.090  13.739  65.333  1.00  0.00    -0.427 A  
HETATM   17  C   UNL     1     -11.193  14.733  64.935  1.00  0.00    -0.411 A  
ENDBRANCH  11  12
ENDBRANCH   9  11
ENDBRANCH   8   9
TORSDOF 3
ENDMDL
MODEL       84
REMARK 921   NORMALIZED FREE ENERGY PREDICTED BY IDOCK:   -4.91 KCAL/MOL
REMARK 922        TOTAL FREE ENERGY PREDICTED BY IDOCK:   -6.12 KCAL/MOL
REMARK 923 INTER-LIGAND FREE ENERGY PREDICTED BY IDOCK:   -5.69 KCAL/MOL
REMARK 924 INTRA-LIGAND FREE ENERGY PREDICTED BY IDOCK:   -0.43 KCAL/MOL
REMARK 927      BINDING AFFINITY PREDICTED BY RF-SCORE:    0.00 PKD
ROOT
HETATM    1  O   UNL     1     -13.245  16.272  70.417  1.00  0.00    -0.200 OA 
HETATM    2  C   UNL     1     -13.219  14.996  70.904  1.00  0.00    -0.399 A  
HETATM    3  H   UNL     1     -12.686  16.479  69.677  1.00  0.00     0.000 HD 
HETATM    4  C   UNL     1     -14.042  14.690  71.995  1.00  0.00    -0.603 A  
HETATM    5  C   UNL     1     -14.053  13.402  72.530  1.00  0.00    -0.418 A  
HETATM    6  C   UNL     1     -13.247  12.413  71.979  1.00  0.00    -0.514 A  
HETATM    7  C   UNL     1     -12.426  12.715  70.890  1.00  0.00    -0.368 A  
HETATM    8  C   UNL     1     -12.396  14.012  70.338  1.00  0.00    -0.429 A  
ENDROOT
BRANCH   8   9
HETATM    9  C   UNL     1     -11.495  14.204  69.161  1.00  0.00    -0.296 C  
HETATM   10  O   UNL     1     -10.415  14.772  69.263  1.00  0.00    -0.235 OA 
BRANCH   9  11
HETATM   11  O   UNL     1     -12.013  13.639  68.012  1.00  0.00    -0.360 OA 
BRANCH  11  12
HETATM   12  C   UNL     1     -11.304  12.581  67.418  1.00  0.00    -0.313 A  
HETATM   13  C   UNL     1     -11.349  11.290  67.946  1.00  0.00    -0.367 A  
HETATM   14  C   UNL     1     -10.709  10.249  67.275  1.00  0.00    -0.323 A  
HETATM   15  C   UNL     1     -10.048  10.500  66.071  1.00  0.00    -0.317 A  
HETATM   16  C   UNL     1     -10.024  11.789  65.538  1.00  0.00    -0.273 A  
HETATM   17  C   UNL     1     -10.658  12.837  66.209  1.00  0.00    -0.275 A  
ENDBRANCH  11  12
ENDBRANCH   9  11
ENDBRANCH   8   9
TORSDOF 3
ENDMDL
MODEL       85
REMARK 921   NORMALIZED FREE ENERGY PREDICTED BY IDOCK:   -4.90 KCAL/MOL
REMARK 922        TOTAL FREE ENERGY PREDICTED BY IDOCK:   -6.11 KCAL/MOL
REMARK 923 INTER-LIGAND FREE ENERGY PREDICTED BY IDOCK:   -5.43 KCAL/MOL
REMARK 924 INTRA-LIGAND FREE ENERGY PREDICTED BY IDOCK:   -0.68 KCAL/MOL
REMARK 927      BINDING AFFINITY PREDICTED BY RF-SCORE:    0.00 PKD
ROOT
HETATM    1  O   UNL     1     -10.366  19.335  69.001  1.00  0.00    -0.543 OA 
HETATM    2  C   UNL     1      -9.172  18.704  68.793  1.00  0.00    -0.285 A  
HETATM    3  H   UNL     1     -11.150  18.800  69.061  1.00  0.00     0.000 HD 
HETATM    4  C   UNL     1      -8.018  19.492  68.705  1.00  0.00    -0.381 A  
HETATM    5  C   UNL     1      -6.774  18.898  68.492  1.00  0.00    -0.278 A  
HETATM    6  C   UNL     1      -6.676  17.517  68.370  1.00  0.00    -0.193 A  
HETATM    7  C   UNL     1      -7.826  16.729  68.458  1.00  0.00    -0.229 A  
HETATM    8  C   UNL     1      -9.092  17.311  68.667  1.00  0.00    -0.260 A  
ENDROOT
BRANCH   8   9
HETATM    9  C   UNL     1     -10.241  16.361  68.768  1.00  0.00    -0.258 C  
HETATM   10  O   UNL     1     -11.266  16.652  69.373  1.00  0.00    -0.243 OA 
BRANCH   9  11
HETATM   11  O   UNL     1     -10.009  15.187  68.080  1.00  0.00    -0.218 OA 
BRANCH  11  12
HETATM   12  C   UNL     1     -10.727  14.962  66.893  1.00  0.00    -0.308 A  
HETATM   13  C   UNL     1     -11.813  14.086  66.856  1.00  0.00    -0.458 A  
HETATM   14  C   UNL     1     -12.557  13.962  65.685  1.00  0.00    -0.553 A  
HETATM   15  C   UNL     1     -12.227  14.728  64.565  1.00  0.00    -0.443 A  
HETATM   16  C   UNL     1     -11.152  15.617  64.615  1.00  0.00    -0.387 A  
HETATM   17  C   UNL     1     -10.399  15.742  65.784  1.00  0.00    -0.390 A  
ENDBRANCH  11  12
ENDBRANCH   9  11
ENDBRANCH   8   9
TORSDOF 3
ENDMDL
MODEL       86
REMARK 921   NORMALIZED FREE ENERGY PREDICTED BY IDOCK:   -4.90 KCAL/MOL
REMARK 922        TOTAL FREE ENERGY PREDICTED BY IDOCK:   -6.10 KCAL/MOL
REMARK 923 INTER-LIGAND FREE ENERGY PREDICTED BY IDOCK:   -5.55 KCAL/MOL
REMARK 924 INTRA-LIGAND FREE ENERGY PREDICTED BY IDOCK:   -0.56 KCAL/MOL
REMARK 927      BINDING AFFINITY PREDICTED BY RF-SCORE:    0.00 PKD
ROOT
HETATM    1  O   UNL     1     -11.983  12.026  67.618  1.00  0.00    -0.547 OA 
HETATM    2  C   UNL     1     -11.277  11.570  66.541  1.00  0.00    -0.259 A  
HETATM    3  H   UNL     1     -11.950  11.519  68.421  1.00  0.00     0.000 HD 
HETATM    4  C   UNL     1     -11.327  12.317  65.357  1.00  0.00    -0.389 A  
HETATM    5  C   UNL     1     -10.624  11.895  64.229  1.00  0.00    -0.381 A  
HETATM    6  C   UNL     1      -9.866  10.731  64.277  1.00  0.00    -0.384 A  
HETATM    7  C   UNL     1      -9.814   9.985  65.457  1.00  0.00    -0.373 A  
HETATM    8  C   UNL     1     -10.522  10.391  66.606  1.00  0.00    -0.279 A  
ENDROOT
BRANCH   8   9
HETATM    9  C   UNL     1     -10.367   9.523  67.812  1.00  0.00    -0.239 C  
HETATM   10  O   UNL     1     -10.413   8.300  67.736  1.00  0.00    -0.231 OA 
BRANCH   9  11
HETATM   11  O   UNL     1     -10.136  10.258  68.957  1.00  0.00    -0.190 OA 
BRANCH  11  12
HETATM   12  C   UNL     1     -10.710   9.809  70.159  1.00  0.00    -0.289 A  
HETATM   13  C   UNL     1     -12.017  10.150  70.511  1.00  0.00    -0.400 A  
HETATM   14  C   UNL     1     -12.582   9.608  71.664  1.00  0.00    -0.493 A  
HETATM   15  C   UNL     1     -11.849   8.713  72.445  1.00  0.00    -0.402 A  
HETATM   16  C   UNL     1     -10.551   8.359  72.075  1.00  0.00    -0.387 A  
HETATM   17  C   UNL     1      -9.976   8.903  70.925  1.00  0.00    -0.304 A  
ENDBRANCH  11  12
ENDBRANCH   9  11
ENDBRANCH   8   9
TORSDOF 3
ENDMDL
MODEL       87
REMARK 921   NORMALIZED FREE ENERGY PREDICTED BY IDOCK:   -4.89 KCAL/MOL
REMARK 922        TOTAL FREE ENERGY PREDICTED BY IDOCK:   -6.09 KCAL/MOL
REMARK 923 INTER-LIGAND FREE ENERGY PREDICTED BY IDOCK:   -5.42 KCAL/MOL
REMARK 924 INTRA-LIGAND FREE ENERGY PREDICTED BY IDOCK:   -0.68 KCAL/MOL
REMARK 927      BINDING AFFINITY PREDICTED BY RF-SCORE:    0.00 PKD
ROOT
HETATM    1  O   UNL     1     -14.120   9.156  70.917  1.00  0.00    -0.544 OA 
HETATM    2  C   UNL     1     -12.821   8.961  71.290  1.00  0.00    -0.229 A  
HETATM    3  H   UNL     1     -14.322   9.913  70.378  1.00  0.00     0.000 HD 
HETATM    4  C   UNL     1     -12.524   7.847  72.084  1.00  0.00    -0.304 A  
HETATM    5  C   UNL     1     -11.213   7.603  72.492  1.00  0.00    -0.399 A  
HETATM    6  C   UNL     1     -10.193   8.465  72.108  1.00  0.00    -0.390 A  
HETATM    7  C   UNL     1     -10.486   9.577  71.315  1.00  0.00    -0.320 A  
HETATM    8  C   UNL     1     -11.806   9.844  70.897  1.00  0.00    -0.443 A  
ENDROOT
BRANCH   8   9
HETATM    9  C   UNL     1     -11.988  11.049  70.032  1.00  0.00    -0.351 C  
HETATM   10  O   UNL     1     -11.742  12.178  70.441  1.00  0.00    -0.255 OA 
BRANCH   9  11
HETATM   11  O   UNL     1     -12.410  10.719  68.760  1.00  0.00    -0.435 OA 
BRANCH  11  12
HETATM   12  C   UNL     1     -11.507  10.892  67.697  1.00  0.00    -0.200 A  
HETATM   13  C   UNL     1     -10.514   9.950  67.427  1.00  0.00    -0.325 A  
HETATM   14  C   UNL     1      -9.699  10.110  66.308  1.00  0.00    -0.274 A  
HETATM   15  C   UNL     1      -9.895  11.197  65.454  1.00  0.00    -0.289 A  
HETATM   16  C   UNL     1     -10.904  12.125  65.718  1.00  0.00    -0.319 A  
HETATM   17  C   UNL     1     -11.719  11.973  66.841  1.00  0.00    -0.342 A  
ENDBRANCH  11  12
ENDBRANCH   9  11
ENDBRANCH   8   9
TORSDOF 3
ENDMDL
MODEL       88
REMARK 921   NORMALIZED FREE ENERGY PREDICTED BY IDOCK:   -4.87 KCAL/MOL
REMARK 922        TOTAL FREE ENERGY PREDICTED BY IDOCK:   -6.07 KCAL/MOL
REMARK 923 INTER-LIGAND FREE ENERGY PREDICTED BY IDOCK:   -5.81 KCAL/MOL
REMARK 924 INTRA-LIGAND FREE ENERGY PREDICTED BY IDOCK:   -0.26 KCAL/MOL
REMARK 927      BINDING AFFINITY PREDICTED BY RF-SCORE:    0.00 PKD
ROOT
HETATM    1  O   UNL     1     -14.226  14.234  70.457  1.00  0.00     0.047 OA 
HETATM    2  C   UNL     1     -13.410  15.004  71.237  1.00  0.00    -0.438 A  
HETATM    3  H   UNL     1     -13.957  14.062  69.562  1.00  0.00     0.000 HD 
HETATM    4  C   UNL     1     -13.806  15.259  72.555  1.00  0.00    -0.626 A  
HETATM    5  C   UNL     1     -13.009  16.039  73.392  1.00  0.00    -0.676 A  
HETATM    6  C   UNL     1     -11.812  16.565  72.920  1.00  0.00    -0.414 A  
HETATM    7  C   UNL     1     -11.414  16.312  71.605  1.00  0.00    -0.324 A  
HETATM    8  C   UNL     1     -12.208  15.531  70.742  1.00  0.00    -0.450 A  
ENDROOT
BRANCH   8   9
HETATM    9  C   UNL     1     -11.663  15.311  69.368  1.00  0.00    -0.341 C  
HETATM   10  O   UNL     1     -11.262  16.242  68.679  1.00  0.00    -0.341 OA 
BRANCH   9  11
HETATM   11  O   UNL     1     -11.640  13.975  69.024  1.00  0.00    -0.262 OA 
BRANCH  11  12
HETATM   12  C   UNL     1     -11.396  13.642  67.681  1.00  0.00    -0.300 A  
HETATM   13  C   UNL     1     -10.435  12.693  67.330  1.00  0.00    -0.233 A  
HETATM   14  C   UNL     1     -10.289  12.322  65.995  1.00  0.00    -0.273 A  
HETATM   15  C   UNL     1     -11.118  12.882  65.022  1.00  0.00    -0.320 A  
HETATM   16  C   UNL     1     -12.092  13.815  65.381  1.00  0.00    -0.427 A  
HETATM   17  C   UNL     1     -12.239  14.195  66.717  1.00  0.00    -0.429 A  
ENDBRANCH  11  12
ENDBRANCH   9  11
ENDBRANCH   8   9
TORSDOF 3
ENDMDL
MODEL       89
REMARK 921   NORMALIZED FREE ENERGY PREDICTED BY IDOCK:   -4.85 KCAL/MOL
REMARK 922        TOTAL FREE ENERGY PREDICTED BY IDOCK:   -6.05 KCAL/MOL
REMARK 923 INTER-LIGAND FREE ENERGY PREDICTED BY IDOCK:   -5.53 KCAL/MOL
REMARK 924 INTRA-LIGAND FREE ENERGY PREDICTED BY IDOCK:   -0.52 KCAL/MOL
REMARK 927      BINDING AFFINITY PREDICTED BY RF-SCORE:    0.00 PKD
ROOT
HETATM    1  O   UNL     1      -9.944  14.799  64.857  1.00  0.00    -0.402 OA 
HETATM    2  C   UNL     1     -10.441  15.066  66.101  1.00  0.00    -0.305 A  
HETATM    3  H   UNL     1     -10.333  14.085  64.364  1.00  0.00     0.000 HD 
HETATM    4  C   UNL     1      -9.867  16.117  66.828  1.00  0.00    -0.255 A  
HETATM    5  C   UNL     1     -10.337  16.430  68.103  1.00  0.00    -0.283 A  
HETATM    6  C   UNL     1     -11.383  15.701  68.657  1.00  0.00    -0.359 A  
HETATM    7  C   UNL     1     -11.957  14.653  67.934  1.00  0.00    -0.299 A  
HETATM    8  C   UNL     1     -11.493  14.317  66.647  1.00  0.00    -0.374 A  
ENDROOT
BRANCH   8   9
HETATM    9  C   UNL     1     -12.204  13.193  65.966  1.00  0.00    -0.414 C  
HETATM   10  O   UNL     1     -12.721  13.332  64.863  1.00  0.00    -0.635 OA 
BRANCH   9  11
HETATM   11  O   UNL     1     -12.160  12.026  66.702  1.00  0.00    -0.615 OA 
BRANCH  11  12
HETATM   12  C   UNL     1     -11.073  11.158  66.502  1.00  0.00    -0.167 A  
HETATM   13  C   UNL     1     -10.771  10.151  67.419  1.00  0.00    -0.336 A  
HETATM   14  C   UNL     1      -9.743   9.251  67.138  1.00  0.00    -0.225 A  
HETATM   15  C   UNL     1      -9.041   9.349  65.936  1.00  0.00    -0.242 A  
HETATM   16  C   UNL     1      -9.363  10.347  65.014  1.00  0.00    -0.279 A  
HETATM   17  C   UNL     1     -10.387  11.254  65.292  1.00  0.00    -0.337 A  
ENDBRANCH  11  12
ENDBRANCH   9  11
ENDBRANCH   8   9
TORSDOF 3
ENDMDL
MODEL       90
REMARK 921   NORMALIZED FREE ENERGY PREDICTED BY IDOCK:   -4.85 KCAL/MOL
REMARK 922        TOTAL FREE ENERGY PREDICTED BY IDOCK:   -6.04 KCAL/MOL
REMARK 923 INTER-LIGAND FREE ENERGY PREDICTED BY IDOCK:   -5.47 KCAL/MOL
REMARK 924 INTRA-LIGAND FREE ENERGY PREDICTED BY IDOCK:   -0.57 KCAL/MOL
REMARK 927      BINDING AFFINITY PREDICTED BY RF-SCORE:    0.00 PKD
ROOT
HETATM    1  O   UNL     1      -9.740  14.183  65.184  1.00  0.00    -0.568 OA 
HETATM    2  C   UNL     1     -10.389  14.536  66.333  1.00  0.00    -0.293 A  
HETATM    3  H   UNL     1      -9.340  14.873  64.667  1.00  0.00     0.000 HD 
HETATM    4  C   UNL     1     -10.980  13.519  67.094  1.00  0.00    -0.302 A  
HETATM    5  C   UNL     1     -11.655  13.826  68.275  1.00  0.00    -0.373 A  
HETATM    6  C   UNL     1     -11.740  15.145  68.705  1.00  0.00    -0.364 A  
HETATM    7  C   UNL     1     -11.151  16.161  67.948  1.00  0.00    -0.293 A  
HETATM    8  C   UNL     1     -10.470  15.872  66.748  1.00  0.00    -0.309 A  
ENDROOT
BRANCH   8   9
HETATM    9  C   UNL     1      -9.862  17.040  66.042  1.00  0.00    -0.241 C  
HETATM   10  O   UNL     1     -10.549  17.862  65.447  1.00  0.00    -0.656 OA 
BRANCH   9  11
HETATM   11  O   UNL     1      -8.489  17.079  66.185  1.00  0.00    -0.394 OA 
BRANCH  11  12
HETATM   12  C   UNL     1      -7.924  18.183  66.846  1.00  0.00    -0.232 A  
HETATM   13  C   UNL     1      -8.382  18.592  68.099  1.00  0.00    -0.332 A  
HETATM   14  C   UNL     1      -7.734  19.632  68.763  1.00  0.00    -0.337 A  
HETATM   15  C   UNL     1      -6.620  20.242  68.182  1.00  0.00    -0.336 A  
HETATM   16  C   UNL     1      -6.154  19.814  66.938  1.00  0.00    -0.182 A  
HETATM   17  C   UNL     1      -6.803  18.777  66.265  1.00  0.00    -0.254 A  
ENDBRANCH  11  12
ENDBRANCH   9  11
ENDBRANCH   8   9
TORSDOF 3
ENDMDL
MODEL       91
REMARK 921   NORMALIZED FREE ENERGY PREDICTED BY IDOCK:   -4.84 KCAL/MOL
REMARK 922        TOTAL FREE ENERGY PREDICTED BY IDOCK:   -6.04 KCAL/MOL
REMARK 923 INTER-LIGAND FREE ENERGY PREDICTED BY IDOCK:   -5.35 KCAL/MOL
REMARK 924 INTRA-LIGAND FREE ENERGY PREDICTED BY IDOCK:   -0.69 KCAL/MOL
REMARK 927      BINDING AFFINITY PREDICTED BY RF-SCORE:    0.00 PKD
ROOT
HETATM    1  O   UNL     1     -10.364  18.341  69.100  1.00  0.00    -0.464 OA 
HETATM    2  C   UNL     1      -9.473  18.606  68.099  1.00  0.00    -0.325 A  
HETATM    3  H   UNL     1     -10.585  17.433  69.272  1.00  0.00     0.000 HD 
HETATM    4  C   UNL     1      -9.147  19.944  67.844  1.00  0.00    -0.399 A  
HETATM    5  C   UNL     1      -8.244  20.269  66.833  1.00  0.00    -0.345 A  
HETATM    6  C   UNL     1      -7.658  19.262  66.074  1.00  0.00    -0.290 A  
HETATM    7  C   UNL     1      -7.981  17.926  66.327  1.00  0.00    -0.279 A  
HETATM    8  C   UNL     1      -8.896  17.578  67.340  1.00  0.00    -0.230 A  
ENDROOT
BRANCH   8   9
HETATM    9  C   UNL     1      -9.140  16.116  67.530  1.00  0.00    -0.203 C  
HETATM   10  O   UNL     1      -8.218  15.310  67.577  1.00  0.00    -0.150 OA 
BRANCH   9  11
HETATM   11  O   UNL     1     -10.482  15.826  67.677  1.00  0.00    -0.269 OA 
BRANCH  11  12
HETATM   12  C   UNL     1     -11.077  14.958  66.746  1.00  0.00    -0.335 A  
HETATM   13  C   UNL     1     -11.150  15.285  65.392  1.00  0.00    -0.351 A  
HETATM   14  C   UNL     1     -11.663  14.357  64.487  1.00  0.00    -0.430 A  
HETATM   15  C   UNL     1     -12.078  13.102  64.935  1.00  0.00    -0.448 A  
HETATM   16  C   UNL     1     -11.983  12.774  66.288  1.00  0.00    -0.460 A  
HETATM   17  C   UNL     1     -11.476  13.701  67.201  1.00  0.00    -0.367 A  
ENDBRANCH  11  12
ENDBRANCH   9  11
ENDBRANCH   8   9
TORSDOF 3
ENDMDL
MODEL       92
REMARK 921   NORMALIZED FREE ENERGY PREDICTED BY IDOCK:   -4.82 KCAL/MOL
REMARK 922        TOTAL FREE ENERGY PREDICTED BY IDOCK:   -6.01 KCAL/MOL
REMARK 923 INTER-LIGAND FREE ENERGY PREDICTED BY IDOCK:   -5.38 KCAL/MOL
REMARK 924 INTRA-LIGAND FREE ENERGY PREDICTED BY IDOCK:   -0.64 KCAL/MOL
REMARK 927      BINDING AFFINITY PREDICTED BY RF-SCORE:    0.00 PKD
ROOT
HETATM    1  O   UNL     1     -10.247  15.614  67.595  1.00  0.00    -0.252 OA 
HETATM    2  C   UNL     1     -10.891  14.841  66.671  1.00  0.00    -0.319 A  
HETATM    3  H   UNL     1     -10.296  15.353  68.508  1.00  0.00     0.000 HD 
HETATM    4  C   UNL     1     -10.819  15.226  65.326  1.00  0.00    -0.417 A  
HETATM    5  C   UNL     1     -11.459  14.471  64.343  1.00  0.00    -0.282 A  
HETATM    6  C   UNL     1     -12.169  13.329  64.695  1.00  0.00    -0.460 A  
HETATM    7  C   UNL     1     -12.241  12.943  66.036  1.00  0.00    -0.431 A  
HETATM    8  C   UNL     1     -11.606  13.695  67.045  1.00  0.00    -0.389 A  
ENDROOT
BRANCH   8   9
HETATM    9  C   UNL     1     -11.736  13.167  68.437  1.00  0.00    -0.351 C  
HETATM   10  O   UNL     1     -11.413  13.835  69.412  1.00  0.00    -0.265 OA 
BRANCH   9  11
HETATM   11  O   UNL     1     -12.282  11.899  68.464  1.00  0.00    -0.391 OA 
BRANCH  11  12
HETATM   12  C   UNL     1     -11.483  10.845  68.937  1.00  0.00    -0.300 A  
HETATM   13  C   UNL     1     -11.359  10.584  70.303  1.00  0.00    -0.407 A  
HETATM   14  C   UNL     1     -10.634   9.472  70.728  1.00  0.00    -0.387 A  
HETATM   15  C   UNL     1     -10.057   8.616  69.789  1.00  0.00    -0.199 A  
HETATM   16  C   UNL     1     -10.201   8.871  68.424  1.00  0.00    -0.231 A  
HETATM   17  C   UNL     1     -10.922   9.987  67.992  1.00  0.00    -0.296 A  
ENDBRANCH  11  12
ENDBRANCH   9  11
ENDBRANCH   8   9
TORSDOF 3
ENDMDL
MODEL       93
REMARK 921   NORMALIZED FREE ENERGY PREDICTED BY IDOCK:   -4.81 KCAL/MOL
REMARK 922        TOTAL FREE ENERGY PREDICTED BY IDOCK:   -5.99 KCAL/MOL
REMARK 923 INTER-LIGAND FREE ENERGY PREDICTED BY IDOCK:   -5.33 KCAL/MOL
REMARK 924 INTRA-LIGAND FREE ENERGY PREDICTED BY IDOCK:   -0.67 KCAL/MOL
REMARK 927      BINDING AFFINITY PREDICTED BY RF-SCORE:    0.00 PKD
ROOT
HETATM    1  O   UNL     1     -10.167  10.639  69.628  1.00  0.00    -0.359 OA 
HETATM    2  C   UNL     1     -11.191  10.337  70.480  1.00  0.00    -0.330 A  
HETATM    3  H   UNL     1      -9.499   9.979  69.480  1.00  0.00     0.000 HD 
HETATM    4  C   UNL     1     -12.174  11.309  70.699  1.00  0.00    -0.489 A  
HETATM    5  C   UNL     1     -13.241  11.051  71.560  1.00  0.00    -0.400 A  
HETATM    6  C   UNL     1     -13.333   9.823  72.204  1.00  0.00    -0.527 A  
HETATM    7  C   UNL     1     -12.353   8.851  71.987  1.00  0.00    -0.460 A  
HETATM    8  C   UNL     1     -11.265   9.094  71.125  1.00  0.00    -0.395 A  
ENDROOT
BRANCH   8   9
HETATM    9  C   UNL     1     -10.297   7.968  70.957  1.00  0.00    -0.201 C  
HETATM   10  O   UNL     1      -9.086   8.144  71.027  1.00  0.00    -0.143 OA 
BRANCH   9  11
HETATM   11  O   UNL     1     -10.933   6.759  70.762  1.00  0.00    -0.238 OA 
BRANCH  11  12
HETATM   12  C   UNL     1     -10.663   6.052  69.578  1.00  0.00    -0.335 A  
HETATM   13  C   UNL     1     -11.073   6.535  68.334  1.00  0.00    -0.340 A  
HETATM   14  C   UNL     1     -10.703   5.854  67.176  1.00  0.00    -0.387 A  
HETATM   15  C   UNL     1      -9.910   4.709  67.264  1.00  0.00    -0.218 A  
HETATM   16  C   UNL     1      -9.486   4.243  68.510  1.00  0.00    -0.216 A  
HETATM   17  C   UNL     1      -9.857   4.918  69.674  1.00  0.00    -0.288 A  
ENDBRANCH  11  12
ENDBRANCH   9  11
ENDBRANCH   8   9
TORSDOF 3
ENDMDL
MODEL       94
REMARK 921   NORMALIZED FREE ENERGY PREDICTED BY IDOCK:   -4.80 KCAL/MOL
REMARK 922        TOTAL FREE ENERGY PREDICTED BY IDOCK:   -5.99 KCAL/MOL
REMARK 923 INTER-LIGAND FREE ENERGY PREDICTED BY IDOCK:   -5.31 KCAL/MOL
REMARK 924 INTRA-LIGAND FREE ENERGY PREDICTED BY IDOCK:   -0.68 KCAL/MOL
REMARK 927      BINDING AFFINITY PREDICTED BY RF-SCORE:    0.00 PKD
ROOT
HETATM    1  O   UNL     1      -8.934   9.953  69.063  1.00  0.00    -0.142 OA 
HETATM    2  C   UNL     1     -10.071   9.993  69.819  1.00  0.00    -0.248 A  
HETATM    3  H   UNL     1      -8.895  10.497  68.285  1.00  0.00     0.000 HD 
HETATM    4  C   UNL     1     -10.128   9.191  70.965  1.00  0.00    -0.373 A  
HETATM    5  C   UNL     1     -11.266   9.195  71.772  1.00  0.00    -0.451 A  
HETATM    6  C   UNL     1     -12.349  10.001  71.441  1.00  0.00    -0.512 A  
HETATM    7  C   UNL     1     -12.294  10.803  70.299  1.00  0.00    -0.423 A  
HETATM    8  C   UNL     1     -11.155  10.809  69.468  1.00  0.00    -0.334 A  
ENDROOT
BRANCH   8   9
HETATM    9  C   UNL     1     -11.208  11.726  68.290  1.00  0.00    -0.255 C  
HETATM   10  O   UNL     1     -12.156  11.723  67.513  1.00  0.00    -0.599 OA 
BRANCH   9  11
HETATM   11  O   UNL     1     -10.111  12.562  68.231  1.00  0.00    -0.219 OA 
BRANCH  11  12
HETATM   12  C   UNL     1     -10.336  13.949  68.215  1.00  0.00    -0.249 A  
HETATM   13  C   UNL     1      -9.975  14.731  67.118  1.00  0.00    -0.236 A  
HETATM   14  C   UNL     1     -10.301  16.086  67.101  1.00  0.00    -0.295 A  
HETATM   15  C   UNL     1     -11.004  16.647  68.169  1.00  0.00    -0.327 A  
HETATM   16  C   UNL     1     -11.381  15.855  69.255  1.00  0.00    -0.355 A  
HETATM   17  C   UNL     1     -11.052  14.498  69.280  1.00  0.00    -0.296 A  
ENDBRANCH  11  12
ENDBRANCH   9  11
ENDBRANCH   8   9
TORSDOF 3
ENDMDL
MODEL       95
REMARK 921   NORMALIZED FREE ENERGY PREDICTED BY IDOCK:   -4.77 KCAL/MOL
REMARK 922        TOTAL FREE ENERGY PREDICTED BY IDOCK:   -5.95 KCAL/MOL
REMARK 923 INTER-LIGAND FREE ENERGY PREDICTED BY IDOCK:   -5.44 KCAL/MOL
REMARK 924 INTRA-LIGAND FREE ENERGY PREDICTED BY IDOCK:   -0.51 KCAL/MOL
REMARK 927      BINDING AFFINITY PREDICTED BY RF-SCORE:    0.00 PKD
ROOT
HETATM    1  O   UNL     1      -7.436  16.595  66.901  1.00  0.00    -0.179 OA 
HETATM    2  C   UNL     1      -8.341  17.618  66.888  1.00  0.00    -0.236 A  
HETATM    3  H   UNL     1      -7.690  15.769  66.506  1.00  0.00     0.000 HD 
HETATM    4  C   UNL     1      -7.968  18.836  67.471  1.00  0.00    -0.260 A  
HETATM    5  C   UNL     1      -8.855  19.912  67.484  1.00  0.00    -0.411 A  
HETATM    6  C   UNL     1     -10.115  19.781  66.912  1.00  0.00    -0.559 A  
HETATM    7  C   UNL     1     -10.489  18.568  66.329  1.00  0.00    -0.441 A  
HETATM    8  C   UNL     1      -9.609  17.467  66.311  1.00  0.00    -0.260 A  
ENDROOT
BRANCH   8   9
HETATM    9  C   UNL     1     -10.116  16.233  65.637  1.00  0.00    -0.312 C  
HETATM   10  O   UNL     1     -10.855  16.291  64.661  1.00  0.00    -0.687 OA 
BRANCH   9  11
HETATM   11  O   UNL     1      -9.623  15.082  66.217  1.00  0.00    -0.269 OA 
BRANCH  11  12
HETATM   12  C   UNL     1     -10.353  14.510  67.274  1.00  0.00    -0.260 A  
HETATM   13  C   UNL     1     -11.065  15.300  68.176  1.00  0.00    -0.309 A  
HETATM   14  C   UNL     1     -11.852  14.691  69.152  1.00  0.00    -0.347 A  
HETATM   15  C   UNL     1     -11.940  13.299  69.207  1.00  0.00    -0.354 A  
HETATM   16  C   UNL     1     -11.242  12.514  68.288  1.00  0.00    -0.309 A  
HETATM   17  C   UNL     1     -10.447  13.119  67.312  1.00  0.00    -0.243 A  
ENDBRANCH  11  12
ENDBRANCH   9  11
ENDBRANCH   8   9
TORSDOF 3
ENDMDL
MODEL       96
REMARK 921   NORMALIZED FREE ENERGY PREDICTED BY IDOCK:   -4.75 KCAL/MOL
REMARK 922        TOTAL FREE ENERGY PREDICTED BY IDOCK:   -5.93 KCAL/MOL
REMARK 923 INTER-LIGAND FREE ENERGY PREDICTED BY IDOCK:   -5.50 KCAL/MOL
REMARK 924 INTRA-LIGAND FREE ENERGY PREDICTED BY IDOCK:   -0.43 KCAL/MOL
REMARK 927      BINDING AFFINITY PREDICTED BY RF-SCORE:    0.00 PKD
ROOT
HETATM    1  O   UNL     1     -12.317  15.201  69.381  1.00  0.00    -0.538 OA 
HETATM    2  C   UNL     1     -12.598  14.169  70.230  1.00  0.00    -0.306 A  
HETATM    3  H   UNL     1     -11.897  14.998  68.553  1.00  0.00     0.000 HD 
HETATM    4  C   UNL     1     -13.216  14.469  71.450  1.00  0.00    -0.424 A  
HETATM    5  C   UNL     1     -13.523  13.451  72.353  1.00  0.00    -0.685 A  
HETATM    6  C   UNL     1     -13.219  12.131  72.042  1.00  0.00    -0.496 A  
HETATM    7  C   UNL     1     -12.603  11.829  70.825  1.00  0.00    -0.344 A  
HETATM    8  C   UNL     1     -12.279  12.844  69.902  1.00  0.00    -0.258 A  
ENDROOT
BRANCH   8   9
HETATM    9  C   UNL     1     -11.645  12.392  68.627  1.00  0.00    -0.319 C  
HETATM   10  O   UNL     1     -12.161  12.613  67.538  1.00  0.00    -0.411 OA 
BRANCH   9  11
HETATM   11  O   UNL     1     -10.436  11.760  68.841  1.00  0.00    -0.207 OA 
BRANCH  11  12
HETATM   12  C   UNL     1     -10.377  10.368  68.663  1.00  0.00    -0.184 A  
HETATM   13  C   UNL     1     -10.542   9.789  67.404  1.00  0.00    -0.330 A  
HETATM   14  C   UNL     1     -10.383   8.412  67.253  1.00  0.00    -0.369 A  
HETATM   15  C   UNL     1     -10.038   7.626  68.354  1.00  0.00    -0.208 A  
HETATM   16  C   UNL     1      -9.854   8.214  69.606  1.00  0.00    -0.184 A  
HETATM   17  C   UNL     1     -10.018   9.592  69.765  1.00  0.00    -0.234 A  
ENDBRANCH  11  12
ENDBRANCH   9  11
ENDBRANCH   8   9
TORSDOF 3
ENDMDL
MODEL       97
REMARK 921   NORMALIZED FREE ENERGY PREDICTED BY IDOCK:   -4.75 KCAL/MOL
REMARK 922        TOTAL FREE ENERGY PREDICTED BY IDOCK:   -5.92 KCAL/MOL
REMARK 923 INTER-LIGAND FREE ENERGY PREDICTED BY IDOCK:   -5.10 KCAL/MOL
REMARK 924 INTRA-LIGAND FREE ENERGY PREDICTED BY IDOCK:   -0.83 KCAL/MOL
REMARK 927      BINDING AFFINITY PREDICTED BY RF-SCORE:    0.00 PKD
ROOT
HETATM    1  O   UNL     1     -12.535  14.460  69.199  1.00  0.00    -0.547 OA 
HETATM    2  C   UNL     1     -11.321  14.567  68.581  1.00  0.00    -0.276 A  
HETATM    3  H   UNL     1     -13.140  13.799  68.884  1.00  0.00     0.000 HD 
HETATM    4  C   UNL     1     -10.429  15.542  69.045  1.00  0.00    -0.231 A  
HETATM    5  C   UNL     1      -9.177  15.692  68.448  1.00  0.00    -0.191 A  
HETATM    6  C   UNL     1      -8.808  14.869  67.391  1.00  0.00    -0.204 A  
HETATM    7  C   UNL     1      -9.695  13.895  66.927  1.00  0.00    -0.268 A  
HETATM    8  C   UNL     1     -10.967  13.731  67.513  1.00  0.00    -0.285 A  
ENDROOT
BRANCH   8   9
HETATM    9  C   UNL     1     -11.815  12.640  66.944  1.00  0.00    -0.355 C  
HETATM   10  O   UNL     1     -12.051  12.567  65.744  1.00  0.00    -0.511 OA 
BRANCH   9  11
HETATM   11  O   UNL     1     -12.236  11.750  67.912  1.00  0.00    -0.538 OA 
BRANCH  11  12
HETATM   12  C   UNL     1     -11.300  10.830  68.417  1.00  0.00    -0.302 A  
HETATM   13  C   UNL     1     -11.111  10.667  69.790  1.00  0.00    -0.358 A  
HETATM   14  C   UNL     1     -10.243   9.680  70.252  1.00  0.00    -0.333 A  
HETATM   15  C   UNL     1      -9.588   8.847  69.343  1.00  0.00    -0.163 A  
HETATM   16  C   UNL     1      -9.798   9.001  67.972  1.00  0.00    -0.197 A  
HETATM   17  C   UNL     1     -10.662   9.993  67.502  1.00  0.00    -0.339 A  
ENDBRANCH  11  12
ENDBRANCH   9  11
ENDBRANCH   8   9
TORSDOF 3
ENDMDL
MODEL       98
REMARK 921   NORMALIZED FREE ENERGY PREDICTED BY IDOCK:   -4.74 KCAL/MOL
REMARK 922        TOTAL FREE ENERGY PREDICTED BY IDOCK:   -5.92 KCAL/MOL
REMARK 923 INTER-LIGAND FREE ENERGY PREDICTED BY IDOCK:   -5.41 KCAL/MOL
REMARK 924 INTRA-LIGAND FREE ENERGY PREDICTED BY IDOCK:   -0.51 KCAL/MOL
REMARK 927      BINDING AFFINITY PREDICTED BY RF-SCORE:    0.00 PKD
ROOT
HETATM    1  O   UNL     1     -12.678  10.699  69.308  1.00  0.00    -0.689 OA 
HETATM    2  C   UNL     1     -11.690  10.173  70.091  1.00  0.00    -0.256 A  
HETATM    3  H   UNL     1     -12.425  11.128  68.499  1.00  0.00     0.000 HD 
HETATM    4  C   UNL     1     -12.062   9.541  71.285  1.00  0.00    -0.443 A  
HETATM    5  C   UNL     1     -11.092   8.988  72.120  1.00  0.00    -0.271 A  
HETATM    6  C   UNL     1      -9.749   9.059  71.769  1.00  0.00    -0.311 A  
HETATM    7  C   UNL     1      -9.376   9.688  70.579  1.00  0.00    -0.227 A  
HETATM    8  C   UNL     1     -10.340  10.258  69.724  1.00  0.00    -0.287 A  
ENDROOT
BRANCH   8   9
HETATM    9  C   UNL     1      -9.818  10.881  68.469  1.00  0.00    -0.184 C  
HETATM   10  O   UNL     1      -9.044  11.830  68.496  1.00  0.00    -0.190 OA 
BRANCH   9  11
HETATM   11  O   UNL     1     -10.278  10.237  67.338  1.00  0.00    -0.194 OA 
BRANCH  11  12
HETATM   12  C   UNL     1     -10.722  11.026  66.263  1.00  0.00    -0.212 A  
HETATM   13  C   UNL     1     -11.594  12.097  66.461  1.00  0.00    -0.425 A  
HETATM   14  C   UNL     1     -11.937  12.913  65.384  1.00  0.00    -0.470 A  
HETATM   15  C   UNL     1     -11.390  12.668  64.123  1.00  0.00    -0.439 A  
HETATM   16  C   UNL     1     -10.503  11.607  63.936  1.00  0.00    -0.433 A  
HETATM   17  C   UNL     1     -10.160  10.783  65.010  1.00  0.00    -0.377 A  
ENDBRANCH  11  12
ENDBRANCH   9  11
ENDBRANCH   8   9
TORSDOF 3
ENDMDL
MODEL       99
REMARK 921   NORMALIZED FREE ENERGY PREDICTED BY IDOCK:   -4.73 KCAL/MOL
REMARK 922        TOTAL FREE ENERGY PREDICTED BY IDOCK:   -5.91 KCAL/MOL
REMARK 923 INTER-LIGAND FREE ENERGY PREDICTED BY IDOCK:   -5.28 KCAL/MOL
REMARK 924 INTRA-LIGAND FREE ENERGY PREDICTED BY IDOCK:   -0.62 KCAL/MOL
REMARK 927      BINDING AFFINITY PREDICTED BY RF-SCORE:    0.00 PKD
ROOT
HETATM    1  O   UNL     1     -11.916  15.824  69.435  1.00  0.00    -0.370 OA 
HETATM    2  C   UNL     1     -11.416  14.593  69.118  1.00  0.00    -0.294 A  
HETATM    3  H   UNL     1     -11.429  16.590  69.154  1.00  0.00     0.000 HD 
HETATM    4  C   UNL     1     -12.133  13.463  69.533  1.00  0.00    -0.334 A  
HETATM    5  C   UNL     1     -11.665  12.184  69.235  1.00  0.00    -0.386 A  
HETATM    6  C   UNL     1     -10.484  12.024  68.519  1.00  0.00    -0.244 A  
HETATM    7  C   UNL     1      -9.768  13.149  68.103  1.00  0.00    -0.228 A  
HETATM    8  C   UNL     1     -10.221  14.450  68.399  1.00  0.00    -0.243 A  
ENDROOT
BRANCH   8   9
HETATM    9  C   UNL     1      -9.380  15.571  67.879  1.00  0.00    -0.192 C  
HETATM   10  O   UNL     1      -8.732  15.463  66.845  1.00  0.00    -0.215 OA 
BRANCH   9  11
HETATM   11  O   UNL     1      -9.469  16.699  68.670  1.00  0.00    -0.232 OA 
BRANCH  11  12
HETATM   12  C   UNL     1      -9.489  17.953  68.034  1.00  0.00    -0.279 A  
HETATM   13  C   UNL     1     -10.656  18.455  67.456  1.00  0.00    -0.447 A  
HETATM   14  C   UNL     1     -10.659  19.741  66.919  1.00  0.00    -0.588 A  
HETATM   15  C   UNL     1      -9.506  20.525  66.982  1.00  0.00    -0.516 A  
HETATM   16  C   UNL     1      -8.348  20.024  67.580  1.00  0.00    -0.381 A  
HETATM   17  C   UNL     1      -8.337  18.734  68.114  1.00  0.00    -0.334 A  
ENDBRANCH  11  12
ENDBRANCH   9  11
ENDBRANCH   8   9
TORSDOF 3
ENDMDL
MODEL      100
REMARK 921   NORMALIZED FREE ENERGY PREDICTED BY IDOCK:   -4.73 KCAL/MOL
REMARK 922        TOTAL FREE ENERGY PREDICTED BY IDOCK:   -5.90 KCAL/MOL
REMARK 923 INTER-LIGAND FREE ENERGY PREDICTED BY IDOCK:   -5.26 KCAL/MOL
REMARK 924 INTRA-LIGAND FREE ENERGY PREDICTED BY IDOCK:   -0.64 KCAL/MOL
REMARK 927      BINDING AFFINITY PREDICTED BY RF-SCORE:    0.00 PKD
ROOT
HETATM    1  O   UNL     1     -11.469   5.377  73.365  1.00  0.00    -0.490 OA 
HETATM    2  C   UNL     1     -10.726   4.625  72.500  1.00  0.00    -0.149 A  
HETATM    3  H   UNL     1     -11.808   6.209  73.055  1.00  0.00     0.000 HD 
HETATM    4  C   UNL     1     -10.226   3.399  72.957  1.00  0.00    -0.236 A  
HETATM    5  C   UNL     1      -9.460   2.593  72.114  1.00  0.00    -0.178 A  
HETATM    6  C   UNL     1      -9.195   3.003  70.812  1.00  0.00    -0.206 A  
HETATM    7  C   UNL     1      -9.693   4.225  70.355  1.00  0.00    -0.280 A  
HETATM    8  C   UNL     1     -10.463   5.056  71.193  1.00  0.00    -0.205 A  
ENDROOT
BRANCH   8   9
HETATM    9  C   UNL     1     -10.959   6.326  70.580  1.00  0.00    -0.309 C  
HETATM   10  O   UNL     1     -11.620   6.327  69.548  1.00  0.00    -0.423 OA 
BRANCH   9  11
HETATM   11  O   UNL     1     -10.618   7.434  71.329  1.00  0.00    -0.216 OA 
BRANCH  11  12
HETATM   12  C   UNL     1     -11.505   8.524  71.339  1.00  0.00    -0.287 A  
HETATM   13  C   UNL     1     -12.623   8.543  72.174  1.00  0.00    -0.431 A  
HETATM   14  C   UNL     1     -13.426   9.681  72.224  1.00  0.00    -0.488 A  
HETATM   15  C   UNL     1     -13.095  10.801  71.459  1.00  0.00    -0.517 A  
HETATM   16  C   UNL     1     -11.964  10.783  70.642  1.00  0.00    -0.466 A  
HETATM   17  C   UNL     1     -11.159   9.643  70.583  1.00  0.00    -0.384 A  
ENDBRANCH  11  12
ENDBRANCH   9  11
ENDBRANCH   8   9
TORSDOF 3
ENDMDL
MODEL      101
REMARK 921   NORMALIZED FREE ENERGY PREDICTED BY IDOCK:   -4.71 KCAL/MOL
REMARK 922        TOTAL FREE ENERGY PREDICTED BY IDOCK:   -5.88 KCAL/MOL
REMARK 923 INTER-LIGAND FREE ENERGY PREDICTED BY IDOCK:   -5.38 KCAL/MOL
REMARK 924 INTRA-LIGAND FREE ENERGY PREDICTED BY IDOCK:   -0.50 KCAL/MOL
REMARK 927      BINDING AFFINITY PREDICTED BY RF-SCORE:    0.00 PKD
ROOT
HETATM    1  O   UNL     1     -12.218  12.606  67.209  1.00  0.00    -0.425 OA 
HETATM    2  C   UNL     1     -11.692  12.164  66.029  1.00  0.00    -0.321 A  
HETATM    3  H   UNL     1     -11.810  12.317  68.017  1.00  0.00     0.000 HD 
HETATM    4  C   UNL     1     -12.293  12.591  64.838  1.00  0.00    -0.539 A  
HETATM    5  C   UNL     1     -11.795  12.168  63.606  1.00  0.00    -0.608 A  
HETATM    6  C   UNL     1     -10.693  11.322  63.555  1.00  0.00    -0.408 A  
HETATM    7  C   UNL     1     -10.090  10.896  64.742  1.00  0.00    -0.383 A  
HETATM    8  C   UNL     1     -10.583  11.308  65.996  1.00  0.00    -0.314 A  
ENDROOT
BRANCH   8   9
HETATM    9  C   UNL     1      -9.838  10.804  67.190  1.00  0.00    -0.185 C  
HETATM   10  O   UNL     1      -9.724  11.476  68.209  1.00  0.00    -0.185 OA 
BRANCH   9  11
HETATM   11  O   UNL     1      -9.358   9.523  67.003  1.00  0.00    -0.142 OA 
BRANCH  11  12
HETATM   12  C   UNL     1     -10.012   8.469  67.662  1.00  0.00    -0.198 A  
HETATM   13  C   UNL     1     -10.550   7.393  66.955  1.00  0.00    -0.414 A  
HETATM   14  C   UNL     1     -11.107   6.321  67.651  1.00  0.00    -0.368 A  
HETATM   15  C   UNL     1     -11.103   6.321  69.047  1.00  0.00    -0.446 A  
HETATM   16  C   UNL     1     -10.545   7.390  69.749  1.00  0.00    -0.245 A  
HETATM   17  C   UNL     1      -9.991   8.469  69.057  1.00  0.00    -0.197 A  
ENDBRANCH  11  12
ENDBRANCH   9  11
ENDBRANCH   8   9
TORSDOF 3
ENDMDL
MODEL      102
REMARK 921   NORMALIZED FREE ENERGY PREDICTED BY IDOCK:   -4.71 KCAL/MOL
REMARK 922        TOTAL FREE ENERGY PREDICTED BY IDOCK:   -5.88 KCAL/MOL
REMARK 923 INTER-LIGAND FREE ENERGY PREDICTED BY IDOCK:   -5.02 KCAL/MOL
REMARK 924 INTRA-LIGAND FREE ENERGY PREDICTED BY IDOCK:   -0.86 KCAL/MOL
REMARK 927      BINDING AFFINITY PREDICTED BY RF-SCORE:    0.00 PKD
ROOT
HETATM    1  O   UNL     1     -10.637  17.491  66.860  1.00  0.00    -0.305 OA 
HETATM    2  C   UNL     1      -9.577  16.655  67.071  1.00  0.00    -0.244 A  
HETATM    3  H   UNL     1     -11.376  17.160  66.362  1.00  0.00     0.000 HD 
HETATM    4  C   UNL     1      -8.488  17.144  67.803  1.00  0.00    -0.207 A  
HETATM    5  C   UNL     1      -7.381  16.331  68.047  1.00  0.00    -0.141 A  
HETATM    6  C   UNL     1      -7.357  15.028  67.565  1.00  0.00    -0.228 A  
HETATM    7  C   UNL     1      -8.442  14.537  66.835  1.00  0.00    -0.179 A  
HETATM    8  C   UNL     1      -9.568  15.345  66.574  1.00  0.00    -0.298 A  
ENDROOT
BRANCH   8   9
HETATM    9  C   UNL     1     -10.674  14.699  65.803  1.00  0.00    -0.315 C  
HETATM   10  O   UNL     1     -10.505  14.277  64.665  1.00  0.00    -0.425 OA 
BRANCH   9  11
HETATM   11  O   UNL     1     -11.839  14.614  66.538  1.00  0.00    -0.373 OA 
BRANCH  11  12
HETATM   12  C   UNL     1     -11.897  13.673  67.580  1.00  0.00    -0.369 A  
HETATM   13  C   UNL     1     -11.652  12.319  67.350  1.00  0.00    -0.425 A  
HETATM   14  C   UNL     1     -11.626  11.432  68.425  1.00  0.00    -0.385 A  
HETATM   15  C   UNL     1     -11.821  11.906  69.724  1.00  0.00    -0.411 A  
HETATM   16  C   UNL     1     -12.045  13.265  69.949  1.00  0.00    -0.377 A  
HETATM   17  C   UNL     1     -12.078  14.157  68.876  1.00  0.00    -0.339 A  
ENDBRANCH  11  12
ENDBRANCH   9  11
ENDBRANCH   8   9
TORSDOF 3
ENDMDL
MODEL      103
REMARK 921   NORMALIZED FREE ENERGY PREDICTED BY IDOCK:   -4.70 KCAL/MOL
REMARK 922        TOTAL FREE ENERGY PREDICTED BY IDOCK:   -5.87 KCAL/MOL
REMARK 923 INTER-LIGAND FREE ENERGY PREDICTED BY IDOCK:   -5.34 KCAL/MOL
REMARK 924 INTRA-LIGAND FREE ENERGY PREDICTED BY IDOCK:   -0.52 KCAL/MOL
REMARK 927      BINDING AFFINITY PREDICTED BY RF-SCORE:    0.00 PKD
ROOT
HETATM    1  O   UNL     1     -11.075  11.106  70.107  1.00  0.00    -0.467 OA 
HETATM    2  C   UNL     1     -10.945   9.837  69.618  1.00  0.00    -0.241 A  
HETATM    3  H   UNL     1     -11.008  11.830  69.494  1.00  0.00     0.000 HD 
HETATM    4  C   UNL     1     -11.044   8.771  70.521  1.00  0.00    -0.278 A  
HETATM    5  C   UNL     1     -10.918   7.456  70.073  1.00  0.00    -0.264 A  
HETATM    6  C   UNL     1     -10.697   7.198  68.725  1.00  0.00    -0.199 A  
HETATM    7  C   UNL     1     -10.598   8.260  67.823  1.00  0.00    -0.236 A  
HETATM    8  C   UNL     1     -10.717   9.596  68.256  1.00  0.00    -0.262 A  
ENDROOT
BRANCH   8   9
HETATM    9  C   UNL     1     -10.618  10.642  67.193  1.00  0.00    -0.260 C  
HETATM   10  O   UNL     1      -9.643  10.719  66.455  1.00  0.00    -0.180 OA 
BRANCH   9  11
HETATM   11  O   UNL     1     -11.744  11.438  67.139  1.00  0.00    -0.556 OA 
BRANCH  11  12
HETATM   12  C   UNL     1     -11.741  12.528  66.252  1.00  0.00    -0.404 A  
HETATM   13  C   UNL     1     -12.214  12.402  64.945  1.00  0.00    -0.485 A  
HETATM   14  C   UNL     1     -12.282  13.528  64.126  1.00  0.00    -0.449 A  
HETATM   15  C   UNL     1     -11.901  14.775  64.624  1.00  0.00    -0.442 A  
HETATM   16  C   UNL     1     -11.449  14.898  65.938  1.00  0.00    -0.276 A  
HETATM   17  C   UNL     1     -11.373  13.773  66.762  1.00  0.00    -0.345 A  
ENDBRANCH  11  12
ENDBRANCH   9  11
ENDBRANCH   8   9
TORSDOF 3
ENDMDL
MODEL      104
REMARK 921   NORMALIZED FREE ENERGY PREDICTED BY IDOCK:   -4.70 KCAL/MOL
REMARK 922        TOTAL FREE ENERGY PREDICTED BY IDOCK:   -5.86 KCAL/MOL
REMARK 923 INTER-LIGAND FREE ENERGY PREDICTED BY IDOCK:   -5.26 KCAL/MOL
REMARK 924 INTRA-LIGAND FREE ENERGY PREDICTED BY IDOCK:   -0.60 KCAL/MOL
REMARK 927      BINDING AFFINITY PREDICTED BY RF-SCORE:    0.00 PKD
ROOT
HETATM    1  O   UNL     1     -12.018  14.323  69.687  1.00  0.00    -0.297 OA 
HETATM    2  C   UNL     1     -12.244  13.107  70.267  1.00  0.00    -0.306 A  
HETATM    3  H   UNL     1     -11.496  14.348  68.892  1.00  0.00     0.000 HD 
HETATM    4  C   UNL     1     -13.012  13.069  71.438  1.00  0.00    -0.373 A  
HETATM    5  C   UNL     1     -13.272  11.854  72.071  1.00  0.00    -0.461 A  
HETATM    6  C   UNL     1     -12.772  10.671  71.537  1.00  0.00    -0.549 A  
HETATM    7  C   UNL     1     -12.007  10.707  70.369  1.00  0.00    -0.436 A  
HETATM    8  C   UNL     1     -11.728  11.925  69.718  1.00  0.00    -0.403 A  
ENDROOT
BRANCH   8   9
HETATM    9  C   UNL     1     -10.920  11.829  68.465  1.00  0.00    -0.227 C  
HETATM   10  O   UNL     1      -9.921  12.517  68.288  1.00  0.00    -0.221 OA 
BRANCH   9  11
HETATM   11  O   UNL     1     -11.412  10.873  67.599  1.00  0.00    -0.468 OA 
BRANCH  11  12
HETATM   12  C   UNL     1     -10.490  10.106  66.867  1.00  0.00    -0.222 A  
HETATM   13  C   UNL     1     -10.003   8.894  67.358  1.00  0.00    -0.267 A  
HETATM   14  C   UNL     1      -9.163   8.117  66.562  1.00  0.00    -0.237 A  
HETATM   15  C   UNL     1      -8.835   8.543  65.274  1.00  0.00    -0.144 A  
HETATM   16  C   UNL     1      -9.342   9.746  64.781  1.00  0.00    -0.327 A  
HETATM   17  C   UNL     1     -10.179  10.532  65.576  1.00  0.00    -0.325 A  
ENDBRANCH  11  12
ENDBRANCH   9  11
ENDBRANCH   8   9
TORSDOF 3
ENDMDL
MODEL      105
REMARK 921   NORMALIZED FREE ENERGY PREDICTED BY IDOCK:   -4.69 KCAL/MOL
REMARK 922        TOTAL FREE ENERGY PREDICTED BY IDOCK:   -5.85 KCAL/MOL
REMARK 923 INTER-LIGAND FREE ENERGY PREDICTED BY IDOCK:   -5.16 KCAL/MOL
REMARK 924 INTRA-LIGAND FREE ENERGY PREDICTED BY IDOCK:   -0.69 KCAL/MOL
REMARK 927      BINDING AFFINITY PREDICTED BY RF-SCORE:    0.00 PKD
ROOT
HETATM    1  O   UNL     1      -8.418  14.924  68.374  1.00  0.00    -0.141 OA 
HETATM    2  C   UNL     1      -9.681  14.865  68.889  1.00  0.00    -0.223 A  
HETATM    3  H   UNL     1      -8.111  14.189  67.855  1.00  0.00     0.000 HD 
HETATM    4  C   UNL     1     -10.133  15.948  69.653  1.00  0.00    -0.271 A  
HETATM    5  C   UNL     1     -11.415  15.936  70.202  1.00  0.00    -0.366 A  
HETATM    6  C   UNL     1     -12.253  14.848  69.989  1.00  0.00    -0.381 A  
HETATM    7  C   UNL     1     -11.805  13.767  69.226  1.00  0.00    -0.392 A  
HETATM    8  C   UNL     1     -10.511  13.757  68.668  1.00  0.00    -0.245 A  
ENDROOT
BRANCH   8   9
HETATM    9  C   UNL     1     -10.158  12.555  67.852  1.00  0.00    -0.214 C  
HETATM   10  O   UNL     1     -10.431  11.420  68.227  1.00  0.00    -0.184 OA 
BRANCH   9  11
HETATM   11  O   UNL     1      -9.550  12.894  66.660  1.00  0.00    -0.245 OA 
BRANCH  11  12
HETATM   12  C   UNL     1     -10.344  12.937  65.502  1.00  0.00    -0.291 A  
HETATM   13  C   UNL     1     -10.368  11.874  64.598  1.00  0.00    -0.326 A  
HETATM   14  C   UNL     1     -11.240  11.915  63.511  1.00  0.00    -0.501 A  
HETATM   15  C   UNL     1     -12.096  13.005  63.345  1.00  0.00    -0.591 A  
HETATM   16  C   UNL     1     -12.081  14.056  64.264  1.00  0.00    -0.476 A  
HETATM   17  C   UNL     1     -11.206  14.023  65.352  1.00  0.00    -0.319 A  
ENDBRANCH  11  12
ENDBRANCH   9  11
ENDBRANCH   8   9
TORSDOF 3
ENDMDL
MODEL      106
REMARK 921   NORMALIZED FREE ENERGY PREDICTED BY IDOCK:   -4.67 KCAL/MOL
REMARK 922        TOTAL FREE ENERGY PREDICTED BY IDOCK:   -5.84 KCAL/MOL
REMARK 923 INTER-LIGAND FREE ENERGY PREDICTED BY IDOCK:   -5.19 KCAL/MOL
REMARK 924 INTRA-LIGAND FREE ENERGY PREDICTED BY IDOCK:   -0.65 KCAL/MOL
REMARK 927      BINDING AFFINITY PREDICTED BY RF-SCORE:    0.00 PKD
ROOT
HETATM    1  O   UNL     1      -8.732  14.105  68.452  1.00  0.00    -0.171 OA 
HETATM    2  C   UNL     1      -9.436  14.781  67.498  1.00  0.00    -0.197 A  
HETATM    3  H   UNL     1      -8.738  14.446  69.339  1.00  0.00     0.000 HD 
HETATM    4  C   UNL     1      -9.426  14.278  66.191  1.00  0.00    -0.250 A  
HETATM    5  C   UNL     1     -10.130  14.932  65.179  1.00  0.00    -0.354 A  
HETATM    6  C   UNL     1     -10.848  16.086  65.466  1.00  0.00    -0.301 A  
HETATM    7  C   UNL     1     -10.861  16.590  66.769  1.00  0.00    -0.070 A  
HETATM    8  C   UNL     1     -10.152  15.947  67.804  1.00  0.00    -0.244 A  
ENDROOT
BRANCH   8   9
HETATM    9  C   UNL     1     -10.263  16.569  69.159  1.00  0.00    -0.298 C  
HETATM   10  O   UNL     1     -10.493  17.764  69.302  1.00  0.00    -0.267 OA 
BRANCH   9  11
HETATM   11  O   UNL     1     -10.117  15.641  70.171  1.00  0.00    -0.294 OA 
BRANCH  11  12
HETATM   12  C   UNL     1     -11.236  15.358  70.974  1.00  0.00    -0.364 A  
HETATM   13  C   UNL     1     -11.541  16.132  72.094  1.00  0.00    -0.459 A  
HETATM   14  C   UNL     1     -12.710  15.878  72.809  1.00  0.00    -0.562 A  
HETATM   15  C   UNL     1     -13.577  14.868  72.389  1.00  0.00    -0.554 A  
HETATM   16  C   UNL     1     -13.277  14.111  71.256  1.00  0.00    -0.399 A  
HETATM   17  C   UNL     1     -12.104  14.357  70.539  1.00  0.00    -0.404 A  
ENDBRANCH  11  12
ENDBRANCH   9  11
ENDBRANCH   8   9
TORSDOF 3
ENDMDL
MODEL      107
REMARK 921   NORMALIZED FREE ENERGY PREDICTED BY IDOCK:   -4.65 KCAL/MOL
REMARK 922        TOTAL FREE ENERGY PREDICTED BY IDOCK:   -5.81 KCAL/MOL
REMARK 923 INTER-LIGAND FREE ENERGY PREDICTED BY IDOCK:   -5.18 KCAL/MOL
REMARK 924 INTRA-LIGAND FREE ENERGY PREDICTED BY IDOCK:   -0.64 KCAL/MOL
REMARK 927      BINDING AFFINITY PREDICTED BY RF-SCORE:    0.00 PKD
ROOT
HETATM    1  O   UNL     1      -8.166  14.315  67.958  1.00  0.00    -0.133 OA 
HETATM    2  C   UNL     1      -8.793  15.528  68.005  1.00  0.00    -0.165 A  
HETATM    3  H   UNL     1      -8.703  13.539  67.848  1.00  0.00     0.000 HD 
HETATM    4  C   UNL     1      -8.001  16.672  68.168  1.00  0.00    -0.177 A  
HETATM    5  C   UNL     1      -8.592  17.935  68.222  1.00  0.00    -0.277 A  
HETATM    6  C   UNL     1      -9.971  18.063  68.109  1.00  0.00    -0.356 A  
HETATM    7  C   UNL     1     -10.762  16.923  67.945  1.00  0.00    -0.344 A  
HETATM    8  C   UNL     1     -10.186  15.638  67.894  1.00  0.00    -0.239 A  
ENDROOT
BRANCH   8   9
HETATM    9  C   UNL     1     -11.134  14.502  67.691  1.00  0.00    -0.304 C  
HETATM   10  O   UNL     1     -11.205  13.572  68.486  1.00  0.00    -0.248 OA 
BRANCH   9  11
HETATM   11  O   UNL     1     -11.907  14.664  66.558  1.00  0.00    -0.373 OA 
BRANCH  11  12
HETATM   12  C   UNL     1     -11.662  13.818  65.463  1.00  0.00    -0.346 A  
HETATM   13  C   UNL     1     -10.362  13.499  65.069  1.00  0.00    -0.379 A  
HETATM   14  C   UNL     1     -10.161  12.582  64.038  1.00  0.00    -0.390 A  
HETATM   15  C   UNL     1     -11.257  11.973  63.425  1.00  0.00    -0.481 A  
HETATM   16  C   UNL     1     -12.554  12.280  63.838  1.00  0.00    -0.544 A  
HETATM   17  C   UNL     1     -12.762  13.203  64.866  1.00  0.00    -0.421 A  
ENDBRANCH  11  12
ENDBRANCH   9  11
ENDBRANCH   8   9
TORSDOF 3
ENDMDL
MODEL      108
REMARK 921   NORMALIZED FREE ENERGY PREDICTED BY IDOCK:   -4.65 KCAL/MOL
REMARK 922        TOTAL FREE ENERGY PREDICTED BY IDOCK:   -5.81 KCAL/MOL
REMARK 923 INTER-LIGAND FREE ENERGY PREDICTED BY IDOCK:   -5.27 KCAL/MOL
REMARK 924 INTRA-LIGAND FREE ENERGY PREDICTED BY IDOCK:   -0.54 KCAL/MOL
REMARK 927      BINDING AFFINITY PREDICTED BY RF-SCORE:    0.00 PKD
ROOT
HETATM    1  O   UNL     1     -10.820  16.964  69.754  1.00  0.00    -0.382 OA 
HETATM    2  C   UNL     1     -10.526  17.651  68.611  1.00  0.00    -0.317 A  
HETATM    3  H   UNL     1     -11.075  16.052  69.675  1.00  0.00     0.000 HD 
HETATM    4  C   UNL     1     -10.151  18.995  68.727  1.00  0.00    -0.429 A  
HETATM    5  C   UNL     1      -9.841  19.741  67.590  1.00  0.00    -0.514 A  
HETATM    6  C   UNL     1      -9.900  19.150  66.334  1.00  0.00    -0.437 A  
HETATM    7  C   UNL     1     -10.273  17.809  66.215  1.00  0.00    -0.364 A  
HETATM    8  C   UNL     1     -10.595  17.040  67.351  1.00  0.00    -0.289 A  
ENDROOT
BRANCH   8   9
HETATM    9  C   UNL     1     -10.955  15.612  67.096  1.00  0.00    -0.270 C  
HETATM   10  O   UNL     1     -11.790  15.027  67.775  1.00  0.00    -0.336 OA 
BRANCH   9  11
HETATM   11  O   UNL     1     -10.275  15.089  66.014  1.00  0.00    -0.268 OA 
BRANCH  11  12
HETATM   12  C   UNL     1     -10.083  13.697  65.963  1.00  0.00    -0.312 A  
HETATM   13  C   UNL     1     -10.631  12.926  64.938  1.00  0.00    -0.342 A  
HETATM   14  C   UNL     1     -10.341  11.565  64.870  1.00  0.00    -0.340 A  
HETATM   15  C   UNL     1      -9.488  10.987  65.812  1.00  0.00    -0.242 A  
HETATM   16  C   UNL     1      -8.926  11.768  66.823  1.00  0.00    -0.196 A  
HETATM   17  C   UNL     1      -9.219  13.131  66.900  1.00  0.00    -0.236 A  
ENDBRANCH  11  12
ENDBRANCH   9  11
ENDBRANCH   8   9
TORSDOF 3
ENDMDL
MODEL      109
REMARK 921   NORMALIZED FREE ENERGY PREDICTED BY IDOCK:   -4.64 KCAL/MOL
REMARK 922        TOTAL FREE ENERGY PREDICTED BY IDOCK:   -5.80 KCAL/MOL
REMARK 923 INTER-LIGAND FREE ENERGY PREDICTED BY IDOCK:   -5.19 KCAL/MOL
REMARK 924 INTRA-LIGAND FREE ENERGY PREDICTED BY IDOCK:   -0.61 KCAL/MOL
REMARK 927      BINDING AFFINITY PREDICTED BY RF-SCORE:    0.00 PKD
ROOT
HETATM    1  O   UNL     1     -12.159  11.905  67.943  1.00  0.00    -0.558 OA 
HETATM    2  C   UNL     1     -11.842  11.047  68.957  1.00  0.00    -0.329 A  
HETATM    3  H   UNL     1     -11.806  11.725  67.079  1.00  0.00     0.000 HD 
HETATM    4  C   UNL     1     -12.362  11.312  70.230  1.00  0.00    -0.389 A  
HETATM    5  C   UNL     1     -12.068  10.467  71.301  1.00  0.00    -0.461 A  
HETATM    6  C   UNL     1     -11.259   9.353  71.106  1.00  0.00    -0.427 A  
HETATM    7  C   UNL     1     -10.740   9.087  69.837  1.00  0.00    -0.240 A  
HETATM    8  C   UNL     1     -11.021   9.931  68.744  1.00  0.00    -0.217 A  
ENDROOT
BRANCH   8   9
HETATM    9  C   UNL     1     -10.427   9.526  67.433  1.00  0.00    -0.272 C  
HETATM   10  O   UNL     1     -10.661   8.433  66.931  1.00  0.00    -0.305 OA 
BRANCH   9  11
HETATM   11  O   UNL     1      -9.653  10.527  66.881  1.00  0.00    -0.169 OA 
BRANCH  11  12
HETATM   12  C   UNL     1      -9.655  10.669  65.483  1.00  0.00    -0.221 A  
HETATM   13  C   UNL     1     -10.621  11.440  64.833  1.00  0.00    -0.368 A  
HETATM   14  C   UNL     1     -10.534  11.633  63.455  1.00  0.00    -0.498 A  
HETATM   15  C   UNL     1      -9.473  11.076  62.739  1.00  0.00    -0.361 A  
HETATM   16  C   UNL     1      -8.499  10.324  63.398  1.00  0.00    -0.185 A  
HETATM   17  C   UNL     1      -8.584  10.121  64.777  1.00  0.00    -0.191 A  
ENDBRANCH  11  12
ENDBRANCH   9  11
ENDBRANCH   8   9
TORSDOF 3
ENDMDL
MODEL      110
REMARK 921   NORMALIZED FREE ENERGY PREDICTED BY IDOCK:   -4.63 KCAL/MOL
REMARK 922        TOTAL FREE ENERGY PREDICTED BY IDOCK:   -5.79 KCAL/MOL
REMARK 923 INTER-LIGAND FREE ENERGY PREDICTED BY IDOCK:   -5.30 KCAL/MOL
REMARK 924 INTRA-LIGAND FREE ENERGY PREDICTED BY IDOCK:   -0.49 KCAL/MOL
REMARK 927      BINDING AFFINITY PREDICTED BY RF-SCORE:    0.00 PKD
ROOT
HETATM    1  O   UNL     1     -11.131  17.514  68.615  1.00  0.00    -0.205 OA 
HETATM    2  C   UNL     1     -10.016  17.633  67.835  1.00  0.00    -0.323 A  
HETATM    3  H   UNL     1     -11.474  16.642  68.775  1.00  0.00     0.000 HD 
HETATM    4  C   UNL     1      -9.511  18.918  67.600  1.00  0.00    -0.340 A  
HETATM    5  C   UNL     1      -8.375  19.094  66.809  1.00  0.00    -0.305 A  
HETATM    6  C   UNL     1      -7.737  17.992  66.254  1.00  0.00    -0.293 A  
HETATM    7  C   UNL     1      -8.238  16.709  66.488  1.00  0.00    -0.330 A  
HETATM    8  C   UNL     1      -9.388  16.510  67.279  1.00  0.00    -0.227 A  
ENDROOT
BRANCH   8   9
HETATM    9  C   UNL     1      -9.811  15.090  67.476  1.00  0.00    -0.217 C  
HETATM   10  O   UNL     1      -9.058  14.256  67.965  1.00  0.00    -0.178 OA 
BRANCH   9  11
HETATM   11  O   UNL     1     -11.117  14.877  67.085  1.00  0.00    -0.316 OA 
BRANCH  11  12
HETATM   12  C   UNL     1     -11.347  14.083  65.948  1.00  0.00    -0.317 A  
HETATM   13  C   UNL     1     -10.295  13.649  65.141  1.00  0.00    -0.381 A  
HETATM   14  C   UNL     1     -10.554  12.786  64.078  1.00  0.00    -0.446 A  
HETATM   15  C   UNL     1     -11.856  12.344  63.841  1.00  0.00    -0.551 A  
HETATM   16  C   UNL     1     -12.901  12.765  64.665  1.00  0.00    -0.355 A  
HETATM   17  C   UNL     1     -12.649  13.635  65.728  1.00  0.00    -0.511 A  
ENDBRANCH  11  12
ENDBRANCH   9  11
ENDBRANCH   8   9
TORSDOF 3
ENDMDL
MODEL      111
REMARK 921   NORMALIZED FREE ENERGY PREDICTED BY IDOCK:   -4.61 KCAL/MOL
REMARK 922        TOTAL FREE ENERGY PREDICTED BY IDOCK:   -5.76 KCAL/MOL
REMARK 923 INTER-LIGAND FREE ENERGY PREDICTED BY IDOCK:   -5.10 KCAL/MOL
REMARK 924 INTRA-LIGAND FREE ENERGY PREDICTED BY IDOCK:   -0.66 KCAL/MOL
REMARK 927      BINDING AFFINITY PREDICTED BY RF-SCORE:    0.00 PKD
ROOT
HETATM    1  O   UNL     1     -10.906  11.094  63.060  1.00  0.00    -0.797 OA 
HETATM    2  C   UNL     1     -11.325  12.002  63.991  1.00  0.00    -0.403 A  
HETATM    3  H   UNL     1     -10.504  10.291  63.369  1.00  0.00     0.000 HD 
HETATM    4  C   UNL     1     -11.918  13.186  63.535  1.00  0.00    -0.580 A  
HETATM    5  C   UNL     1     -12.362  14.146  64.444  1.00  0.00    -0.410 A  
HETATM    6  C   UNL     1     -12.221  13.928  65.810  1.00  0.00    -0.488 A  
HETATM    7  C   UNL     1     -11.631  12.747  66.266  1.00  0.00    -0.433 A  
HETATM    8  C   UNL     1     -11.171  11.768  65.364  1.00  0.00    -0.310 A  
ENDROOT
BRANCH   8   9
HETATM    9  C   UNL     1     -10.581  10.538  65.975  1.00  0.00    -0.093 C  
HETATM   10  O   UNL     1      -9.748   9.861  65.384  1.00  0.00    -0.269 OA 
BRANCH   9  11
HETATM   11  O   UNL     1     -11.054  10.313  67.252  1.00  0.00    -0.264 OA 
BRANCH  11  12
HETATM   12  C   UNL     1     -10.141   9.878  68.229  1.00  0.00    -0.161 A  
HETATM   13  C   UNL     1      -9.086  10.689  68.648  1.00  0.00    -0.170 A  
HETATM   14  C   UNL     1      -8.259  10.260  69.685  1.00  0.00    -0.146 A  
HETATM   15  C   UNL     1      -8.505   9.037  70.311  1.00  0.00    -0.180 A  
HETATM   16  C   UNL     1      -9.575   8.241  69.902  1.00  0.00    -0.171 A  
HETATM   17  C   UNL     1     -10.403   8.662  68.859  1.00  0.00    -0.228 A  
ENDBRANCH  11  12
ENDBRANCH   9  11
ENDBRANCH   8   9
TORSDOF 3
ENDMDL
MODEL      112
REMARK 921   NORMALIZED FREE ENERGY PREDICTED BY IDOCK:   -4.59 KCAL/MOL
REMARK 922        TOTAL FREE ENERGY PREDICTED BY IDOCK:   -5.74 KCAL/MOL
REMARK 923 INTER-LIGAND FREE ENERGY PREDICTED BY IDOCK:   -5.25 KCAL/MOL
REMARK 924 INTRA-LIGAND FREE ENERGY PREDICTED BY IDOCK:   -0.48 KCAL/MOL
REMARK 927      BINDING AFFINITY PREDICTED BY RF-SCORE:    0.00 PKD
ROOT
HETATM    1  O   UNL     1      -9.742  20.765  66.985  1.00  0.00    -0.633 OA 
HETATM    2  C   UNL     1      -8.663  19.935  66.867  1.00  0.00    -0.340 A  
HETATM    3  H   UNL     1     -10.607  20.395  66.852  1.00  0.00     0.000 HD 
HETATM    4  C   UNL     1      -7.388  20.480  67.063  1.00  0.00    -0.372 A  
HETATM    5  C   UNL     1      -6.254  19.675  66.954  1.00  0.00    -0.190 A  
HETATM    6  C   UNL     1      -6.387  18.324  66.653  1.00  0.00    -0.215 A  
HETATM    7  C   UNL     1      -7.658  17.778  66.458  1.00  0.00    -0.291 A  
HETATM    8  C   UNL     1      -8.815  18.576  66.559  1.00  0.00    -0.301 A  
ENDROOT
BRANCH   8   9
HETATM    9  C   UNL     1     -10.117  17.871  66.353  1.00  0.00    -0.369 C  
HETATM   10  O   UNL     1     -10.627  17.772  65.243  1.00  0.00    -0.651 OA 
BRANCH   9  11
HETATM   11  O   UNL     1     -10.613  17.341  67.527  1.00  0.00    -0.354 OA 
BRANCH  11  12
HETATM   12  C   UNL     1     -10.651  15.942  67.656  1.00  0.00    -0.307 A  
HETATM   13  C   UNL     1     -11.650  15.183  67.046  1.00  0.00    -0.179 A  
HETATM   14  C   UNL     1     -11.599  13.792  67.120  1.00  0.00    -0.392 A  
HETATM   15  C   UNL     1     -10.540  13.168  67.781  1.00  0.00    -0.242 A  
HETATM   16  C   UNL     1      -9.533  13.932  68.371  1.00  0.00    -0.211 A  
HETATM   17  C   UNL     1      -9.582  15.326  68.306  1.00  0.00    -0.206 A  
ENDBRANCH  11  12
ENDBRANCH   9  11
ENDBRANCH   8   9
TORSDOF 3
ENDMDL
MODEL      113
REMARK 921   NORMALIZED FREE ENERGY PREDICTED BY IDOCK:   -4.59 KCAL/MOL
REMARK 922        TOTAL FREE ENERGY PREDICTED BY IDOCK:   -5.73 KCAL/MOL
REMARK 923 INTER-LIGAND FREE ENERGY PREDICTED BY IDOCK:   -5.14 KCAL/MOL
REMARK 924 INTRA-LIGAND FREE ENERGY PREDICTED BY IDOCK:   -0.60 KCAL/MOL
REMARK 927      BINDING AFFINITY PREDICTED BY RF-SCORE:    0.00 PKD
ROOT
HETATM    1  O   UNL     1      -9.357  14.203  67.982  1.00  0.00    -0.190 OA 
HETATM    2  C   UNL     1     -10.344  14.586  68.845  1.00  0.00    -0.237 A  
HETATM    3  H   UNL     1      -9.492  13.412  67.472  1.00  0.00     0.000 HD 
HETATM    4  C   UNL     1     -10.145  15.751  69.596  1.00  0.00    -0.289 A  
HETATM    5  C   UNL     1     -11.122  16.186  70.493  1.00  0.00    -0.338 A  
HETATM    6  C   UNL     1     -12.300  15.464  70.641  1.00  0.00    -0.451 A  
HETATM    7  C   UNL     1     -12.501  14.302  69.893  1.00  0.00    -0.315 A  
HETATM    8  C   UNL     1     -11.524  13.843  68.986  1.00  0.00    -0.341 A  
ENDROOT
BRANCH   8   9
HETATM    9  C   UNL     1     -11.866  12.602  68.227  1.00  0.00    -0.306 C  
HETATM   10  O   UNL     1     -11.525  12.447  67.060  1.00  0.00    -0.315 OA 
BRANCH   9  11
HETATM   11  O   UNL     1     -12.550  11.688  69.003  1.00  0.00    -0.120 OA 
BRANCH  11  12
HETATM   12  C   UNL     1     -11.800  10.785  69.776  1.00  0.00    -0.335 A  
HETATM   13  C   UNL     1     -10.458  10.527  69.493  1.00  0.00    -0.265 A  
HETATM   14  C   UNL     1      -9.723   9.698  70.339  1.00  0.00    -0.304 A  
HETATM   15  C   UNL     1     -10.326   9.150  71.473  1.00  0.00    -0.414 A  
HETATM   16  C   UNL     1     -11.663   9.429  71.761  1.00  0.00    -0.444 A  
HETATM   17  C   UNL     1     -12.406  10.254  70.914  1.00  0.00    -0.471 A  
ENDBRANCH  11  12
ENDBRANCH   9  11
ENDBRANCH   8   9
TORSDOF 3
ENDMDL
MODEL      114
REMARK 921   NORMALIZED FREE ENERGY PREDICTED BY IDOCK:   -4.57 KCAL/MOL
REMARK 922        TOTAL FREE ENERGY PREDICTED BY IDOCK:   -5.72 KCAL/MOL
REMARK 923 INTER-LIGAND FREE ENERGY PREDICTED BY IDOCK:   -5.10 KCAL/MOL
REMARK 924 INTRA-LIGAND FREE ENERGY PREDICTED BY IDOCK:   -0.62 KCAL/MOL
REMARK 927      BINDING AFFINITY PREDICTED BY RF-SCORE:    0.00 PKD
ROOT
HETATM    1  O   UNL     1      -9.048  16.174  65.623  1.00  0.00    -0.394 OA 
HETATM    2  C   UNL     1      -9.498  16.192  66.913  1.00  0.00    -0.230 A  
HETATM    3  H   UNL     1      -8.670  15.367  65.293  1.00  0.00     0.000 HD 
HETATM    4  C   UNL     1     -10.055  17.382  67.399  1.00  0.00    -0.321 A  
HETATM    5  C   UNL     1     -10.529  17.454  68.709  1.00  0.00    -0.333 A  
HETATM    6  C   UNL     1     -10.454  16.340  69.537  1.00  0.00    -0.299 A  
HETATM    7  C   UNL     1      -9.899  15.153  69.054  1.00  0.00    -0.238 A  
HETATM    8  C   UNL     1      -9.409  15.061  67.736  1.00  0.00    -0.186 A  
ENDROOT
BRANCH   8   9
HETATM    9  C   UNL     1      -8.863  13.731  67.330  1.00  0.00    -0.210 C  
HETATM   10  O   UNL     1      -7.662  13.553  67.161  1.00  0.00    -0.111 OA 
BRANCH   9  11
HETATM   11  O   UNL     1      -9.850  12.773  67.220  1.00  0.00    -0.202 OA 
BRANCH  11  12
HETATM   12  C   UNL     1     -10.628  12.756  66.050  1.00  0.00    -0.268 A  
HETATM   13  C   UNL     1     -10.180  12.122  64.890  1.00  0.00    -0.309 A  
HETATM   14  C   UNL     1     -11.020  12.046  63.780  1.00  0.00    -0.492 A  
HETATM   15  C   UNL     1     -12.307  12.581  63.842  1.00  0.00    -0.576 A  
HETATM   16  C   UNL     1     -12.757  13.195  65.012  1.00  0.00    -0.456 A  
HETATM   17  C   UNL     1     -11.918  13.281  66.126  1.00  0.00    -0.470 A  
ENDBRANCH  11  12
ENDBRANCH   9  11
ENDBRANCH   8   9
TORSDOF 3
ENDMDL
MODEL      115
REMARK 921   NORMALIZED FREE ENERGY PREDICTED BY IDOCK:   -4.55 KCAL/MOL
REMARK 922        TOTAL FREE ENERGY PREDICTED BY IDOCK:   -5.69 KCAL/MOL
REMARK 923 INTER-LIGAND FREE ENERGY PREDICTED BY IDOCK:   -4.94 KCAL/MOL
REMARK 924 INTRA-LIGAND FREE ENERGY PREDICTED BY IDOCK:   -0.75 KCAL/MOL
REMARK 927      BINDING AFFINITY PREDICTED BY RF-SCORE:    0.00 PKD
ROOT
HETATM    1  O   UNL     1     -12.331  15.024  69.187  1.00  0.00    -0.559 OA 
HETATM    2  C   UNL     1     -12.522  13.908  69.952  1.00  0.00    -0.229 A  
HETATM    3  H   UNL     1     -11.938  14.915  68.328  1.00  0.00     0.000 HD 
HETATM    4  C   UNL     1     -13.100  14.068  71.217  1.00  0.00    -0.399 A  
HETATM    5  C   UNL     1     -13.317  12.961  72.038  1.00  0.00    -0.579 A  
HETATM    6  C   UNL     1     -12.962  11.691  71.599  1.00  0.00    -0.483 A  
HETATM    7  C   UNL     1     -12.386  11.528  70.336  1.00  0.00    -0.390 A  
HETATM    8  C   UNL     1     -12.154  12.635  69.495  1.00  0.00    -0.253 A  
ENDROOT
BRANCH   8   9
HETATM    9  C   UNL     1     -11.556  12.329  68.160  1.00  0.00    -0.339 C  
HETATM   10  O   UNL     1     -11.887  11.340  67.517  1.00  0.00    -0.613 OA 
BRANCH   9  11
HETATM   11  O   UNL     1     -10.654  13.295  67.760  1.00  0.00    -0.235 OA 
BRANCH  11  12
HETATM   12  C   UNL     1      -9.345  13.228  68.266  1.00  0.00    -0.205 A  
HETATM   13  C   UNL     1      -8.680  12.008  68.400  1.00  0.00    -0.147 A  
HETATM   14  C   UNL     1      -7.350  11.992  68.817  1.00  0.00    -0.098 A  
HETATM   15  C   UNL     1      -6.686  13.192  69.075  1.00  0.00    -0.103 A  
HETATM   16  C   UNL     1      -7.350  14.410  68.919  1.00  0.00    -0.127 A  
HETATM   17  C   UNL     1      -8.685  14.432  68.508  1.00  0.00    -0.180 A  
ENDBRANCH  11  12
ENDBRANCH   9  11
ENDBRANCH   8   9
TORSDOF 3
ENDMDL
MODEL      116
REMARK 921   NORMALIZED FREE ENERGY PREDICTED BY IDOCK:   -4.55 KCAL/MOL
REMARK 922        TOTAL FREE ENERGY PREDICTED BY IDOCK:   -5.69 KCAL/MOL
REMARK 923 INTER-LIGAND FREE ENERGY PREDICTED BY IDOCK:   -5.36 KCAL/MOL
REMARK 924 INTRA-LIGAND FREE ENERGY PREDICTED BY IDOCK:   -0.33 KCAL/MOL
REMARK 927      BINDING AFFINITY PREDICTED BY RF-SCORE:    0.00 PKD
ROOT
HETATM    1  O   UNL     1     -12.311  14.541  67.241  1.00  0.00    -0.602 OA 
HETATM    2  C   UNL     1     -12.129  13.784  66.119  1.00  0.00    -0.441 A  
HETATM    3  H   UNL     1     -12.135  14.140  68.085  1.00  0.00     0.000 HD 
HETATM    4  C   UNL     1     -12.389  14.374  64.876  1.00  0.00    -0.414 A  
HETATM    5  C   UNL     1     -12.220  13.644  63.700  1.00  0.00    -0.376 A  
HETATM    6  C   UNL     1     -11.787  12.324  63.758  1.00  0.00    -0.587 A  
HETATM    7  C   UNL     1     -11.527  11.733  64.997  1.00  0.00    -0.253 A  
HETATM    8  C   UNL     1     -11.697  12.452  66.197  1.00  0.00    -0.460 A  
ENDROOT
BRANCH   8   9
HETATM    9  C   UNL     1     -11.363  11.718  67.455  1.00  0.00    -0.311 C  
HETATM   10  O   UNL     1     -12.235  11.302  68.208  1.00  0.00    -0.611 OA 
BRANCH   9  11
HETATM   11  O   UNL     1     -10.002  11.551  67.614  1.00  0.00    -0.180 OA 
BRANCH  11  12
HETATM   12  C   UNL     1      -9.396  10.441  67.001  1.00  0.00    -0.154 A  
HETATM   13  C   UNL     1      -9.965   9.169  67.077  1.00  0.00    -0.294 A  
HETATM   14  C   UNL     1      -9.384   8.112  66.377  1.00  0.00    -0.269 A  
HETATM   15  C   UNL     1      -8.255   8.337  65.588  1.00  0.00    -0.134 A  
HETATM   16  C   UNL     1      -7.703   9.616  65.499  1.00  0.00    -0.112 A  
HETATM   17  C   UNL     1      -8.276  10.677  66.203  1.00  0.00    -0.156 A  
ENDBRANCH  11  12
ENDBRANCH   9  11
ENDBRANCH   8   9
TORSDOF 3
ENDMDL
MODEL      117
REMARK 921   NORMALIZED FREE ENERGY PREDICTED BY IDOCK:   -4.54 KCAL/MOL
REMARK 922        TOTAL FREE ENERGY PREDICTED BY IDOCK:   -5.68 KCAL/MOL
REMARK 923 INTER-LIGAND FREE ENERGY PREDICTED BY IDOCK:   -5.05 KCAL/MOL
REMARK 924 INTRA-LIGAND FREE ENERGY PREDICTED BY IDOCK:   -0.63 KCAL/MOL
REMARK 927      BINDING AFFINITY PREDICTED BY RF-SCORE:    0.00 PKD
ROOT
HETATM    1  O   UNL     1      -8.414  11.625  69.073  1.00  0.00    -0.362 OA 
HETATM    2  C   UNL     1      -8.752  10.686  68.141  1.00  0.00    -0.130 A  
HETATM    3  H   UNL     1      -9.107  12.165  69.436  1.00  0.00     0.000 HD 
HETATM    4  C   UNL     1      -7.731   9.891  67.606  1.00  0.00    -0.091 A  
HETATM    5  C   UNL     1      -8.024   8.918  66.651  1.00  0.00    -0.103 A  
HETATM    6  C   UNL     1      -9.335   8.731  66.228  1.00  0.00    -0.283 A  
HETATM    7  C   UNL     1     -10.355   9.522  66.760  1.00  0.00    -0.298 A  
HETATM    8  C   UNL     1     -10.079  10.514  67.722  1.00  0.00    -0.205 A  
ENDROOT
BRANCH   8   9
HETATM    9  C   UNL     1     -11.258  11.278  68.233  1.00  0.00    -0.267 C  
HETATM   10  O   UNL     1     -11.365  11.582  69.416  1.00  0.00    -0.252 OA 
BRANCH   9  11
HETATM   11  O   UNL     1     -12.141  11.609  67.225  1.00  0.00    -0.595 OA 
BRANCH  11  12
HETATM   12  C   UNL     1     -11.870  12.756  66.459  1.00  0.00    -0.405 A  
HETATM   13  C   UNL     1     -11.057  13.780  66.948  1.00  0.00    -0.311 A  
HETATM   14  C   UNL     1     -10.735  14.856  66.122  1.00  0.00    -0.317 A  
HETATM   15  C   UNL     1     -11.208  14.892  64.809  1.00  0.00    -0.393 A  
HETATM   16  C   UNL     1     -12.003  13.855  64.320  1.00  0.00    -0.477 A  
HETATM   17  C   UNL     1     -12.333  12.777  65.144  1.00  0.00    -0.555 A  
ENDBRANCH  11  12
ENDBRANCH   9  11
ENDBRANCH   8   9
TORSDOF 3
ENDMDL
MODEL      118
REMARK 921   NORMALIZED FREE ENERGY PREDICTED BY IDOCK:   -4.53 KCAL/MOL
REMARK 922        TOTAL FREE ENERGY PREDICTED BY IDOCK:   -5.67 KCAL/MOL
REMARK 923 INTER-LIGAND FREE ENERGY PREDICTED BY IDOCK:   -5.10 KCAL/MOL
REMARK 924 INTRA-LIGAND FREE ENERGY PREDICTED BY IDOCK:   -0.57 KCAL/MOL
REMARK 927      BINDING AFFINITY PREDICTED BY RF-SCORE:    0.00 PKD
ROOT
HETATM    1  O   UNL     1      -9.107  13.871  68.819  1.00  0.00    -0.346 OA 
HETATM    2  C   UNL     1      -9.466  13.424  67.579  1.00  0.00    -0.219 A  
HETATM    3  H   UNL     1      -9.432  14.719  69.100  1.00  0.00     0.000 HD 
HETATM    4  C   UNL     1      -8.987  12.175  67.165  1.00  0.00    -0.189 A  
HETATM    5  C   UNL     1      -9.324  11.673  65.908  1.00  0.00    -0.232 A  
HETATM    6  C   UNL     1     -10.141  12.411  65.061  1.00  0.00    -0.269 A  
HETATM    7  C   UNL     1     -10.621  13.657  65.472  1.00  0.00    -0.300 A  
HETATM    8  C   UNL     1     -10.287  14.184  66.736  1.00  0.00    -0.274 A  
ENDROOT
BRANCH   8   9
HETATM    9  C   UNL     1     -10.882  15.515  67.069  1.00  0.00    -0.314 C  
HETATM   10  O   UNL     1     -11.493  15.703  68.115  1.00  0.00    -0.352 OA 
BRANCH   9  11
HETATM   11  O   UNL     1     -10.620  16.460  66.098  1.00  0.00    -0.311 OA 
BRANCH  11  12
HETATM   12  C   UNL     1      -9.907  17.612  66.472  1.00  0.00    -0.319 A  
HETATM   13  C   UNL     1     -10.347  18.887  66.115  1.00  0.00    -0.517 A  
HETATM   14  C   UNL     1      -9.665  20.008  66.584  1.00  0.00    -0.566 A  
HETATM   15  C   UNL     1      -8.562  19.850  67.426  1.00  0.00    -0.392 A  
HETATM   16  C   UNL     1      -8.139  18.573  67.797  1.00  0.00    -0.264 A  
HETATM   17  C   UNL     1      -8.815  17.446  67.324  1.00  0.00    -0.238 A  
ENDBRANCH  11  12
ENDBRANCH   9  11
ENDBRANCH   8   9
TORSDOF 3
ENDMDL
MODEL      119
REMARK 921   NORMALIZED FREE ENERGY PREDICTED BY IDOCK:   -4.53 KCAL/MOL
REMARK 922        TOTAL FREE ENERGY PREDICTED BY IDOCK:   -5.67 KCAL/MOL
REMARK 923 INTER-LIGAND FREE ENERGY PREDICTED BY IDOCK:   -5.50 KCAL/MOL
REMARK 924 INTRA-LIGAND FREE ENERGY PREDICTED BY IDOCK:   -0.17 KCAL/MOL
REMARK 927      BINDING AFFINITY PREDICTED BY RF-SCORE:    0.00 PKD
ROOT
HETATM    1  O   UNL     1      -8.519  10.841  64.734  1.00  0.00    -0.305 OA 
HETATM    2  C   UNL     1      -9.770  11.388  64.783  1.00  0.00    -0.244 A  
HETATM    3  H   UNL     1      -8.048  10.729  65.551  1.00  0.00     0.000 HD 
HETATM    4  C   UNL     1     -10.465  11.553  63.579  1.00  0.00    -0.486 A  
HETATM    5  C   UNL     1     -11.745  12.107  63.575  1.00  0.00    -0.579 A  
HETATM    6  C   UNL     1     -12.339  12.494  64.770  1.00  0.00    -0.544 A  
HETATM    7  C   UNL     1     -11.648  12.330  65.973  1.00  0.00    -0.451 A  
HETATM    8  C   UNL     1     -10.351  11.778  65.998  1.00  0.00    -0.276 A  
ENDROOT
BRANCH   8   9
HETATM    9  C   UNL     1      -9.727  11.631  67.348  1.00  0.00    -0.176 C  
HETATM   10  O   UNL     1      -8.577  11.994  67.568  1.00  0.00    -0.152 OA 
BRANCH   9  11
HETATM   11  O   UNL     1     -10.601  11.094  68.271  1.00  0.00    -0.173 OA 
BRANCH  11  12
HETATM   12  C   UNL     1     -11.180  11.959  69.215  1.00  0.00    -0.242 A  
HETATM   13  C   UNL     1     -11.053  13.344  69.104  1.00  0.00    -0.261 A  
HETATM   14  C   UNL     1     -11.720  14.171  70.007  1.00  0.00    -0.358 A  
HETATM   15  C   UNL     1     -12.526  13.611  70.999  1.00  0.00    -0.456 A  
HETATM   16  C   UNL     1     -12.666  12.225  71.092  1.00  0.00    -0.340 A  
HETATM   17  C   UNL     1     -11.995  11.392  70.194  1.00  0.00    -0.460 A  
ENDBRANCH  11  12
ENDBRANCH   9  11
ENDBRANCH   8   9
TORSDOF 3
ENDMDL
MODEL      120
REMARK 921   NORMALIZED FREE ENERGY PREDICTED BY IDOCK:   -4.53 KCAL/MOL
REMARK 922        TOTAL FREE ENERGY PREDICTED BY IDOCK:   -5.67 KCAL/MOL
REMARK 923 INTER-LIGAND FREE ENERGY PREDICTED BY IDOCK:   -5.18 KCAL/MOL
REMARK 924 INTRA-LIGAND FREE ENERGY PREDICTED BY IDOCK:   -0.48 KCAL/MOL
REMARK 927      BINDING AFFINITY PREDICTED BY RF-SCORE:    0.00 PKD
ROOT
HETATM    1  O   UNL     1     -10.426  18.928  69.218  1.00  0.00    -0.430 OA 
HETATM    2  C   UNL     1      -9.567  18.735  68.174  1.00  0.00    -0.332 A  
HETATM    3  H   UNL     1     -10.735  18.164  69.691  1.00  0.00     0.000 HD 
HETATM    4  C   UNL     1      -9.112  19.862  67.478  1.00  0.00    -0.432 A  
HETATM    5  C   UNL     1      -8.234  19.719  66.404  1.00  0.00    -0.371 A  
HETATM    6  C   UNL     1      -7.802  18.454  66.023  1.00  0.00    -0.175 A  
HETATM    7  C   UNL     1      -8.253  17.328  66.716  1.00  0.00    -0.279 A  
HETATM    8  C   UNL     1      -9.145  17.451  67.800  1.00  0.00    -0.243 A  
ENDROOT
BRANCH   8   9
HETATM    9  C   UNL     1      -9.536  16.177  68.476  1.00  0.00    -0.216 C  
HETATM   10  O   UNL     1      -8.760  15.571  69.206  1.00  0.00    -0.231 OA 
BRANCH   9  11
HETATM   11  O   UNL     1     -10.842  15.823  68.206  1.00  0.00    -0.278 OA 
BRANCH  11  12
HETATM   12  C   UNL     1     -11.556  15.123  69.193  1.00  0.00    -0.323 A  
HETATM   13  C   UNL     1     -11.546  13.728  69.246  1.00  0.00    -0.362 A  
HETATM   14  C   UNL     1     -12.188  13.074  70.296  1.00  0.00    -0.368 A  
HETATM   15  C   UNL     1     -12.816  13.816  71.298  1.00  0.00    -0.434 A  
HETATM   16  C   UNL     1     -12.804  15.210  71.251  1.00  0.00    -0.461 A  
HETATM   17  C   UNL     1     -12.168  15.871  70.198  1.00  0.00    -0.244 A  
ENDBRANCH  11  12
ENDBRANCH   9  11
ENDBRANCH   8   9
TORSDOF 3
ENDMDL
MODEL      121
REMARK 921   NORMALIZED FREE ENERGY PREDICTED BY IDOCK:   -4.53 KCAL/MOL
REMARK 922        TOTAL FREE ENERGY PREDICTED BY IDOCK:   -5.66 KCAL/MOL
REMARK 923 INTER-LIGAND FREE ENERGY PREDICTED BY IDOCK:   -5.17 KCAL/MOL
REMARK 924 INTRA-LIGAND FREE ENERGY PREDICTED BY IDOCK:   -0.50 KCAL/MOL
REMARK 927      BINDING AFFINITY PREDICTED BY RF-SCORE:    0.00 PKD
ROOT
HETATM    1  O   UNL     1     -11.897  13.847  69.021  1.00  0.00    -0.315 OA 
HETATM    2  C   UNL     1     -11.617  13.568  67.713  1.00  0.00    -0.339 A  
HETATM    3  H   UNL     1     -11.951  13.120  69.631  1.00  0.00     0.000 HD 
HETATM    4  C   UNL     1     -11.538  14.639  66.814  1.00  0.00    -0.370 A  
HETATM    5  C   UNL     1     -11.256  14.408  65.468  1.00  0.00    -0.330 A  
HETATM    6  C   UNL     1     -11.046  13.111  65.014  1.00  0.00    -0.322 A  
HETATM    7  C   UNL     1     -11.124  12.042  65.909  1.00  0.00    -0.369 A  
HETATM    8  C   UNL     1     -11.414  12.254  67.272  1.00  0.00    -0.426 A  
ENDROOT
BRANCH   8   9
HETATM    9  C   UNL     1     -11.445  11.032  68.133  1.00  0.00    -0.302 C  
HETATM   10  O   UNL     1     -12.408  10.771  68.845  1.00  0.00    -0.433 OA 
BRANCH   9  11
HETATM   11  O   UNL     1     -10.309  10.262  67.985  1.00  0.00    -0.162 OA 
BRANCH  11  12
HETATM   12  C   UNL     1     -10.443   8.865  68.060  1.00  0.00    -0.208 A  
HETATM   13  C   UNL     1     -10.555   8.211  69.287  1.00  0.00    -0.191 A  
HETATM   14  C   UNL     1     -10.781   6.836  69.316  1.00  0.00    -0.288 A  
HETATM   15  C   UNL     1     -10.917   6.127  68.121  1.00  0.00    -0.398 A  
HETATM   16  C   UNL     1     -10.825   6.791  66.896  1.00  0.00    -0.402 A  
HETATM   17  C   UNL     1     -10.593   8.168  66.861  1.00  0.00    -0.311 A  
ENDBRANCH  11  12
ENDBRANCH   9  11
ENDBRANCH   8   9
TORSDOF 3
ENDMDL
MODEL      122
REMARK 921   NORMALIZED FREE ENERGY PREDICTED BY IDOCK:   -4.51 KCAL/MOL
REMARK 922        TOTAL FREE ENERGY PREDICTED BY IDOCK:   -5.65 KCAL/MOL
REMARK 923 INTER-LIGAND FREE ENERGY PREDICTED BY IDOCK:   -4.91 KCAL/MOL
REMARK 924 INTRA-LIGAND FREE ENERGY PREDICTED BY IDOCK:   -0.73 KCAL/MOL
REMARK 927      BINDING AFFINITY PREDICTED BY RF-SCORE:    0.00 PKD
ROOT
HETATM    1  O   UNL     1      -8.245  11.972  68.906  1.00  0.00    -0.342 OA 
HETATM    2  C   UNL     1      -8.544  10.815  68.244  1.00  0.00    -0.135 A  
HETATM    3  H   UNL     1      -8.965  12.492  69.243  1.00  0.00     0.000 HD 
HETATM    4  C   UNL     1      -7.482  10.048  67.747  1.00  0.00    -0.089 A  
HETATM    5  C   UNL     1      -7.733   8.858  67.063  1.00  0.00    -0.098 A  
HETATM    6  C   UNL     1      -9.041   8.426  66.876  1.00  0.00    -0.179 A  
HETATM    7  C   UNL     1     -10.101   9.189  67.372  1.00  0.00    -0.289 A  
HETATM    8  C   UNL     1      -9.869  10.397  68.060  1.00  0.00    -0.170 A  
ENDROOT
BRANCH   8   9
HETATM    9  C   UNL     1     -11.083  11.109  68.563  1.00  0.00    -0.244 C  
HETATM   10  O   UNL     1     -11.984  11.456  67.809  1.00  0.00    -0.637 OA 
BRANCH   9  11
HETATM   11  O   UNL     1     -11.060  11.273  69.934  1.00  0.00    -0.217 OA 
BRANCH  11  12
HETATM   12  C   UNL     1     -11.543  10.223  70.733  1.00  0.00    -0.355 A  
HETATM   13  C   UNL     1     -10.691   9.231  71.220  1.00  0.00    -0.422 A  
HETATM   14  C   UNL     1     -11.190   8.260  72.087  1.00  0.00    -0.413 A  
HETATM   15  C   UNL     1     -12.529   8.298  72.479  1.00  0.00    -0.300 A  
HETATM   16  C   UNL     1     -13.371   9.305  72.004  1.00  0.00    -0.518 A  
HETATM   17  C   UNL     1     -12.878  10.277  71.131  1.00  0.00    -0.504 A  
ENDBRANCH  11  12
ENDBRANCH   9  11
ENDBRANCH   8   9
TORSDOF 3
ENDMDL
MODEL      123
REMARK 921   NORMALIZED FREE ENERGY PREDICTED BY IDOCK:   -4.51 KCAL/MOL
REMARK 922        TOTAL FREE ENERGY PREDICTED BY IDOCK:   -5.64 KCAL/MOL
REMARK 923 INTER-LIGAND FREE ENERGY PREDICTED BY IDOCK:   -5.06 KCAL/MOL
REMARK 924 INTRA-LIGAND FREE ENERGY PREDICTED BY IDOCK:   -0.58 KCAL/MOL
REMARK 927      BINDING AFFINITY PREDICTED BY RF-SCORE:    0.00 PKD
ROOT
HETATM    1  O   UNL     1     -11.466   7.015  68.892  1.00  0.00    -0.503 OA 
HETATM    2  C   UNL     1     -11.241   7.256  70.218  1.00  0.00    -0.262 A  
HETATM    3  H   UNL     1     -11.274   7.709  68.273  1.00  0.00     0.000 HD 
HETATM    4  C   UNL     1     -11.525   6.232  71.131  1.00  0.00    -0.362 A  
HETATM    5  C   UNL     1     -11.313   6.427  72.495  1.00  0.00    -0.299 A  
HETATM    6  C   UNL     1     -10.814   7.641  72.955  1.00  0.00    -0.446 A  
HETATM    7  C   UNL     1     -10.529   8.663  72.046  1.00  0.00    -0.422 A  
HETATM    8  C   UNL     1     -10.742   8.487  70.664  1.00  0.00    -0.251 A  
ENDROOT
BRANCH   8   9
HETATM    9  C   UNL     1     -10.376   9.645  69.792  1.00  0.00    -0.241 C  
HETATM   10  O   UNL     1      -9.272  10.173  69.853  1.00  0.00    -0.192 OA 
BRANCH   9  11
HETATM   11  O   UNL     1     -11.396   9.987  68.926  1.00  0.00    -0.175 OA 
BRANCH  11  12
HETATM   12  C   UNL     1     -11.051  10.380  67.622  1.00  0.00    -0.293 A  
HETATM   13  C   UNL     1     -11.185  11.704  67.203  1.00  0.00    -0.371 A  
HETATM   14  C   UNL     1     -10.745  12.072  65.933  1.00  0.00    -0.314 A  
HETATM   15  C   UNL     1     -10.153  11.122  65.099  1.00  0.00    -0.335 A  
HETATM   16  C   UNL     1     -10.002   9.804  65.532  1.00  0.00    -0.329 A  
HETATM   17  C   UNL     1     -10.447   9.428  66.801  1.00  0.00    -0.265 A  
ENDBRANCH  11  12
ENDBRANCH   9  11
ENDBRANCH   8   9
TORSDOF 3
ENDMDL
MODEL      124
REMARK 921   NORMALIZED FREE ENERGY PREDICTED BY IDOCK:   -4.49 KCAL/MOL
REMARK 922        TOTAL FREE ENERGY PREDICTED BY IDOCK:   -5.63 KCAL/MOL
REMARK 923 INTER-LIGAND FREE ENERGY PREDICTED BY IDOCK:   -5.17 KCAL/MOL
REMARK 924 INTRA-LIGAND FREE ENERGY PREDICTED BY IDOCK:   -0.46 KCAL/MOL
REMARK 927      BINDING AFFINITY PREDICTED BY RF-SCORE:    0.00 PKD
ROOT
HETATM    1  O   UNL     1     -12.262  12.367  71.156  1.00  0.00    -0.335 OA 
HETATM    2  C   UNL     1     -12.012  13.612  70.654  1.00  0.00    -0.252 A  
HETATM    3  H   UNL     1     -12.228  11.629  70.559  1.00  0.00     0.000 HD 
HETATM    4  C   UNL     1     -12.063  14.700  71.534  1.00  0.00    -0.413 A  
HETATM    5  C   UNL     1     -11.816  15.993  71.071  1.00  0.00    -0.435 A  
HETATM    6  C   UNL     1     -11.513  16.205  69.731  1.00  0.00    -0.282 A  
HETATM    7  C   UNL     1     -11.461  15.121  68.851  1.00  0.00    -0.337 A  
HETATM    8  C   UNL     1     -11.713  13.809  69.298  1.00  0.00    -0.376 A  
ENDROOT
BRANCH   8   9
HETATM    9  C   UNL     1     -11.603  12.732  68.267  1.00  0.00    -0.334 C  
HETATM   10  O   UNL     1     -12.397  11.799  68.223  1.00  0.00    -0.379 OA 
BRANCH   9  11
HETATM   11  O   UNL     1     -10.558  12.954  67.393  1.00  0.00    -0.231 OA 
BRANCH  11  12
HETATM   12  C   UNL     1     -10.318  11.995  66.393  1.00  0.00    -0.216 A  
HETATM   13  C   UNL     1     -10.556  12.275  65.047  1.00  0.00    -0.322 A  
HETATM   14  C   UNL     1     -10.216  11.333  64.078  1.00  0.00    -0.403 A  
HETATM   15  C   UNL     1      -9.622  10.128  64.456  1.00  0.00    -0.376 A  
HETATM   16  C   UNL     1      -9.368   9.862  65.803  1.00  0.00    -0.259 A  
HETATM   17  C   UNL     1      -9.711  10.800  66.779  1.00  0.00    -0.221 A  
ENDBRANCH  11  12
ENDBRANCH   9  11
ENDBRANCH   8   9
TORSDOF 3
ENDMDL
MODEL      125
REMARK 921   NORMALIZED FREE ENERGY PREDICTED BY IDOCK:   -4.41 KCAL/MOL
REMARK 922        TOTAL FREE ENERGY PREDICTED BY IDOCK:   -5.53 KCAL/MOL
REMARK 923 INTER-LIGAND FREE ENERGY PREDICTED BY IDOCK:   -5.03 KCAL/MOL
REMARK 924 INTRA-LIGAND FREE ENERGY PREDICTED BY IDOCK:   -0.50 KCAL/MOL
REMARK 927      BINDING AFFINITY PREDICTED BY RF-SCORE:    0.00 PKD
ROOT
HETATM    1  O   UNL     1      -8.382  11.852  68.989  1.00  0.00    -0.364 OA 
HETATM    2  C   UNL     1      -9.445  12.028  68.150  1.00  0.00    -0.200 A  
HETATM    3  H   UNL     1      -8.541  11.441  69.832  1.00  0.00     0.000 HD 
HETATM    4  C   UNL     1      -9.211  12.634  66.909  1.00  0.00    -0.216 A  
HETATM    5  C   UNL     1     -10.263  12.837  66.015  1.00  0.00    -0.290 A  
HETATM    6  C   UNL     1     -11.550  12.433  66.353  1.00  0.00    -0.442 A  
HETATM    7  C   UNL     1     -11.785  11.828  67.589  1.00  0.00    -0.320 A  
HETATM    8  C   UNL     1     -10.737  11.619  68.508  1.00  0.00    -0.250 A  
ENDROOT
BRANCH   8   9
HETATM    9  C   UNL     1     -11.111  10.940  69.786  1.00  0.00    -0.262 C  
HETATM   10  O   UNL     1     -12.154  11.203  70.373  1.00  0.00    -0.326 OA 
BRANCH   9  11
HETATM   11  O   UNL     1     -10.180   9.995  70.166  1.00  0.00    -0.262 OA 
BRANCH  11  12
HETATM   12  C   UNL     1     -10.647   8.793  70.724  1.00  0.00    -0.220 A  
HETATM   13  C   UNL     1     -10.981   8.702  72.076  1.00  0.00    -0.432 A  
HETATM   14  C   UNL     1     -11.530   7.520  72.571  1.00  0.00    -0.376 A  
HETATM   15  C   UNL     1     -11.763   6.446  71.710  1.00  0.00    -0.376 A  
HETATM   16  C   UNL     1     -11.446   6.551  70.355  1.00  0.00    -0.465 A  
HETATM   17  C   UNL     1     -10.890   7.730  69.855  1.00  0.00    -0.228 A  
ENDBRANCH  11  12
ENDBRANCH   9  11
ENDBRANCH   8   9
TORSDOF 3
ENDMDL
MODEL      126
REMARK 921   NORMALIZED FREE ENERGY PREDICTED BY IDOCK:   -4.41 KCAL/MOL
REMARK 922        TOTAL FREE ENERGY PREDICTED BY IDOCK:   -5.53 KCAL/MOL
REMARK 923 INTER-LIGAND FREE ENERGY PREDICTED BY IDOCK:   -5.17 KCAL/MOL
REMARK 924 INTRA-LIGAND FREE ENERGY PREDICTED BY IDOCK:   -0.36 KCAL/MOL
REMARK 927      BINDING AFFINITY PREDICTED BY RF-SCORE:    0.00 PKD
ROOT
HETATM    1  O   UNL     1      -7.948  18.283  69.013  1.00  0.00    -0.220 OA 
HETATM    2  C   UNL     1      -7.479  18.878  67.876  1.00  0.00    -0.246 A  
HETATM    3  H   UNL     1      -8.321  17.412  68.941  1.00  0.00     0.000 HD 
HETATM    4  C   UNL     1      -6.930  20.162  67.983  1.00  0.00    -0.325 A  
HETATM    5  C   UNL     1      -6.437  20.813  66.853  1.00  0.00    -0.343 A  
HETATM    6  C   UNL     1      -6.485  20.186  65.613  1.00  0.00    -0.268 A  
HETATM    7  C   UNL     1      -7.031  18.905  65.504  1.00  0.00    -0.218 A  
HETATM    8  C   UNL     1      -7.539  18.233  66.634  1.00  0.00    -0.259 A  
ENDROOT
BRANCH   8   9
HETATM    9  C   UNL     1      -8.074  16.858  66.392  1.00  0.00    -0.315 C  
HETATM   10  O   UNL     1      -7.487  15.859  66.792  1.00  0.00    -0.218 OA 
BRANCH   9  11
HETATM   11  O   UNL     1      -9.283  16.879  65.726  1.00  0.00    -0.527 OA 
BRANCH  11  12
HETATM   12  C   UNL     1     -10.220  15.876  66.025  1.00  0.00    -0.334 A  
HETATM   13  C   UNL     1     -10.615  14.941  65.067  1.00  0.00    -0.446 A  
HETATM   14  C   UNL     1     -11.475  13.905  65.429  1.00  0.00    -0.316 A  
HETATM   15  C   UNL     1     -11.916  13.796  66.748  1.00  0.00    -0.465 A  
HETATM   16  C   UNL     1     -11.501  14.721  67.707  1.00  0.00    -0.363 A  
HETATM   17  C   UNL     1     -10.645  15.765  67.349  1.00  0.00    -0.313 A  
ENDBRANCH  11  12
ENDBRANCH   9  11
ENDBRANCH   8   9
TORSDOF 3
ENDMDL
MODEL      127
REMARK 921   NORMALIZED FREE ENERGY PREDICTED BY IDOCK:   -4.40 KCAL/MOL
REMARK 922        TOTAL FREE ENERGY PREDICTED BY IDOCK:   -5.52 KCAL/MOL
REMARK 923 INTER-LIGAND FREE ENERGY PREDICTED BY IDOCK:   -4.94 KCAL/MOL
REMARK 924 INTRA-LIGAND FREE ENERGY PREDICTED BY IDOCK:   -0.58 KCAL/MOL
REMARK 927      BINDING AFFINITY PREDICTED BY RF-SCORE:    0.00 PKD
ROOT
HETATM    1  O   UNL     1     -13.066  12.104  63.575  1.00  0.00    -0.785 OA 
HETATM    2  C   UNL     1     -12.272  12.708  64.509  1.00  0.00    -0.443 A  
HETATM    3  H   UNL     1     -12.658  11.504  62.962  1.00  0.00     0.000 HD 
HETATM    4  C   UNL     1     -12.873  13.593  65.412  1.00  0.00    -0.440 A  
HETATM    5  C   UNL     1     -12.106  14.236  66.384  1.00  0.00    -0.442 A  
HETATM    6  C   UNL     1     -10.740  13.995  66.463  1.00  0.00    -0.281 A  
HETATM    7  C   UNL     1     -10.138  13.111  65.564  1.00  0.00    -0.271 A  
HETATM    8  C   UNL     1     -10.894  12.457  64.571  1.00  0.00    -0.358 A  
ENDROOT
BRANCH   8   9
HETATM    9  C   UNL     1     -10.140  11.518  63.685  1.00  0.00    -0.388 C  
HETATM   10  O   UNL     1      -9.488  11.919  62.729  1.00  0.00    -0.315 OA 
BRANCH   9  11
HETATM   11  O   UNL     1     -10.248  10.207  64.105  1.00  0.00    -0.124 OA 
BRANCH  11  12
HETATM   12  C   UNL     1      -9.581   9.834  65.285  1.00  0.00    -0.300 A  
HETATM   13  C   UNL     1      -8.196   9.947  65.403  1.00  0.00    -0.139 A  
HETATM   14  C   UNL     1      -7.583   9.656  66.621  1.00  0.00    -0.098 A  
HETATM   15  C   UNL     1      -8.358   9.277  67.717  1.00  0.00    -0.116 A  
HETATM   16  C   UNL     1      -9.746   9.185  67.598  1.00  0.00    -0.198 A  
HETATM   17  C   UNL     1     -10.365   9.469  66.379  1.00  0.00    -0.243 A  
ENDBRANCH  11  12
ENDBRANCH   9  11
ENDBRANCH   8   9
TORSDOF 3
ENDMDL
MODEL      128
REMARK 921   NORMALIZED FREE ENERGY PREDICTED BY IDOCK:   -4.39 KCAL/MOL
REMARK 922        TOTAL FREE ENERGY PREDICTED BY IDOCK:   -5.51 KCAL/MOL
REMARK 923 INTER-LIGAND FREE ENERGY PREDICTED BY IDOCK:   -5.18 KCAL/MOL
REMARK 924 INTRA-LIGAND FREE ENERGY PREDICTED BY IDOCK:   -0.33 KCAL/MOL
REMARK 927      BINDING AFFINITY PREDICTED BY RF-SCORE:    0.00 PKD
ROOT
HETATM    1  O   UNL     1      -8.116  11.539  68.075  1.00  0.00    -0.123 OA 
HETATM    2  C   UNL     1      -8.637  10.715  69.032  1.00  0.00    -0.146 A  
HETATM    3  H   UNL     1      -8.720  12.022  67.524  1.00  0.00     0.000 HD 
HETATM    4  C   UNL     1      -7.746  10.003  69.845  1.00  0.00    -0.183 A  
HETATM    5  C   UNL     1      -8.227   9.148  70.836  1.00  0.00    -0.220 A  
HETATM    6  C   UNL     1      -9.597   9.002  71.024  1.00  0.00    -0.348 A  
HETATM    7  C   UNL     1     -10.487   9.712  70.215  1.00  0.00    -0.338 A  
HETATM    8  C   UNL     1     -10.021  10.577  69.204  1.00  0.00    -0.236 A  
ENDROOT
BRANCH   8   9
HETATM    9  C   UNL     1     -11.071  11.298  68.423  1.00  0.00    -0.240 C  
HETATM   10  O   UNL     1     -12.266  11.103  68.617  1.00  0.00    -0.582 OA 
BRANCH   9  11
HETATM   11  O   UNL     1     -10.529  12.197  67.527  1.00  0.00    -0.205 OA 
BRANCH  11  12
HETATM   12  C   UNL     1     -10.891  12.084  66.174  1.00  0.00    -0.286 A  
HETATM   13  C   UNL     1     -10.170  11.276  65.295  1.00  0.00    -0.328 A  
HETATM   14  C   UNL     1     -10.616  11.116  63.984  1.00  0.00    -0.436 A  
HETATM   15  C   UNL     1     -11.790  11.745  63.567  1.00  0.00    -0.481 A  
HETATM   16  C   UNL     1     -12.518  12.535  64.457  1.00  0.00    -0.539 A  
HETATM   17  C   UNL     1     -12.073  12.704  65.770  1.00  0.00    -0.484 A  
ENDBRANCH  11  12
ENDBRANCH   9  11
ENDBRANCH   8   9
TORSDOF 3
ENDMDL
MODEL      129
REMARK 921   NORMALIZED FREE ENERGY PREDICTED BY IDOCK:   -4.39 KCAL/MOL
REMARK 922        TOTAL FREE ENERGY PREDICTED BY IDOCK:   -5.51 KCAL/MOL
REMARK 923 INTER-LIGAND FREE ENERGY PREDICTED BY IDOCK:   -4.91 KCAL/MOL
REMARK 924 INTRA-LIGAND FREE ENERGY PREDICTED BY IDOCK:   -0.60 KCAL/MOL
REMARK 927      BINDING AFFINITY PREDICTED BY RF-SCORE:    0.00 PKD
ROOT
HETATM    1  O   UNL     1      -9.926  10.423  70.044  1.00  0.00    -0.418 OA 
HETATM    2  C   UNL     1     -11.010  10.044  70.784  1.00  0.00    -0.305 A  
HETATM    3  H   UNL     1      -9.237   9.784  69.902  1.00  0.00     0.000 HD 
HETATM    4  C   UNL     1     -12.025  10.986  70.994  1.00  0.00    -0.334 A  
HETATM    5  C   UNL     1     -13.153  10.649  71.742  1.00  0.00    -0.571 A  
HETATM    6  C   UNL     1     -13.276   9.373  72.279  1.00  0.00    -0.528 A  
HETATM    7  C   UNL     1     -12.265   8.432  72.070  1.00  0.00    -0.419 A  
HETATM    8  C   UNL     1     -11.115   8.754  71.322  1.00  0.00    -0.348 A  
ENDROOT
BRANCH   8   9
HETATM    9  C   UNL     1     -10.117   7.655  71.148  1.00  0.00    -0.184 C  
HETATM   10  O   UNL     1      -8.965   7.762  71.551  1.00  0.00    -0.128 OA 
BRANCH   9  11
HETATM   11  O   UNL     1     -10.666   6.545  70.537  1.00  0.00    -0.229 OA 
BRANCH  11  12
HETATM   12  C   UNL     1     -10.401   5.284  71.097  1.00  0.00    -0.221 A  
HETATM   13  C   UNL     1      -9.672   4.319  70.402  1.00  0.00    -0.280 A  
HETATM   14  C   UNL     1      -9.350   3.116  71.028  1.00  0.00    -0.214 A  
HETATM   15  C   UNL     1      -9.738   2.893  72.350  1.00  0.00    -0.217 A  
HETATM   16  C   UNL     1     -10.449   3.871  73.047  1.00  0.00    -0.253 A  
HETATM   17  C   UNL     1     -10.780   5.076  72.424  1.00  0.00    -0.262 A  
ENDBRANCH  11  12
ENDBRANCH   9  11
ENDBRANCH   8   9
TORSDOF 3
ENDMDL
MODEL      130
REMARK 921   NORMALIZED FREE ENERGY PREDICTED BY IDOCK:   -4.38 KCAL/MOL
REMARK 922        TOTAL FREE ENERGY PREDICTED BY IDOCK:   -5.49 KCAL/MOL
REMARK 923 INTER-LIGAND FREE ENERGY PREDICTED BY IDOCK:   -4.93 KCAL/MOL
REMARK 924 INTRA-LIGAND FREE ENERGY PREDICTED BY IDOCK:   -0.56 KCAL/MOL
REMARK 927      BINDING AFFINITY PREDICTED BY RF-SCORE:    0.00 PKD
ROOT
HETATM    1  O   UNL     1      -9.115  12.351  65.882  1.00  0.00    -0.431 OA 
HETATM    2  C   UNL     1     -10.177  12.511  65.038  1.00  0.00    -0.279 A  
HETATM    3  H   UNL     1      -8.798  13.114  66.351  1.00  0.00     0.000 HD 
HETATM    4  C   UNL     1     -10.644  11.387  64.346  1.00  0.00    -0.403 A  
HETATM    5  C   UNL     1     -11.726  11.496  63.473  1.00  0.00    -0.248 A  
HETATM    6  C   UNL     1     -12.349  12.725  63.289  1.00  0.00    -0.437 A  
HETATM    7  C   UNL     1     -11.887  13.848  63.980  1.00  0.00    -0.372 A  
HETATM    8  C   UNL     1     -10.791  13.759  64.862  1.00  0.00    -0.398 A  
ENDROOT
BRANCH   8   9
HETATM    9  C   UNL     1     -10.407  15.024  65.559  1.00  0.00    -0.373 C  
HETATM   10  O   UNL     1     -10.288  16.082  64.953  1.00  0.00    -0.543 OA 
BRANCH   9  11
HETATM   11  O   UNL     1     -10.253  14.843  66.919  1.00  0.00    -0.249 OA 
BRANCH  11  12
HETATM   12  C   UNL     1      -9.173  15.480  67.553  1.00  0.00    -0.198 A  
HETATM   13  C   UNL     1      -7.878  14.967  67.470  1.00  0.00    -0.203 A  
HETATM   14  C   UNL     1      -6.819  15.678  68.033  1.00  0.00    -0.145 A  
HETATM   15  C   UNL     1      -7.057  16.906  68.654  1.00  0.00    -0.203 A  
HETATM   16  C   UNL     1      -8.351  17.423  68.715  1.00  0.00    -0.223 A  
HETATM   17  C   UNL     1      -9.417  16.712  68.159  1.00  0.00    -0.228 A  
ENDBRANCH  11  12
ENDBRANCH   9  11
ENDBRANCH   8   9
TORSDOF 3
ENDMDL
MODEL      131
REMARK 921   NORMALIZED FREE ENERGY PREDICTED BY IDOCK:   -4.36 KCAL/MOL
REMARK 922        TOTAL FREE ENERGY PREDICTED BY IDOCK:   -5.47 KCAL/MOL
REMARK 923 INTER-LIGAND FREE ENERGY PREDICTED BY IDOCK:   -5.17 KCAL/MOL
REMARK 924 INTRA-LIGAND FREE ENERGY PREDICTED BY IDOCK:   -0.31 KCAL/MOL
REMARK 927      BINDING AFFINITY PREDICTED BY RF-SCORE:    0.00 PKD
ROOT
HETATM    1  O   UNL     1      -8.760  12.019  69.059  1.00  0.00    -0.360 OA 
HETATM    2  C   UNL     1      -9.073  10.692  68.985  1.00  0.00    -0.166 A  
HETATM    3  H   UNL     1      -9.469  12.640  69.180  1.00  0.00     0.000 HD 
HETATM    4  C   UNL     1      -8.027   9.777  68.806  1.00  0.00    -0.087 A  
HETATM    5  C   UNL     1      -8.293   8.411  68.723  1.00  0.00    -0.116 A  
HETATM    6  C   UNL     1      -9.601   7.950  68.823  1.00  0.00    -0.152 A  
HETATM    7  C   UNL     1     -10.645   8.860  69.002  1.00  0.00    -0.203 A  
HETATM    8  C   UNL     1     -10.398  10.245  69.082  1.00  0.00    -0.241 A  
ENDROOT
BRANCH   8   9
HETATM    9  C   UNL     1     -11.595  11.113  69.299  1.00  0.00    -0.318 C  
HETATM   10  O   UNL     1     -12.410  11.320  68.407  1.00  0.00    -0.545 OA 
BRANCH   9  11
HETATM   11  O   UNL     1     -11.666  11.589  70.592  1.00  0.00    -0.272 OA 
BRANCH  11  12
HETATM   12  C   UNL     1     -12.404  12.762  70.826  1.00  0.00    -0.287 A  
HETATM   13  C   UNL     1     -13.406  12.807  71.797  1.00  0.00    -0.436 A  
HETATM   14  C   UNL     1     -14.051  14.014  72.064  1.00  0.00    -0.600 A  
HETATM   15  C   UNL     1     -13.677  15.170  71.378  1.00  0.00    -0.577 A  
HETATM   16  C   UNL     1     -12.660  15.122  70.423  1.00  0.00    -0.405 A  
HETATM   17  C   UNL     1     -12.014  13.915  70.147  1.00  0.00    -0.402 A  
ENDBRANCH  11  12
ENDBRANCH   9  11
ENDBRANCH   8   9
TORSDOF 3
ENDMDL
MODEL      132
REMARK 921   NORMALIZED FREE ENERGY PREDICTED BY IDOCK:   -4.36 KCAL/MOL
REMARK 922        TOTAL FREE ENERGY PREDICTED BY IDOCK:   -5.47 KCAL/MOL
REMARK 923 INTER-LIGAND FREE ENERGY PREDICTED BY IDOCK:   -4.83 KCAL/MOL
REMARK 924 INTRA-LIGAND FREE ENERGY PREDICTED BY IDOCK:   -0.63 KCAL/MOL
REMARK 927      BINDING AFFINITY PREDICTED BY RF-SCORE:    0.00 PKD
ROOT
HETATM    1  O   UNL     1     -12.827   7.298  70.501  1.00  0.00    -0.590 OA 
HETATM    2  C   UNL     1     -11.584   7.606  70.977  1.00  0.00    -0.282 A  
HETATM    3  H   UNL     1     -12.920   7.126  69.571  1.00  0.00     0.000 HD 
HETATM    4  C   UNL     1     -11.448   7.860  72.347  1.00  0.00    -0.433 A  
HETATM    5  C   UNL     1     -10.201   8.180  72.883  1.00  0.00    -0.341 A  
HETATM    6  C   UNL     1      -9.085   8.243  72.057  1.00  0.00    -0.267 A  
HETATM    7  C   UNL     1      -9.218   7.990  70.690  1.00  0.00    -0.156 A  
HETATM    8  C   UNL     1     -10.471   7.671  70.128  1.00  0.00    -0.227 A  
ENDROOT
BRANCH   8   9
HETATM    9  C   UNL     1     -10.479   7.397  68.659  1.00  0.00    -0.189 C  
HETATM   10  O   UNL     1     -11.207   6.542  68.168  1.00  0.00    -0.275 OA 
BRANCH   9  11
HETATM   11  O   UNL     1      -9.625   8.233  67.968  1.00  0.00    -0.148 OA 
BRANCH  11  12
HETATM   12  C   UNL     1     -10.177   9.341  67.304  1.00  0.00    -0.252 A  
HETATM   13  C   UNL     1     -10.974  10.268  67.977  1.00  0.00    -0.345 A  
HETATM   14  C   UNL     1     -11.425  11.404  67.306  1.00  0.00    -0.301 A  
HETATM   15  C   UNL     1     -11.059  11.618  65.976  1.00  0.00    -0.325 A  
HETATM   16  C   UNL     1     -10.245  10.697  65.315  1.00  0.00    -0.351 A  
HETATM   17  C   UNL     1      -9.795   9.555  65.980  1.00  0.00    -0.353 A  
ENDBRANCH  11  12
ENDBRANCH   9  11
ENDBRANCH   8   9
TORSDOF 3
ENDMDL
MODEL      133
REMARK 921   NORMALIZED FREE ENERGY PREDICTED BY IDOCK:   -4.36 KCAL/MOL
REMARK 922        TOTAL FREE ENERGY PREDICTED BY IDOCK:   -5.47 KCAL/MOL
REMARK 923 INTER-LIGAND FREE ENERGY PREDICTED BY IDOCK:   -4.73 KCAL/MOL
REMARK 924 INTRA-LIGAND FREE ENERGY PREDICTED BY IDOCK:   -0.73 KCAL/MOL
REMARK 927      BINDING AFFINITY PREDICTED BY RF-SCORE:    0.00 PKD
ROOT
HETATM    1  O   UNL     1     -12.220  12.087  65.760  1.00  0.00    -0.520 OA 
HETATM    2  C   UNL     1     -11.466  13.058  66.355  1.00  0.00    -0.341 A  
HETATM    3  H   UNL     1     -11.932  11.185  65.842  1.00  0.00     0.000 HD 
HETATM    4  C   UNL     1     -11.890  14.387  66.234  1.00  0.00    -0.391 A  
HETATM    5  C   UNL     1     -11.156  15.417  66.823  1.00  0.00    -0.244 A  
HETATM    6  C   UNL     1     -10.001  15.126  67.538  1.00  0.00    -0.225 A  
HETATM    7  C   UNL     1      -9.576  13.801  67.661  1.00  0.00    -0.219 A  
HETATM    8  C   UNL     1     -10.301  12.747  67.069  1.00  0.00    -0.240 A  
ENDROOT
BRANCH   8   9
HETATM    9  C   UNL     1      -9.759  11.372  67.292  1.00  0.00    -0.185 C  
HETATM   10  O   UNL     1      -8.554  11.148  67.298  1.00  0.00    -0.135 OA 
BRANCH   9  11
HETATM   11  O   UNL     1     -10.759  10.449  67.521  1.00  0.00    -0.245 OA 
BRANCH  11  12
HETATM   12  C   UNL     1     -11.193  10.257  68.843  1.00  0.00    -0.207 A  
HETATM   13  C   UNL     1     -12.235  11.012  69.383  1.00  0.00    -0.329 A  
HETATM   14  C   UNL     1     -12.698  10.727  70.666  1.00  0.00    -0.417 A  
HETATM   15  C   UNL     1     -12.134   9.677  71.393  1.00  0.00    -0.472 A  
HETATM   16  C   UNL     1     -11.107   8.912  70.840  1.00  0.00    -0.328 A  
HETATM   17  C   UNL     1     -10.634   9.197  69.557  1.00  0.00    -0.233 A  
ENDBRANCH  11  12
ENDBRANCH   9  11
ENDBRANCH   8   9
TORSDOF 3
ENDMDL
MODEL      134
REMARK 921   NORMALIZED FREE ENERGY PREDICTED BY IDOCK:   -4.34 KCAL/MOL
REMARK 922        TOTAL FREE ENERGY PREDICTED BY IDOCK:   -5.45 KCAL/MOL
REMARK 923 INTER-LIGAND FREE ENERGY PREDICTED BY IDOCK:   -4.94 KCAL/MOL
REMARK 924 INTRA-LIGAND FREE ENERGY PREDICTED BY IDOCK:   -0.51 KCAL/MOL
REMARK 927      BINDING AFFINITY PREDICTED BY RF-SCORE:    0.00 PKD
ROOT
HETATM    1  O   UNL     1     -13.139   6.920  72.056  1.00  0.00    -0.526 OA 
HETATM    2  C   UNL     1     -12.856   8.235  71.816  1.00  0.00    -0.338 A  
HETATM    3  H   UNL     1     -12.584   6.262  71.654  1.00  0.00     0.000 HD 
HETATM    4  C   UNL     1     -13.675   9.204  72.408  1.00  0.00    -0.543 A  
HETATM    5  C   UNL     1     -13.428  10.560  72.194  1.00  0.00    -0.265 A  
HETATM    6  C   UNL     1     -12.363  10.955  71.393  1.00  0.00    -0.403 A  
HETATM    7  C   UNL     1     -11.544   9.990  70.802  1.00  0.00    -0.444 A  
HETATM    8  C   UNL     1     -11.780   8.615  71.001  1.00  0.00    -0.319 A  
ENDROOT
BRANCH   8   9
HETATM    9  C   UNL     1     -10.821   7.682  70.336  1.00  0.00    -0.244 C  
HETATM   10  O   UNL     1      -9.629   7.950  70.233  1.00  0.00    -0.171 OA 
BRANCH   9  11
HETATM   11  O   UNL     1     -11.433   6.519  69.915  1.00  0.00    -0.390 OA 
BRANCH  11  12
HETATM   12  C   UNL     1     -10.614   5.444  69.527  1.00  0.00    -0.246 A  
HETATM   13  C   UNL     1     -10.193   5.292  68.205  1.00  0.00    -0.200 A  
HETATM   14  C   UNL     1      -9.306   4.267  67.879  1.00  0.00    -0.200 A  
HETATM   15  C   UNL     1      -8.828   3.416  68.877  1.00  0.00    -0.164 A  
HETATM   16  C   UNL     1      -9.237   3.587  70.201  1.00  0.00    -0.224 A  
HETATM   17  C   UNL     1     -10.130   4.607  70.532  1.00  0.00    -0.263 A  
ENDBRANCH  11  12
ENDBRANCH   9  11
ENDBRANCH   8   9
TORSDOF 3
ENDMDL
MODEL      135
REMARK 921   NORMALIZED FREE ENERGY PREDICTED BY IDOCK:   -4.33 KCAL/MOL
REMARK 922        TOTAL FREE ENERGY PREDICTED BY IDOCK:   -5.44 KCAL/MOL
REMARK 923 INTER-LIGAND FREE ENERGY PREDICTED BY IDOCK:   -5.31 KCAL/MOL
REMARK 924 INTRA-LIGAND FREE ENERGY PREDICTED BY IDOCK:   -0.13 KCAL/MOL
REMARK 927      BINDING AFFINITY PREDICTED BY RF-SCORE:    0.00 PKD
ROOT
HETATM    1  O   UNL     1     -12.431  10.519  68.960  1.00  0.00    -0.770 OA 
HETATM    2  C   UNL     1     -11.268  10.193  69.597  1.00  0.00    -0.261 A  
HETATM    3  H   UNL     1     -13.251  10.262  69.367  1.00  0.00     0.000 HD 
HETATM    4  C   UNL     1     -10.060  10.572  68.998  1.00  0.00    -0.230 A  
HETATM    5  C   UNL     1      -8.844  10.263  69.607  1.00  0.00    -0.124 A  
HETATM    6  C   UNL     1      -8.827   9.579  70.817  1.00  0.00    -0.130 A  
HETATM    7  C   UNL     1     -10.030   9.201  71.417  1.00  0.00    -0.373 A  
HETATM    8  C   UNL     1     -11.269   9.499  70.815  1.00  0.00    -0.383 A  
ENDROOT
BRANCH   8   9
HETATM    9  C   UNL     1     -12.485   9.063  71.566  1.00  0.00    -0.331 C  
HETATM   10  O   UNL     1     -13.042   9.800  72.372  1.00  0.00    -0.388 OA 
BRANCH   9  11
HETATM   11  O   UNL     1     -12.891   7.793  71.209  1.00  0.00    -0.303 OA 
BRANCH  11  12
HETATM   12  C   UNL     1     -11.920   6.779  71.155  1.00  0.00    -0.370 A  
HETATM   13  C   UNL     1     -11.518   6.096  72.304  1.00  0.00    -0.360 A  
HETATM   14  C   UNL     1     -10.622   5.034  72.196  1.00  0.00    -0.259 A  
HETATM   15  C   UNL     1     -10.152   4.645  70.940  1.00  0.00    -0.257 A  
HETATM   16  C   UNL     1     -10.574   5.318  69.793  1.00  0.00    -0.283 A  
HETATM   17  C   UNL     1     -11.466   6.387  69.896  1.00  0.00    -0.483 A  
ENDBRANCH  11  12
ENDBRANCH   9  11
ENDBRANCH   8   9
TORSDOF 3
ENDMDL
MODEL      136
REMARK 921   NORMALIZED FREE ENERGY PREDICTED BY IDOCK:   -4.33 KCAL/MOL
REMARK 922        TOTAL FREE ENERGY PREDICTED BY IDOCK:   -5.43 KCAL/MOL
REMARK 923 INTER-LIGAND FREE ENERGY PREDICTED BY IDOCK:   -5.03 KCAL/MOL
REMARK 924 INTRA-LIGAND FREE ENERGY PREDICTED BY IDOCK:   -0.40 KCAL/MOL
REMARK 927      BINDING AFFINITY PREDICTED BY RF-SCORE:    0.00 PKD
ROOT
HETATM    1  O   UNL     1      -8.954   9.304  71.042  1.00  0.00    -0.225 OA 
HETATM    2  C   UNL     1     -10.311   9.339  71.187  1.00  0.00    -0.322 A  
HETATM    3  H   UNL     1      -8.563   9.843  70.363  1.00  0.00     0.000 HD 
HETATM    4  C   UNL     1     -10.887   8.544  72.186  1.00  0.00    -0.427 A  
HETATM    5  C   UNL     1     -12.269   8.544  72.376  1.00  0.00    -0.432 A  
HETATM    6  C   UNL     1     -13.081   9.337  71.574  1.00  0.00    -0.430 A  
HETATM    7  C   UNL     1     -12.509  10.131  70.578  1.00  0.00    -0.304 A  
HETATM    8  C   UNL     1     -11.116  10.142  70.366  1.00  0.00    -0.393 A  
ENDROOT
BRANCH   8   9
HETATM    9  C   UNL     1     -10.623  11.050  69.287  1.00  0.00    -0.201 C  
HETATM   10  O   UNL     1      -9.492  10.947  68.825  1.00  0.00    -0.183 OA 
BRANCH   9  11
HETATM   11  O   UNL     1     -11.590  11.947  68.879  1.00  0.00    -0.259 OA 
BRANCH  11  12
HETATM   12  C   UNL     1     -11.380  13.311  69.144  1.00  0.00    -0.282 A  
HETATM   13  C   UNL     1     -12.258  14.037  69.950  1.00  0.00    -0.399 A  
HETATM   14  C   UNL     1     -11.966  15.363  70.266  1.00  0.00    -0.386 A  
HETATM   15  C   UNL     1     -10.789  15.947  69.795  1.00  0.00    -0.328 A  
HETATM   16  C   UNL     1      -9.904  15.209  69.008  1.00  0.00    -0.238 A  
HETATM   17  C   UNL     1     -10.195  13.883  68.683  1.00  0.00    -0.218 A  
ENDBRANCH  11  12
ENDBRANCH   9  11
ENDBRANCH   8   9
TORSDOF 3
ENDMDL
MODEL      137
REMARK 921   NORMALIZED FREE ENERGY PREDICTED BY IDOCK:   -4.33 KCAL/MOL
REMARK 922        TOTAL FREE ENERGY PREDICTED BY IDOCK:   -5.43 KCAL/MOL
REMARK 923 INTER-LIGAND FREE ENERGY PREDICTED BY IDOCK:   -4.84 KCAL/MOL
REMARK 924 INTRA-LIGAND FREE ENERGY PREDICTED BY IDOCK:   -0.59 KCAL/MOL
REMARK 927      BINDING AFFINITY PREDICTED BY RF-SCORE:    0.00 PKD
ROOT
HETATM    1  O   UNL     1     -12.258  15.554  68.145  1.00  0.00    -0.409 OA 
HETATM    2  C   UNL     1     -11.811  14.701  67.176  1.00  0.00    -0.345 A  
HETATM    3  H   UNL     1     -12.013  16.470  68.082  1.00  0.00     0.000 HD 
HETATM    4  C   UNL     1     -12.171  13.351  67.270  1.00  0.00    -0.282 A  
HETATM    5  C   UNL     1     -11.740  12.439  66.306  1.00  0.00    -0.457 A  
HETATM    6  C   UNL     1     -10.953  12.869  65.245  1.00  0.00    -0.310 A  
HETATM    7  C   UNL     1     -10.593  14.215  65.149  1.00  0.00    -0.414 A  
HETATM    8  C   UNL     1     -11.013  15.151  66.115  1.00  0.00    -0.331 A  
ENDROOT
BRANCH   8   9
HETATM    9  C   UNL     1     -10.583  16.565  65.889  1.00  0.00    -0.270 C  
HETATM   10  O   UNL     1     -10.753  17.125  64.812  1.00  0.00    -0.727 OA 
BRANCH   9  11
HETATM   11  O   UNL     1     -10.035  17.130  67.023  1.00  0.00    -0.269 OA 
BRANCH  11  12
HETATM   12  C   UNL     1      -8.948  16.477  67.628  1.00  0.00    -0.197 A  
HETATM   13  C   UNL     1      -7.889  15.975  66.871  1.00  0.00    -0.284 A  
HETATM   14  C   UNL     1      -6.785  15.418  67.515  1.00  0.00    -0.211 A  
HETATM   15  C   UNL     1      -6.736  15.386  68.910  1.00  0.00    -0.113 A  
HETATM   16  C   UNL     1      -7.789  15.908  69.662  1.00  0.00     0.019 A  
HETATM   17  C   UNL     1      -8.900  16.462  69.022  1.00  0.00    -0.240 A  
ENDBRANCH  11  12
ENDBRANCH   9  11
ENDBRANCH   8   9
TORSDOF 3
ENDMDL
MODEL      138
REMARK 921   NORMALIZED FREE ENERGY PREDICTED BY IDOCK:   -4.32 KCAL/MOL
REMARK 922        TOTAL FREE ENERGY PREDICTED BY IDOCK:   -5.42 KCAL/MOL
REMARK 923 INTER-LIGAND FREE ENERGY PREDICTED BY IDOCK:   -4.72 KCAL/MOL
REMARK 924 INTRA-LIGAND FREE ENERGY PREDICTED BY IDOCK:   -0.70 KCAL/MOL
REMARK 927      BINDING AFFINITY PREDICTED BY RF-SCORE:    0.00 PKD
ROOT
HETATM    1  O   UNL     1      -9.445  12.525  66.894  1.00  0.00    -0.206 OA 
HETATM    2  C   UNL     1     -10.153  13.376  66.093  1.00  0.00    -0.302 A  
HETATM    3  H   UNL     1      -8.716  12.880  67.389  1.00  0.00     0.000 HD 
HETATM    4  C   UNL     1     -11.227  12.852  65.363  1.00  0.00    -0.314 A  
HETATM    5  C   UNL     1     -11.982  13.678  64.530  1.00  0.00    -0.454 A  
HETATM    6  C   UNL     1     -11.672  15.029  64.424  1.00  0.00    -0.320 A  
HETATM    7  C   UNL     1     -10.601  15.553  65.152  1.00  0.00    -0.455 A  
HETATM    8  C   UNL     1      -9.823  14.734  65.994  1.00  0.00    -0.350 A  
ENDROOT
BRANCH   8   9
HETATM    9  C   UNL     1      -8.721  15.418  66.738  1.00  0.00    -0.269 C  
HETATM   10  O   UNL     1      -8.369  15.046  67.851  1.00  0.00    -0.138 OA 
BRANCH   9  11
HETATM   11  O   UNL     1      -8.160  16.446  66.008  1.00  0.00    -0.257 OA 
BRANCH  11  12
HETATM   12  C   UNL     1      -7.913  17.664  66.664  1.00  0.00    -0.251 A  
HETATM   13  C   UNL     1      -6.615  18.143  66.843  1.00  0.00    -0.207 A  
HETATM   14  C   UNL     1      -6.417  19.399  67.414  1.00  0.00    -0.211 A  
HETATM   15  C   UNL     1      -7.515  20.178  67.781  1.00  0.00    -0.327 A  
HETATM   16  C   UNL     1      -8.812  19.702  67.581  1.00  0.00    -0.378 A  
HETATM   17  C   UNL     1      -9.017  18.442  67.015  1.00  0.00    -0.275 A  
ENDBRANCH  11  12
ENDBRANCH   9  11
ENDBRANCH   8   9
TORSDOF 3
ENDMDL
MODEL      139
REMARK 921   NORMALIZED FREE ENERGY PREDICTED BY IDOCK:   -4.30 KCAL/MOL
REMARK 922        TOTAL FREE ENERGY PREDICTED BY IDOCK:   -5.40 KCAL/MOL
REMARK 923 INTER-LIGAND FREE ENERGY PREDICTED BY IDOCK:   -5.28 KCAL/MOL
REMARK 924 INTRA-LIGAND FREE ENERGY PREDICTED BY IDOCK:   -0.12 KCAL/MOL
REMARK 927      BINDING AFFINITY PREDICTED BY RF-SCORE:    0.00 PKD
ROOT
HETATM    1  O   UNL     1     -12.429  12.271  65.400  1.00  0.00    -0.596 OA 
HETATM    2  C   UNL     1     -11.175  12.302  65.941  1.00  0.00    -0.340 A  
HETATM    3  H   UNL     1     -12.898  13.093  65.313  1.00  0.00     0.000 HD 
HETATM    4  C   UNL     1     -10.483  11.091  66.069  1.00  0.00    -0.304 A  
HETATM    5  C   UNL     1      -9.200  11.068  66.616  1.00  0.00    -0.182 A  
HETATM    6  C   UNL     1      -8.600  12.250  67.033  1.00  0.00    -0.191 A  
HETATM    7  C   UNL     1      -9.288  13.459  66.905  1.00  0.00    -0.253 A  
HETATM    8  C   UNL     1     -10.587  13.503  66.361  1.00  0.00    -0.283 A  
ENDROOT
BRANCH   8   9
HETATM    9  C   UNL     1     -11.208  14.858  66.254  1.00  0.00    -0.331 C  
HETATM   10  O   UNL     1     -11.743  15.242  65.221  1.00  0.00    -0.209 OA 
BRANCH   9  11
HETATM   11  O   UNL     1     -11.132  15.561  67.440  1.00  0.00    -0.318 OA 
BRANCH  11  12
HETATM   12  C   UNL     1     -10.640  16.877  67.398  1.00  0.00    -0.294 A  
HETATM   13  C   UNL     1     -10.397  17.523  66.185  1.00  0.00    -0.330 A  
HETATM   14  C   UNL     1     -10.000  18.859  66.185  1.00  0.00    -0.395 A  
HETATM   15  C   UNL     1      -9.871  19.548  67.392  1.00  0.00    -0.470 A  
HETATM   16  C   UNL     1     -10.137  18.902  68.601  1.00  0.00    -0.447 A  
HETATM   17  C   UNL     1     -10.528  17.562  68.608  1.00  0.00    -0.338 A  
ENDBRANCH  11  12
ENDBRANCH   9  11
ENDBRANCH   8   9
TORSDOF 3
ENDMDL
MODEL      140
REMARK 921   NORMALIZED FREE ENERGY PREDICTED BY IDOCK:   -4.30 KCAL/MOL
REMARK 922        TOTAL FREE ENERGY PREDICTED BY IDOCK:   -5.40 KCAL/MOL
REMARK 923 INTER-LIGAND FREE ENERGY PREDICTED BY IDOCK:   -4.77 KCAL/MOL
REMARK 924 INTRA-LIGAND FREE ENERGY PREDICTED BY IDOCK:   -0.63 KCAL/MOL
REMARK 927      BINDING AFFINITY PREDICTED BY RF-SCORE:    0.00 PKD
ROOT
HETATM    1  O   UNL     1     -11.442  16.390  69.934  1.00  0.00    -0.346 OA 
HETATM    2  C   UNL     1     -11.450  15.587  68.829  1.00  0.00    -0.355 A  
HETATM    3  H   UNL     1     -11.106  17.274  69.842  1.00  0.00     0.000 HD 
HETATM    4  C   UNL     1     -11.946  14.284  68.965  1.00  0.00    -0.360 A  
HETATM    5  C   UNL     1     -11.975  13.424  67.868  1.00  0.00    -0.360 A  
HETATM    6  C   UNL     1     -11.515  13.859  66.631  1.00  0.00    -0.370 A  
HETATM    7  C   UNL     1     -11.021  15.158  66.492  1.00  0.00    -0.318 A  
HETATM    8  C   UNL     1     -10.978  16.041  67.590  1.00  0.00    -0.284 A  
ENDROOT
BRANCH   8   9
HETATM    9  C   UNL     1     -10.451  17.411  67.309  1.00  0.00    -0.321 C  
HETATM   10  O   UNL     1     -10.753  18.373  68.007  1.00  0.00    -0.357 OA 
BRANCH   9  11
HETATM   11  O   UNL     1      -9.587  17.427  66.233  1.00  0.00    -0.314 OA 
BRANCH  11  12
HETATM   12  C   UNL     1      -8.233  17.714  66.475  1.00  0.00    -0.273 A  
HETATM   13  C   UNL     1      -7.798  19.020  66.706  1.00  0.00    -0.263 A  
HETATM   14  C   UNL     1      -6.464  19.253  67.036  1.00  0.00    -0.195 A  
HETATM   15  C   UNL     1      -5.579  18.180  67.156  1.00  0.00    -0.150 A  
HETATM   16  C   UNL     1      -6.025  16.875  66.944  1.00  0.00    -0.215 A  
HETATM   17  C   UNL     1      -7.359  16.636  66.607  1.00  0.00    -0.290 A  
ENDBRANCH  11  12
ENDBRANCH   9  11
ENDBRANCH   8   9
TORSDOF 3
ENDMDL
MODEL      141
REMARK 921   NORMALIZED FREE ENERGY PREDICTED BY IDOCK:   -4.30 KCAL/MOL
REMARK 922        TOTAL FREE ENERGY PREDICTED BY IDOCK:   -5.40 KCAL/MOL
REMARK 923 INTER-LIGAND FREE ENERGY PREDICTED BY IDOCK:   -4.70 KCAL/MOL
REMARK 924 INTRA-LIGAND FREE ENERGY PREDICTED BY IDOCK:   -0.70 KCAL/MOL
REMARK 927      BINDING AFFINITY PREDICTED BY RF-SCORE:    0.00 PKD
ROOT
HETATM    1  O   UNL     1     -13.166   9.879  70.609  1.00  0.00    -0.594 OA 
HETATM    2  C   UNL     1     -11.851   9.602  70.852  1.00  0.00    -0.323 A  
HETATM    3  H   UNL     1     -13.372  10.506  69.925  1.00  0.00     0.000 HD 
HETATM    4  C   UNL     1     -11.548   8.679  71.861  1.00  0.00    -0.420 A  
HETATM    5  C   UNL     1     -10.220   8.362  72.149  1.00  0.00    -0.390 A  
HETATM    6  C   UNL     1      -9.191   8.960  71.432  1.00  0.00    -0.328 A  
HETATM    7  C   UNL     1      -9.491   9.881  70.425  1.00  0.00    -0.088 A  
HETATM    8  C   UNL     1     -10.825  10.219  70.122  1.00  0.00    -0.362 A  
ENDROOT
BRANCH   8   9
HETATM    9  C   UNL     1     -11.017  11.197  69.008  1.00  0.00    -0.235 C  
HETATM   10  O   UNL     1     -10.674  12.369  69.114  1.00  0.00    -0.160 OA 
BRANCH   9  11
HETATM   11  O   UNL     1     -11.569  10.609  67.888  1.00  0.00    -0.491 OA 
BRANCH  11  12
HETATM   12  C   UNL     1     -10.709   9.946  66.997  1.00  0.00    -0.167 A  
HETATM   13  C   UNL     1      -9.846  10.654  66.158  1.00  0.00    -0.268 A  
HETATM   14  C   UNL     1      -8.942   9.959  65.357  1.00  0.00    -0.220 A  
HETATM   15  C   UNL     1      -8.887   8.565  65.415  1.00  0.00    -0.173 A  
HETATM   16  C   UNL     1      -9.738   7.864  66.271  1.00  0.00    -0.170 A  
HETATM   17  C   UNL     1     -10.651   8.554  67.072  1.00  0.00    -0.305 A  
ENDBRANCH  11  12
ENDBRANCH   9  11
ENDBRANCH   8   9
TORSDOF 3
ENDMDL
MODEL      142
REMARK 921   NORMALIZED FREE ENERGY PREDICTED BY IDOCK:   -4.30 KCAL/MOL
REMARK 922        TOTAL FREE ENERGY PREDICTED BY IDOCK:   -5.39 KCAL/MOL
REMARK 923 INTER-LIGAND FREE ENERGY PREDICTED BY IDOCK:   -4.88 KCAL/MOL
REMARK 924 INTRA-LIGAND FREE ENERGY PREDICTED BY IDOCK:   -0.51 KCAL/MOL
REMARK 927      BINDING AFFINITY PREDICTED BY RF-SCORE:    0.00 PKD
ROOT
HETATM    1  O   UNL     1      -6.859  15.603  67.047  1.00  0.00    -0.246 OA 
HETATM    2  C   UNL     1      -7.161  16.752  67.721  1.00  0.00    -0.131 A  
HETATM    3  H   UNL     1      -7.542  15.199  66.524  1.00  0.00     0.000 HD 
HETATM    4  C   UNL     1      -6.154  17.347  68.492  1.00  0.00    -0.167 A  
HETATM    5  C   UNL     1      -6.411  18.521  69.200  1.00  0.00    -0.277 A  
HETATM    6  C   UNL     1      -7.670  19.109  69.140  1.00  0.00    -0.247 A  
HETATM    7  C   UNL     1      -8.675  18.517  68.371  1.00  0.00    -0.351 A  
HETATM    8  C   UNL     1      -8.437  17.328  67.653  1.00  0.00    -0.212 A  
ENDROOT
BRANCH   8   9
HETATM    9  C   UNL     1      -9.584  16.808  66.848  1.00  0.00    -0.245 C  
HETATM   10  O   UNL     1     -10.018  17.416  65.877  1.00  0.00    -0.497 OA 
BRANCH   9  11
HETATM   11  O   UNL     1     -10.033  15.586  67.310  1.00  0.00    -0.234 OA 
BRANCH  11  12
HETATM   12  C   UNL     1     -10.604  14.698  66.384  1.00  0.00    -0.301 A  
HETATM   13  C   UNL     1      -9.856  14.161  65.335  1.00  0.00    -0.233 A  
HETATM   14  C   UNL     1     -10.433  13.212  64.494  1.00  0.00    -0.425 A  
HETATM   15  C   UNL     1     -11.744  12.788  64.718  1.00  0.00    -0.398 A  
HETATM   16  C   UNL     1     -12.480  13.313  65.781  1.00  0.00    -0.480 A  
HETATM   17  C   UNL     1     -11.910  14.269  66.623  1.00  0.00    -0.442 A  
ENDBRANCH  11  12
ENDBRANCH   9  11
ENDBRANCH   8   9
TORSDOF 3
ENDMDL
MODEL      143
REMARK 921   NORMALIZED FREE ENERGY PREDICTED BY IDOCK:   -4.29 KCAL/MOL
REMARK 922        TOTAL FREE ENERGY PREDICTED BY IDOCK:   -5.38 KCAL/MOL
REMARK 923 INTER-LIGAND FREE ENERGY PREDICTED BY IDOCK:   -4.51 KCAL/MOL
REMARK 924 INTRA-LIGAND FREE ENERGY PREDICTED BY IDOCK:   -0.88 KCAL/MOL
REMARK 927      BINDING AFFINITY PREDICTED BY RF-SCORE:    0.00 PKD
ROOT
HETATM    1  O   UNL     1      -7.760   9.627  67.938  1.00  0.00    -0.087 OA 
HETATM    2  C   UNL     1      -8.658   8.656  67.594  1.00  0.00    -0.136 A  
HETATM    3  H   UNL     1      -8.098  10.475  68.201  1.00  0.00     0.000 HD 
HETATM    4  C   UNL     1      -8.159   7.406  67.206  1.00  0.00    -0.112 A  
HETATM    5  C   UNL     1      -9.034   6.380  66.846  1.00  0.00    -0.126 A  
HETATM    6  C   UNL     1     -10.407   6.595  66.875  1.00  0.00    -0.324 A  
HETATM    7  C   UNL     1     -10.906   7.841  67.262  1.00  0.00    -0.225 A  
HETATM    8  C   UNL     1     -10.039   8.891  67.625  1.00  0.00    -0.274 A  
ENDROOT
BRANCH   8   9
HETATM    9  C   UNL     1     -10.695  10.167  68.044  1.00  0.00    -0.260 C  
HETATM   10  O   UNL     1     -11.522  10.729  67.335  1.00  0.00    -0.467 OA 
BRANCH   9  11
HETATM   11  O   UNL     1     -10.285  10.577  69.297  1.00  0.00    -0.208 OA 
BRANCH  11  12
HETATM   12  C   UNL     1     -10.783   9.885  70.414  1.00  0.00    -0.318 A  
HETATM   13  C   UNL     1     -12.151   9.838  70.688  1.00  0.00    -0.311 A  
HETATM   14  C   UNL     1     -12.613   9.064  71.751  1.00  0.00    -0.434 A  
HETATM   15  C   UNL     1     -11.711   8.325  72.519  1.00  0.00    -0.451 A  
HETATM   16  C   UNL     1     -10.347   8.360  72.226  1.00  0.00    -0.403 A  
HETATM   17  C   UNL     1      -9.877   9.139  71.167  1.00  0.00    -0.371 A  
ENDBRANCH  11  12
ENDBRANCH   9  11
ENDBRANCH   8   9
TORSDOF 3
ENDMDL
MODEL      144
REMARK 921   NORMALIZED FREE ENERGY PREDICTED BY IDOCK:   -4.28 KCAL/MOL
REMARK 922        TOTAL FREE ENERGY PREDICTED BY IDOCK:   -5.37 KCAL/MOL
REMARK 923 INTER-LIGAND FREE ENERGY PREDICTED BY IDOCK:   -4.99 KCAL/MOL
REMARK 924 INTRA-LIGAND FREE ENERGY PREDICTED BY IDOCK:   -0.38 KCAL/MOL
REMARK 927      BINDING AFFINITY PREDICTED BY RF-SCORE:    0.00 PKD
ROOT
HETATM    1  O   UNL     1     -12.658  10.478  69.169  1.00  0.00    -0.740 OA 
HETATM    2  C   UNL     1     -11.407  10.746  68.692  1.00  0.00    -0.291 A  
HETATM    3  H   UNL     1     -13.168  11.200  69.519  1.00  0.00     0.000 HD 
HETATM    4  C   UNL     1     -10.655   9.682  68.178  1.00  0.00    -0.273 A  
HETATM    5  C   UNL     1      -9.372   9.903  67.679  1.00  0.00    -0.156 A  
HETATM    6  C   UNL     1      -8.834  11.185  67.687  1.00  0.00    -0.136 A  
HETATM    7  C   UNL     1      -9.582  12.248  68.199  1.00  0.00    -0.213 A  
HETATM    8  C   UNL     1     -10.878  12.044  68.713  1.00  0.00    -0.267 A  
ENDROOT
BRANCH   8   9
HETATM    9  C   UNL     1     -11.586  13.264  69.208  1.00  0.00    -0.314 C  
HETATM   10  O   UNL     1     -11.548  13.595  70.388  1.00  0.00    -0.189 OA 
BRANCH   9  11
HETATM   11  O   UNL     1     -12.219  13.949  68.191  1.00  0.00    -0.329 OA 
BRANCH  11  12
HETATM   12  C   UNL     1     -11.486  14.926  67.495  1.00  0.00    -0.348 A  
HETATM   13  C   UNL     1     -11.061  16.098  68.122  1.00  0.00    -0.332 A  
HETATM   14  C   UNL     1     -10.257  16.998  67.425  1.00  0.00    -0.314 A  
HETATM   15  C   UNL     1      -9.863  16.712  66.117  1.00  0.00    -0.340 A  
HETATM   16  C   UNL     1     -10.273  15.528  65.503  1.00  0.00    -0.415 A  
HETATM   17  C   UNL     1     -11.085  14.625  66.194  1.00  0.00    -0.334 A  
ENDBRANCH  11  12
ENDBRANCH   9  11
ENDBRANCH   8   9
TORSDOF 3
ENDMDL
MODEL      145
REMARK 921   NORMALIZED FREE ENERGY PREDICTED BY IDOCK:   -4.27 KCAL/MOL
REMARK 922        TOTAL FREE ENERGY PREDICTED BY IDOCK:   -5.36 KCAL/MOL
REMARK 923 INTER-LIGAND FREE ENERGY PREDICTED BY IDOCK:   -4.86 KCAL/MOL
REMARK 924 INTRA-LIGAND FREE ENERGY PREDICTED BY IDOCK:   -0.50 KCAL/MOL
REMARK 927      BINDING AFFINITY PREDICTED BY RF-SCORE:    0.00 PKD
ROOT
HETATM    1  O   UNL     1      -9.736   7.793  65.997  1.00  0.00    -0.440 OA 
HETATM    2  C   UNL     1      -9.997   9.085  66.356  1.00  0.00    -0.300 A  
HETATM    3  H   UNL     1      -9.567   7.163  66.688  1.00  0.00     0.000 HD 
HETATM    4  C   UNL     1     -10.244  10.015  65.338  1.00  0.00    -0.226 A  
HETATM    5  C   UNL     1     -10.516  11.347  65.652  1.00  0.00    -0.316 A  
HETATM    6  C   UNL     1     -10.545  11.756  66.980  1.00  0.00    -0.267 A  
HETATM    7  C   UNL     1     -10.299  10.831  67.997  1.00  0.00    -0.211 A  
HETATM    8  C   UNL     1     -10.017   9.482  67.700  1.00  0.00    -0.226 A  
ENDROOT
BRANCH   8   9
HETATM    9  C   UNL     1      -9.796   8.585  68.875  1.00  0.00    -0.176 C  
HETATM   10  O   UNL     1      -9.348   7.452  68.745  1.00  0.00    -0.144 OA 
BRANCH   9  11
HETATM   11  O   UNL     1     -10.114   9.202  70.069  1.00  0.00    -0.186 OA 
BRANCH  11  12
HETATM   12  C   UNL     1     -11.357   8.909  70.654  1.00  0.00    -0.259 A  
HETATM   13  C   UNL     1     -11.753   7.593  70.898  1.00  0.00    -0.291 A  
HETATM   14  C   UNL     1     -12.952   7.347  71.565  1.00  0.00    -0.421 A  
HETATM   15  C   UNL     1     -13.735   8.416  72.005  1.00  0.00    -0.415 A  
HETATM   16  C   UNL     1     -13.323   9.729  71.777  1.00  0.00    -0.506 A  
HETATM   17  C   UNL     1     -12.127   9.982  71.103  1.00  0.00    -0.475 A  
ENDBRANCH  11  12
ENDBRANCH   9  11
ENDBRANCH   8   9
TORSDOF 3
ENDMDL
MODEL      146
REMARK 921   NORMALIZED FREE ENERGY PREDICTED BY IDOCK:   -4.27 KCAL/MOL
REMARK 922        TOTAL FREE ENERGY PREDICTED BY IDOCK:   -5.36 KCAL/MOL
REMARK 923 INTER-LIGAND FREE ENERGY PREDICTED BY IDOCK:   -5.07 KCAL/MOL
REMARK 924 INTRA-LIGAND FREE ENERGY PREDICTED BY IDOCK:   -0.29 KCAL/MOL
REMARK 927      BINDING AFFINITY PREDICTED BY RF-SCORE:    0.00 PKD
ROOT
HETATM    1  O   UNL     1     -11.479  16.103  69.613  1.00  0.00    -0.327 OA 
HETATM    2  C   UNL     1     -11.174  15.733  68.334  1.00  0.00    -0.362 A  
HETATM    3  H   UNL     1     -11.878  15.455  70.182  1.00  0.00     0.000 HD 
HETATM    4  C   UNL     1     -10.585  16.687  67.495  1.00  0.00    -0.311 A  
HETATM    5  C   UNL     1     -10.255  16.361  66.180  1.00  0.00    -0.363 A  
HETATM    6  C   UNL     1     -10.505  15.081  65.697  1.00  0.00    -0.368 A  
HETATM    7  C   UNL     1     -11.091  14.127  66.533  1.00  0.00    -0.318 A  
HETATM    8  C   UNL     1     -11.438  14.439  67.863  1.00  0.00    -0.346 A  
ENDROOT
BRANCH   8   9
HETATM    9  C   UNL     1     -12.035  13.327  68.663  1.00  0.00    -0.310 C  
HETATM   10  O   UNL     1     -12.347  13.476  69.839  1.00  0.00    -0.298 OA 
BRANCH   9  11
HETATM   11  O   UNL     1     -12.213  12.183  67.912  1.00  0.00    -0.438 OA 
BRANCH  11  12
HETATM   12  C   UNL     1     -11.400  11.072  68.195  1.00  0.00    -0.307 A  
HETATM   13  C   UNL     1     -10.775  10.351  67.178  1.00  0.00    -0.316 A  
HETATM   14  C   UNL     1      -9.901   9.316  67.504  1.00  0.00    -0.224 A  
HETATM   15  C   UNL     1      -9.640   9.021  68.844  1.00  0.00    -0.156 A  
HETATM   16  C   UNL     1     -10.253   9.760  69.857  1.00  0.00    -0.291 A  
HETATM   17  C   UNL     1     -11.134  10.794  69.536  1.00  0.00    -0.334 A  
ENDBRANCH  11  12
ENDBRANCH   9  11
ENDBRANCH   8   9
TORSDOF 3
ENDMDL
MODEL      147
REMARK 921   NORMALIZED FREE ENERGY PREDICTED BY IDOCK:   -4.26 KCAL/MOL
REMARK 922        TOTAL FREE ENERGY PREDICTED BY IDOCK:   -5.36 KCAL/MOL
REMARK 923 INTER-LIGAND FREE ENERGY PREDICTED BY IDOCK:   -4.78 KCAL/MOL
REMARK 924 INTRA-LIGAND FREE ENERGY PREDICTED BY IDOCK:   -0.58 KCAL/MOL
REMARK 927      BINDING AFFINITY PREDICTED BY RF-SCORE:    0.00 PKD
ROOT
HETATM    1  O   UNL     1      -9.901   9.145  72.094  1.00  0.00    -0.217 OA 
HETATM    2  C   UNL     1     -11.224   8.859  71.914  1.00  0.00    -0.377 A  
HETATM    3  H   UNL     1      -9.285   8.422  72.113  1.00  0.00     0.000 HD 
HETATM    4  C   UNL     1     -12.131   9.925  71.886  1.00  0.00    -0.264 A  
HETATM    5  C   UNL     1     -13.493   9.686  71.705  1.00  0.00    -0.477 A  
HETATM    6  C   UNL     1     -13.956   8.385  71.547  1.00  0.00    -0.407 A  
HETATM    7  C   UNL     1     -13.053   7.320  71.573  1.00  0.00    -0.434 A  
HETATM    8  C   UNL     1     -11.674   7.540  71.760  1.00  0.00    -0.317 A  
ENDROOT
BRANCH   8   9
HETATM    9  C   UNL     1     -10.807   6.322  71.745  1.00  0.00    -0.248 C  
HETATM   10  O   UNL     1     -11.083   5.328  72.406  1.00  0.00    -0.240 OA 
BRANCH   9  11
HETATM   11  O   UNL     1      -9.732   6.459  70.890  1.00  0.00    -0.175 OA 
BRANCH  11  12
HETATM   12  C   UNL     1      -9.988   6.825  69.558  1.00  0.00    -0.162 A  
HETATM   13  C   UNL     1      -9.283   7.859  68.941  1.00  0.00    -0.144 A  
HETATM   14  C   UNL     1      -9.500   8.130  67.591  1.00  0.00    -0.172 A  
HETATM   15  C   UNL     1     -10.401   7.353  66.861  1.00  0.00    -0.367 A  
HETATM   16  C   UNL     1     -11.088   6.307  67.479  1.00  0.00    -0.379 A  
HETATM   17  C   UNL     1     -10.880   6.035  68.833  1.00  0.00    -0.400 A  
ENDBRANCH  11  12
ENDBRANCH   9  11
ENDBRANCH   8   9
TORSDOF 3
ENDMDL
MODEL      148
REMARK 921   NORMALIZED FREE ENERGY PREDICTED BY IDOCK:   -4.23 KCAL/MOL
REMARK 922        TOTAL FREE ENERGY PREDICTED BY IDOCK:   -5.31 KCAL/MOL
REMARK 923 INTER-LIGAND FREE ENERGY PREDICTED BY IDOCK:   -4.71 KCAL/MOL
REMARK 924 INTRA-LIGAND FREE ENERGY PREDICTED BY IDOCK:   -0.60 KCAL/MOL
REMARK 927      BINDING AFFINITY PREDICTED BY RF-SCORE:    0.00 PKD
ROOT
HETATM    1  O   UNL     1     -10.920   7.811  67.246  1.00  0.00    -0.525 OA 
HETATM    2  C   UNL     1     -10.466   8.199  68.475  1.00  0.00    -0.162 A  
HETATM    3  H   UNL     1     -11.463   8.419  66.758  1.00  0.00     0.000 HD 
HETATM    4  C   UNL     1      -9.667   7.302  69.195  1.00  0.00    -0.160 A  
HETATM    5  C   UNL     1      -9.177   7.649  70.454  1.00  0.00    -0.156 A  
HETATM    6  C   UNL     1      -9.479   8.892  70.999  1.00  0.00    -0.318 A  
HETATM    7  C   UNL     1     -10.275   9.788  70.282  1.00  0.00    -0.346 A  
HETATM    8  C   UNL     1     -10.784   9.454  69.011  1.00  0.00    -0.209 A  
ENDROOT
BRANCH   8   9
HETATM    9  C   UNL     1     -11.602  10.506  68.335  1.00  0.00    -0.128 C  
HETATM   10  O   UNL     1     -12.589  10.997  68.870  1.00  0.00    -0.366 OA 
BRANCH   9  11
HETATM   11  O   UNL     1     -11.087  10.855  67.103  1.00  0.00    -0.283 OA 
BRANCH  11  12
HETATM   12  C   UNL     1     -11.194  12.196  66.697  1.00  0.00    -0.324 A  
HETATM   13  C   UNL     1     -10.351  13.181  67.213  1.00  0.00    -0.243 A  
HETATM   14  C   UNL     1     -10.426  14.481  66.716  1.00  0.00    -0.270 A  
HETATM   15  C   UNL     1     -11.325  14.785  65.692  1.00  0.00    -0.343 A  
HETATM   16  C   UNL     1     -12.151  13.790  65.166  1.00  0.00    -0.416 A  
HETATM   17  C   UNL     1     -12.085  12.488  65.664  1.00  0.00    -0.464 A  
ENDBRANCH  11  12
ENDBRANCH   9  11
ENDBRANCH   8   9
TORSDOF 3
ENDMDL
MODEL      149
REMARK 921   NORMALIZED FREE ENERGY PREDICTED BY IDOCK:   -4.20 KCAL/MOL
REMARK 922        TOTAL FREE ENERGY PREDICTED BY IDOCK:   -5.28 KCAL/MOL
REMARK 923 INTER-LIGAND FREE ENERGY PREDICTED BY IDOCK:   -4.70 KCAL/MOL
REMARK 924 INTRA-LIGAND FREE ENERGY PREDICTED BY IDOCK:   -0.59 KCAL/MOL
REMARK 927      BINDING AFFINITY PREDICTED BY RF-SCORE:    0.00 PKD
ROOT
HETATM    1  O   UNL     1     -13.126  12.108  63.653  1.00  0.00    -0.787 OA 
HETATM    2  C   UNL     1     -12.323  12.594  64.645  1.00  0.00    -0.476 A  
HETATM    3  H   UNL     1     -12.770  11.445  63.073  1.00  0.00     0.000 HD 
HETATM    4  C   UNL     1     -12.848  13.572  65.498  1.00  0.00    -0.406 A  
HETATM    5  C   UNL     1     -12.069  14.102  66.527  1.00  0.00    -0.481 A  
HETATM    6  C   UNL     1     -10.765  13.657  66.711  1.00  0.00    -0.272 A  
HETATM    7  C   UNL     1     -10.239  12.681  65.861  1.00  0.00    -0.290 A  
HETATM    8  C   UNL     1     -11.008  12.137  64.813  1.00  0.00    -0.356 A  
ENDROOT
BRANCH   8   9
HETATM    9  C   UNL     1     -10.342  11.084  63.988  1.00  0.00    -0.371 C  
HETATM   10  O   UNL     1     -10.157  11.229  62.786  1.00  0.00    -0.222 OA 
BRANCH   9  11
HETATM   11  O   UNL     1      -9.950   9.999  64.747  1.00  0.00    -0.321 OA 
BRANCH  11  12
HETATM   12  C   UNL     1      -8.620   9.560  64.636  1.00  0.00    -0.187 A  
HETATM   13  C   UNL     1      -8.257   8.566  63.726  1.00  0.00    -0.126 A  
HETATM   14  C   UNL     1      -6.913   8.226  63.579  1.00  0.00    -0.085 A  
HETATM   15  C   UNL     1      -5.940   8.894  64.323  1.00  0.00    -0.070 A  
HETATM   16  C   UNL     1      -6.307   9.902  65.215  1.00  0.00    -0.099 A  
HETATM   17  C   UNL     1      -7.652  10.244  65.372  1.00  0.00    -0.146 A  
ENDBRANCH  11  12
ENDBRANCH   9  11
ENDBRANCH   8   9
TORSDOF 3
ENDMDL
MODEL      150
REMARK 921   NORMALIZED FREE ENERGY PREDICTED BY IDOCK:   -4.18 KCAL/MOL
REMARK 922        TOTAL FREE ENERGY PREDICTED BY IDOCK:   -5.26 KCAL/MOL
REMARK 923 INTER-LIGAND FREE ENERGY PREDICTED BY IDOCK:   -4.65 KCAL/MOL
REMARK 924 INTRA-LIGAND FREE ENERGY PREDICTED BY IDOCK:   -0.61 KCAL/MOL
REMARK 927      BINDING AFFINITY PREDICTED BY RF-SCORE:    0.00 PKD
ROOT
HETATM    1  O   UNL     1     -13.383   6.902  72.195  1.00  0.00    -0.544 OA 
HETATM    2  C   UNL     1     -12.963   8.131  71.771  1.00  0.00    -0.342 A  
HETATM    3  H   UNL     1     -12.931   6.136  71.862  1.00  0.00     0.000 HD 
HETATM    4  C   UNL     1     -13.630   9.260  72.261  1.00  0.00    -0.544 A  
HETATM    5  C   UNL     1     -13.241  10.538  71.859  1.00  0.00    -0.526 A  
HETATM    6  C   UNL     1     -12.183  10.695  70.970  1.00  0.00    -0.498 A  
HETATM    7  C   UNL     1     -11.516   9.569  70.480  1.00  0.00    -0.337 A  
HETATM    8  C   UNL     1     -11.898   8.270  70.870  1.00  0.00    -0.232 A  
ENDROOT
BRANCH   8   9
HETATM    9  C   UNL     1     -11.092   7.150  70.297  1.00  0.00    -0.274 C  
HETATM   10  O   UNL     1     -11.615   6.233  69.675  1.00  0.00    -0.430 OA 
BRANCH   9  11
HETATM   11  O   UNL     1      -9.740   7.312  70.522  1.00  0.00    -0.176 OA 
BRANCH  11  12
HETATM   12  C   UNL     1      -9.154   6.591  71.576  1.00  0.00    -0.144 A  
HETATM   13  C   UNL     1      -9.740   6.549  72.842  1.00  0.00    -0.164 A  
HETATM   14  C   UNL     1      -9.179   5.746  73.834  1.00  0.00    -0.127 A  
HETATM   15  C   UNL     1      -8.051   4.974  73.550  1.00  0.00    -0.107 A  
HETATM   16  C   UNL     1      -7.482   5.004  72.276  1.00  0.00    -0.093 A  
HETATM   17  C   UNL     1      -8.036   5.811  71.280  1.00  0.00    -0.113 A  
ENDBRANCH  11  12
ENDBRANCH   9  11
ENDBRANCH   8   9
TORSDOF 3
ENDMDL
MODEL      151
REMARK 921   NORMALIZED FREE ENERGY PREDICTED BY IDOCK:   -4.18 KCAL/MOL
REMARK 922        TOTAL FREE ENERGY PREDICTED BY IDOCK:   -5.25 KCAL/MOL
REMARK 923 INTER-LIGAND FREE ENERGY PREDICTED BY IDOCK:   -4.57 KCAL/MOL
REMARK 924 INTRA-LIGAND FREE ENERGY PREDICTED BY IDOCK:   -0.69 KCAL/MOL
REMARK 927      BINDING AFFINITY PREDICTED BY RF-SCORE:    0.00 PKD
ROOT
HETATM    1  O   UNL     1     -11.194   6.871  68.369  1.00  0.00    -0.496 OA 
HETATM    2  C   UNL     1     -10.999   7.362  69.628  1.00  0.00    -0.172 A  
HETATM    3  H   UNL     1     -10.648   7.209  67.668  1.00  0.00     0.000 HD 
HETATM    4  C   UNL     1     -11.804   6.864  70.661  1.00  0.00    -0.418 A  
HETATM    5  C   UNL     1     -11.646   7.333  71.965  1.00  0.00    -0.311 A  
HETATM    6  C   UNL     1     -10.683   8.295  72.246  1.00  0.00    -0.399 A  
HETATM    7  C   UNL     1      -9.879   8.792  71.218  1.00  0.00    -0.336 A  
HETATM    8  C   UNL     1     -10.027   8.336  69.893  1.00  0.00    -0.190 A  
ENDROOT
BRANCH   8   9
HETATM    9  C   UNL     1      -9.091   8.927  68.888  1.00  0.00    -0.140 C  
HETATM   10  O   UNL     1      -8.515   8.232  68.059  1.00  0.00    -0.130 OA 
BRANCH   9  11
HETATM   11  O   UNL     1      -9.008  10.300  68.998  1.00  0.00    -0.152 OA 
BRANCH  11  12
HETATM   12  C   UNL     1      -9.859  11.080  68.197  1.00  0.00    -0.176 A  
HETATM   13  C   UNL     1      -9.779  11.047  66.804  1.00  0.00    -0.222 A  
HETATM   14  C   UNL     1     -10.704  11.762  66.045  1.00  0.00    -0.324 A  
HETATM   15  C   UNL     1     -11.714  12.487  66.679  1.00  0.00    -0.453 A  
HETATM   16  C   UNL     1     -11.801  12.499  68.072  1.00  0.00    -0.382 A  
HETATM   17  C   UNL     1     -10.875  11.790  68.838  1.00  0.00    -0.265 A  
ENDBRANCH  11  12
ENDBRANCH   9  11
ENDBRANCH   8   9
TORSDOF 3
ENDMDL
MODEL      152
REMARK 921   NORMALIZED FREE ENERGY PREDICTED BY IDOCK:   -4.17 KCAL/MOL
REMARK 922        TOTAL FREE ENERGY PREDICTED BY IDOCK:   -5.25 KCAL/MOL
REMARK 923 INTER-LIGAND FREE ENERGY PREDICTED BY IDOCK:   -4.59 KCAL/MOL
REMARK 924 INTRA-LIGAND FREE ENERGY PREDICTED BY IDOCK:   -0.65 KCAL/MOL
REMARK 927      BINDING AFFINITY PREDICTED BY RF-SCORE:    0.00 PKD
ROOT
HETATM    1  O   UNL     1     -12.310  15.736  69.729  1.00  0.00    -0.460 OA 
HETATM    2  C   UNL     1     -12.124  14.383  69.778  1.00  0.00    -0.334 A  
HETATM    3  H   UNL     1     -12.029  16.197  68.947  1.00  0.00     0.000 HD 
HETATM    4  C   UNL     1     -12.538  13.703  70.930  1.00  0.00    -0.421 A  
HETATM    5  C   UNL     1     -12.369  12.322  71.031  1.00  0.00    -0.320 A  
HETATM    6  C   UNL     1     -11.792  11.614  69.984  1.00  0.00    -0.435 A  
HETATM    7  C   UNL     1     -11.378  12.290  68.833  1.00  0.00    -0.337 A  
HETATM    8  C   UNL     1     -11.535  13.686  68.714  1.00  0.00    -0.346 A  
ENDROOT
BRANCH   8   9
HETATM    9  C   UNL     1     -11.076  14.290  67.426  1.00  0.00    -0.304 C  
HETATM   10  O   UNL     1     -11.838  14.924  66.706  1.00  0.00    -0.304 OA 
BRANCH   9  11
HETATM   11  O   UNL     1      -9.732  14.075  67.200  1.00  0.00    -0.230 OA 
BRANCH  11  12
HETATM   12  C   UNL     1      -8.824  15.058  67.628  1.00  0.00    -0.179 A  
HETATM   13  C   UNL     1      -7.971  14.836  68.710  1.00  0.00    -0.152 A  
HETATM   14  C   UNL     1      -7.019  15.799  69.045  1.00  0.00    -0.150 A  
HETATM   15  C   UNL     1      -6.911  16.964  68.285  1.00  0.00    -0.164 A  
HETATM   16  C   UNL     1      -7.753  17.170  67.191  1.00  0.00    -0.205 A  
HETATM   17  C   UNL     1      -8.712  16.213  66.854  1.00  0.00    -0.253 A  
ENDBRANCH  11  12
ENDBRANCH   9  11
ENDBRANCH   8   9
TORSDOF 3
ENDMDL
MODEL      153
REMARK 921   NORMALIZED FREE ENERGY PREDICTED BY IDOCK:   -4.16 KCAL/MOL
REMARK 922        TOTAL FREE ENERGY PREDICTED BY IDOCK:   -5.24 KCAL/MOL
REMARK 923 INTER-LIGAND FREE ENERGY PREDICTED BY IDOCK:   -4.73 KCAL/MOL
REMARK 924 INTRA-LIGAND FREE ENERGY PREDICTED BY IDOCK:   -0.50 KCAL/MOL
REMARK 927      BINDING AFFINITY PREDICTED BY RF-SCORE:    0.00 PKD
ROOT
HETATM    1  O   UNL     1     -11.147   5.952  70.256  1.00  0.00    -0.327 OA 
HETATM    2  C   UNL     1     -10.875   6.072  71.590  1.00  0.00    -0.260 A  
HETATM    3  H   UNL     1     -11.042   6.721  69.708  1.00  0.00     0.000 HD 
HETATM    4  C   UNL     1     -11.029   4.939  72.398  1.00  0.00    -0.159 A  
HETATM    5  C   UNL     1     -10.765   5.008  73.766  1.00  0.00    -0.358 A  
HETATM    6  C   UNL     1     -10.342   6.205  74.332  1.00  0.00    -0.280 A  
HETATM    7  C   UNL     1     -10.187   7.337  73.528  1.00  0.00    -0.404 A  
HETATM    8  C   UNL     1     -10.454   7.289  72.145  1.00  0.00    -0.233 A  
ENDROOT
BRANCH   8   9
HETATM    9  C   UNL     1     -10.227   8.557  71.389  1.00  0.00    -0.235 C  
HETATM   10  O   UNL     1      -9.125   9.093  71.345  1.00  0.00    -0.266 OA 
BRANCH   9  11
HETATM   11  O   UNL     1     -11.369   8.993  70.746  1.00  0.00    -0.261 OA 
BRANCH  11  12
HETATM   12  C   UNL     1     -11.234   9.977  69.753  1.00  0.00    -0.258 A  
HETATM   13  C   UNL     1     -10.740   9.668  68.486  1.00  0.00    -0.239 A  
HETATM   14  C   UNL     1     -10.710  10.652  67.499  1.00  0.00    -0.321 A  
HETATM   15  C   UNL     1     -11.195  11.931  67.776  1.00  0.00    -0.330 A  
HETATM   16  C   UNL     1     -11.707  12.229  69.040  1.00  0.00    -0.376 A  
HETATM   17  C   UNL     1     -11.734  11.249  70.034  1.00  0.00    -0.428 A  
ENDBRANCH  11  12
ENDBRANCH   9  11
ENDBRANCH   8   9
TORSDOF 3
ENDMDL
MODEL      154
REMARK 921   NORMALIZED FREE ENERGY PREDICTED BY IDOCK:   -4.15 KCAL/MOL
REMARK 922        TOTAL FREE ENERGY PREDICTED BY IDOCK:   -5.22 KCAL/MOL
REMARK 923 INTER-LIGAND FREE ENERGY PREDICTED BY IDOCK:   -4.75 KCAL/MOL
REMARK 924 INTRA-LIGAND FREE ENERGY PREDICTED BY IDOCK:   -0.47 KCAL/MOL
REMARK 927      BINDING AFFINITY PREDICTED BY RF-SCORE:    0.00 PKD
ROOT
HETATM    1  O   UNL     1      -8.799   8.185  62.564  1.00  0.00    -0.426 OA 
HETATM    2  C   UNL     1      -8.377   8.659  63.774  1.00  0.00    -0.112 A  
HETATM    3  H   UNL     1      -9.302   8.767  62.007  1.00  0.00     0.000 HD 
HETATM    4  C   UNL     1      -7.636   7.801  64.596  1.00  0.00    -0.113 A  
HETATM    5  C   UNL     1      -7.181   8.236  65.840  1.00  0.00    -0.072 A  
HETATM    6  C   UNL     1      -7.461   9.529  66.269  1.00  0.00    -0.097 A  
HETATM    7  C   UNL     1      -8.199  10.387  65.451  1.00  0.00    -0.159 A  
HETATM    8  C   UNL     1      -8.672   9.964  64.192  1.00  0.00    -0.224 A  
ENDROOT
BRANCH   8   9
HETATM    9  C   UNL     1      -9.429  10.981  63.401  1.00  0.00    -0.310 C  
HETATM   10  O   UNL     1      -8.878  11.682  62.560  1.00  0.00    -0.285 OA 
BRANCH   9  11
HETATM   11  O   UNL     1     -10.774  10.986  63.710  1.00  0.00    -0.362 OA 
BRANCH  11  12
HETATM   12  C   UNL     1     -11.274  12.057  64.470  1.00  0.00    -0.332 A  
HETATM   13  C   UNL     1     -11.791  13.201  63.861  1.00  0.00    -0.533 A  
HETATM   14  C   UNL     1     -12.363  14.200  64.646  1.00  0.00    -0.432 A  
HETATM   15  C   UNL     1     -12.437  14.041  66.031  1.00  0.00    -0.489 A  
HETATM   16  C   UNL     1     -11.938  12.884  66.632  1.00  0.00    -0.436 A  
HETATM   17  C   UNL     1     -11.358  11.883  65.851  1.00  0.00    -0.365 A  
ENDBRANCH  11  12
ENDBRANCH   9  11
ENDBRANCH   8   9
TORSDOF 3
ENDMDL
MODEL      155
REMARK 921   NORMALIZED FREE ENERGY PREDICTED BY IDOCK:   -4.15 KCAL/MOL
REMARK 922        TOTAL FREE ENERGY PREDICTED BY IDOCK:   -5.22 KCAL/MOL
REMARK 923 INTER-LIGAND FREE ENERGY PREDICTED BY IDOCK:   -4.90 KCAL/MOL
REMARK 924 INTRA-LIGAND FREE ENERGY PREDICTED BY IDOCK:   -0.32 KCAL/MOL
REMARK 927      BINDING AFFINITY PREDICTED BY RF-SCORE:    0.00 PKD
ROOT
HETATM    1  O   UNL     1      -9.535  11.724  64.823  1.00  0.00    -0.405 OA 
HETATM    2  C   UNL     1      -9.025  11.124  65.940  1.00  0.00    -0.199 A  
HETATM    3  H   UNL     1     -10.440  12.013  64.845  1.00  0.00     0.000 HD 
HETATM    4  C   UNL     1      -7.691  10.698  65.907  1.00  0.00    -0.146 A  
HETATM    5  C   UNL     1      -7.122  10.080  67.020  1.00  0.00    -0.089 A  
HETATM    6  C   UNL     1      -7.878   9.888  68.171  1.00  0.00    -0.085 A  
HETATM    7  C   UNL     1      -9.208  10.312  68.206  1.00  0.00    -0.139 A  
HETATM    8  C   UNL     1      -9.803  10.934  67.089  1.00  0.00    -0.213 A  
ENDROOT
BRANCH   8   9
HETATM    9  C   UNL     1     -11.224  11.365  67.259  1.00  0.00    -0.304 C  
HETATM   10  O   UNL     1     -11.758  12.145  66.479  1.00  0.00    -0.495 OA 
BRANCH   9  11
HETATM   11  O   UNL     1     -11.828  10.756  68.341  1.00  0.00    -0.478 OA 
BRANCH  11  12
HETATM   12  C   UNL     1     -12.118  11.545  69.466  1.00  0.00    -0.284 A  
HETATM   13  C   UNL     1     -12.010  12.936  69.426  1.00  0.00    -0.327 A  
HETATM   14  C   UNL     1     -12.398  13.689  70.533  1.00  0.00    -0.425 A  
HETATM   15  C   UNL     1     -12.911  13.051  71.664  1.00  0.00    -0.417 A  
HETATM   16  C   UNL     1     -13.037  11.662  71.690  1.00  0.00    -0.456 A  
HETATM   17  C   UNL     1     -12.644  10.901  70.586  1.00  0.00    -0.435 A  
ENDBRANCH  11  12
ENDBRANCH   9  11
ENDBRANCH   8   9
TORSDOF 3
ENDMDL
MODEL      156
REMARK 921   NORMALIZED FREE ENERGY PREDICTED BY IDOCK:   -4.13 KCAL/MOL
REMARK 922        TOTAL FREE ENERGY PREDICTED BY IDOCK:   -5.20 KCAL/MOL
REMARK 923 INTER-LIGAND FREE ENERGY PREDICTED BY IDOCK:   -4.81 KCAL/MOL
REMARK 924 INTRA-LIGAND FREE ENERGY PREDICTED BY IDOCK:   -0.39 KCAL/MOL
REMARK 927      BINDING AFFINITY PREDICTED BY RF-SCORE:    0.00 PKD
ROOT
HETATM    1  O   UNL     1     -10.302  14.773  67.865  1.00  0.00    -0.237 OA 
HETATM    2  C   UNL     1     -11.009  14.571  69.017  1.00  0.00    -0.257 A  
HETATM    3  H   UNL     1     -10.219  14.046  67.258  1.00  0.00     0.000 HD 
HETATM    4  C   UNL     1     -11.131  15.641  69.911  1.00  0.00    -0.323 A  
HETATM    5  C   UNL     1     -11.842  15.487  71.101  1.00  0.00    -0.435 A  
HETATM    6  C   UNL     1     -12.437  14.267  71.402  1.00  0.00    -0.437 A  
HETATM    7  C   UNL     1     -12.318  13.198  70.511  1.00  0.00    -0.380 A  
HETATM    8  C   UNL     1     -11.599  13.332  69.306  1.00  0.00    -0.370 A  
ENDROOT
BRANCH   8   9
HETATM    9  C   UNL     1     -11.564  12.125  68.426  1.00  0.00    -0.327 C  
HETATM   10  O   UNL     1     -12.153  12.095  67.352  1.00  0.00    -0.553 OA 
BRANCH   9  11
HETATM   11  O   UNL     1     -10.778  11.120  68.952  1.00  0.00    -0.188 OA 
BRANCH  11  12
HETATM   12  C   UNL     1     -10.226  10.179  68.065  1.00  0.00    -0.173 A  
HETATM   13  C   UNL     1     -10.752   8.892  67.952  1.00  0.00    -0.185 A  
HETATM   14  C   UNL     1     -10.237   8.019  66.995  1.00  0.00    -0.374 A  
HETATM   15  C   UNL     1      -9.218   8.445  66.141  1.00  0.00    -0.263 A  
HETATM   16  C   UNL     1      -8.711   9.741  66.245  1.00  0.00    -0.152 A  
HETATM   17  C   UNL     1      -9.218  10.618  67.207  1.00  0.00    -0.155 A  
ENDBRANCH  11  12
ENDBRANCH   9  11
ENDBRANCH   8   9
TORSDOF 3
ENDMDL
MODEL      157
REMARK 921   NORMALIZED FREE ENERGY PREDICTED BY IDOCK:   -4.11 KCAL/MOL
REMARK 922        TOTAL FREE ENERGY PREDICTED BY IDOCK:   -5.18 KCAL/MOL
REMARK 923 INTER-LIGAND FREE ENERGY PREDICTED BY IDOCK:   -4.56 KCAL/MOL
REMARK 924 INTRA-LIGAND FREE ENERGY PREDICTED BY IDOCK:   -0.62 KCAL/MOL
REMARK 927      BINDING AFFINITY PREDICTED BY RF-SCORE:    0.00 PKD
ROOT
HETATM    1  O   UNL     1      -9.471   8.577  70.789  1.00  0.00    -0.162 OA 
HETATM    2  C   UNL     1     -10.648   9.266  70.860  1.00  0.00    -0.296 A  
HETATM    3  H   UNL     1      -8.894   8.751  70.055  1.00  0.00     0.000 HD 
HETATM    4  C   UNL     1     -11.498   9.008  71.942  1.00  0.00    -0.440 A  
HETATM    5  C   UNL     1     -12.712   9.686  72.061  1.00  0.00    -0.470 A  
HETATM    6  C   UNL     1     -13.080  10.625  71.105  1.00  0.00    -0.415 A  
HETATM    7  C   UNL     1     -12.233  10.884  70.025  1.00  0.00    -0.422 A  
HETATM    8  C   UNL     1     -11.006  10.206  69.884  1.00  0.00    -0.344 A  
ENDROOT
BRANCH   8   9
HETATM    9  C   UNL     1     -10.177  10.589  68.700  1.00  0.00    -0.183 C  
HETATM   10  O   UNL     1      -9.117  11.190  68.824  1.00  0.00    -0.177 OA 
BRANCH   9  11
HETATM   11  O   UNL     1     -10.732  10.154  67.513  1.00  0.00    -0.257 OA 
BRANCH  11  12
HETATM   12  C   UNL     1     -10.206   8.991  66.925  1.00  0.00    -0.269 A  
HETATM   13  C   UNL     1      -9.103   9.044  66.072  1.00  0.00    -0.257 A  
HETATM   14  C   UNL     1      -8.553   7.860  65.584  1.00  0.00    -0.159 A  
HETATM   15  C   UNL     1      -9.093   6.631  65.968  1.00  0.00    -0.104 A  
HETATM   16  C   UNL     1     -10.182   6.584  66.838  1.00  0.00    -0.279 A  
HETATM   17  C   UNL     1     -10.742   7.767  67.326  1.00  0.00    -0.326 A  
ENDBRANCH  11  12
ENDBRANCH   9  11
ENDBRANCH   8   9
TORSDOF 3
ENDMDL
MODEL      158
REMARK 921   NORMALIZED FREE ENERGY PREDICTED BY IDOCK:   -4.07 KCAL/MOL
REMARK 922        TOTAL FREE ENERGY PREDICTED BY IDOCK:   -5.13 KCAL/MOL
REMARK 923 INTER-LIGAND FREE ENERGY PREDICTED BY IDOCK:   -4.26 KCAL/MOL
REMARK 924 INTRA-LIGAND FREE ENERGY PREDICTED BY IDOCK:   -0.87 KCAL/MOL
REMARK 927      BINDING AFFINITY PREDICTED BY RF-SCORE:    0.00 PKD
ROOT
HETATM    1  O   UNL     1      -8.275   9.325  71.255  1.00  0.00    -0.324 OA 
HETATM    2  C   UNL     1      -9.524   8.830  71.497  1.00  0.00    -0.271 A  
HETATM    3  H   UNL     1      -8.123   9.772  70.429  1.00  0.00     0.000 HD 
HETATM    4  C   UNL     1      -9.748   8.172  72.713  1.00  0.00    -0.351 A  
HETATM    5  C   UNL     1     -11.006   7.647  73.009  1.00  0.00    -0.457 A  
HETATM    6  C   UNL     1     -12.046   7.780  72.097  1.00  0.00    -0.346 A  
HETATM    7  C   UNL     1     -11.826   8.436  70.884  1.00  0.00    -0.237 A  
HETATM    8  C   UNL     1     -10.561   8.968  70.564  1.00  0.00    -0.274 A  
ENDROOT
BRANCH   8   9
HETATM    9  C   UNL     1     -10.458   9.669  69.247  1.00  0.00    -0.217 C  
HETATM   10  O   UNL     1     -11.192  10.607  68.959  1.00  0.00    -0.230 OA 
BRANCH   9  11
HETATM   11  O   UNL     1      -9.443   9.159  68.464  1.00  0.00    -0.145 OA 
BRANCH  11  12
HETATM   12  C   UNL     1      -9.554   7.831  68.019  1.00  0.00    -0.150 A  
HETATM   13  C   UNL     1      -8.676   6.841  68.462  1.00  0.00    -0.124 A  
HETATM   14  C   UNL     1      -8.877   5.518  68.071  1.00  0.00    -0.105 A  
HETATM   15  C   UNL     1      -9.964   5.189  67.260  1.00  0.00    -0.218 A  
HETATM   16  C   UNL     1     -10.851   6.181  66.838  1.00  0.00    -0.411 A  
HETATM   17  C   UNL     1     -10.651   7.509  67.221  1.00  0.00    -0.394 A  
ENDBRANCH  11  12
ENDBRANCH   9  11
ENDBRANCH   8   9
TORSDOF 3
ENDMDL
MODEL      159
REMARK 921   NORMALIZED FREE ENERGY PREDICTED BY IDOCK:   -4.07 KCAL/MOL
REMARK 922        TOTAL FREE ENERGY PREDICTED BY IDOCK:   -5.13 KCAL/MOL
REMARK 923 INTER-LIGAND FREE ENERGY PREDICTED BY IDOCK:   -4.49 KCAL/MOL
REMARK 924 INTRA-LIGAND FREE ENERGY PREDICTED BY IDOCK:   -0.64 KCAL/MOL
REMARK 927      BINDING AFFINITY PREDICTED BY RF-SCORE:    0.00 PKD
ROOT
HETATM    1  O   UNL     1      -9.375  15.184  69.851  1.00  0.00    -0.463 OA 
HETATM    2  C   UNL     1     -10.085  15.029  68.694  1.00  0.00    -0.233 A  
HETATM    3  H   UNL     1      -9.854  15.184  70.672  1.00  0.00     0.000 HD 
HETATM    4  C   UNL     1      -9.381  15.030  67.484  1.00  0.00    -0.195 A  
HETATM    5  C   UNL     1     -10.058  14.876  66.274  1.00  0.00    -0.298 A  
HETATM    6  C   UNL     1     -11.439  14.717  66.267  1.00  0.00    -0.351 A  
HETATM    7  C   UNL     1     -12.144  14.715  67.473  1.00  0.00    -0.212 A  
HETATM    8  C   UNL     1     -11.479  14.875  68.705  1.00  0.00    -0.326 A  
ENDROOT
BRANCH   8   9
HETATM    9  C   UNL     1     -12.340  14.832  69.925  1.00  0.00    -0.283 C  
HETATM   10  O   UNL     1     -13.408  15.429  69.981  1.00  0.00     0.074 OA 
BRANCH   9  11
HETATM   11  O   UNL     1     -11.804  14.029  70.913  1.00  0.00    -0.290 OA 
BRANCH  11  12
HETATM   12  C   UNL     1     -12.111  12.658  70.889  1.00  0.00    -0.047 A  
HETATM   13  C   UNL     1     -11.593  11.815  69.905  1.00  0.00    -0.351 A  
HETATM   14  C   UNL     1     -11.844  10.445  69.971  1.00  0.00    -0.351 A  
HETATM   15  C   UNL     1     -12.590   9.924  71.030  1.00  0.00    -0.431 A  
HETATM   16  C   UNL     1     -13.087  10.770  72.022  1.00  0.00    -0.476 A  
HETATM   17  C   UNL     1     -12.844  12.144  71.958  1.00  0.00    -0.256 A  
ENDBRANCH  11  12
ENDBRANCH   9  11
ENDBRANCH   8   9
TORSDOF 3
ENDMDL
MODEL      160
REMARK 921   NORMALIZED FREE ENERGY PREDICTED BY IDOCK:   -4.06 KCAL/MOL
REMARK 922        TOTAL FREE ENERGY PREDICTED BY IDOCK:   -5.11 KCAL/MOL
REMARK 923 INTER-LIGAND FREE ENERGY PREDICTED BY IDOCK:   -4.73 KCAL/MOL
REMARK 924 INTRA-LIGAND FREE ENERGY PREDICTED BY IDOCK:   -0.39 KCAL/MOL
REMARK 927      BINDING AFFINITY PREDICTED BY RF-SCORE:    0.00 PKD
ROOT
HETATM    1  O   UNL     1      -8.668  12.388  67.105  1.00  0.00    -0.182 OA 
HETATM    2  C   UNL     1      -9.645  12.926  67.895  1.00  0.00    -0.215 A  
HETATM    3  H   UNL     1      -7.917  12.930  66.892  1.00  0.00     0.000 HD 
HETATM    4  C   UNL     1     -10.752  12.127  68.208  1.00  0.00    -0.248 A  
HETATM    5  C   UNL     1     -11.777  12.629  69.010  1.00  0.00    -0.367 A  
HETATM    6  C   UNL     1     -11.701  13.925  69.507  1.00  0.00    -0.369 A  
HETATM    7  C   UNL     1     -10.597  14.722  69.197  1.00  0.00    -0.251 A  
HETATM    8  C   UNL     1      -9.553  14.236  68.383  1.00  0.00    -0.221 A  
ENDROOT
BRANCH   8   9
HETATM    9  C   UNL     1      -8.416  15.176  68.144  1.00  0.00    -0.152 C  
HETATM   10  O   UNL     1      -7.390  15.129  68.812  1.00  0.00    -0.117 OA 
BRANCH   9  11
HETATM   11  O   UNL     1      -8.661  16.032  67.089  1.00  0.00    -0.174 OA 
BRANCH  11  12
HETATM   12  C   UNL     1      -9.236  17.283  67.371  1.00  0.00    -0.231 A  
HETATM   13  C   UNL     1      -8.873  18.009  68.507  1.00  0.00    -0.304 A  
HETATM   14  C   UNL     1      -9.395  19.286  68.703  1.00  0.00    -0.446 A  
HETATM   15  C   UNL     1     -10.257  19.839  67.754  1.00  0.00    -0.571 A  
HETATM   16  C   UNL     1     -10.600  19.117  66.610  1.00  0.00    -0.520 A  
HETATM   17  C   UNL     1     -10.085  17.834  66.412  1.00  0.00    -0.357 A  
ENDBRANCH  11  12
ENDBRANCH   9  11
ENDBRANCH   8   9
TORSDOF 3
ENDMDL
MODEL      161
REMARK 921   NORMALIZED FREE ENERGY PREDICTED BY IDOCK:   -4.05 KCAL/MOL
REMARK 922        TOTAL FREE ENERGY PREDICTED BY IDOCK:   -5.11 KCAL/MOL
REMARK 923 INTER-LIGAND FREE ENERGY PREDICTED BY IDOCK:   -4.37 KCAL/MOL
REMARK 924 INTRA-LIGAND FREE ENERGY PREDICTED BY IDOCK:   -0.74 KCAL/MOL
REMARK 927      BINDING AFFINITY PREDICTED BY RF-SCORE:    0.00 PKD
ROOT
HETATM    1  O   UNL     1     -10.195   4.524  71.828  1.00  0.00    -0.193 OA 
HETATM    2  C   UNL     1     -10.311   4.949  70.535  1.00  0.00    -0.172 A  
HETATM    3  H   UNL     1     -10.642   5.021  72.504  1.00  0.00     0.000 HD 
HETATM    4  C   UNL     1      -9.653   4.217  69.540  1.00  0.00    -0.274 A  
HETATM    5  C   UNL     1      -9.739   4.609  68.204  1.00  0.00    -0.197 A  
HETATM    6  C   UNL     1     -10.483   5.730  67.855  1.00  0.00    -0.290 A  
HETATM    7  C   UNL     1     -11.141   6.462  68.846  1.00  0.00    -0.420 A  
HETATM    8  C   UNL     1     -11.062   6.085  70.202  1.00  0.00    -0.432 A  
ENDROOT
BRANCH   8   9
HETATM    9  C   UNL     1     -11.829   6.933  71.164  1.00  0.00    -0.349 C  
HETATM   10  O   UNL     1     -12.849   6.527  71.709  1.00  0.00    -0.293 OA 
BRANCH   9  11
HETATM   11  O   UNL     1     -11.230   8.160  71.369  1.00  0.00    -0.243 OA 
BRANCH  11  12
HETATM   12  C   UNL     1     -10.025   8.195  72.092  1.00  0.00    -0.247 A  
HETATM   13  C   UNL     1      -9.951   7.722  73.403  1.00  0.00    -0.348 A  
HETATM   14  C   UNL     1      -8.718   7.687  74.052  1.00  0.00    -0.303 A  
HETATM   15  C   UNL     1      -7.566   8.101  73.382  1.00  0.00    -0.200 A  
HETATM   16  C   UNL     1      -7.644   8.553  72.064  1.00  0.00    -0.132 A  
HETATM   17  C   UNL     1      -8.877   8.597  71.410  1.00  0.00    -0.276 A  
ENDBRANCH  11  12
ENDBRANCH   9  11
ENDBRANCH   8   9
TORSDOF 3
ENDMDL
MODEL      162
REMARK 921   NORMALIZED FREE ENERGY PREDICTED BY IDOCK:   -4.04 KCAL/MOL
REMARK 922        TOTAL FREE ENERGY PREDICTED BY IDOCK:   -5.09 KCAL/MOL
REMARK 923 INTER-LIGAND FREE ENERGY PREDICTED BY IDOCK:   -4.62 KCAL/MOL
REMARK 924 INTRA-LIGAND FREE ENERGY PREDICTED BY IDOCK:   -0.48 KCAL/MOL
REMARK 927      BINDING AFFINITY PREDICTED BY RF-SCORE:    0.00 PKD
ROOT
HETATM    1  O   UNL     1     -10.228   4.817  72.301  1.00  0.00    -0.181 OA 
HETATM    2  C   UNL     1     -10.204   4.879  70.937  1.00  0.00    -0.202 A  
HETATM    3  H   UNL     1     -10.627   5.539  72.774  1.00  0.00     0.000 HD 
HETATM    4  C   UNL     1      -9.615   3.817  70.240  1.00  0.00    -0.257 A  
HETATM    5  C   UNL     1      -9.565   3.831  68.846  1.00  0.00    -0.183 A  
HETATM    6  C   UNL     1     -10.105   4.901  68.142  1.00  0.00    -0.141 A  
HETATM    7  C   UNL     1     -10.693   5.961  68.835  1.00  0.00    -0.370 A  
HETATM    8  C   UNL     1     -10.749   5.969  70.243  1.00  0.00    -0.367 A  
ENDROOT
BRANCH   8   9
HETATM    9  C   UNL     1     -11.425   7.146  70.867  1.00  0.00    -0.297 C  
HETATM   10  O   UNL     1     -12.578   7.084  71.276  1.00  0.00    -0.372 OA 
BRANCH   9  11
HETATM   11  O   UNL     1     -10.591   8.243  70.948  1.00  0.00    -0.202 OA 
BRANCH  11  12
HETATM   12  C   UNL     1     -10.946   9.399  70.232  1.00  0.00    -0.262 A  
HETATM   13  C   UNL     1     -10.814   9.463  68.844  1.00  0.00    -0.151 A  
HETATM   14  C   UNL     1     -11.266  10.591  68.161  1.00  0.00    -0.357 A  
HETATM   15  C   UNL     1     -11.867  11.636  68.864  1.00  0.00    -0.392 A  
HETATM   16  C   UNL     1     -12.015  11.557  70.249  1.00  0.00    -0.455 A  
HETATM   17  C   UNL     1     -11.559  10.433  70.940  1.00  0.00    -0.428 A  
ENDBRANCH  11  12
ENDBRANCH   9  11
ENDBRANCH   8   9
TORSDOF 3
ENDMDL
MODEL      163
REMARK 921   NORMALIZED FREE ENERGY PREDICTED BY IDOCK:   -4.00 KCAL/MOL
REMARK 922        TOTAL FREE ENERGY PREDICTED BY IDOCK:   -5.05 KCAL/MOL
REMARK 923 INTER-LIGAND FREE ENERGY PREDICTED BY IDOCK:   -4.31 KCAL/MOL
REMARK 924 INTRA-LIGAND FREE ENERGY PREDICTED BY IDOCK:   -0.74 KCAL/MOL
REMARK 927      BINDING AFFINITY PREDICTED BY RF-SCORE:    0.00 PKD
ROOT
HETATM    1  O   UNL     1     -12.079  10.793  68.470  1.00  0.00    -0.788 OA 
HETATM    2  C   UNL     1     -10.802  11.121  68.111  1.00  0.00    -0.219 A  
HETATM    3  H   UNL     1     -12.633  11.479  68.826  1.00  0.00     0.000 HD 
HETATM    4  C   UNL     1      -9.986  10.110  67.588  1.00  0.00    -0.216 A  
HETATM    5  C   UNL     1      -8.674  10.392  67.206  1.00  0.00    -0.125 A  
HETATM    6  C   UNL     1      -8.172  11.681  67.341  1.00  0.00    -0.153 A  
HETATM    7  C   UNL     1      -8.985  12.691  67.862  1.00  0.00    -0.189 A  
HETATM    8  C   UNL     1     -10.311  12.425  68.259  1.00  0.00    -0.232 A  
ENDROOT
BRANCH   8   9
HETATM    9  C   UNL     1     -11.087  13.592  68.778  1.00  0.00    -0.270 C  
HETATM   10  O   UNL     1     -10.711  14.232  69.754  1.00  0.00    -0.093 OA 
BRANCH   9  11
HETATM   11  O   UNL     1     -12.206  13.856  68.014  1.00  0.00    -0.326 OA 
BRANCH  11  12
HETATM   12  C   UNL     1     -12.033  14.045  66.632  1.00  0.00    -0.445 A  
HETATM   13  C   UNL     1     -12.695  13.242  65.702  1.00  0.00    -0.373 A  
HETATM   14  C   UNL     1     -12.572  13.521  64.341  1.00  0.00    -0.233 A  
HETATM   15  C   UNL     1     -11.809  14.611  63.921  1.00  0.00     0.038 A  
HETATM   16  C   UNL     1     -11.167  15.423  64.857  1.00  0.00    -0.410 A  
HETATM   17  C   UNL     1     -11.281  15.145  66.221  1.00  0.00    -0.273 A  
ENDBRANCH  11  12
ENDBRANCH   9  11
ENDBRANCH   8   9
TORSDOF 3
ENDMDL
MODEL      164
REMARK 921   NORMALIZED FREE ENERGY PREDICTED BY IDOCK:   -4.00 KCAL/MOL
REMARK 922        TOTAL FREE ENERGY PREDICTED BY IDOCK:   -5.05 KCAL/MOL
REMARK 923 INTER-LIGAND FREE ENERGY PREDICTED BY IDOCK:   -4.36 KCAL/MOL
REMARK 924 INTRA-LIGAND FREE ENERGY PREDICTED BY IDOCK:   -0.69 KCAL/MOL
REMARK 927      BINDING AFFINITY PREDICTED BY RF-SCORE:    0.00 PKD
ROOT
HETATM    1  O   UNL     1     -13.430  10.203  72.335  1.00  0.00    -0.620 OA 
HETATM    2  C   UNL     1     -12.500  10.418  71.358  1.00  0.00    -0.415 A  
HETATM    3  H   UNL     1     -13.350   9.416  72.862  1.00  0.00     0.000 HD 
HETATM    4  C   UNL     1     -12.618  11.578  70.581  1.00  0.00    -0.337 A  
HETATM    5  C   UNL     1     -11.695  11.845  69.570  1.00  0.00    -0.410 A  
HETATM    6  C   UNL     1     -10.649  10.960  69.332  1.00  0.00    -0.233 A  
HETATM    7  C   UNL     1     -10.529   9.803  70.106  1.00  0.00    -0.338 A  
HETATM    8  C   UNL     1     -11.455   9.513  71.128  1.00  0.00    -0.430 A  
ENDROOT
BRANCH   8   9
HETATM    9  C   UNL     1     -11.205   8.259  71.902  1.00  0.00    -0.300 C  
HETATM   10  O   UNL     1     -11.910   7.937  72.852  1.00  0.00    -0.307 OA 
BRANCH   9  11
HETATM   11  O   UNL     1     -10.148   7.533  71.391  1.00  0.00    -0.186 OA 
BRANCH  11  12
HETATM   12  C   UNL     1      -9.099   7.190  72.261  1.00  0.00    -0.132 A  
HETATM   13  C   UNL     1      -8.912   5.875  72.689  1.00  0.00    -0.131 A  
HETATM   14  C   UNL     1      -7.805   5.559  73.476  1.00  0.00    -0.103 A  
HETATM   15  C   UNL     1      -6.882   6.551  73.811  1.00  0.00    -0.077 A  
HETATM   16  C   UNL     1      -7.065   7.860  73.362  1.00  0.00    -0.124 A  
HETATM   17  C   UNL     1      -8.174   8.185  72.579  1.00  0.00    -0.215 A  
ENDBRANCH  11  12
ENDBRANCH   9  11
ENDBRANCH   8   9
TORSDOF 3
ENDMDL
MODEL      165
REMARK 921   NORMALIZED FREE ENERGY PREDICTED BY IDOCK:   -3.99 KCAL/MOL
REMARK 922        TOTAL FREE ENERGY PREDICTED BY IDOCK:   -5.04 KCAL/MOL
REMARK 923 INTER-LIGAND FREE ENERGY PREDICTED BY IDOCK:   -4.49 KCAL/MOL
REMARK 924 INTRA-LIGAND FREE ENERGY PREDICTED BY IDOCK:   -0.54 KCAL/MOL
REMARK 927      BINDING AFFINITY PREDICTED BY RF-SCORE:    0.00 PKD
ROOT
HETATM    1  O   UNL     1      -8.086   9.436  71.005  1.00  0.00    -0.300 OA 
HETATM    2  C   UNL     1      -9.443   9.315  71.106  1.00  0.00    -0.217 A  
HETATM    3  H   UNL     1      -7.736   9.945  70.283  1.00  0.00     0.000 HD 
HETATM    4  C   UNL     1      -9.959   8.564  72.170  1.00  0.00    -0.387 A  
HETATM    5  C   UNL     1     -11.337   8.409  72.319  1.00  0.00    -0.448 A  
HETATM    6  C   UNL     1     -12.206   9.005  71.411  1.00  0.00    -0.387 A  
HETATM    7  C   UNL     1     -11.693   9.754  70.350  1.00  0.00    -0.301 A  
HETATM    8  C   UNL     1     -10.304   9.918  70.179  1.00  0.00    -0.336 A  
ENDROOT
BRANCH   8   9
HETATM    9  C   UNL     1      -9.881  10.762  69.021  1.00  0.00    -0.194 C  
HETATM   10  O   UNL     1      -8.919  10.463  68.323  1.00  0.00    -0.129 OA 
BRANCH   9  11
HETATM   11  O   UNL     1     -10.713  11.848  68.836  1.00  0.00    -0.221 OA 
BRANCH  11  12
HETATM   12  C   UNL     1     -10.321  12.831  67.912  1.00  0.00    -0.226 A  
HETATM   13  C   UNL     1     -10.668  12.740  66.563  1.00  0.00    -0.277 A  
HETATM   14  C   UNL     1     -10.342  13.782  65.696  1.00  0.00    -0.321 A  
HETATM   15  C   UNL     1      -9.694  14.917  66.185  1.00  0.00    -0.333 A  
HETATM   16  C   UNL     1      -9.369  15.012  67.539  1.00  0.00    -0.195 A  
HETATM   17  C   UNL     1      -9.687  13.969  68.411  1.00  0.00    -0.223 A  
ENDBRANCH  11  12
ENDBRANCH   9  11
ENDBRANCH   8   9
TORSDOF 3
ENDMDL
MODEL      166
REMARK 921   NORMALIZED FREE ENERGY PREDICTED BY IDOCK:   -3.97 KCAL/MOL
REMARK 922        TOTAL FREE ENERGY PREDICTED BY IDOCK:   -5.01 KCAL/MOL
REMARK 923 INTER-LIGAND FREE ENERGY PREDICTED BY IDOCK:   -4.43 KCAL/MOL
REMARK 924 INTRA-LIGAND FREE ENERGY PREDICTED BY IDOCK:   -0.58 KCAL/MOL
REMARK 927      BINDING AFFINITY PREDICTED BY RF-SCORE:    0.00 PKD
ROOT
HETATM    1  O   UNL     1     -12.322  12.143  65.748  1.00  0.00    -0.564 OA 
HETATM    2  C   UNL     1     -11.528  12.957  66.505  1.00  0.00    -0.341 A  
HETATM    3  H   UNL     1     -12.076  11.229  65.666  1.00  0.00     0.000 HD 
HETATM    4  C   UNL     1     -11.890  14.304  66.624  1.00  0.00    -0.442 A  
HETATM    5  C   UNL     1     -11.113  15.177  67.385  1.00  0.00    -0.325 A  
HETATM    6  C   UNL     1      -9.975  14.711  68.033  1.00  0.00    -0.220 A  
HETATM    7  C   UNL     1      -9.612  13.367  67.916  1.00  0.00    -0.216 A  
HETATM    8  C   UNL     1     -10.381  12.470  67.147  1.00  0.00    -0.230 A  
ENDROOT
BRANCH   8   9
HETATM    9  C   UNL     1      -9.904  11.054  67.119  1.00  0.00    -0.184 C  
HETATM   10  O   UNL     1      -8.711  10.778  67.062  1.00  0.00    -0.134 OA 
BRANCH   9  11
HETATM   11  O   UNL     1     -10.945  10.152  67.206  1.00  0.00    -0.266 OA 
BRANCH  11  12
HETATM   12  C   UNL     1     -10.696   8.913  67.821  1.00  0.00    -0.137 A  
HETATM   13  C   UNL     1     -10.657   8.786  69.210  1.00  0.00    -0.210 A  
HETATM   14  C   UNL     1     -10.502   7.525  69.782  1.00  0.00    -0.232 A  
HETATM   15  C   UNL     1     -10.411   6.396  68.966  1.00  0.00    -0.238 A  
HETATM   16  C   UNL     1     -10.472   6.527  67.578  1.00  0.00    -0.297 A  
HETATM   17  C   UNL     1     -10.621   7.789  66.998  1.00  0.00    -0.396 A  
ENDBRANCH  11  12
ENDBRANCH   9  11
ENDBRANCH   8   9
TORSDOF 3
ENDMDL
MODEL      167
REMARK 921   NORMALIZED FREE ENERGY PREDICTED BY IDOCK:   -3.96 KCAL/MOL
REMARK 922        TOTAL FREE ENERGY PREDICTED BY IDOCK:   -5.00 KCAL/MOL
REMARK 923 INTER-LIGAND FREE ENERGY PREDICTED BY IDOCK:   -4.32 KCAL/MOL
REMARK 924 INTRA-LIGAND FREE ENERGY PREDICTED BY IDOCK:   -0.68 KCAL/MOL
REMARK 927      BINDING AFFINITY PREDICTED BY RF-SCORE:    0.00 PKD
ROOT
HETATM    1  O   UNL     1     -11.409   6.274  66.614  1.00  0.00    -0.741 OA 
HETATM    2  C   UNL     1     -10.598   6.528  67.683  1.00  0.00    -0.269 A  
HETATM    3  H   UNL     1     -11.083   6.481  65.746  1.00  0.00     0.000 HD 
HETATM    4  C   UNL     1     -11.079   6.223  68.962  1.00  0.00    -0.446 A  
HETATM    5  C   UNL     1     -10.290   6.464  70.087  1.00  0.00    -0.245 A  
HETATM    6  C   UNL     1      -9.018   7.005  69.941  1.00  0.00    -0.142 A  
HETATM    7  C   UNL     1      -8.535   7.309  68.666  1.00  0.00    -0.129 A  
HETATM    8  C   UNL     1      -9.319   7.078  67.518  1.00  0.00    -0.134 A  
ENDROOT
BRANCH   8   9
HETATM    9  C   UNL     1      -8.683   7.422  66.210  1.00  0.00    -0.149 C  
HETATM   10  O   UNL     1      -8.646   6.622  65.282  1.00  0.00    -0.119 OA 
BRANCH   9  11
HETATM   11  O   UNL     1      -8.205   8.717  66.187  1.00  0.00    -0.113 OA 
BRANCH  11  12
HETATM   12  C   UNL     1      -9.056   9.727  65.708  1.00  0.00    -0.177 A  
HETATM   13  C   UNL     1      -9.226   9.946  64.340  1.00  0.00    -0.317 A  
HETATM   14  C   UNL     1     -10.150  10.894  63.904  1.00  0.00    -0.422 A  
HETATM   15  C   UNL     1     -10.914  11.601  64.835  1.00  0.00    -0.345 A  
HETATM   16  C   UNL     1     -10.755  11.362  66.201  1.00  0.00    -0.320 A  
HETATM   17  C   UNL     1      -9.826  10.418  66.644  1.00  0.00    -0.251 A  
ENDBRANCH  11  12
ENDBRANCH   9  11
ENDBRANCH   8   9
TORSDOF 3
ENDMDL
MODEL      168
REMARK 921   NORMALIZED FREE ENERGY PREDICTED BY IDOCK:   -3.95 KCAL/MOL
REMARK 922        TOTAL FREE ENERGY PREDICTED BY IDOCK:   -4.99 KCAL/MOL
REMARK 923 INTER-LIGAND FREE ENERGY PREDICTED BY IDOCK:   -4.31 KCAL/MOL
REMARK 924 INTRA-LIGAND FREE ENERGY PREDICTED BY IDOCK:   -0.68 KCAL/MOL
REMARK 927      BINDING AFFINITY PREDICTED BY RF-SCORE:    0.00 PKD
ROOT
HETATM    1  O   UNL     1      -8.781   8.901  72.490  1.00  0.00    -0.391 OA 
HETATM    2  C   UNL     1      -9.872   8.261  71.974  1.00  0.00    -0.257 A  
HETATM    3  H   UNL     1      -8.144   9.260  71.882  1.00  0.00     0.000 HD 
HETATM    4  C   UNL     1     -10.810   7.733  72.869  1.00  0.00    -0.453 A  
HETATM    5  C   UNL     1     -11.941   7.070  72.394  1.00  0.00    -0.179 A  
HETATM    6  C   UNL     1     -12.144   6.934  71.025  1.00  0.00    -0.429 A  
HETATM    7  C   UNL     1     -11.210   7.461  70.130  1.00  0.00    -0.239 A  
HETATM    8  C   UNL     1     -10.058   8.129  70.591  1.00  0.00    -0.209 A  
ENDROOT
BRANCH   8   9
HETATM    9  C   UNL     1      -9.147   8.669  69.536  1.00  0.00    -0.146 C  
HETATM   10  O   UNL     1      -8.626   7.940  68.700  1.00  0.00    -0.128 OA 
BRANCH   9  11
HETATM   11  O   UNL     1      -9.019  10.042  69.610  1.00  0.00    -0.198 OA 
BRANCH  11  12
HETATM   12  C   UNL     1      -9.805  10.827  68.749  1.00  0.00    -0.194 A  
HETATM   13  C   UNL     1      -9.569  10.853  67.373  1.00  0.00    -0.181 A  
HETATM   14  C   UNL     1     -10.428  11.569  66.542  1.00  0.00    -0.284 A  
HETATM   15  C   UNL     1     -11.529  12.235  67.084  1.00  0.00    -0.419 A  
HETATM   16  C   UNL     1     -11.771  12.187  68.458  1.00  0.00    -0.382 A  
HETATM   17  C   UNL     1     -10.910  11.476  69.297  1.00  0.00    -0.217 A  
ENDBRANCH  11  12
ENDBRANCH   9  11
ENDBRANCH   8   9
TORSDOF 3
ENDMDL
MODEL      169
REMARK 921   NORMALIZED FREE ENERGY PREDICTED BY IDOCK:   -3.95 KCAL/MOL
REMARK 922        TOTAL FREE ENERGY PREDICTED BY IDOCK:   -4.99 KCAL/MOL
REMARK 923 INTER-LIGAND FREE ENERGY PREDICTED BY IDOCK:   -4.39 KCAL/MOL
REMARK 924 INTRA-LIGAND FREE ENERGY PREDICTED BY IDOCK:   -0.59 KCAL/MOL
REMARK 927      BINDING AFFINITY PREDICTED BY RF-SCORE:    0.00 PKD
ROOT
HETATM    1  O   UNL     1      -8.971   9.497  69.897  1.00  0.00    -0.177 OA 
HETATM    2  C   UNL     1      -9.737   8.381  69.710  1.00  0.00    -0.180 A  
HETATM    3  H   UNL     1      -8.600   9.918  69.131  1.00  0.00     0.000 HD 
HETATM    4  C   UNL     1     -10.284   7.760  70.839  1.00  0.00    -0.207 A  
HETATM    5  C   UNL     1     -11.073   6.618  70.702  1.00  0.00    -0.349 A  
HETATM    6  C   UNL     1     -11.322   6.093  69.440  1.00  0.00    -0.401 A  
HETATM    7  C   UNL     1     -10.778   6.711  68.312  1.00  0.00    -0.317 A  
HETATM    8  C   UNL     1      -9.974   7.862  68.429  1.00  0.00    -0.198 A  
ENDROOT
BRANCH   8   9
HETATM    9  C   UNL     1      -9.471   8.444  67.148  1.00  0.00    -0.163 C  
HETATM   10  O   UNL     1      -9.376   7.771  66.129  1.00  0.00    -0.169 OA 
BRANCH   9  11
HETATM   11  O   UNL     1      -9.184   9.790  67.264  1.00  0.00    -0.134 OA 
BRANCH  11  12
HETATM   12  C   UNL     1     -10.151  10.712  66.829  1.00  0.00    -0.224 A  
HETATM   13  C   UNL     1     -10.854  11.509  67.734  1.00  0.00    -0.270 A  
HETATM   14  C   UNL     1     -11.736  12.477  67.257  1.00  0.00    -0.431 A  
HETATM   15  C   UNL     1     -11.893  12.660  65.882  1.00  0.00    -0.499 A  
HETATM   16  C   UNL     1     -11.172  11.874  64.983  1.00  0.00    -0.350 A  
HETATM   17  C   UNL     1     -10.292  10.897  65.454  1.00  0.00    -0.326 A  
ENDBRANCH  11  12
ENDBRANCH   9  11
ENDBRANCH   8   9
TORSDOF 3
ENDMDL
MODEL      170
REMARK 921   NORMALIZED FREE ENERGY PREDICTED BY IDOCK:   -3.95 KCAL/MOL
REMARK 922        TOTAL FREE ENERGY PREDICTED BY IDOCK:   -4.99 KCAL/MOL
REMARK 923 INTER-LIGAND FREE ENERGY PREDICTED BY IDOCK:   -4.44 KCAL/MOL
REMARK 924 INTRA-LIGAND FREE ENERGY PREDICTED BY IDOCK:   -0.54 KCAL/MOL
REMARK 927      BINDING AFFINITY PREDICTED BY RF-SCORE:    0.00 PKD
ROOT
HETATM    1  O   UNL     1      -8.662  16.886  65.741  1.00  0.00    -0.512 OA 
HETATM    2  C   UNL     1      -9.089  17.835  66.626  1.00  0.00    -0.266 A  
HETATM    3  H   UNL     1      -7.862  16.415  65.942  1.00  0.00     0.000 HD 
HETATM    4  C   UNL     1     -10.269  18.529  66.330  1.00  0.00    -0.449 A  
HETATM    5  C   UNL     1     -10.748  19.508  67.201  1.00  0.00    -0.599 A  
HETATM    6  C   UNL     1     -10.055  19.795  68.371  1.00  0.00    -0.568 A  
HETATM    7  C   UNL     1      -8.879  19.104  68.669  1.00  0.00    -0.404 A  
HETATM    8  C   UNL     1      -8.376  18.115  67.800  1.00  0.00    -0.253 A  
ENDROOT
BRANCH   8   9
HETATM    9  C   UNL     1      -7.123  17.430  68.241  1.00  0.00    -0.203 C  
HETATM   10  O   UNL     1      -6.053  17.616  67.674  1.00  0.00    -0.148 OA 
BRANCH   9  11
HETATM   11  O   UNL     1      -7.329  16.631  69.348  1.00  0.00    -0.222 OA 
BRANCH  11  12
HETATM   12  C   UNL     1      -6.977  15.273  69.258  1.00  0.00    -0.166 A  
HETATM   13  C   UNL     1      -6.241  14.646  70.263  1.00  0.00    -0.173 A  
HETATM   14  C   UNL     1      -5.994  13.276  70.182  1.00  0.00    -0.139 A  
HETATM   15  C   UNL     1      -6.502  12.539  69.112  1.00  0.00    -0.099 A  
HETATM   16  C   UNL     1      -7.256  13.169  68.120  1.00  0.00    -0.117 A  
HETATM   17  C   UNL     1      -7.501  14.541  68.193  1.00  0.00    -0.126 A  
ENDBRANCH  11  12
ENDBRANCH   9  11
ENDBRANCH   8   9
TORSDOF 3
ENDMDL
MODEL      171
REMARK 921   NORMALIZED FREE ENERGY PREDICTED BY IDOCK:   -3.95 KCAL/MOL
REMARK 922        TOTAL FREE ENERGY PREDICTED BY IDOCK:   -4.98 KCAL/MOL
REMARK 923 INTER-LIGAND FREE ENERGY PREDICTED BY IDOCK:   -4.48 KCAL/MOL
REMARK 924 INTRA-LIGAND FREE ENERGY PREDICTED BY IDOCK:   -0.51 KCAL/MOL
REMARK 927      BINDING AFFINITY PREDICTED BY RF-SCORE:    0.00 PKD
ROOT
HETATM    1  O   UNL     1      -9.524   8.684  69.577  1.00  0.00    -0.159 OA 
HETATM    2  C   UNL     1     -10.652   8.426  70.303  1.00  0.00    -0.227 A  
HETATM    3  H   UNL     1      -9.194   8.000  69.006  1.00  0.00     0.000 HD 
HETATM    4  C   UNL     1     -11.138   9.434  71.145  1.00  0.00    -0.432 A  
HETATM    5  C   UNL     1     -12.287   9.222  71.908  1.00  0.00    -0.454 A  
HETATM    6  C   UNL     1     -12.957   8.007  71.832  1.00  0.00    -0.335 A  
HETATM    7  C   UNL     1     -12.474   7.000  70.992  1.00  0.00    -0.373 A  
HETATM    8  C   UNL     1     -11.313   7.193  70.218  1.00  0.00    -0.305 A  
ENDROOT
BRANCH   8   9
HETATM    9  C   UNL     1     -10.912   6.050  69.342  1.00  0.00    -0.385 C  
HETATM   10  O   UNL     1     -10.381   5.044  69.798  1.00  0.00    -0.277 OA 
BRANCH   9  11
HETATM   11  O   UNL     1     -11.246   6.266  68.020  1.00  0.00    -0.323 OA 
BRANCH  11  12
HETATM   12  C   UNL     1     -10.327   5.871  67.033  1.00  0.00    -0.243 A  
HETATM   13  C   UNL     1     -10.530   4.720  66.270  1.00  0.00    -0.311 A  
HETATM   14  C   UNL     1      -9.645   4.414  65.237  1.00  0.00    -0.186 A  
HETATM   15  C   UNL     1      -8.578   5.269  64.958  1.00  0.00    -0.150 A  
HETATM   16  C   UNL     1      -8.393   6.430  65.711  1.00  0.00    -0.146 A  
HETATM   17  C   UNL     1      -9.272   6.739  66.750  1.00  0.00    -0.172 A  
ENDBRANCH  11  12
ENDBRANCH   9  11
ENDBRANCH   8   9
TORSDOF 3
ENDMDL
MODEL      172
REMARK 921   NORMALIZED FREE ENERGY PREDICTED BY IDOCK:   -3.93 KCAL/MOL
REMARK 922        TOTAL FREE ENERGY PREDICTED BY IDOCK:   -4.97 KCAL/MOL
REMARK 923 INTER-LIGAND FREE ENERGY PREDICTED BY IDOCK:   -4.34 KCAL/MOL
REMARK 924 INTRA-LIGAND FREE ENERGY PREDICTED BY IDOCK:   -0.63 KCAL/MOL
REMARK 927      BINDING AFFINITY PREDICTED BY RF-SCORE:    0.00 PKD
ROOT
HETATM    1  O   UNL     1     -12.723  10.465  71.550  1.00  0.00    -0.386 OA 
HETATM    2  C   UNL     1     -11.853  10.754  70.538  1.00  0.00    -0.356 A  
HETATM    3  H   UNL     1     -12.521   9.730  72.118  1.00  0.00     0.000 HD 
HETATM    4  C   UNL     1     -12.151  11.837  69.701  1.00  0.00    -0.323 A  
HETATM    5  C   UNL     1     -11.295  12.173  68.652  1.00  0.00    -0.330 A  
HETATM    6  C   UNL     1     -10.137  11.434  68.436  1.00  0.00    -0.207 A  
HETATM    7  C   UNL     1      -9.837  10.354  69.270  1.00  0.00    -0.243 A  
HETATM    8  C   UNL     1     -10.692   9.995  70.331  1.00  0.00    -0.369 A  
ENDROOT
BRANCH   8   9
HETATM    9  C   UNL     1     -10.250   8.837  71.166  1.00  0.00    -0.246 C  
HETATM   10  O   UNL     1      -9.240   8.891  71.859  1.00  0.00    -0.310 OA 
BRANCH   9  11
HETATM   11  O   UNL     1     -11.121   7.770  71.080  1.00  0.00    -0.241 OA 
BRANCH  11  12
HETATM   12  C   UNL     1     -10.588   6.502  70.792  1.00  0.00    -0.231 A  
HETATM   13  C   UNL     1      -9.891   6.260  69.608  1.00  0.00    -0.192 A  
HETATM   14  C   UNL     1      -9.296   5.017  69.401  1.00  0.00    -0.179 A  
HETATM   15  C   UNL     1      -9.381   4.032  70.386  1.00  0.00    -0.230 A  
HETATM   16  C   UNL     1     -10.062   4.287  71.578  1.00  0.00    -0.205 A  
HETATM   17  C   UNL     1     -10.665   5.529  71.788  1.00  0.00    -0.289 A  
ENDBRANCH  11  12
ENDBRANCH   9  11
ENDBRANCH   8   9
TORSDOF 3
ENDMDL
MODEL      173
REMARK 921   NORMALIZED FREE ENERGY PREDICTED BY IDOCK:   -3.93 KCAL/MOL
REMARK 922        TOTAL FREE ENERGY PREDICTED BY IDOCK:   -4.96 KCAL/MOL
REMARK 923 INTER-LIGAND FREE ENERGY PREDICTED BY IDOCK:   -4.28 KCAL/MOL
REMARK 924 INTRA-LIGAND FREE ENERGY PREDICTED BY IDOCK:   -0.68 KCAL/MOL
REMARK 927      BINDING AFFINITY PREDICTED BY RF-SCORE:    0.00 PKD
ROOT
HETATM    1  O   UNL     1     -10.111  10.073  70.594  1.00  0.00    -0.374 OA 
HETATM    2  C   UNL     1     -11.341   9.701  71.058  1.00  0.00    -0.374 A  
HETATM    3  H   UNL     1      -9.486   9.389  70.387  1.00  0.00     0.000 HD 
HETATM    4  C   UNL     1     -12.263  10.711  71.363  1.00  0.00    -0.405 A  
HETATM    5  C   UNL     1     -13.532  10.384  71.841  1.00  0.00    -0.384 A  
HETATM    6  C   UNL     1     -13.889   9.052  72.012  1.00  0.00    -0.501 A  
HETATM    7  C   UNL     1     -12.972   8.043  71.707  1.00  0.00    -0.354 A  
HETATM    8  C   UNL     1     -11.682   8.353  71.229  1.00  0.00    -0.325 A  
ENDROOT
BRANCH   8   9
HETATM    9  C   UNL     1     -10.802   7.186  70.916  1.00  0.00    -0.244 C  
HETATM   10  O   UNL     1     -10.146   7.134  69.882  1.00  0.00    -0.187 OA 
BRANCH   9  11
HETATM   11  O   UNL     1     -10.803   6.247  71.927  1.00  0.00    -0.225 OA 
BRANCH  11  12
HETATM   12  C   UNL     1      -9.649   6.127  72.720  1.00  0.00    -0.155 A  
HETATM   13  C   UNL     1      -8.667   5.177  72.434  1.00  0.00    -0.124 A  
HETATM   14  C   UNL     1      -7.494   5.152  73.187  1.00  0.00    -0.092 A  
HETATM   15  C   UNL     1      -7.299   6.089  74.203  1.00  0.00    -0.088 A  
HETATM   16  C   UNL     1      -8.276   7.049  74.470  1.00  0.00    -0.189 A  
HETATM   17  C   UNL     1      -9.456   7.075  73.724  1.00  0.00    -0.258 A  
ENDBRANCH  11  12
ENDBRANCH   9  11
ENDBRANCH   8   9
TORSDOF 3
ENDMDL
MODEL      174
REMARK 921   NORMALIZED FREE ENERGY PREDICTED BY IDOCK:   -3.91 KCAL/MOL
REMARK 922        TOTAL FREE ENERGY PREDICTED BY IDOCK:   -4.94 KCAL/MOL
REMARK 923 INTER-LIGAND FREE ENERGY PREDICTED BY IDOCK:   -4.27 KCAL/MOL
REMARK 924 INTRA-LIGAND FREE ENERGY PREDICTED BY IDOCK:   -0.67 KCAL/MOL
REMARK 927      BINDING AFFINITY PREDICTED BY RF-SCORE:    0.00 PKD
ROOT
HETATM    1  O   UNL     1      -9.188  11.308  67.152  1.00  0.00    -0.160 OA 
HETATM    2  C   UNL     1     -10.203  11.826  66.399  1.00  0.00    -0.215 A  
HETATM    3  H   UNL     1      -9.033  11.683  68.012  1.00  0.00     0.000 HD 
HETATM    4  C   UNL     1     -10.431  11.274  65.132  1.00  0.00    -0.351 A  
HETATM    5  C   UNL     1     -11.454  11.767  64.323  1.00  0.00    -0.386 A  
HETATM    6  C   UNL     1     -12.256  12.809  64.774  1.00  0.00    -0.517 A  
HETATM    7  C   UNL     1     -12.031  13.361  66.037  1.00  0.00    -0.460 A  
HETATM    8  C   UNL     1     -10.999  12.881  66.867  1.00  0.00    -0.294 A  
ENDROOT
BRANCH   8   9
HETATM    9  C   UNL     1     -10.874  13.536  68.205  1.00  0.00    -0.254 C  
HETATM   10  O   UNL     1     -10.978  12.898  69.246  1.00  0.00    -0.179 OA 
BRANCH   9  11
HETATM   11  O   UNL     1     -10.599  14.885  68.100  1.00  0.00    -0.238 OA 
BRANCH  11  12
HETATM   12  C   UNL     1      -9.257  15.276  67.959  1.00  0.00    -0.188 A  
HETATM   13  C   UNL     1      -8.829  16.016  66.855  1.00  0.00    -0.258 A  
HETATM   14  C   UNL     1      -7.511  16.466  66.797  1.00  0.00    -0.278 A  
HETATM   15  C   UNL     1      -6.636  16.194  67.850  1.00  0.00    -0.155 A  
HETATM   16  C   UNL     1      -7.075  15.472  68.961  1.00  0.00    -0.147 A  
HETATM   17  C   UNL     1      -8.393  15.014  69.022  1.00  0.00    -0.194 A  
ENDBRANCH  11  12
ENDBRANCH   9  11
ENDBRANCH   8   9
TORSDOF 3
ENDMDL
MODEL      175
REMARK 921   NORMALIZED FREE ENERGY PREDICTED BY IDOCK:   -3.90 KCAL/MOL
REMARK 922        TOTAL FREE ENERGY PREDICTED BY IDOCK:   -4.93 KCAL/MOL
REMARK 923 INTER-LIGAND FREE ENERGY PREDICTED BY IDOCK:   -4.25 KCAL/MOL
REMARK 924 INTRA-LIGAND FREE ENERGY PREDICTED BY IDOCK:   -0.68 KCAL/MOL
REMARK 927      BINDING AFFINITY PREDICTED BY RF-SCORE:    0.00 PKD
ROOT
HETATM    1  O   UNL     1     -10.049  19.083  69.821  1.00  0.00    -0.235 OA 
HETATM    2  C   UNL     1     -10.035  18.878  68.470  1.00  0.00    -0.406 A  
HETATM    3  H   UNL     1      -9.472  18.553  70.359  1.00  0.00     0.000 HD 
HETATM    4  C   UNL     1     -10.885  19.658  67.677  1.00  0.00    -0.413 A  
HETATM    5  C   UNL     1     -10.909  19.489  66.293  1.00  0.00    -0.430 A  
HETATM    6  C   UNL     1     -10.083  18.545  65.694  1.00  0.00     0.173 A  
HETATM    7  C   UNL     1      -9.233  17.766  66.483  1.00  0.00    -0.280 A  
HETATM    8  C   UNL     1      -9.198  17.919  67.884  1.00  0.00    -0.263 A  
ENDROOT
BRANCH   8   9
HETATM    9  C   UNL     1      -8.230  17.045  68.615  1.00  0.00    -0.261 C  
HETATM   10  O   UNL     1      -8.607  16.186  69.403  1.00  0.00    -0.227 OA 
BRANCH   9  11
HETATM   11  O   UNL     1      -6.922  17.306  68.259  1.00  0.00    -0.174 OA 
BRANCH  11  12
HETATM   12  C   UNL     1      -6.328  18.485  68.741  1.00  0.00    -0.223 A  
HETATM   13  C   UNL     1      -6.279  19.643  67.964  1.00  0.00    -0.246 A  
HETATM   14  C   UNL     1      -5.767  20.818  68.513  1.00  0.00    -0.380 A  
HETATM   15  C   UNL     1      -5.328  20.834  69.837  1.00  0.00    -0.404 A  
HETATM   16  C   UNL     1      -5.398  19.677  70.615  1.00  0.00    -0.261 A  
HETATM   17  C   UNL     1      -5.905  18.496  70.070  1.00  0.00    -0.223 A  
ENDBRANCH  11  12
ENDBRANCH   9  11
ENDBRANCH   8   9
TORSDOF 3
ENDMDL
MODEL      176
REMARK 921   NORMALIZED FREE ENERGY PREDICTED BY IDOCK:   -3.90 KCAL/MOL
REMARK 922        TOTAL FREE ENERGY PREDICTED BY IDOCK:   -4.93 KCAL/MOL
REMARK 923 INTER-LIGAND FREE ENERGY PREDICTED BY IDOCK:   -4.70 KCAL/MOL
REMARK 924 INTRA-LIGAND FREE ENERGY PREDICTED BY IDOCK:   -0.23 KCAL/MOL
REMARK 927      BINDING AFFINITY PREDICTED BY RF-SCORE:    0.00 PKD
ROOT
HETATM    1  O   UNL     1      -8.778  15.543  66.165  1.00  0.00    -0.386 OA 
HETATM    2  C   UNL     1      -9.014  16.743  66.773  1.00  0.00    -0.240 A  
HETATM    3  H   UNL     1      -9.261  14.784  66.471  1.00  0.00     0.000 HD 
HETATM    4  C   UNL     1      -8.301  17.861  66.323  1.00  0.00    -0.230 A  
HETATM    5  C   UNL     1      -8.505  19.109  66.911  1.00  0.00    -0.309 A  
HETATM    6  C   UNL     1      -9.421  19.249  67.946  1.00  0.00    -0.393 A  
HETATM    7  C   UNL     1     -10.133  18.135  68.397  1.00  0.00    -0.401 A  
HETATM    8  C   UNL     1      -9.938  16.864  67.820  1.00  0.00    -0.278 A  
ENDROOT
BRANCH   8   9
HETATM    9  C   UNL     1     -10.777  15.757  68.373  1.00  0.00    -0.281 C  
HETATM   10  O   UNL     1     -11.982  15.890  68.549  1.00  0.00    -0.306 OA 
BRANCH   9  11
HETATM   11  O   UNL     1     -10.042  14.612  68.603  1.00  0.00    -0.225 OA 
BRANCH  11  12
HETATM   12  C   UNL     1     -10.446  13.427  67.964  1.00  0.00    -0.239 A  
HETATM   13  C   UNL     1     -11.393  13.442  66.940  1.00  0.00    -0.351 A  
HETATM   14  C   UNL     1     -11.698  12.259  66.267  1.00  0.00    -0.431 A  
HETATM   15  C   UNL     1     -11.038  11.076  66.605  1.00  0.00    -0.201 A  
HETATM   16  C   UNL     1     -10.076  11.073  67.616  1.00  0.00    -0.208 A  
HETATM   17  C   UNL     1      -9.771  12.253  68.297  1.00  0.00    -0.219 A  
ENDBRANCH  11  12
ENDBRANCH   9  11
ENDBRANCH   8   9
TORSDOF 3
ENDMDL
MODEL      177
REMARK 921   NORMALIZED FREE ENERGY PREDICTED BY IDOCK:   -3.90 KCAL/MOL
REMARK 922        TOTAL FREE ENERGY PREDICTED BY IDOCK:   -4.93 KCAL/MOL
REMARK 923 INTER-LIGAND FREE ENERGY PREDICTED BY IDOCK:   -4.30 KCAL/MOL
REMARK 924 INTRA-LIGAND FREE ENERGY PREDICTED BY IDOCK:   -0.63 KCAL/MOL
REMARK 927      BINDING AFFINITY PREDICTED BY RF-SCORE:    0.00 PKD
ROOT
HETATM    1  O   UNL     1      -8.435   7.342  67.016  1.00  0.00    -0.116 OA 
HETATM    2  C   UNL     1      -8.404   7.876  65.759  1.00  0.00    -0.136 A  
HETATM    3  H   UNL     1      -8.932   7.799  67.684  1.00  0.00     0.000 HD 
HETATM    4  C   UNL     1      -7.671   7.203  64.775  1.00  0.00    -0.115 A  
HETATM    5  C   UNL     1      -7.607   7.707  63.476  1.00  0.00    -0.119 A  
HETATM    6  C   UNL     1      -8.277   8.881  63.152  1.00  0.00    -0.183 A  
HETATM    7  C   UNL     1      -9.010   9.554  64.132  1.00  0.00    -0.240 A  
HETATM    8  C   UNL     1      -9.082   9.064  65.452  1.00  0.00    -0.250 A  
ENDROOT
BRANCH   8   9
HETATM    9  C   UNL     1      -9.916   9.860  66.402  1.00  0.00    -0.244 C  
HETATM   10  O   UNL     1     -10.700   9.323  67.177  1.00  0.00    -0.251 OA 
BRANCH   9  11
HETATM   11  O   UNL     1      -9.659  11.214  66.314  1.00  0.00    -0.194 OA 
BRANCH  11  12
HETATM   12  C   UNL     1     -10.746  12.082  66.115  1.00  0.00    -0.275 A  
HETATM   13  C   UNL     1     -11.041  13.097  67.026  1.00  0.00    -0.305 A  
HETATM   14  C   UNL     1     -12.069  13.996  66.746  1.00  0.00    -0.480 A  
HETATM   15  C   UNL     1     -12.779  13.890  65.549  1.00  0.00    -0.536 A  
HETATM   16  C   UNL     1     -12.466  12.885  64.632  1.00  0.00    -0.499 A  
HETATM   17  C   UNL     1     -11.441  11.978  64.910  1.00  0.00    -0.352 A  
ENDBRANCH  11  12
ENDBRANCH   9  11
ENDBRANCH   8   9
TORSDOF 3
ENDMDL
MODEL      178
REMARK 921   NORMALIZED FREE ENERGY PREDICTED BY IDOCK:   -3.89 KCAL/MOL
REMARK 922        TOTAL FREE ENERGY PREDICTED BY IDOCK:   -4.92 KCAL/MOL
REMARK 923 INTER-LIGAND FREE ENERGY PREDICTED BY IDOCK:   -4.50 KCAL/MOL
REMARK 924 INTRA-LIGAND FREE ENERGY PREDICTED BY IDOCK:   -0.42 KCAL/MOL
REMARK 927      BINDING AFFINITY PREDICTED BY RF-SCORE:    0.00 PKD
ROOT
HETATM    1  O   UNL     1     -11.395   9.283  67.734  1.00  0.00    -0.421 OA 
HETATM    2  C   UNL     1     -10.294   9.473  68.521  1.00  0.00    -0.207 A  
HETATM    3  H   UNL     1     -11.376   9.628  66.849  1.00  0.00     0.000 HD 
HETATM    4  C   UNL     1     -10.322   8.964  69.825  1.00  0.00    -0.213 A  
HETATM    5  C   UNL     1      -9.224   9.132  70.669  1.00  0.00    -0.310 A  
HETATM    6  C   UNL     1      -8.095   9.803  70.216  1.00  0.00    -0.181 A  
HETATM    7  C   UNL     1      -8.065  10.311  68.915  1.00  0.00    -0.123 A  
HETATM    8  C   UNL     1      -9.166  10.157  68.049  1.00  0.00    -0.142 A  
ENDROOT
BRANCH   8   9
HETATM    9  C   UNL     1      -9.003  10.722  66.675  1.00  0.00    -0.153 C  
HETATM   10  O   UNL     1      -8.835  10.001  65.698  1.00  0.00    -0.148 OA 
BRANCH   9  11
HETATM   11  O   UNL     1      -9.105  12.098  66.662  1.00  0.00    -0.201 OA 
BRANCH  11  12
HETATM   12  C   UNL     1     -10.361  12.666  66.385  1.00  0.00    -0.249 A  
HETATM   13  C   UNL     1     -10.815  13.794  67.068  1.00  0.00    -0.288 A  
HETATM   14  C   UNL     1     -12.023  14.383  66.699  1.00  0.00    -0.414 A  
HETATM   15  C   UNL     1     -12.759  13.855  65.637  1.00  0.00    -0.534 A  
HETATM   16  C   UNL     1     -12.289  12.738  64.944  1.00  0.00    -0.551 A  
HETATM   17  C   UNL     1     -11.082  12.141  65.313  1.00  0.00    -0.367 A  
ENDBRANCH  11  12
ENDBRANCH   9  11
ENDBRANCH   8   9
TORSDOF 3
ENDMDL
MODEL      179
REMARK 921   NORMALIZED FREE ENERGY PREDICTED BY IDOCK:   -3.88 KCAL/MOL
REMARK 922        TOTAL FREE ENERGY PREDICTED BY IDOCK:   -4.91 KCAL/MOL
REMARK 923 INTER-LIGAND FREE ENERGY PREDICTED BY IDOCK:   -4.25 KCAL/MOL
REMARK 924 INTRA-LIGAND FREE ENERGY PREDICTED BY IDOCK:   -0.66 KCAL/MOL
REMARK 927      BINDING AFFINITY PREDICTED BY RF-SCORE:    0.00 PKD
ROOT
HETATM    1  O   UNL     1      -9.764   8.667  65.703  1.00  0.00    -0.456 OA 
HETATM    2  C   UNL     1      -8.787   9.340  66.381  1.00  0.00    -0.146 A  
HETATM    3  H   UNL     1     -10.410   8.188  66.209  1.00  0.00     0.000 HD 
HETATM    4  C   UNL     1      -7.835  10.046  65.635  1.00  0.00    -0.138 A  
HETATM    5  C   UNL     1      -6.817  10.750  66.278  1.00  0.00    -0.135 A  
HETATM    6  C   UNL     1      -6.747  10.756  67.667  1.00  0.00    -0.069 A  
HETATM    7  C   UNL     1      -7.696  10.054  68.413  1.00  0.00    -0.084 A  
HETATM    8  C   UNL     1      -8.729   9.332  67.781  1.00  0.00    -0.120 A  
ENDROOT
BRANCH   8   9
HETATM    9  C   UNL     1      -9.696   8.643  68.688  1.00  0.00    -0.163 C  
HETATM   10  O   UNL     1     -10.378   7.700  68.304  1.00  0.00    -0.194 OA 
BRANCH   9  11
HETATM   11  O   UNL     1      -9.680   9.169  69.964  1.00  0.00    -0.174 OA 
BRANCH  11  12
HETATM   12  C   UNL     1     -10.911   9.452  70.579  1.00  0.00    -0.274 A  
HETATM   13  C   UNL     1     -11.461   8.595  71.533  1.00  0.00    -0.363 A  
HETATM   14  C   UNL     1     -12.637   8.958  72.188  1.00  0.00    -0.467 A  
HETATM   15  C   UNL     1     -13.243  10.182  71.903  1.00  0.00    -0.557 A  
HETATM   16  C   UNL     1     -12.678  11.044  70.962  1.00  0.00    -0.485 A  
HETATM   17  C   UNL     1     -11.503  10.684  70.298  1.00  0.00    -0.422 A  
ENDBRANCH  11  12
ENDBRANCH   9  11
ENDBRANCH   8   9
TORSDOF 3
ENDMDL
MODEL      180
REMARK 921   NORMALIZED FREE ENERGY PREDICTED BY IDOCK:   -3.88 KCAL/MOL
REMARK 922        TOTAL FREE ENERGY PREDICTED BY IDOCK:   -4.91 KCAL/MOL
REMARK 923 INTER-LIGAND FREE ENERGY PREDICTED BY IDOCK:   -4.22 KCAL/MOL
REMARK 924 INTRA-LIGAND FREE ENERGY PREDICTED BY IDOCK:   -0.69 KCAL/MOL
REMARK 927      BINDING AFFINITY PREDICTED BY RF-SCORE:    0.00 PKD
ROOT
HETATM    1  O   UNL     1      -9.333   8.905  71.436  1.00  0.00    -0.234 OA 
HETATM    2  C   UNL     1      -9.681   7.849  72.230  1.00  0.00    -0.209 A  
HETATM    3  H   UNL     1      -9.775   9.001  70.600  1.00  0.00     0.000 HD 
HETATM    4  C   UNL     1      -9.029   7.708  73.461  1.00  0.00    -0.295 A  
HETATM    5  C   UNL     1      -9.348   6.647  74.309  1.00  0.00    -0.247 A  
HETATM    6  C   UNL     1     -10.319   5.726  73.934  1.00  0.00    -0.286 A  
HETATM    7  C   UNL     1     -10.972   5.865  72.707  1.00  0.00    -0.303 A  
HETATM    8  C   UNL     1     -10.660   6.927  71.834  1.00  0.00    -0.236 A  
ENDROOT
BRANCH   8   9
HETATM    9  C   UNL     1     -11.443   6.982  70.562  1.00  0.00    -0.319 C  
HETATM   10  O   UNL     1     -12.653   6.786  70.542  1.00  0.00    -0.211 OA 
BRANCH   9  11
HETATM   11  O   UNL     1     -10.654   7.309  69.478  1.00  0.00    -0.225 OA 
BRANCH  11  12
HETATM   12  C   UNL     1     -10.328   6.290  68.566  1.00  0.00    -0.203 A  
HETATM   13  C   UNL     1      -9.601   5.167  68.961  1.00  0.00    -0.204 A  
HETATM   14  C   UNL     1      -9.380   4.135  68.050  1.00  0.00    -0.213 A  
HETATM   15  C   UNL     1      -9.905   4.221  66.760  1.00  0.00    -0.230 A  
HETATM   16  C   UNL     1     -10.650   5.338  66.377  1.00  0.00    -0.338 A  
HETATM   17  C   UNL     1     -10.870   6.377  67.283  1.00  0.00    -0.463 A  
ENDBRANCH  11  12
ENDBRANCH   9  11
ENDBRANCH   8   9
TORSDOF 3
ENDMDL
MODEL      181
REMARK 921   NORMALIZED FREE ENERGY PREDICTED BY IDOCK:   -3.87 KCAL/MOL
REMARK 922        TOTAL FREE ENERGY PREDICTED BY IDOCK:   -4.90 KCAL/MOL
REMARK 923 INTER-LIGAND FREE ENERGY PREDICTED BY IDOCK:   -4.13 KCAL/MOL
REMARK 924 INTRA-LIGAND FREE ENERGY PREDICTED BY IDOCK:   -0.77 KCAL/MOL
REMARK 927      BINDING AFFINITY PREDICTED BY RF-SCORE:    0.00 PKD
ROOT
HETATM    1  O   UNL     1     -11.976  11.858  67.166  1.00  0.00    -0.611 OA 
HETATM    2  C   UNL     1     -11.517  11.132  68.229  1.00  0.00    -0.303 A  
HETATM    3  H   UNL     1     -11.545  11.743  66.327  1.00  0.00     0.000 HD 
HETATM    4  C   UNL     1     -12.152  11.302  69.465  1.00  0.00    -0.386 A  
HETATM    5  C   UNL     1     -11.722  10.585  70.582  1.00  0.00    -0.453 A  
HETATM    6  C   UNL     1     -10.661   9.694  70.469  1.00  0.00    -0.374 A  
HETATM    7  C   UNL     1     -10.027   9.522  69.237  1.00  0.00    -0.191 A  
HETATM    8  C   UNL     1     -10.443  10.241  68.098  1.00  0.00    -0.224 A  
ENDROOT
BRANCH   8   9
HETATM    9  C   UNL     1      -9.702   9.952  66.833  1.00  0.00    -0.186 C  
HETATM   10  O   UNL     1      -9.500   8.805  66.453  1.00  0.00    -0.189 OA 
BRANCH   9  11
HETATM   11  O   UNL     1      -9.334  11.105  66.169  1.00  0.00    -0.192 OA 
BRANCH  11  12
HETATM   12  C   UNL     1      -8.386  11.945  66.779  1.00  0.00    -0.153 A  
HETATM   13  C   UNL     1      -7.060  11.543  66.944  1.00  0.00    -0.135 A  
HETATM   14  C   UNL     1      -6.130  12.440  67.467  1.00  0.00    -0.148 A  
HETATM   15  C   UNL     1      -6.523  13.737  67.798  1.00  0.00    -0.178 A  
HETATM   16  C   UNL     1      -7.846  14.140  67.611  1.00  0.00    -0.190 A  
HETATM   17  C   UNL     1      -8.784  13.244  67.094  1.00  0.00    -0.215 A  
ENDBRANCH  11  12
ENDBRANCH   9  11
ENDBRANCH   8   9
TORSDOF 3
ENDMDL
MODEL      182
REMARK 921   NORMALIZED FREE ENERGY PREDICTED BY IDOCK:   -3.86 KCAL/MOL
REMARK 922        TOTAL FREE ENERGY PREDICTED BY IDOCK:   -4.88 KCAL/MOL
REMARK 923 INTER-LIGAND FREE ENERGY PREDICTED BY IDOCK:   -4.28 KCAL/MOL
REMARK 924 INTRA-LIGAND FREE ENERGY PREDICTED BY IDOCK:   -0.60 KCAL/MOL
REMARK 927      BINDING AFFINITY PREDICTED BY RF-SCORE:    0.00 PKD
ROOT
HETATM    1  O   UNL     1      -9.535   8.196  65.617  1.00  0.00    -0.430 OA 
HETATM    2  C   UNL     1     -10.019   9.468  65.739  1.00  0.00    -0.245 A  
HETATM    3  H   UNL     1      -9.550   7.636  66.385  1.00  0.00     0.000 HD 
HETATM    4  C   UNL     1      -9.996  10.292  64.607  1.00  0.00    -0.377 A  
HETATM    5  C   UNL     1     -10.478  11.599  64.678  1.00  0.00    -0.354 A  
HETATM    6  C   UNL     1     -10.986  12.088  65.876  1.00  0.00    -0.342 A  
HETATM    7  C   UNL     1     -11.010  11.268  67.006  1.00  0.00    -0.352 A  
HETATM    8  C   UNL     1     -10.523   9.946  66.956  1.00  0.00    -0.296 A  
ENDROOT
BRANCH   8   9
HETATM    9  C   UNL     1     -10.625   9.161  68.224  1.00  0.00    -0.174 C  
HETATM   10  O   UNL     1     -10.569   9.702  69.322  1.00  0.00    -0.206 OA 
BRANCH   9  11
HETATM   11  O   UNL     1     -10.824   7.816  67.989  1.00  0.00    -0.115 OA 
BRANCH  11  12
HETATM   12  C   UNL     1     -10.288   6.897  68.908  1.00  0.00    -0.189 A  
HETATM   13  C   UNL     1      -8.910   6.707  69.024  1.00  0.00    -0.128 A  
HETATM   14  C   UNL     1      -8.414   5.858  70.011  1.00  0.00    -0.126 A  
HETATM   15  C   UNL     1      -9.293   5.223  70.890  1.00  0.00    -0.197 A  
HETATM   16  C   UNL     1     -10.668   5.434  70.782  1.00  0.00    -0.252 A  
HETATM   17  C   UNL     1     -11.172   6.279  69.791  1.00  0.00    -0.499 A  
ENDBRANCH  11  12
ENDBRANCH   9  11
ENDBRANCH   8   9
TORSDOF 3
ENDMDL
MODEL      183
REMARK 921   NORMALIZED FREE ENERGY PREDICTED BY IDOCK:   -3.83 KCAL/MOL
REMARK 922        TOTAL FREE ENERGY PREDICTED BY IDOCK:   -4.85 KCAL/MOL
REMARK 923 INTER-LIGAND FREE ENERGY PREDICTED BY IDOCK:   -4.11 KCAL/MOL
REMARK 924 INTRA-LIGAND FREE ENERGY PREDICTED BY IDOCK:   -0.74 KCAL/MOL
REMARK 927      BINDING AFFINITY PREDICTED BY RF-SCORE:    0.00 PKD
ROOT
HETATM    1  O   UNL     1     -10.669   6.369  69.365  1.00  0.00    -0.229 OA 
HETATM    2  C   UNL     1     -10.584   7.724  69.518  1.00  0.00    -0.221 A  
HETATM    3  H   UNL     1     -11.209   5.883  69.978  1.00  0.00     0.000 HD 
HETATM    4  C   UNL     1      -9.788   8.440  68.616  1.00  0.00    -0.180 A  
HETATM    5  C   UNL     1      -9.667   9.825  68.729  1.00  0.00    -0.165 A  
HETATM    6  C   UNL     1     -10.341  10.501  69.739  1.00  0.00    -0.211 A  
HETATM    7  C   UNL     1     -11.136   9.789  70.640  1.00  0.00    -0.398 A  
HETATM    8  C   UNL     1     -11.267   8.389  70.546  1.00  0.00    -0.252 A  
ENDROOT
BRANCH   8   9
HETATM    9  C   UNL     1     -12.164   7.745  71.553  1.00  0.00    -0.318 C  
HETATM   10  O   UNL     1     -13.173   7.135  71.218  1.00  0.00    -0.377 OA 
BRANCH   9  11
HETATM   11  O   UNL     1     -11.693   7.894  72.841  1.00  0.00    -0.350 OA 
BRANCH  11  12
HETATM   12  C   UNL     1     -10.680   7.025  73.280  1.00  0.00    -0.340 A  
HETATM   13  C   UNL     1     -10.888   5.647  73.356  1.00  0.00    -0.315 A  
HETATM   14  C   UNL     1      -9.830   4.810  73.705  1.00  0.00    -0.170 A  
HETATM   15  C   UNL     1      -8.567   5.350  73.954  1.00  0.00    -0.115 A  
HETATM   16  C   UNL     1      -8.360   6.727  73.856  1.00  0.00    -0.144 A  
HETATM   17  C   UNL     1      -9.418   7.572  73.512  1.00  0.00    -0.326 A  
ENDBRANCH  11  12
ENDBRANCH   9  11
ENDBRANCH   8   9
TORSDOF 3
ENDMDL
MODEL      184
REMARK 921   NORMALIZED FREE ENERGY PREDICTED BY IDOCK:   -3.83 KCAL/MOL
REMARK 922        TOTAL FREE ENERGY PREDICTED BY IDOCK:   -4.85 KCAL/MOL
REMARK 923 INTER-LIGAND FREE ENERGY PREDICTED BY IDOCK:   -4.21 KCAL/MOL
REMARK 924 INTRA-LIGAND FREE ENERGY PREDICTED BY IDOCK:   -0.64 KCAL/MOL
REMARK 927      BINDING AFFINITY PREDICTED BY RF-SCORE:    0.00 PKD
ROOT
HETATM    1  O   UNL     1      -7.599   9.187  65.206  1.00  0.00    -0.095 OA 
HETATM    2  C   UNL     1      -8.647   8.607  65.864  1.00  0.00    -0.157 A  
HETATM    3  H   UNL     1      -7.510  10.132  65.253  1.00  0.00     0.000 HD 
HETATM    4  C   UNL     1      -8.779   7.214  65.794  1.00  0.00    -0.125 A  
HETATM    5  C   UNL     1      -9.831   6.573  66.447  1.00  0.00    -0.112 A  
HETATM    6  C   UNL     1     -10.753   7.316  67.175  1.00  0.00    -0.413 A  
HETATM    7  C   UNL     1     -10.624   8.705  67.246  1.00  0.00    -0.308 A  
HETATM    8  C   UNL     1      -9.571   9.372  66.589  1.00  0.00    -0.250 A  
ENDROOT
BRANCH   8   9
HETATM    9  C   UNL     1      -9.526  10.856  66.761  1.00  0.00    -0.177 C  
HETATM   10  O   UNL     1      -9.695  11.383  67.854  1.00  0.00    -0.171 OA 
BRANCH   9  11
HETATM   11  O   UNL     1      -9.240  11.509  65.578  1.00  0.00    -0.211 OA 
BRANCH  11  12
HETATM   12  C   UNL     1     -10.135  12.499  65.137  1.00  0.00    -0.246 A  
HETATM   13  C   UNL     1     -11.354  12.166  64.547  1.00  0.00    -0.393 A  
HETATM   14  C   UNL     1     -12.254  13.175  64.209  1.00  0.00    -0.463 A  
HETATM   15  C   UNL     1     -11.941  14.507  64.482  1.00  0.00    -0.482 A  
HETATM   16  C   UNL     1     -10.729  14.833  65.092  1.00  0.00    -0.433 A  
HETATM   17  C   UNL     1      -9.820  13.827  65.427  1.00  0.00    -0.171 A  
ENDBRANCH  11  12
ENDBRANCH   9  11
ENDBRANCH   8   9
TORSDOF 3
ENDMDL
MODEL      185
REMARK 921   NORMALIZED FREE ENERGY PREDICTED BY IDOCK:   -3.78 KCAL/MOL
REMARK 922        TOTAL FREE ENERGY PREDICTED BY IDOCK:   -4.78 KCAL/MOL
REMARK 923 INTER-LIGAND FREE ENERGY PREDICTED BY IDOCK:   -4.24 KCAL/MOL
REMARK 924 INTRA-LIGAND FREE ENERGY PREDICTED BY IDOCK:   -0.54 KCAL/MOL
REMARK 927      BINDING AFFINITY PREDICTED BY RF-SCORE:    0.00 PKD
ROOT
HETATM    1  O   UNL     1      -8.670   8.692  71.623  1.00  0.00    -0.177 OA 
HETATM    2  C   UNL     1      -9.909   8.119  71.671  1.00  0.00    -0.182 A  
HETATM    3  H   UNL     1      -8.593   9.558  71.241  1.00  0.00     0.000 HD 
HETATM    4  C   UNL     1     -10.023   6.841  72.234  1.00  0.00    -0.173 A  
HETATM    5  C   UNL     1     -11.265   6.212  72.307  1.00  0.00    -0.334 A  
HETATM    6  C   UNL     1     -12.399   6.854  71.824  1.00  0.00    -0.401 A  
HETATM    7  C   UNL     1     -12.289   8.128  71.263  1.00  0.00    -0.285 A  
HETATM    8  C   UNL     1     -11.042   8.779  71.175  1.00  0.00    -0.340 A  
ENDROOT
BRANCH   8   9
HETATM    9  C   UNL     1     -11.057  10.148  70.577  1.00  0.00    -0.327 C  
HETATM   10  O   UNL     1     -11.994  10.918  70.756  1.00  0.00    -0.325 OA 
BRANCH   9  11
HETATM   11  O   UNL     1      -9.906  10.420  69.866  1.00  0.00    -0.165 OA 
BRANCH  11  12
HETATM   12  C   UNL     1      -9.869  10.066  68.506  1.00  0.00    -0.156 A  
HETATM   13  C   UNL     1     -10.040   8.744  68.095  1.00  0.00    -0.228 A  
HETATM   14  C   UNL     1     -10.092   8.448  66.734  1.00  0.00    -0.373 A  
HETATM   15  C   UNL     1      -9.996   9.475  65.793  1.00  0.00    -0.316 A  
HETATM   16  C   UNL     1      -9.846  10.798  66.212  1.00  0.00    -0.262 A  
HETATM   17  C   UNL     1      -9.787  11.100  67.574  1.00  0.00    -0.197 A  
ENDBRANCH  11  12
ENDBRANCH   9  11
ENDBRANCH   8   9
TORSDOF 3
ENDMDL
MODEL      186
REMARK 921   NORMALIZED FREE ENERGY PREDICTED BY IDOCK:   -3.76 KCAL/MOL
REMARK 922        TOTAL FREE ENERGY PREDICTED BY IDOCK:   -4.77 KCAL/MOL
REMARK 923 INTER-LIGAND FREE ENERGY PREDICTED BY IDOCK:   -4.11 KCAL/MOL
REMARK 924 INTRA-LIGAND FREE ENERGY PREDICTED BY IDOCK:   -0.65 KCAL/MOL
REMARK 927      BINDING AFFINITY PREDICTED BY RF-SCORE:    0.00 PKD
ROOT
HETATM    1  O   UNL     1     -11.018   5.811  68.912  1.00  0.00    -0.286 OA 
HETATM    2  C   UNL     1     -10.447   5.244  70.016  1.00  0.00    -0.281 A  
HETATM    3  H   UNL     1     -11.674   6.486  69.044  1.00  0.00     0.000 HD 
HETATM    4  C   UNL     1      -9.480   4.250  69.821  1.00  0.00    -0.260 A  
HETATM    5  C   UNL     1      -8.868   3.639  70.915  1.00  0.00    -0.138 A  
HETATM    6  C   UNL     1      -9.212   4.020  72.207  1.00  0.00    -0.163 A  
HETATM    7  C   UNL     1     -10.176   5.012  72.404  1.00  0.00    -0.254 A  
HETATM    8  C   UNL     1     -10.810   5.637  71.312  1.00  0.00    -0.289 A  
ENDROOT
BRANCH   8   9
HETATM    9  C   UNL     1     -11.805   6.700  71.652  1.00  0.00    -0.336 C  
HETATM   10  O   UNL     1     -13.009   6.524  71.508  1.00  0.00    -0.179 OA 
BRANCH   9  11
HETATM   11  O   UNL     1     -11.203   7.832  72.163  1.00  0.00    -0.261 OA 
BRANCH  11  12
HETATM   12  C   UNL     1     -10.618   8.736  71.260  1.00  0.00    -0.262 A  
HETATM   13  C   UNL     1      -9.242   8.747  71.032  1.00  0.00    -0.278 A  
HETATM   14  C   UNL     1      -8.712   9.593  70.059  1.00  0.00    -0.256 A  
HETATM   15  C   UNL     1      -9.561  10.405  69.305  1.00  0.00    -0.226 A  
HETATM   16  C   UNL     1     -10.939  10.374  69.524  1.00  0.00    -0.307 A  
HETATM   17  C   UNL     1     -11.475   9.533  70.501  1.00  0.00    -0.337 A  
ENDBRANCH  11  12
ENDBRANCH   9  11
ENDBRANCH   8   9
TORSDOF 3
ENDMDL
MODEL      187
REMARK 921   NORMALIZED FREE ENERGY PREDICTED BY IDOCK:   -3.75 KCAL/MOL
REMARK 922        TOTAL FREE ENERGY PREDICTED BY IDOCK:   -4.75 KCAL/MOL
REMARK 923 INTER-LIGAND FREE ENERGY PREDICTED BY IDOCK:   -4.24 KCAL/MOL
REMARK 924 INTRA-LIGAND FREE ENERGY PREDICTED BY IDOCK:   -0.51 KCAL/MOL
REMARK 927      BINDING AFFINITY PREDICTED BY RF-SCORE:    0.00 PKD
ROOT
HETATM    1  O   UNL     1     -11.123   8.865  70.147  1.00  0.00    -0.247 OA 
HETATM    2  C   UNL     1     -11.288  10.075  69.536  1.00  0.00    -0.169 A  
HETATM    3  H   UNL     1     -10.722   8.163  69.647  1.00  0.00     0.000 HD 
HETATM    4  C   UNL     1     -11.880  11.109  70.272  1.00  0.00    -0.455 A  
HETATM    5  C   UNL     1     -12.071  12.365  69.694  1.00  0.00    -0.271 A  
HETATM    6  C   UNL     1     -11.670  12.595  68.383  1.00  0.00    -0.377 A  
HETATM    7  C   UNL     1     -11.079  11.565  67.647  1.00  0.00    -0.324 A  
HETATM    8  C   UNL     1     -10.882  10.288  68.211  1.00  0.00    -0.300 A  
ENDROOT
BRANCH   8   9
HETATM    9  C   UNL     1     -10.218   9.279  67.332  1.00  0.00    -0.243 C  
HETATM   10  O   UNL     1     -10.709   8.173  67.136  1.00  0.00    -0.316 OA 
BRANCH   9  11
HETATM   11  O   UNL     1      -9.053   9.762  66.770  1.00  0.00    -0.143 OA 
BRANCH  11  12
HETATM   12  C   UNL     1      -8.969   9.819  65.369  1.00  0.00    -0.190 A  
HETATM   13  C   UNL     1      -9.942  10.468  64.608  1.00  0.00    -0.415 A  
HETATM   14  C   UNL     1      -9.773  10.584  63.229  1.00  0.00    -0.361 A  
HETATM   15  C   UNL     1      -8.625  10.071  62.622  1.00  0.00    -0.199 A  
HETATM   16  C   UNL     1      -7.646   9.442  63.392  1.00  0.00    -0.114 A  
HETATM   17  C   UNL     1      -7.812   9.317  64.773  1.00  0.00    -0.118 A  
ENDBRANCH  11  12
ENDBRANCH   9  11
ENDBRANCH   8   9
TORSDOF 3
ENDMDL
MODEL      188
REMARK 921   NORMALIZED FREE ENERGY PREDICTED BY IDOCK:   -3.74 KCAL/MOL
REMARK 922        TOTAL FREE ENERGY PREDICTED BY IDOCK:   -4.74 KCAL/MOL
REMARK 923 INTER-LIGAND FREE ENERGY PREDICTED BY IDOCK:   -4.03 KCAL/MOL
REMARK 924 INTRA-LIGAND FREE ENERGY PREDICTED BY IDOCK:   -0.71 KCAL/MOL
REMARK 927      BINDING AFFINITY PREDICTED BY RF-SCORE:    0.00 PKD
ROOT
HETATM    1  O   UNL     1     -10.818  12.486  64.700  1.00  0.00    -0.283 OA 
HETATM    2  C   UNL     1     -10.709  11.563  65.701  1.00  0.00    -0.267 A  
HETATM    3  H   UNL     1     -11.247  13.311  64.897  1.00  0.00     0.000 HD 
HETATM    4  C   UNL     1     -10.077  10.347  65.410  1.00  0.00    -0.354 A  
HETATM    5  C   UNL     1      -9.941   9.371  66.397  1.00  0.00    -0.346 A  
HETATM    6  C   UNL     1     -10.429   9.604  67.678  1.00  0.00    -0.317 A  
HETATM    7  C   UNL     1     -11.059  10.816  67.970  1.00  0.00    -0.359 A  
HETATM    8  C   UNL     1     -11.212  11.812  66.985  1.00  0.00    -0.382 A  
ENDROOT
BRANCH   8   9
HETATM    9  C   UNL     1     -11.881  13.074  67.427  1.00  0.00    -0.357 C  
HETATM   10  O   UNL     1     -12.910  13.476  66.899  1.00  0.00     0.115 OA 
BRANCH   9  11
HETATM   11  O   UNL     1     -11.226  13.666  68.489  1.00  0.00    -0.251 OA 
BRANCH  11  12
HETATM   12  C   UNL     1     -10.109  14.472  68.211  1.00  0.00    -0.232 A  
HETATM   13  C   UNL     1      -8.809  13.984  68.348  1.00  0.00    -0.180 A  
HETATM   14  C   UNL     1      -7.731  14.784  67.972  1.00  0.00    -0.130 A  
HETATM   15  C   UNL     1      -7.958  16.054  67.441  1.00  0.00    -0.184 A  
HETATM   16  C   UNL     1      -9.261  16.529  67.287  1.00  0.00    -0.224 A  
HETATM   17  C   UNL     1     -10.345  15.735  67.668  1.00  0.00    -0.281 A  
ENDBRANCH  11  12
ENDBRANCH   9  11
ENDBRANCH   8   9
TORSDOF 3
ENDMDL
MODEL      189
REMARK 921   NORMALIZED FREE ENERGY PREDICTED BY IDOCK:   -3.70 KCAL/MOL
REMARK 922        TOTAL FREE ENERGY PREDICTED BY IDOCK:   -4.70 KCAL/MOL
REMARK 923 INTER-LIGAND FREE ENERGY PREDICTED BY IDOCK:   -4.31 KCAL/MOL
REMARK 924 INTRA-LIGAND FREE ENERGY PREDICTED BY IDOCK:   -0.38 KCAL/MOL
REMARK 927      BINDING AFFINITY PREDICTED BY RF-SCORE:    0.00 PKD
ROOT
HETATM    1  O   UNL     1      -9.381  20.591  66.755  1.00  0.00    -0.563 OA 
HETATM    2  C   UNL     1      -8.262  19.876  66.433  1.00  0.00    -0.335 A  
HETATM    3  H   UNL     1     -10.201  20.120  66.845  1.00  0.00     0.000 HD 
HETATM    4  C   UNL     1      -7.053  20.570  66.301  1.00  0.00    -0.250 A  
HETATM    5  C   UNL     1      -5.881  19.888  65.973  1.00  0.00    -0.180 A  
HETATM    6  C   UNL     1      -5.909  18.511  65.781  1.00  0.00    -0.230 A  
HETATM    7  C   UNL     1      -7.114  17.817  65.914  1.00  0.00    -0.278 A  
HETATM    8  C   UNL     1      -8.309  18.489  66.239  1.00  0.00    -0.235 A  
ENDROOT
BRANCH   8   9
HETATM    9  C   UNL     1      -9.526  17.632  66.376  1.00  0.00    -0.259 C  
HETATM   10  O   UNL     1     -10.302  17.461  65.443  1.00  0.00    -0.631 OA 
BRANCH   9  11
HETATM   11  O   UNL     1      -9.621  17.060  67.629  1.00  0.00    -0.244 OA 
BRANCH  11  12
HETATM   12  C   UNL     1      -8.779  15.975  67.926  1.00  0.00    -0.165 A  
HETATM   13  C   UNL     1      -7.944  15.989  69.044  1.00  0.00    -0.224 A  
HETATM   14  C   UNL     1      -7.194  14.857  69.357  1.00  0.00    -0.182 A  
HETATM   15  C   UNL     1      -7.299  13.712  68.566  1.00  0.00    -0.114 A  
HETATM   16  C   UNL     1      -8.151  13.697  67.460  1.00  0.00    -0.190 A  
HETATM   17  C   UNL     1      -8.900  14.830  67.138  1.00  0.00    -0.234 A  
ENDBRANCH  11  12
ENDBRANCH   9  11
ENDBRANCH   8   9
TORSDOF 3
ENDMDL
MODEL      190
REMARK 921   NORMALIZED FREE ENERGY PREDICTED BY IDOCK:   -3.67 KCAL/MOL
REMARK 922        TOTAL FREE ENERGY PREDICTED BY IDOCK:   -4.66 KCAL/MOL
REMARK 923 INTER-LIGAND FREE ENERGY PREDICTED BY IDOCK:   -4.02 KCAL/MOL
REMARK 924 INTRA-LIGAND FREE ENERGY PREDICTED BY IDOCK:   -0.64 KCAL/MOL
REMARK 927      BINDING AFFINITY PREDICTED BY RF-SCORE:    0.00 PKD
ROOT
HETATM    1  O   UNL     1     -11.418   6.909  73.422  1.00  0.00    -0.466 OA 
HETATM    2  C   UNL     1     -10.715   5.932  72.776  1.00  0.00    -0.239 A  
HETATM    3  H   UNL     1     -11.940   7.505  72.897  1.00  0.00     0.000 HD 
HETATM    4  C   UNL     1      -9.944   5.054  73.549  1.00  0.00    -0.180 A  
HETATM    5  C   UNL     1      -9.208   4.039  72.938  1.00  0.00    -0.130 A  
HETATM    6  C   UNL     1      -9.239   3.893  71.556  1.00  0.00    -0.189 A  
HETATM    7  C   UNL     1     -10.007   4.767  70.783  1.00  0.00    -0.291 A  
HETATM    8  C   UNL     1     -10.754   5.802  71.381  1.00  0.00    -0.319 A  
ENDROOT
BRANCH   8   9
HETATM    9  C   UNL     1     -11.554   6.655  70.450  1.00  0.00    -0.398 C  
HETATM   10  O   UNL     1     -12.589   7.203  70.809  1.00  0.00    -0.282 OA 
BRANCH   9  11
HETATM   11  O   UNL     1     -10.965   6.763  69.206  1.00  0.00    -0.253 OA 
BRANCH  11  12
HETATM   12  C   UNL     1     -10.463   8.017  68.819  1.00  0.00    -0.173 A  
HETATM   13  C   UNL     1      -9.738   8.814  69.705  1.00  0.00    -0.179 A  
HETATM   14  C   UNL     1      -9.176  10.008  69.256  1.00  0.00    -0.212 A  
HETATM   15  C   UNL     1      -9.322  10.386  67.920  1.00  0.00    -0.147 A  
HETATM   16  C   UNL     1     -10.030   9.574  67.033  1.00  0.00    -0.273 A  
HETATM   17  C   UNL     1     -10.600   8.380  67.479  1.00  0.00    -0.285 A  
ENDBRANCH  11  12
ENDBRANCH   9  11
ENDBRANCH   8   9
TORSDOF 3
ENDMDL
MODEL      191
REMARK 921   NORMALIZED FREE ENERGY PREDICTED BY IDOCK:   -3.66 KCAL/MOL
REMARK 922        TOTAL FREE ENERGY PREDICTED BY IDOCK:   -4.65 KCAL/MOL
REMARK 923 INTER-LIGAND FREE ENERGY PREDICTED BY IDOCK:   -4.00 KCAL/MOL
REMARK 924 INTRA-LIGAND FREE ENERGY PREDICTED BY IDOCK:   -0.65 KCAL/MOL
REMARK 927      BINDING AFFINITY PREDICTED BY RF-SCORE:    0.00 PKD
ROOT
HETATM    1  O   UNL     1     -12.742  12.660  64.534  1.00  0.00    -0.650 OA 
HETATM    2  C   UNL     1     -12.143  13.088  65.685  1.00  0.00    -0.454 A  
HETATM    3  H   UNL     1     -12.487  11.814  64.186  1.00  0.00     0.000 HD 
HETATM    4  C   UNL     1     -12.519  14.336  66.199  1.00  0.00    -0.362 A  
HETATM    5  C   UNL     1     -11.938  14.819  67.371  1.00  0.00    -0.236 A  
HETATM    6  C   UNL     1     -10.984  14.059  68.038  1.00  0.00    -0.266 A  
HETATM    7  C   UNL     1     -10.608  12.814  67.528  1.00  0.00    -0.240 A  
HETATM    8  C   UNL     1     -11.179  12.311  66.342  1.00  0.00    -0.370 A  
ENDROOT
BRANCH   8   9
HETATM    9  C   UNL     1     -10.713  10.957  65.912  1.00  0.00    -0.124 C  
HETATM   10  O   UNL     1     -10.424  10.716  64.746  1.00  0.00    -0.325 OA 
BRANCH   9  11
HETATM   11  O   UNL     1     -10.621  10.077  66.972  1.00  0.00    -0.240 OA 
BRANCH  11  12
HETATM   12  C   UNL     1      -9.411   9.388  67.156  1.00  0.00    -0.139 A  
HETATM   13  C   UNL     1      -9.299   8.027  66.866  1.00  0.00    -0.209 A  
HETATM   14  C   UNL     1      -8.059   7.401  66.971  1.00  0.00    -0.113 A  
HETATM   15  C   UNL     1      -6.934   8.140  67.343  1.00  0.00    -0.075 A  
HETATM   16  C   UNL     1      -7.049   9.505  67.611  1.00  0.00    -0.081 A  
HETATM   17  C   UNL     1      -8.290  10.137  67.513  1.00  0.00    -0.118 A  
ENDBRANCH  11  12
ENDBRANCH   9  11
ENDBRANCH   8   9
TORSDOF 3
ENDMDL
MODEL      192
REMARK 921   NORMALIZED FREE ENERGY PREDICTED BY IDOCK:   -3.65 KCAL/MOL
REMARK 922        TOTAL FREE ENERGY PREDICTED BY IDOCK:   -4.64 KCAL/MOL
REMARK 923 INTER-LIGAND FREE ENERGY PREDICTED BY IDOCK:   -4.39 KCAL/MOL
REMARK 924 INTRA-LIGAND FREE ENERGY PREDICTED BY IDOCK:   -0.24 KCAL/MOL
REMARK 927      BINDING AFFINITY PREDICTED BY RF-SCORE:    0.00 PKD
ROOT
HETATM    1  O   UNL     1     -11.976  10.866  68.048  1.00  0.00    -0.744 OA 
HETATM    2  C   UNL     1     -11.061  10.582  67.075  1.00  0.00    -0.110 A  
HETATM    3  H   UNL     1     -12.102  10.231  68.743  1.00  0.00     0.000 HD 
HETATM    4  C   UNL     1     -10.876  11.518  66.050  1.00  0.00    -0.330 A  
HETATM    5  C   UNL     1      -9.955  11.275  65.032  1.00  0.00    -0.323 A  
HETATM    6  C   UNL     1      -9.212  10.101  65.032  1.00  0.00    -0.266 A  
HETATM    7  C   UNL     1      -9.394   9.165  66.053  1.00  0.00    -0.300 A  
HETATM    8  C   UNL     1     -10.324   9.390  67.088  1.00  0.00    -0.326 A  
ENDROOT
BRANCH   8   9
HETATM    9  C   UNL     1     -10.409   8.326  68.135  1.00  0.00    -0.202 C  
HETATM   10  O   UNL     1      -9.896   8.467  69.239  1.00  0.00    -0.178 OA 
BRANCH   9  11
HETATM   11  O   UNL     1     -11.147   7.238  67.713  1.00  0.00    -0.104 OA 
BRANCH  11  12
HETATM   12  C   UNL     1     -10.551   5.967  67.786  1.00  0.00    -0.267 A  
HETATM   13  C   UNL     1     -10.139   5.292  66.636  1.00  0.00    -0.259 A  
HETATM   14  C   UNL     1      -9.468   4.076  66.756  1.00  0.00    -0.219 A  
HETATM   15  C   UNL     1      -9.191   3.555  68.021  1.00  0.00    -0.228 A  
HETATM   16  C   UNL     1      -9.587   4.246  69.167  1.00  0.00    -0.249 A  
HETATM   17  C   UNL     1     -10.266   5.461  69.054  1.00  0.00    -0.291 A  
ENDBRANCH  11  12
ENDBRANCH   9  11
ENDBRANCH   8   9
TORSDOF 3
ENDMDL
MODEL      193
REMARK 921   NORMALIZED FREE ENERGY PREDICTED BY IDOCK:   -3.64 KCAL/MOL
REMARK 922        TOTAL FREE ENERGY PREDICTED BY IDOCK:   -4.62 KCAL/MOL
REMARK 923 INTER-LIGAND FREE ENERGY PREDICTED BY IDOCK:   -4.00 KCAL/MOL
REMARK 924 INTRA-LIGAND FREE ENERGY PREDICTED BY IDOCK:   -0.62 KCAL/MOL
REMARK 927      BINDING AFFINITY PREDICTED BY RF-SCORE:    0.00 PKD
ROOT
HETATM    1  O   UNL     1      -7.373  13.729  68.371  1.00  0.00    -0.099 OA 
HETATM    2  C   UNL     1      -8.477  14.239  67.748  1.00  0.00    -0.176 A  
HETATM    3  H   UNL     1      -7.246  12.787  68.356  1.00  0.00     0.000 HD 
HETATM    4  C   UNL     1      -8.664  15.626  67.770  1.00  0.00    -0.173 A  
HETATM    5  C   UNL     1      -9.775  16.197  67.149  1.00  0.00    -0.236 A  
HETATM    6  C   UNL     1     -10.701  15.388  66.501  1.00  0.00    -0.308 A  
HETATM    7  C   UNL     1     -10.516  14.003  66.478  1.00  0.00    -0.281 A  
HETATM    8  C   UNL     1      -9.403  13.407  67.104  1.00  0.00    -0.240 A  
ENDROOT
BRANCH   8   9
HETATM    9  C   UNL     1      -9.304  11.920  66.988  1.00  0.00    -0.188 C  
HETATM   10  O   UNL     1      -8.231  11.359  66.806  1.00  0.00    -0.151 OA 
BRANCH   9  11
HETATM   11  O   UNL     1     -10.528  11.303  67.150  1.00  0.00    -0.204 OA 
BRANCH  11  12
HETATM   12  C   UNL     1     -10.907  10.913  68.446  1.00  0.00    -0.222 A  
HETATM   13  C   UNL     1     -12.151  11.259  68.974  1.00  0.00    -0.325 A  
HETATM   14  C   UNL     1     -12.527  10.775  70.225  1.00  0.00    -0.395 A  
HETATM   15  C   UNL     1     -11.668   9.930  70.931  1.00  0.00    -0.449 A  
HETATM   16  C   UNL     1     -10.434   9.571  70.389  1.00  0.00    -0.336 A  
HETATM   17  C   UNL     1     -10.049  10.058  69.138  1.00  0.00    -0.219 A  
ENDBRANCH  11  12
ENDBRANCH   9  11
ENDBRANCH   8   9
TORSDOF 3
ENDMDL
MODEL      194
REMARK 921   NORMALIZED FREE ENERGY PREDICTED BY IDOCK:   -3.64 KCAL/MOL
REMARK 922        TOTAL FREE ENERGY PREDICTED BY IDOCK:   -4.62 KCAL/MOL
REMARK 923 INTER-LIGAND FREE ENERGY PREDICTED BY IDOCK:   -3.97 KCAL/MOL
REMARK 924 INTRA-LIGAND FREE ENERGY PREDICTED BY IDOCK:   -0.65 KCAL/MOL
REMARK 927      BINDING AFFINITY PREDICTED BY RF-SCORE:    0.00 PKD
ROOT
HETATM    1  O   UNL     1      -9.783  10.558  69.912  1.00  0.00    -0.425 OA 
HETATM    2  C   UNL     1      -8.989  10.176  68.868  1.00  0.00    -0.155 A  
HETATM    3  H   UNL     1     -10.212  11.405  69.860  1.00  0.00     0.000 HD 
HETATM    4  C   UNL     1      -8.357   8.928  68.943  1.00  0.00    -0.122 A  
HETATM    5  C   UNL     1      -7.536   8.491  67.904  1.00  0.00    -0.098 A  
HETATM    6  C   UNL     1      -7.346   9.292  66.784  1.00  0.00    -0.086 A  
HETATM    7  C   UNL     1      -7.976  10.536  66.706  1.00  0.00    -0.121 A  
HETATM    8  C   UNL     1      -8.804  10.999  67.748  1.00  0.00    -0.133 A  
ENDROOT
BRANCH   8   9
HETATM    9  C   UNL     1      -9.441  12.334  67.536  1.00  0.00    -0.182 C  
HETATM   10  O   UNL     1     -10.180  12.835  68.375  1.00  0.00    -0.234 OA 
BRANCH   9  11
HETATM   11  O   UNL     1      -9.061  12.908  66.340  1.00  0.00    -0.185 OA 
BRANCH  11  12
HETATM   12  C   UNL     1     -10.038  13.587  65.592  1.00  0.00    -0.278 A  
HETATM   13  C   UNL     1     -11.128  12.914  65.039  1.00  0.00    -0.320 A  
HETATM   14  C   UNL     1     -12.124  13.636  64.385  1.00  0.00    -0.470 A  
HETATM   15  C   UNL     1     -12.038  15.027  64.308  1.00  0.00    -0.323 A  
HETATM   16  C   UNL     1     -10.957  15.697  64.881  1.00  0.00    -0.447 A  
HETATM   17  C   UNL     1      -9.952  14.978  65.532  1.00  0.00    -0.390 A  
ENDBRANCH  11  12
ENDBRANCH   9  11
ENDBRANCH   8   9
TORSDOF 3
ENDMDL
MODEL      195
REMARK 921   NORMALIZED FREE ENERGY PREDICTED BY IDOCK:   -3.63 KCAL/MOL
REMARK 922        TOTAL FREE ENERGY PREDICTED BY IDOCK:   -4.61 KCAL/MOL
REMARK 923 INTER-LIGAND FREE ENERGY PREDICTED BY IDOCK:   -3.90 KCAL/MOL
REMARK 924 INTRA-LIGAND FREE ENERGY PREDICTED BY IDOCK:   -0.70 KCAL/MOL
REMARK 927      BINDING AFFINITY PREDICTED BY RF-SCORE:    0.00 PKD
ROOT
HETATM    1  O   UNL     1      -7.925  13.728  68.307  1.00  0.00    -0.130 OA 
HETATM    2  C   UNL     1      -8.973  14.603  68.262  1.00  0.00    -0.184 A  
HETATM    3  H   UNL     1      -7.082  14.023  67.982  1.00  0.00     0.000 HD 
HETATM    4  C   UNL     1     -10.215  14.169  68.741  1.00  0.00    -0.216 A  
HETATM    5  C   UNL     1     -11.317  15.023  68.717  1.00  0.00    -0.306 A  
HETATM    6  C   UNL     1     -11.185  16.315  68.220  1.00  0.00    -0.324 A  
HETATM    7  C   UNL     1      -9.947  16.751  67.742  1.00  0.00    -0.268 A  
HETATM    8  C   UNL     1      -8.823  15.901  67.753  1.00  0.00    -0.176 A  
ENDROOT
BRANCH   8   9
HETATM    9  C   UNL     1      -7.550  16.491  67.238  1.00  0.00    -0.161 C  
HETATM   10  O   UNL     1      -6.457  16.136  67.665  1.00  0.00    -0.136 OA 
BRANCH   9  11
HETATM   11  O   UNL     1      -7.771  17.414  66.236  1.00  0.00    -0.273 OA 
BRANCH  11  12
HETATM   12  C   UNL     1      -7.057  18.623  66.282  1.00  0.00    -0.245 A  
HETATM   13  C   UNL     1      -6.116  18.949  65.303  1.00  0.00    -0.305 A  
HETATM   14  C   UNL     1      -5.498  20.197  65.331  1.00  0.00    -0.192 A  
HETATM   15  C   UNL     1      -5.838  21.121  66.321  1.00  0.00    -0.319 A  
HETATM   16  C   UNL     1      -6.795  20.798  67.284  1.00  0.00    -0.405 A  
HETATM   17  C   UNL     1      -7.414  19.546  67.265  1.00  0.00    -0.260 A  
ENDBRANCH  11  12
ENDBRANCH   9  11
ENDBRANCH   8   9
TORSDOF 3
ENDMDL
MODEL      196
REMARK 921   NORMALIZED FREE ENERGY PREDICTED BY IDOCK:   -3.62 KCAL/MOL
REMARK 922        TOTAL FREE ENERGY PREDICTED BY IDOCK:   -4.60 KCAL/MOL
REMARK 923 INTER-LIGAND FREE ENERGY PREDICTED BY IDOCK:   -4.03 KCAL/MOL
REMARK 924 INTRA-LIGAND FREE ENERGY PREDICTED BY IDOCK:   -0.56 KCAL/MOL
REMARK 927      BINDING AFFINITY PREDICTED BY RF-SCORE:    0.00 PKD
ROOT
HETATM    1  O   UNL     1     -10.743   9.513  71.525  1.00  0.00    -0.340 OA 
HETATM    2  C   UNL     1     -11.897   8.783  71.571  1.00  0.00    -0.311 A  
HETATM    3  H   UNL     1      -9.954   9.084  71.214  1.00  0.00     0.000 HD 
HETATM    4  C   UNL     1     -13.058   9.416  72.030  1.00  0.00    -0.516 A  
HETATM    5  C   UNL     1     -14.263   8.716  72.097  1.00  0.00    -0.520 A  
HETATM    6  C   UNL     1     -14.314   7.383  71.704  1.00  0.00    -0.614 A  
HETATM    7  C   UNL     1     -13.157   6.750  71.245  1.00  0.00    -0.170 A  
HETATM    8  C   UNL     1     -11.929   7.439  71.175  1.00  0.00    -0.351 A  
ENDROOT
BRANCH   8   9
HETATM    9  C   UNL     1     -10.769   6.660  70.645  1.00  0.00    -0.241 C  
HETATM   10  O   UNL     1     -10.916   5.774  69.812  1.00  0.00    -0.357 OA 
BRANCH   9  11
HETATM   11  O   UNL     1      -9.568   7.091  71.172  1.00  0.00    -0.166 OA 
BRANCH  11  12
HETATM   12  C   UNL     1      -8.393   6.814  70.453  1.00  0.00    -0.130 A  
HETATM   13  C   UNL     1      -7.928   7.678  69.461  1.00  0.00    -0.125 A  
HETATM   14  C   UNL     1      -6.710   7.417  68.836  1.00  0.00    -0.049 A  
HETATM   15  C   UNL     1      -5.954   6.309  69.220  1.00  0.00    -0.021 A  
HETATM   16  C   UNL     1      -6.414   5.460  70.228  1.00  0.00    -0.034 A  
HETATM   17  C   UNL     1      -7.637   5.713  70.853  1.00  0.00    -0.091 A  
ENDBRANCH  11  12
ENDBRANCH   9  11
ENDBRANCH   8   9
TORSDOF 3
ENDMDL
MODEL      197
REMARK 921   NORMALIZED FREE ENERGY PREDICTED BY IDOCK:   -3.59 KCAL/MOL
REMARK 922        TOTAL FREE ENERGY PREDICTED BY IDOCK:   -4.56 KCAL/MOL
REMARK 923 INTER-LIGAND FREE ENERGY PREDICTED BY IDOCK:   -4.22 KCAL/MOL
REMARK 924 INTRA-LIGAND FREE ENERGY PREDICTED BY IDOCK:   -0.35 KCAL/MOL
REMARK 927      BINDING AFFINITY PREDICTED BY RF-SCORE:    0.00 PKD
ROOT
HETATM    1  O   UNL     1     -10.305  13.882  68.802  1.00  0.00    -0.237 OA 
HETATM    2  C   UNL     1      -9.281  13.125  68.308  1.00  0.00    -0.194 A  
HETATM    3  H   UNL     1     -11.141  13.457  68.956  1.00  0.00     0.000 HD 
HETATM    4  C   UNL     1      -8.049  13.751  68.081  1.00  0.00    -0.155 A  
HETATM    5  C   UNL     1      -6.971  13.022  67.577  1.00  0.00    -0.155 A  
HETATM    6  C   UNL     1      -7.116  11.668  67.302  1.00  0.00    -0.134 A  
HETATM    7  C   UNL     1      -8.343  11.041  67.529  1.00  0.00    -0.118 A  
HETATM    8  C   UNL     1      -9.446  11.761  68.032  1.00  0.00    -0.188 A  
ENDROOT
BRANCH   8   9
HETATM    9  C   UNL     1     -10.696  10.973  68.254  1.00  0.00    -0.196 C  
HETATM   10  O   UNL     1     -11.687  11.126  67.550  1.00  0.00    -0.574 OA 
BRANCH   9  11
HETATM   11  O   UNL     1     -10.565  10.067  69.288  1.00  0.00    -0.201 OA 
BRANCH  11  12
HETATM   12  C   UNL     1     -11.644   9.914  70.174  1.00  0.00    -0.218 A  
HETATM   13  C   UNL     1     -12.034   8.655  70.632  1.00  0.00    -0.056 A  
HETATM   14  C   UNL     1     -13.048   8.552  71.583  1.00  0.00    -0.368 A  
HETATM   15  C   UNL     1     -13.650   9.706  72.087  1.00  0.00    -0.471 A  
HETATM   16  C   UNL     1     -13.241  10.963  71.640  1.00  0.00    -0.471 A  
HETATM   17  C   UNL     1     -12.230  11.073  70.683  1.00  0.00    -0.481 A  
ENDBRANCH  11  12
ENDBRANCH   9  11
ENDBRANCH   8   9
TORSDOF 3
ENDMDL
MODEL      198
REMARK 921   NORMALIZED FREE ENERGY PREDICTED BY IDOCK:   -3.57 KCAL/MOL
REMARK 922        TOTAL FREE ENERGY PREDICTED BY IDOCK:   -4.54 KCAL/MOL
REMARK 923 INTER-LIGAND FREE ENERGY PREDICTED BY IDOCK:   -3.88 KCAL/MOL
REMARK 924 INTRA-LIGAND FREE ENERGY PREDICTED BY IDOCK:   -0.66 KCAL/MOL
REMARK 927      BINDING AFFINITY PREDICTED BY RF-SCORE:    0.00 PKD
ROOT
HETATM    1  O   UNL     1      -7.224   7.487  66.689  1.00  0.00    -0.079 OA 
HETATM    2  C   UNL     1      -8.462   6.938  66.866  1.00  0.00    -0.115 A  
HETATM    3  H   UNL     1      -7.168   8.424  66.537  1.00  0.00     0.000 HD 
HETATM    4  C   UNL     1      -8.545   5.558  67.089  1.00  0.00    -0.109 A  
HETATM    5  C   UNL     1      -9.785   4.948  67.275  1.00  0.00    -0.194 A  
HETATM    6  C   UNL     1     -10.947   5.710  67.243  1.00  0.00    -0.080 A  
HETATM    7  C   UNL     1     -10.867   7.087  67.022  1.00  0.00    -0.413 A  
HETATM    8  C   UNL     1      -9.624   7.722  66.826  1.00  0.00    -0.274 A  
ENDROOT
BRANCH   8   9
HETATM    9  C   UNL     1      -9.668   9.202  66.623  1.00  0.00    -0.223 C  
HETATM   10  O   UNL     1     -10.109   9.697  65.593  1.00  0.00    -0.296 OA 
BRANCH   9  11
HETATM   11  O   UNL     1      -9.202   9.893  67.724  1.00  0.00    -0.131 OA 
BRANCH  11  12
HETATM   12  C   UNL     1     -10.120  10.218  68.737  1.00  0.00    -0.187 A  
HETATM   13  C   UNL     1     -11.291  10.923  68.457  1.00  0.00    -0.367 A  
HETATM   14  C   UNL     1     -12.221  11.144  69.471  1.00  0.00    -0.347 A  
HETATM   15  C   UNL     1     -11.986  10.642  70.752  1.00  0.00    -0.477 A  
HETATM   16  C   UNL     1     -10.822   9.920  71.021  1.00  0.00    -0.300 A  
HETATM   17  C   UNL     1      -9.884   9.700  70.010  1.00  0.00    -0.286 A  
ENDBRANCH  11  12
ENDBRANCH   9  11
ENDBRANCH   8   9
TORSDOF 3
ENDMDL
MODEL      199
REMARK 921   NORMALIZED FREE ENERGY PREDICTED BY IDOCK:   -3.55 KCAL/MOL
REMARK 922        TOTAL FREE ENERGY PREDICTED BY IDOCK:   -4.52 KCAL/MOL
REMARK 923 INTER-LIGAND FREE ENERGY PREDICTED BY IDOCK:   -3.93 KCAL/MOL
REMARK 924 INTRA-LIGAND FREE ENERGY PREDICTED BY IDOCK:   -0.59 KCAL/MOL
REMARK 927      BINDING AFFINITY PREDICTED BY RF-SCORE:    0.00 PKD
ROOT
HETATM    1  O   UNL     1      -9.010  16.185  65.486  1.00  0.00    -0.304 OA 
HETATM    2  C   UNL     1      -9.573  16.280  66.728  1.00  0.00    -0.239 A  
HETATM    3  H   UNL     1      -8.790  15.320  65.160  1.00  0.00     0.000 HD 
HETATM    4  C   UNL     1      -9.897  17.555  67.209  1.00  0.00    -0.294 A  
HETATM    5  C   UNL     1     -10.473  17.706  68.470  1.00  0.00    -0.337 A  
HETATM    6  C   UNL     1     -10.733  16.588  69.254  1.00  0.00    -0.331 A  
HETATM    7  C   UNL     1     -10.411  15.316  68.776  1.00  0.00    -0.232 A  
HETATM    8  C   UNL     1      -9.823  15.142  67.507  1.00  0.00    -0.220 A  
ENDROOT
BRANCH   8   9
HETATM    9  C   UNL     1      -9.549  13.731  67.099  1.00  0.00    -0.244 C  
HETATM   10  O   UNL     1      -8.432  13.368  66.748  1.00  0.00    -0.108 OA 
BRANCH   9  11
HETATM   11  O   UNL     1     -10.667  12.930  67.210  1.00  0.00    -0.242 OA 
BRANCH  11  12
HETATM   12  C   UNL     1     -10.477  11.555  67.433  1.00  0.00    -0.209 A  
HETATM   13  C   UNL     1     -10.291  11.048  68.719  1.00  0.00    -0.217 A  
HETATM   14  C   UNL     1     -10.200   9.670  68.909  1.00  0.00    -0.214 A  
HETATM   15  C   UNL     1     -10.319   8.807  67.817  1.00  0.00    -0.297 A  
HETATM   16  C   UNL     1     -10.526   9.321  66.536  1.00  0.00    -0.204 A  
HETATM   17  C   UNL     1     -10.612  10.700  66.339  1.00  0.00    -0.240 A  
ENDBRANCH  11  12
ENDBRANCH   9  11
ENDBRANCH   8   9
TORSDOF 3
ENDMDL
MODEL      200
REMARK 921   NORMALIZED FREE ENERGY PREDICTED BY IDOCK:   -3.53 KCAL/MOL
REMARK 922        TOTAL FREE ENERGY PREDICTED BY IDOCK:   -4.50 KCAL/MOL
REMARK 923 INTER-LIGAND FREE ENERGY PREDICTED BY IDOCK:   -4.57 KCAL/MOL
REMARK 924 INTRA-LIGAND FREE ENERGY PREDICTED BY IDOCK:    0.08 KCAL/MOL
REMARK 927      BINDING AFFINITY PREDICTED BY RF-SCORE:    0.00 PKD
ROOT
HETATM    1  O   UNL     1      -9.104   8.828  72.432  1.00  0.00    -0.366 OA 
HETATM    2  C   UNL     1      -9.821   7.706  72.734  1.00  0.00    -0.226 A  
HETATM    3  H   UNL     1      -9.453   9.418  71.774  1.00  0.00     0.000 HD 
HETATM    4  C   UNL     1      -9.306   6.836  73.703  1.00  0.00    -0.190 A  
HETATM    5  C   UNL     1     -10.000   5.676  74.048  1.00  0.00    -0.216 A  
HETATM    6  C   UNL     1     -11.210   5.380  73.431  1.00  0.00    -0.270 A  
HETATM    7  C   UNL     1     -11.726   6.247  72.465  1.00  0.00    -0.245 A  
HETATM    8  C   UNL     1     -11.038   7.421  72.099  1.00  0.00    -0.291 A  
ENDROOT
BRANCH   8   9
HETATM    9  C   UNL     1     -11.704   8.278  71.072  1.00  0.00    -0.270 C  
HETATM   10  O   UNL     1     -11.484   8.138  69.874  1.00  0.00    -0.031 OA 
BRANCH   9  11
HETATM   11  O   UNL     1     -12.589   9.176  71.636  1.00  0.00    -0.320 OA 
BRANCH  11  12
HETATM   12  C   UNL     1     -12.489  10.526  71.262  1.00  0.00    -0.419 A  
HETATM   13  C   UNL     1     -11.661  10.931  70.214  1.00  0.00    -0.437 A  
HETATM   14  C   UNL     1     -11.662  12.265  69.812  1.00  0.00    -0.368 A  
HETATM   15  C   UNL     1     -12.504  13.182  70.443  1.00  0.00    -0.280 A  
HETATM   16  C   UNL     1     -13.345  12.767  71.477  1.00  0.00    -0.232 A  
HETATM   17  C   UNL     1     -13.345  11.433  71.888  1.00  0.00    -0.409 A  
ENDBRANCH  11  12
ENDBRANCH   9  11
ENDBRANCH   8   9
TORSDOF 3
ENDMDL
MODEL      201
REMARK 921   NORMALIZED FREE ENERGY PREDICTED BY IDOCK:   -3.52 KCAL/MOL
REMARK 922        TOTAL FREE ENERGY PREDICTED BY IDOCK:   -4.48 KCAL/MOL
REMARK 923 INTER-LIGAND FREE ENERGY PREDICTED BY IDOCK:   -3.77 KCAL/MOL
REMARK 924 INTRA-LIGAND FREE ENERGY PREDICTED BY IDOCK:   -0.71 KCAL/MOL
REMARK 927      BINDING AFFINITY PREDICTED BY RF-SCORE:    0.00 PKD
ROOT
HETATM    1  O   UNL     1      -8.065  10.052  69.138  1.00  0.00    -0.105 OA 
HETATM    2  C   UNL     1      -8.858   9.147  68.493  1.00  0.00    -0.129 A  
HETATM    3  H   UNL     1      -7.746  10.799  68.644  1.00  0.00     0.000 HD 
HETATM    4  C   UNL     1      -9.328   8.046  69.221  1.00  0.00    -0.151 A  
HETATM    5  C   UNL     1     -10.141   7.093  68.609  1.00  0.00    -0.177 A  
HETATM    6  C   UNL     1     -10.493   7.234  67.272  1.00  0.00    -0.380 A  
HETATM    7  C   UNL     1     -10.027   8.331  66.544  1.00  0.00    -0.320 A  
HETATM    8  C   UNL     1      -9.199   9.303  67.143  1.00  0.00    -0.157 A  
ENDROOT
BRANCH   8   9
HETATM    9  C   UNL     1      -8.786  10.441  66.267  1.00  0.00    -0.152 C  
HETATM   10  O   UNL     1      -8.515  10.278  65.083  1.00  0.00    -0.155 OA 
BRANCH   9  11
HETATM   11  O   UNL     1      -8.794  11.646  66.941  1.00  0.00    -0.176 OA 
BRANCH  11  12
HETATM   12  C   UNL     1      -9.914  12.481  66.790  1.00  0.00    -0.228 A  
HETATM   13  C   UNL     1     -11.099  12.240  67.486  1.00  0.00    -0.326 A  
HETATM   14  C   UNL     1     -12.154  13.144  67.381  1.00  0.00    -0.316 A  
HETATM   15  C   UNL     1     -12.012  14.293  66.602  1.00  0.00    -0.454 A  
HETATM   16  C   UNL     1     -10.817  14.539  65.924  1.00  0.00    -0.308 A  
HETATM   17  C   UNL     1      -9.758  13.634  66.020  1.00  0.00    -0.239 A  
ENDBRANCH  11  12
ENDBRANCH   9  11
ENDBRANCH   8   9
TORSDOF 3
ENDMDL
MODEL      202
REMARK 921   NORMALIZED FREE ENERGY PREDICTED BY IDOCK:   -3.52 KCAL/MOL
REMARK 922        TOTAL FREE ENERGY PREDICTED BY IDOCK:   -4.48 KCAL/MOL
REMARK 923 INTER-LIGAND FREE ENERGY PREDICTED BY IDOCK:   -3.78 KCAL/MOL
REMARK 924 INTRA-LIGAND FREE ENERGY PREDICTED BY IDOCK:   -0.70 KCAL/MOL
REMARK 927      BINDING AFFINITY PREDICTED BY RF-SCORE:    0.00 PKD
ROOT
HETATM    1  O   UNL     1      -7.974   9.798  71.184  1.00  0.00    -0.313 OA 
HETATM    2  C   UNL     1      -8.966   8.864  71.089  1.00  0.00    -0.241 A  
HETATM    3  H   UNL     1      -7.942  10.484  70.527  1.00  0.00     0.000 HD 
HETATM    4  C   UNL     1      -9.013   7.852  72.056  1.00  0.00    -0.189 A  
HETATM    5  C   UNL     1     -10.006   6.874  72.004  1.00  0.00    -0.179 A  
HETATM    6  C   UNL     1     -10.957   6.901  70.990  1.00  0.00    -0.287 A  
HETATM    7  C   UNL     1     -10.912   7.909  70.024  1.00  0.00    -0.208 A  
HETATM    8  C   UNL     1      -9.913   8.904  70.056  1.00  0.00    -0.204 A  
ENDROOT
BRANCH   8   9
HETATM    9  C   UNL     1      -9.986   9.941  68.983  1.00  0.00    -0.187 C  
HETATM   10  O   UNL     1      -9.370  10.997  69.065  1.00  0.00    -0.173 OA 
BRANCH   9  11
HETATM   11  O   UNL     1     -10.775   9.539  67.923  1.00  0.00    -0.250 OA 
BRANCH  11  12
HETATM   12  C   UNL     1     -10.204   9.535  66.639  1.00  0.00    -0.240 A  
HETATM   13  C   UNL     1     -10.517  10.522  65.703  1.00  0.00    -0.213 A  
HETATM   14  C   UNL     1      -9.859  10.538  64.474  1.00  0.00    -0.401 A  
HETATM   15  C   UNL     1      -8.879   9.584  64.196  1.00  0.00    -0.243 A  
HETATM   16  C   UNL     1      -8.556   8.612  65.145  1.00  0.00    -0.200 A  
HETATM   17  C   UNL     1      -9.215   8.588  66.376  1.00  0.00    -0.251 A  
ENDBRANCH  11  12
ENDBRANCH   9  11
ENDBRANCH   8   9
TORSDOF 3
ENDMDL
MODEL      203
REMARK 921   NORMALIZED FREE ENERGY PREDICTED BY IDOCK:   -3.51 KCAL/MOL
REMARK 922        TOTAL FREE ENERGY PREDICTED BY IDOCK:   -4.47 KCAL/MOL
REMARK 923 INTER-LIGAND FREE ENERGY PREDICTED BY IDOCK:   -3.86 KCAL/MOL
REMARK 924 INTRA-LIGAND FREE ENERGY PREDICTED BY IDOCK:   -0.60 KCAL/MOL
REMARK 927      BINDING AFFINITY PREDICTED BY RF-SCORE:    0.00 PKD
ROOT
HETATM    1  O   UNL     1     -12.543   7.742  70.530  1.00  0.00    -0.449 OA 
HETATM    2  C   UNL     1     -11.732   6.736  70.974  1.00  0.00    -0.355 A  
HETATM    3  H   UNL     1     -12.482   7.994  69.616  1.00  0.00     0.000 HD 
HETATM    4  C   UNL     1     -11.821   6.365  72.322  1.00  0.00    -0.315 A  
HETATM    5  C   UNL     1     -11.015   5.344  72.825  1.00  0.00    -0.328 A  
HETATM    6  C   UNL     1     -10.121   4.687  71.988  1.00  0.00    -0.262 A  
HETATM    7  C   UNL     1     -10.031   5.055  70.644  1.00  0.00    -0.300 A  
HETATM    8  C   UNL     1     -10.832   6.088  70.117  1.00  0.00    -0.409 A  
ENDROOT
BRANCH   8   9
HETATM    9  C   UNL     1     -10.662   6.372  68.660  1.00  0.00    -0.285 C  
HETATM   10  O   UNL     1     -10.308   7.474  68.256  1.00  0.00    -0.188 OA 
BRANCH   9  11
HETATM   11  O   UNL     1     -10.908   5.260  67.880  1.00  0.00    -0.034 OA 
BRANCH  11  12
HETATM   12  C   UNL     1      -9.931   4.880  66.943  1.00  0.00    -0.217 A  
HETATM   13  C   UNL     1      -8.619   4.607  67.332  1.00  0.00    -0.104 A  
HETATM   14  C   UNL     1      -7.704   4.142  66.389  1.00  0.00    -0.090 A  
HETATM   15  C   UNL     1      -8.111   3.931  65.070  1.00  0.00    -0.093 A  
HETATM   16  C   UNL     1      -9.430   4.186  64.692  1.00  0.00    -0.168 A  
HETATM   17  C   UNL     1     -10.349   4.658  65.631  1.00  0.00    -0.266 A  
ENDBRANCH  11  12
ENDBRANCH   9  11
ENDBRANCH   8   9
TORSDOF 3
ENDMDL
MODEL      204
REMARK 921   NORMALIZED FREE ENERGY PREDICTED BY IDOCK:   -3.49 KCAL/MOL
REMARK 922        TOTAL FREE ENERGY PREDICTED BY IDOCK:   -4.45 KCAL/MOL
REMARK 923 INTER-LIGAND FREE ENERGY PREDICTED BY IDOCK:   -3.66 KCAL/MOL
REMARK 924 INTRA-LIGAND FREE ENERGY PREDICTED BY IDOCK:   -0.79 KCAL/MOL
REMARK 927      BINDING AFFINITY PREDICTED BY RF-SCORE:    0.00 PKD
ROOT
HETATM    1  O   UNL     1      -8.117   9.871  65.356  1.00  0.00    -0.125 OA 
HETATM    2  C   UNL     1      -8.030  10.139  66.693  1.00  0.00    -0.116 A  
HETATM    3  H   UNL     1      -8.970   9.650  65.000  1.00  0.00     0.000 HD 
HETATM    4  C   UNL     1      -6.773  10.463  67.219  1.00  0.00    -0.076 A  
HETATM    5  C   UNL     1      -6.630  10.745  68.578  1.00  0.00    -0.055 A  
HETATM    6  C   UNL     1      -7.738  10.709  69.416  1.00  0.00    -0.132 A  
HETATM    7  C   UNL     1      -8.993  10.386  68.893  1.00  0.00    -0.170 A  
HETATM    8  C   UNL     1      -9.157  10.093  67.524  1.00  0.00    -0.143 A  
ENDROOT
BRANCH   8   9
HETATM    9  C   UNL     1     -10.552   9.786  67.083  1.00  0.00    -0.229 C  
HETATM   10  O   UNL     1     -10.851   8.699  66.602  1.00  0.00    -0.084 OA 
BRANCH   9  11
HETATM   11  O   UNL     1     -11.416  10.836  67.320  1.00  0.00    -0.436 OA 
BRANCH  11  12
HETATM   12  C   UNL     1     -11.309  11.978  66.507  1.00  0.00    -0.354 A  
HETATM   13  C   UNL     1     -11.056  13.237  67.053  1.00  0.00    -0.304 A  
HETATM   14  C   UNL     1     -10.864  14.328  66.207  1.00  0.00    -0.310 A  
HETATM   15  C   UNL     1     -10.902  14.151  64.823  1.00  0.00    -0.426 A  
HETATM   16  C   UNL     1     -11.134  12.885  64.283  1.00  0.00    -0.414 A  
HETATM   17  C   UNL     1     -11.334  11.789  65.126  1.00  0.00    -0.281 A  
ENDBRANCH  11  12
ENDBRANCH   9  11
ENDBRANCH   8   9
TORSDOF 3
ENDMDL
MODEL      205
REMARK 921   NORMALIZED FREE ENERGY PREDICTED BY IDOCK:   -3.47 KCAL/MOL
REMARK 922        TOTAL FREE ENERGY PREDICTED BY IDOCK:   -4.42 KCAL/MOL
REMARK 923 INTER-LIGAND FREE ENERGY PREDICTED BY IDOCK:   -3.97 KCAL/MOL
REMARK 924 INTRA-LIGAND FREE ENERGY PREDICTED BY IDOCK:   -0.45 KCAL/MOL
REMARK 927      BINDING AFFINITY PREDICTED BY RF-SCORE:    0.00 PKD
ROOT
HETATM    1  O   UNL     1      -6.683   9.115  68.266  1.00  0.00    -0.059 OA 
HETATM    2  C   UNL     1      -7.255   7.923  68.607  1.00  0.00    -0.081 A  
HETATM    3  H   UNL     1      -6.974   9.897  68.722  1.00  0.00     0.000 HD 
HETATM    4  C   UNL     1      -6.828   6.771  67.935  1.00  0.00    -0.077 A  
HETATM    5  C   UNL     1      -7.381   5.528  68.246  1.00  0.00    -0.073 A  
HETATM    6  C   UNL     1      -8.357   5.428  69.230  1.00  0.00    -0.096 A  
HETATM    7  C   UNL     1      -8.784   6.576  69.902  1.00  0.00    -0.140 A  
HETATM    8  C   UNL     1      -8.243   7.841  69.599  1.00  0.00    -0.127 A  
ENDROOT
BRANCH   8   9
HETATM    9  C   UNL     1      -8.764   8.987  70.404  1.00  0.00    -0.199 C  
HETATM   10  O   UNL     1      -8.230   9.333  71.452  1.00  0.00    -0.330 OA 
BRANCH   9  11
HETATM   11  O   UNL     1      -9.850   9.593  69.805  1.00  0.00    -0.199 OA 
BRANCH  11  12
HETATM   12  C   UNL     1     -11.053   9.657  70.529  1.00  0.00    -0.308 A  
HETATM   13  C   UNL     1     -11.465   8.606  71.348  1.00  0.00    -0.352 A  
HETATM   14  C   UNL     1     -12.615   8.746  72.122  1.00  0.00    -0.463 A  
HETATM   15  C   UNL     1     -13.335   9.942  72.090  1.00  0.00    -0.498 A  
HETATM   16  C   UNL     1     -12.906  10.997  71.284  1.00  0.00    -0.528 A  
HETATM   17  C   UNL     1     -11.757  10.861  70.502  1.00  0.00    -0.441 A  
ENDBRANCH  11  12
ENDBRANCH   9  11
ENDBRANCH   8   9
TORSDOF 3
ENDMDL
MODEL      206
REMARK 921   NORMALIZED FREE ENERGY PREDICTED BY IDOCK:   -3.46 KCAL/MOL
REMARK 922        TOTAL FREE ENERGY PREDICTED BY IDOCK:   -4.41 KCAL/MOL
REMARK 923 INTER-LIGAND FREE ENERGY PREDICTED BY IDOCK:   -3.78 KCAL/MOL
REMARK 924 INTRA-LIGAND FREE ENERGY PREDICTED BY IDOCK:   -0.63 KCAL/MOL
REMARK 927      BINDING AFFINITY PREDICTED BY RF-SCORE:    0.00 PKD
ROOT
HETATM    1  O   UNL     1      -5.776  11.253  65.098  1.00  0.00    -0.471 OA 
HETATM    2  C   UNL     1      -6.519  10.169  64.724  1.00  0.00    -0.128 A  
HETATM    3  H   UNL     1      -6.117  11.813  65.786  1.00  0.00     0.000 HD 
HETATM    4  C   UNL     1      -6.016   9.344  63.710  1.00  0.00    -0.090 A  
HETATM    5  C   UNL     1      -6.736   8.225  63.291  1.00  0.00    -0.085 A  
HETATM    6  C   UNL     1      -7.957   7.922  63.883  1.00  0.00    -0.121 A  
HETATM    7  C   UNL     1      -8.460   8.744  64.895  1.00  0.00    -0.189 A  
HETATM    8  C   UNL     1      -7.750   9.882  65.329  1.00  0.00    -0.129 A  
ENDROOT
BRANCH   8   9
HETATM    9  C   UNL     1      -8.380  10.666  66.434  1.00  0.00    -0.151 C  
HETATM   10  O   UNL     1      -7.707  11.295  67.242  1.00  0.00    -0.123 OA 
BRANCH   9  11
HETATM   11  O   UNL     1      -9.759  10.613  66.390  1.00  0.00    -0.184 OA 
BRANCH  11  12
HETATM   12  C   UNL     1     -10.432  11.568  65.609  1.00  0.00    -0.266 A  
HETATM   13  C   UNL     1     -10.303  12.935  65.863  1.00  0.00    -0.297 A  
HETATM   14  C   UNL     1     -10.911  13.853  65.009  1.00  0.00    -0.389 A  
HETATM   15  C   UNL     1     -11.623  13.404  63.896  1.00  0.00    -0.401 A  
HETATM   16  C   UNL     1     -11.731  12.037  63.636  1.00  0.00    -0.587 A  
HETATM   17  C   UNL     1     -11.130  11.112  64.491  1.00  0.00    -0.166 A  
ENDBRANCH  11  12
ENDBRANCH   9  11
ENDBRANCH   8   9
TORSDOF 3
ENDMDL
MODEL      207
REMARK 921   NORMALIZED FREE ENERGY PREDICTED BY IDOCK:   -3.45 KCAL/MOL
REMARK 922        TOTAL FREE ENERGY PREDICTED BY IDOCK:   -4.40 KCAL/MOL
REMARK 923 INTER-LIGAND FREE ENERGY PREDICTED BY IDOCK:   -3.92 KCAL/MOL
REMARK 924 INTRA-LIGAND FREE ENERGY PREDICTED BY IDOCK:   -0.49 KCAL/MOL
REMARK 927      BINDING AFFINITY PREDICTED BY RF-SCORE:    0.00 PKD
ROOT
HETATM    1  O   UNL     1      -7.511   8.109  67.875  1.00  0.00    -0.094 OA 
HETATM    2  C   UNL     1      -8.614   7.323  67.699  1.00  0.00    -0.126 A  
HETATM    3  H   UNL     1      -7.487   8.682  68.633  1.00  0.00     0.000 HD 
HETATM    4  C   UNL     1      -8.650   6.479  66.582  1.00  0.00    -0.118 A  
HETATM    5  C   UNL     1      -9.754   5.657  66.355  1.00  0.00    -0.180 A  
HETATM    6  C   UNL     1     -10.823   5.669  67.243  1.00  0.00    -0.217 A  
HETATM    7  C   UNL     1     -10.790   6.509  68.358  1.00  0.00    -0.357 A  
HETATM    8  C   UNL     1      -9.686   7.352  68.601  1.00  0.00    -0.152 A  
ENDROOT
BRANCH   8   9
HETATM    9  C   UNL     1      -9.758   8.185  69.840  1.00  0.00    -0.176 C  
HETATM   10  O   UNL     1      -8.748   8.600  70.396  1.00  0.00    -0.137 OA 
BRANCH   9  11
HETATM   11  O   UNL     1     -11.060   8.441  70.221  1.00  0.00    -0.249 OA 
BRANCH  11  12
HETATM   12  C   UNL     1     -11.503   9.774  70.207  1.00  0.00    -0.255 A  
HETATM   13  C   UNL     1     -12.398  10.252  71.165  1.00  0.00    -0.501 A  
HETATM   14  C   UNL     1     -12.741  11.603  71.174  1.00  0.00    -0.426 A  
HETATM   15  C   UNL     1     -12.171  12.472  70.241  1.00  0.00    -0.345 A  
HETATM   16  C   UNL     1     -11.260  11.992  69.299  1.00  0.00    -0.291 A  
HETATM   17  C   UNL     1     -10.918  10.638  69.281  1.00  0.00    -0.294 A  
ENDBRANCH  11  12
ENDBRANCH   9  11
ENDBRANCH   8   9
TORSDOF 3
ENDMDL
MODEL      208
REMARK 921   NORMALIZED FREE ENERGY PREDICTED BY IDOCK:   -3.45 KCAL/MOL
REMARK 922        TOTAL FREE ENERGY PREDICTED BY IDOCK:   -4.40 KCAL/MOL
REMARK 923 INTER-LIGAND FREE ENERGY PREDICTED BY IDOCK:   -3.79 KCAL/MOL
REMARK 924 INTRA-LIGAND FREE ENERGY PREDICTED BY IDOCK:   -0.61 KCAL/MOL
REMARK 927      BINDING AFFINITY PREDICTED BY RF-SCORE:    0.00 PKD
ROOT
HETATM    1  O   UNL     1     -11.174  14.005  67.349  1.00  0.00    -0.291 OA 
HETATM    2  C   UNL     1      -9.965  14.277  67.923  1.00  0.00    -0.230 A  
HETATM    3  H   UNL     1     -11.302  13.146  66.963  1.00  0.00     0.000 HD 
HETATM    4  C   UNL     1      -9.776  15.543  68.492  1.00  0.00    -0.203 A  
HETATM    5  C   UNL     1      -8.559  15.871  69.091  1.00  0.00    -0.252 A  
HETATM    6  C   UNL     1      -7.529  14.939  69.128  1.00  0.00    -0.158 A  
HETATM    7  C   UNL     1      -7.715  13.676  68.562  1.00  0.00    -0.129 A  
HETATM    8  C   UNL     1      -8.935  13.327  67.948  1.00  0.00    -0.199 A  
ENDROOT
BRANCH   8   9
HETATM    9  C   UNL     1      -9.020  11.938  67.401  1.00  0.00    -0.173 C  
HETATM   10  O   UNL     1      -8.147  11.478  66.674  1.00  0.00    -0.159 OA 
BRANCH   9  11
HETATM   11  O   UNL     1     -10.144  11.271  67.844  1.00  0.00    -0.172 OA 
BRANCH  11  12
HETATM   12  C   UNL     1     -10.024  10.459  68.984  1.00  0.00    -0.214 A  
HETATM   13  C   UNL     1      -8.799   9.901  69.353  1.00  0.00    -0.195 A  
HETATM   14  C   UNL     1      -8.701   9.179  70.541  1.00  0.00    -0.258 A  
HETATM   15  C   UNL     1      -9.820   9.038  71.364  1.00  0.00    -0.381 A  
HETATM   16  C   UNL     1     -11.037   9.615  71.000  1.00  0.00    -0.438 A  
HETATM   17  C   UNL     1     -11.143  10.335  69.808  1.00  0.00    -0.340 A  
ENDBRANCH  11  12
ENDBRANCH   9  11
ENDBRANCH   8   9
TORSDOF 3
ENDMDL
MODEL      209
REMARK 921   NORMALIZED FREE ENERGY PREDICTED BY IDOCK:   -3.42 KCAL/MOL
REMARK 922        TOTAL FREE ENERGY PREDICTED BY IDOCK:   -4.37 KCAL/MOL
REMARK 923 INTER-LIGAND FREE ENERGY PREDICTED BY IDOCK:   -3.74 KCAL/MOL
REMARK 924 INTRA-LIGAND FREE ENERGY PREDICTED BY IDOCK:   -0.63 KCAL/MOL
REMARK 927      BINDING AFFINITY PREDICTED BY RF-SCORE:    0.00 PKD
ROOT
HETATM    1  O   UNL     1      -7.871  11.137  66.569  1.00  0.00    -0.150 OA 
HETATM    2  C   UNL     1      -7.670   9.936  65.950  1.00  0.00    -0.110 A  
HETATM    3  H   UNL     1      -8.554  11.705  66.231  1.00  0.00     0.000 HD 
HETATM    4  C   UNL     1      -6.663   9.099  66.448  1.00  0.00    -0.071 A  
HETATM    5  C   UNL     1      -6.417   7.862  65.852  1.00  0.00    -0.042 A  
HETATM    6  C   UNL     1      -7.176   7.453  64.761  1.00  0.00    -0.072 A  
HETATM    7  C   UNL     1      -8.181   8.286  64.264  1.00  0.00    -0.116 A  
HETATM    8  C   UNL     1      -8.441   9.541  64.848  1.00  0.00    -0.170 A  
ENDROOT
BRANCH   8   9
HETATM    9  C   UNL     1      -9.557  10.329  64.242  1.00  0.00    -0.313 C  
HETATM   10  O   UNL     1      -9.700  10.412  63.027  1.00  0.00    -0.318 OA 
BRANCH   9  11
HETATM   11  O   UNL     1     -10.384  10.883  65.198  1.00  0.00    -0.279 OA 
BRANCH  11  12
HETATM   12  C   UNL     1     -10.910  12.163  64.956  1.00  0.00    -0.300 A  
HETATM   13  C   UNL     1     -12.266  12.352  64.687  1.00  0.00    -0.499 A  
HETATM   14  C   UNL     1     -12.766  13.646  64.546  1.00  0.00    -0.143 A  
HETATM   15  C   UNL     1     -11.915  14.741  64.697  1.00  0.00    -0.448 A  
HETATM   16  C   UNL     1     -10.564  14.547  64.987  1.00  0.00    -0.458 A  
HETATM   17  C   UNL     1     -10.056  13.253  65.123  1.00  0.00    -0.249 A  
ENDBRANCH  11  12
ENDBRANCH   9  11
ENDBRANCH   8   9
TORSDOF 3
ENDMDL
MODEL      210
REMARK 921   NORMALIZED FREE ENERGY PREDICTED BY IDOCK:   -3.41 KCAL/MOL
REMARK 922        TOTAL FREE ENERGY PREDICTED BY IDOCK:   -4.35 KCAL/MOL
REMARK 923 INTER-LIGAND FREE ENERGY PREDICTED BY IDOCK:   -3.67 KCAL/MOL
REMARK 924 INTRA-LIGAND FREE ENERGY PREDICTED BY IDOCK:   -0.69 KCAL/MOL
REMARK 927      BINDING AFFINITY PREDICTED BY RF-SCORE:    0.00 PKD
ROOT
HETATM    1  O   UNL     1     -11.004  15.508  69.873  1.00  0.00    -0.257 OA 
HETATM    2  C   UNL     1      -9.751  15.605  69.338  1.00  0.00    -0.292 A  
HETATM    3  H   UNL     1     -11.729  15.884  69.386  1.00  0.00     0.000 HD 
HETATM    4  C   UNL     1      -8.684  15.051  70.056  1.00  0.00     0.439 A  
HETATM    5  C   UNL     1      -7.385  15.123  69.554  1.00  0.00    -0.210 A  
HETATM    6  C   UNL     1      -7.145  15.744  68.334  1.00  0.00    -0.116 A  
HETATM    7  C   UNL     1      -8.208  16.296  67.616  1.00  0.00    -0.166 A  
HETATM    8  C   UNL     1      -9.527  16.238  68.108  1.00  0.00    -0.215 A  
ENDROOT
BRANCH   8   9
HETATM    9  C   UNL     1     -10.579  16.843  67.237  1.00  0.00    -0.270 C  
HETATM   10  O   UNL     1     -10.446  17.958  66.745  1.00  0.00    -0.346 OA 
BRANCH   9  11
HETATM   11  O   UNL     1     -11.648  15.991  67.043  1.00  0.00     0.166 OA 
BRANCH  11  12
HETATM   12  C   UNL     1     -11.402  14.752  66.428  1.00  0.00    -0.339 A  
HETATM   13  C   UNL     1     -12.018  13.583  66.877  1.00  0.00    -0.447 A  
HETATM   14  C   UNL     1     -11.823  12.391  66.182  1.00  0.00    -0.442 A  
HETATM   15  C   UNL     1     -11.033  12.377  65.031  1.00  0.00    -0.336 A  
HETATM   16  C   UNL     1     -10.437  13.554  64.575  1.00  0.00    -0.426 A  
HETATM   17  C   UNL     1     -10.624  14.750  65.270  1.00  0.00    -0.414 A  
ENDBRANCH  11  12
ENDBRANCH   9  11
ENDBRANCH   8   9
TORSDOF 3
ENDMDL
MODEL      211
REMARK 921   NORMALIZED FREE ENERGY PREDICTED BY IDOCK:   -3.41 KCAL/MOL
REMARK 922        TOTAL FREE ENERGY PREDICTED BY IDOCK:   -4.35 KCAL/MOL
REMARK 923 INTER-LIGAND FREE ENERGY PREDICTED BY IDOCK:   -4.26 KCAL/MOL
REMARK 924 INTRA-LIGAND FREE ENERGY PREDICTED BY IDOCK:   -0.09 KCAL/MOL
REMARK 927      BINDING AFFINITY PREDICTED BY RF-SCORE:    0.00 PKD
ROOT
HETATM    1  O   UNL     1      -8.115  12.728  66.550  1.00  0.00    -0.387 OA 
HETATM    2  C   UNL     1      -9.339  12.455  67.092  1.00  0.00    -0.199 A  
HETATM    3  H   UNL     1      -7.881  13.638  66.411  1.00  0.00     0.000 HD 
HETATM    4  C   UNL     1      -9.685  11.114  67.296  1.00  0.00    -0.186 A  
HETATM    5  C   UNL     1     -10.923  10.782  67.846  1.00  0.00    -0.344 A  
HETATM    6  C   UNL     1     -11.819  11.784  68.198  1.00  0.00    -0.324 A  
HETATM    7  C   UNL     1     -11.476  13.123  67.996  1.00  0.00    -0.346 A  
HETATM    8  C   UNL     1     -10.232  13.479  67.436  1.00  0.00    -0.237 A  
ENDROOT
BRANCH   8   9
HETATM    9  C   UNL     1      -9.973  14.944  67.293  1.00  0.00    -0.230 C  
HETATM   10  O   UNL     1     -10.156  15.529  66.232  1.00  0.00    -0.264 OA 
BRANCH   9  11
HETATM   11  O   UNL     1      -9.559  15.518  68.478  1.00  0.00    -0.194 OA 
BRANCH  11  12
HETATM   12  C   UNL     1      -8.686  16.617  68.411  1.00  0.00    -0.225 A  
HETATM   13  C   UNL     1      -9.096  17.839  67.876  1.00  0.00    -0.259 A  
HETATM   14  C   UNL     1      -8.232  18.932  67.913  1.00  0.00    -0.305 A  
HETATM   15  C   UNL     1      -6.973  18.805  68.504  1.00  0.00    -0.288 A  
HETATM   16  C   UNL     1      -6.577  17.586  69.056  1.00  0.00    -0.243 A  
HETATM   17  C   UNL     1      -7.436  16.486  69.016  1.00  0.00    -0.229 A  
ENDBRANCH  11  12
ENDBRANCH   9  11
ENDBRANCH   8   9
TORSDOF 3
ENDMDL
MODEL      212
REMARK 921   NORMALIZED FREE ENERGY PREDICTED BY IDOCK:   -3.39 KCAL/MOL
REMARK 922        TOTAL FREE ENERGY PREDICTED BY IDOCK:   -4.32 KCAL/MOL
REMARK 923 INTER-LIGAND FREE ENERGY PREDICTED BY IDOCK:   -3.67 KCAL/MOL
REMARK 924 INTRA-LIGAND FREE ENERGY PREDICTED BY IDOCK:   -0.66 KCAL/MOL
REMARK 927      BINDING AFFINITY PREDICTED BY RF-SCORE:    0.00 PKD
ROOT
HETATM    1  O   UNL     1     -11.919   9.950  71.051  1.00  0.00    -0.311 OA 
HETATM    2  C   UNL     1     -11.723  10.761  69.970  1.00  0.00    -0.336 A  
HETATM    3  H   UNL     1     -11.723   9.025  70.958  1.00  0.00     0.000 HD 
HETATM    4  C   UNL     1     -12.014  12.124  70.108  1.00  0.00    -0.394 A  
HETATM    5  C   UNL     1     -11.831  12.995  69.034  1.00  0.00    -0.362 A  
HETATM    6  C   UNL     1     -11.355  12.513  67.820  1.00  0.00    -0.351 A  
HETATM    7  C   UNL     1     -11.064  11.154  67.681  1.00  0.00    -0.348 A  
HETATM    8  C   UNL     1     -11.247  10.256  68.752  1.00  0.00    -0.260 A  
ENDROOT
BRANCH   8   9
HETATM    9  C   UNL     1     -10.877   8.833  68.486  1.00  0.00     0.034 C  
HETATM   10  O   UNL     1     -10.728   8.026  69.396  1.00  0.00    -0.224 OA 
BRANCH   9  11
HETATM   11  O   UNL     1     -10.774   8.565  67.136  1.00  0.00    -0.280 OA 
BRANCH  11  12
HETATM   12  C   UNL     1      -9.696   7.777  66.698  1.00  0.00    -0.222 A  
HETATM   13  C   UNL     1      -9.840   6.407  66.479  1.00  0.00    -0.170 A  
HETATM   14  C   UNL     1      -8.774   5.678  65.955  1.00  0.00    -0.147 A  
HETATM   15  C   UNL     1      -7.580   6.325  65.632  1.00  0.00    -0.085 A  
HETATM   16  C   UNL     1      -7.449   7.699  65.834  1.00  0.00    -0.082 A  
HETATM   17  C   UNL     1      -8.512   8.434  66.365  1.00  0.00    -0.127 A  
ENDBRANCH  11  12
ENDBRANCH   9  11
ENDBRANCH   8   9
TORSDOF 3
ENDMDL
MODEL      213
REMARK 921   NORMALIZED FREE ENERGY PREDICTED BY IDOCK:   -3.37 KCAL/MOL
REMARK 922        TOTAL FREE ENERGY PREDICTED BY IDOCK:   -4.31 KCAL/MOL
REMARK 923 INTER-LIGAND FREE ENERGY PREDICTED BY IDOCK:   -3.70 KCAL/MOL
REMARK 924 INTRA-LIGAND FREE ENERGY PREDICTED BY IDOCK:   -0.61 KCAL/MOL
REMARK 927      BINDING AFFINITY PREDICTED BY RF-SCORE:    0.00 PKD
ROOT
HETATM    1  O   UNL     1     -12.187   7.823  70.446  1.00  0.00    -0.484 OA 
HETATM    2  C   UNL     1     -11.557   6.722  70.952  1.00  0.00    -0.353 A  
HETATM    3  H   UNL     1     -12.020   8.057  69.540  1.00  0.00     0.000 HD 
HETATM    4  C   UNL     1     -11.803   6.378  72.287  1.00  0.00    -0.315 A  
HETATM    5  C   UNL     1     -11.185   5.262  72.852  1.00  0.00    -0.375 A  
HETATM    6  C   UNL     1     -10.323   4.484  72.088  1.00  0.00    -0.233 A  
HETATM    7  C   UNL     1     -10.077   4.824  70.756  1.00  0.00    -0.286 A  
HETATM    8  C   UNL     1     -10.688   5.951  70.169  1.00  0.00    -0.389 A  
ENDROOT
BRANCH   8   9
HETATM    9  C   UNL     1     -10.364   6.196  68.730  1.00  0.00    -0.209 C  
HETATM   10  O   UNL     1     -11.241   6.402  67.899  1.00  0.00    -0.319 OA 
BRANCH   9  11
HETATM   11  O   UNL     1      -9.004   6.200  68.496  1.00  0.00    -0.117 OA 
BRANCH  11  12
HETATM   12  C   UNL     1      -8.472   7.229  67.701  1.00  0.00    -0.116 A  
HETATM   13  C   UNL     1      -8.412   8.545  68.162  1.00  0.00    -0.134 A  
HETATM   14  C   UNL     1      -7.792   9.520  67.382  1.00  0.00    -0.102 A  
HETATM   15  C   UNL     1      -7.217   9.171  66.159  1.00  0.00    -0.090 A  
HETATM   16  C   UNL     1      -7.262   7.850  65.713  1.00  0.00    -0.071 A  
HETATM   17  C   UNL     1      -7.887   6.870  66.487  1.00  0.00    -0.106 A  
ENDBRANCH  11  12
ENDBRANCH   9  11
ENDBRANCH   8   9
TORSDOF 3
ENDMDL
MODEL      214
REMARK 921   NORMALIZED FREE ENERGY PREDICTED BY IDOCK:   -3.37 KCAL/MOL
REMARK 922        TOTAL FREE ENERGY PREDICTED BY IDOCK:   -4.30 KCAL/MOL
REMARK 923 INTER-LIGAND FREE ENERGY PREDICTED BY IDOCK:   -3.66 KCAL/MOL
REMARK 924 INTRA-LIGAND FREE ENERGY PREDICTED BY IDOCK:   -0.64 KCAL/MOL
REMARK 927      BINDING AFFINITY PREDICTED BY RF-SCORE:    0.00 PKD
ROOT
HETATM    1  O   UNL     1     -11.150   7.362  67.280  1.00  0.00    -0.554 OA 
HETATM    2  C   UNL     1     -10.776   8.051  68.398  1.00  0.00    -0.016 A  
HETATM    3  H   UNL     1     -11.202   7.838  66.458  1.00  0.00     0.000 HD 
HETATM    4  C   UNL     1     -10.701   7.351  69.609  1.00  0.00    -0.245 A  
HETATM    5  C   UNL     1     -10.324   8.007  70.780  1.00  0.00    -0.214 A  
HETATM    6  C   UNL     1     -10.018   9.363  70.749  1.00  0.00    -0.358 A  
HETATM    7  C   UNL     1     -10.092  10.064  69.543  1.00  0.00    -0.248 A  
HETATM    8  C   UNL     1     -10.476   9.419  68.350  1.00  0.00    -0.256 A  
ENDROOT
BRANCH   8   9
HETATM    9  C   UNL     1     -10.493  10.270  67.121  1.00  0.00    -0.254 C  
HETATM   10  O   UNL     1     -10.685  11.480  67.179  1.00  0.00    -0.228 OA 
BRANCH   9  11
HETATM   11  O   UNL     1     -10.235   9.541  65.978  1.00  0.00    -0.272 OA 
BRANCH  11  12
HETATM   12  C   UNL     1      -9.059   9.827  65.263  1.00  0.00    -0.211 A  
HETATM   13  C   UNL     1      -7.819   9.890  65.899  1.00  0.00    -0.116 A  
HETATM   14  C   UNL     1      -6.665  10.082  65.141  1.00  0.00    -0.126 A  
HETATM   15  C   UNL     1      -6.755  10.189  63.752  1.00  0.00    -0.113 A  
HETATM   16  C   UNL     1      -7.996  10.104  63.120  1.00  0.00    -0.154 A  
HETATM   17  C   UNL     1      -9.156   9.917  63.875  1.00  0.00    -0.298 A  
ENDBRANCH  11  12
ENDBRANCH   9  11
ENDBRANCH   8   9
TORSDOF 3
ENDMDL
MODEL      215
REMARK 921   NORMALIZED FREE ENERGY PREDICTED BY IDOCK:   -3.35 KCAL/MOL
REMARK 922        TOTAL FREE ENERGY PREDICTED BY IDOCK:   -4.28 KCAL/MOL
REMARK 923 INTER-LIGAND FREE ENERGY PREDICTED BY IDOCK:   -3.59 KCAL/MOL
REMARK 924 INTRA-LIGAND FREE ENERGY PREDICTED BY IDOCK:   -0.69 KCAL/MOL
REMARK 927      BINDING AFFINITY PREDICTED BY RF-SCORE:    0.00 PKD
ROOT
HETATM    1  O   UNL     1      -8.551   9.616  71.415  1.00  0.00    -0.248 OA 
HETATM    2  C   UNL     1      -9.168   9.053  70.334  1.00  0.00    -0.209 A  
HETATM    3  H   UNL     1      -8.830   9.342  72.281  1.00  0.00     0.000 HD 
HETATM    4  C   UNL     1      -8.758   9.456  69.057  1.00  0.00    -0.136 A  
HETATM    5  C   UNL     1      -9.357   8.912  67.921  1.00  0.00    -0.155 A  
HETATM    6  C   UNL     1     -10.362   7.961  68.052  1.00  0.00    -0.264 A  
HETATM    7  C   UNL     1     -10.772   7.557  69.325  1.00  0.00    -0.185 A  
HETATM    8  C   UNL     1     -10.184   8.099  70.485  1.00  0.00    -0.207 A  
ENDROOT
BRANCH   8   9
HETATM    9  C   UNL     1     -10.692   7.568  71.787  1.00  0.00    -0.211 C  
HETATM   10  O   UNL     1     -10.521   8.172  72.839  1.00  0.00    -0.340 OA 
BRANCH   9  11
HETATM   11  O   UNL     1     -11.380   6.381  71.632  1.00  0.00    -0.264 OA 
BRANCH  11  12
HETATM   12  C   UNL     1     -10.777   5.201  72.101  1.00  0.00    -0.187 A  
HETATM   13  C   UNL     1      -9.660   4.656  71.467  1.00  0.00    -0.225 A  
HETATM   14  C   UNL     1      -9.034   3.538  72.017  1.00  0.00    -0.142 A  
HETATM   15  C   UNL     1      -9.514   2.987  73.206  1.00  0.00    -0.123 A  
HETATM   16  C   UNL     1     -10.619   3.549  73.846  1.00  0.00    -0.281 A  
HETATM   17  C   UNL     1     -11.254   4.665  73.297  1.00  0.00    -0.411 A  
ENDBRANCH  11  12
ENDBRANCH   9  11
ENDBRANCH   8   9
TORSDOF 3
ENDMDL
MODEL      216
REMARK 921   NORMALIZED FREE ENERGY PREDICTED BY IDOCK:   -3.34 KCAL/MOL
REMARK 922        TOTAL FREE ENERGY PREDICTED BY IDOCK:   -4.27 KCAL/MOL
REMARK 923 INTER-LIGAND FREE ENERGY PREDICTED BY IDOCK:   -3.61 KCAL/MOL
REMARK 924 INTRA-LIGAND FREE ENERGY PREDICTED BY IDOCK:   -0.67 KCAL/MOL
REMARK 927      BINDING AFFINITY PREDICTED BY RF-SCORE:    0.00 PKD
ROOT
HETATM    1  O   UNL     1     -10.305  12.741  68.168  1.00  0.00    -0.225 OA 
HETATM    2  C   UNL     1      -9.155  12.010  68.069  1.00  0.00    -0.188 A  
HETATM    3  H   UNL     1     -11.033  12.366  68.651  1.00  0.00     0.000 HD 
HETATM    4  C   UNL     1      -8.083  12.562  67.358  1.00  0.00    -0.180 A  
HETATM    5  C   UNL     1      -6.886  11.857  67.227  1.00  0.00    -0.142 A  
HETATM    6  C   UNL     1      -6.753  10.601  67.808  1.00  0.00    -0.068 A  
HETATM    7  C   UNL     1      -7.821  10.049  68.519  1.00  0.00    -0.093 A  
HETATM    8  C   UNL     1      -9.039  10.743  68.657  1.00  0.00    -0.173 A  
ENDROOT
BRANCH   8   9
HETATM    9  C   UNL     1     -10.097  10.057  69.461  1.00  0.00    -0.227 C  
HETATM   10  O   UNL     1     -11.051  10.670  69.925  1.00  0.00    -0.270 OA 
BRANCH   9  11
HETATM   11  O   UNL     1      -9.875   8.698  69.562  1.00  0.00    -0.180 OA 
BRANCH  11  12
HETATM   12  C   UNL     1     -10.111   8.080  70.802  1.00  0.00    -0.192 A  
HETATM   13  C   UNL     1      -9.342   8.389  71.925  1.00  0.00    -0.313 A  
HETATM   14  C   UNL     1      -9.668   7.826  73.157  1.00  0.00    -0.347 A  
HETATM   15  C   UNL     1     -10.771   6.977  73.266  1.00  0.00    -0.373 A  
HETATM   16  C   UNL     1     -11.548   6.688  72.143  1.00  0.00    -0.335 A  
HETATM   17  C   UNL     1     -11.223   7.245  70.904  1.00  0.00    -0.298 A  
ENDBRANCH  11  12
ENDBRANCH   9  11
ENDBRANCH   8   9
TORSDOF 3
ENDMDL
MODEL      217
REMARK 921   NORMALIZED FREE ENERGY PREDICTED BY IDOCK:   -3.28 KCAL/MOL
REMARK 922        TOTAL FREE ENERGY PREDICTED BY IDOCK:   -4.20 KCAL/MOL
REMARK 923 INTER-LIGAND FREE ENERGY PREDICTED BY IDOCK:   -3.57 KCAL/MOL
REMARK 924 INTRA-LIGAND FREE ENERGY PREDICTED BY IDOCK:   -0.63 KCAL/MOL
REMARK 927      BINDING AFFINITY PREDICTED BY RF-SCORE:    0.00 PKD
ROOT
HETATM    1  O   UNL     1      -7.544  11.102  67.535  1.00  0.00    -0.101 OA 
HETATM    2  C   UNL     1      -8.438  10.082  67.369  1.00  0.00    -0.121 A  
HETATM    3  H   UNL     1      -7.835  11.987  67.349  1.00  0.00     0.000 HD 
HETATM    4  C   UNL     1      -8.008   8.778  67.643  1.00  0.00    -0.106 A  
HETATM    5  C   UNL     1      -8.882   7.702  67.490  1.00  0.00    -0.124 A  
HETATM    6  C   UNL     1     -10.188   7.922  67.067  1.00  0.00    -0.382 A  
HETATM    7  C   UNL     1     -10.619   9.222  66.794  1.00  0.00    -0.207 A  
HETATM    8  C   UNL     1      -9.750  10.322  66.938  1.00  0.00    -0.229 A  
ENDROOT
BRANCH   8   9
HETATM    9  C   UNL     1     -10.336  11.664  66.639  1.00  0.00    -0.222 C  
HETATM   10  O   UNL     1     -10.872  11.908  65.564  1.00  0.00    -0.280 OA 
BRANCH   9  11
HETATM   11  O   UNL     1     -10.228  12.529  67.709  1.00  0.00    -0.208 OA 
BRANCH  11  12
HETATM   12  C   UNL     1     -10.038  13.895  67.439  1.00  0.00    -0.244 A  
HETATM   13  C   UNL     1      -8.822  14.377  66.953  1.00  0.00    -0.246 A  
HETATM   14  C   UNL     1      -8.703  15.722  66.608  1.00  0.00    -0.323 A  
HETATM   15  C   UNL     1      -9.804  16.572  66.728  1.00  0.00    -0.274 A  
HETATM   16  C   UNL     1     -11.024  16.079  67.195  1.00  0.00    -0.183 A  
HETATM   17  C   UNL     1     -11.147  14.734  67.548  1.00  0.00    -0.323 A  
ENDBRANCH  11  12
ENDBRANCH   9  11
ENDBRANCH   8   9
TORSDOF 3
ENDMDL
MODEL      218
REMARK 921   NORMALIZED FREE ENERGY PREDICTED BY IDOCK:   -3.25 KCAL/MOL
REMARK 922        TOTAL FREE ENERGY PREDICTED BY IDOCK:   -4.16 KCAL/MOL
REMARK 923 INTER-LIGAND FREE ENERGY PREDICTED BY IDOCK:   -3.71 KCAL/MOL
REMARK 924 INTRA-LIGAND FREE ENERGY PREDICTED BY IDOCK:   -0.46 KCAL/MOL
REMARK 927      BINDING AFFINITY PREDICTED BY RF-SCORE:    0.00 PKD
ROOT
HETATM    1  O   UNL     1      -7.775   9.731  67.522  1.00  0.00    -0.094 OA 
HETATM    2  C   UNL     1      -8.605  10.114  66.507  1.00  0.00    -0.126 A  
HETATM    3  H   UNL     1      -8.140   9.663  68.397  1.00  0.00     0.000 HD 
HETATM    4  C   UNL     1      -8.067  10.215  65.218  1.00  0.00    -0.151 A  
HETATM    5  C   UNL     1      -8.872  10.602  64.147  1.00  0.00    -0.170 A  
HETATM    6  C   UNL     1     -10.217  10.886  64.356  1.00  0.00    -0.423 A  
HETATM    7  C   UNL     1     -10.756  10.785  65.640  1.00  0.00    -0.142 A  
HETATM    8  C   UNL     1      -9.958  10.401  66.736  1.00  0.00    -0.256 A  
ENDROOT
BRANCH   8   9
HETATM    9  C   UNL     1     -10.656  10.305  68.054  1.00  0.00    -0.231 C  
HETATM   10  O   UNL     1     -11.854  10.541  68.167  1.00  0.00    -0.417 OA 
BRANCH   9  11
HETATM   11  O   UNL     1      -9.809   9.895  69.064  1.00  0.00    -0.173 OA 
BRANCH  11  12
HETATM   12  C   UNL     1     -10.130   8.716  69.758  1.00  0.00    -0.199 A  
HETATM   13  C   UNL     1     -10.284   7.500  69.090  1.00  0.00    -0.202 A  
HETATM   14  C   UNL     1     -10.509   6.336  69.824  1.00  0.00    -0.289 A  
HETATM   15  C   UNL     1     -10.555   6.389  71.218  1.00  0.00    -0.275 A  
HETATM   16  C   UNL     1     -10.379   7.605  71.880  1.00  0.00    -0.240 A  
HETATM   17  C   UNL     1     -10.160   8.775  71.151  1.00  0.00    -0.317 A  
ENDBRANCH  11  12
ENDBRANCH   9  11
ENDBRANCH   8   9
TORSDOF 3
ENDMDL
MODEL      219
REMARK 921   NORMALIZED FREE ENERGY PREDICTED BY IDOCK:   -3.25 KCAL/MOL
REMARK 922        TOTAL FREE ENERGY PREDICTED BY IDOCK:   -4.16 KCAL/MOL
REMARK 923 INTER-LIGAND FREE ENERGY PREDICTED BY IDOCK:   -3.51 KCAL/MOL
REMARK 924 INTRA-LIGAND FREE ENERGY PREDICTED BY IDOCK:   -0.65 KCAL/MOL
REMARK 927      BINDING AFFINITY PREDICTED BY RF-SCORE:    0.00 PKD
ROOT
HETATM    1  O   UNL     1     -11.253   7.258  73.633  1.00  0.00    -0.570 OA 
HETATM    2  C   UNL     1     -10.905   6.918  72.356  1.00  0.00    -0.235 A  
HETATM    3  H   UNL     1     -10.632   7.075  74.329  1.00  0.00     0.000 HD 
HETATM    4  C   UNL     1     -11.819   7.188  71.330  1.00  0.00    -0.344 A  
HETATM    5  C   UNL     1     -11.513   6.860  70.010  1.00  0.00    -0.328 A  
HETATM    6  C   UNL     1     -10.294   6.265  69.706  1.00  0.00    -0.260 A  
HETATM    7  C   UNL     1      -9.380   5.995  70.727  1.00  0.00    -0.169 A  
HETATM    8  C   UNL     1      -9.673   6.314  72.069  1.00  0.00    -0.164 A  
ENDROOT
BRANCH   8   9
HETATM    9  C   UNL     1      -8.605   5.999  73.066  1.00  0.00    -0.123 C  
HETATM   10  O   UNL     1      -7.515   6.558  73.040  1.00  0.00    -0.089 OA 
BRANCH   9  11
HETATM   11  O   UNL     1      -9.020   5.066  73.995  1.00  0.00    -0.114 OA 
BRANCH  11  12
HETATM   12  C   UNL     1      -9.606   3.879  73.524  1.00  0.00    -0.106 A  
HETATM   13  C   UNL     1      -8.851   2.907  72.866  1.00  0.00    -0.092 A  
HETATM   14  C   UNL     1      -9.449   1.703  72.499  1.00  0.00    -0.127 A  
HETATM   15  C   UNL     1     -10.790   1.468  72.810  1.00  0.00    -0.236 A  
HETATM   16  C   UNL     1     -11.534   2.435  73.487  1.00  0.00    -0.279 A  
HETATM   17  C   UNL     1     -10.942   3.646  73.853  1.00  0.00    -0.276 A  
ENDBRANCH  11  12
ENDBRANCH   9  11
ENDBRANCH   8   9
TORSDOF 3
ENDMDL
MODEL      220
REMARK 921   NORMALIZED FREE ENERGY PREDICTED BY IDOCK:   -3.24 KCAL/MOL
REMARK 922        TOTAL FREE ENERGY PREDICTED BY IDOCK:   -4.15 KCAL/MOL
REMARK 923 INTER-LIGAND FREE ENERGY PREDICTED BY IDOCK:   -3.55 KCAL/MOL
REMARK 924 INTRA-LIGAND FREE ENERGY PREDICTED BY IDOCK:   -0.60 KCAL/MOL
REMARK 927      BINDING AFFINITY PREDICTED BY RF-SCORE:    0.00 PKD
ROOT
HETATM    1  O   UNL     1      -8.326  12.002  67.754  1.00  0.00    -0.139 OA 
HETATM    2  C   UNL     1      -8.127  10.899  68.535  1.00  0.00    -0.137 A  
HETATM    3  H   UNL     1      -9.186  12.126  67.368  1.00  0.00     0.000 HD 
HETATM    4  C   UNL     1      -6.860  10.715  69.103  1.00  0.00    -0.079 A  
HETATM    5  C   UNL     1      -6.604   9.605  69.909  1.00  0.00    -0.065 A  
HETATM    6  C   UNL     1      -7.610   8.678  70.154  1.00  0.00    -0.069 A  
HETATM    7  C   UNL     1      -8.874   8.860  69.589  1.00  0.00    -0.142 A  
HETATM    8  C   UNL     1      -9.151   9.971  68.768  1.00  0.00    -0.148 A  
ENDROOT
BRANCH   8   9
HETATM    9  C   UNL     1     -10.547  10.067  68.244  1.00  0.00    -0.226 C  
HETATM   10  O   UNL     1     -11.198   9.068  67.958  1.00  0.00     0.101 OA 
BRANCH   9  11
HETATM   11  O   UNL     1     -10.988  11.373  68.171  1.00  0.00    -0.202 OA 
BRANCH  11  12
HETATM   12  C   UNL     1     -11.674  11.902  69.278  1.00  0.00    -0.328 A  
HETATM   13  C   UNL     1     -12.211  11.073  70.263  1.00  0.00    -0.447 A  
HETATM   14  C   UNL     1     -12.802  11.639  71.392  1.00  0.00    -0.461 A  
HETATM   15  C   UNL     1     -12.831  13.026  71.540  1.00  0.00    -0.386 A  
HETATM   16  C   UNL     1     -12.274  13.850  70.561  1.00  0.00    -0.443 A  
HETATM   17  C   UNL     1     -11.687  13.289  69.425  1.00  0.00    -0.383 A  
ENDBRANCH  11  12
ENDBRANCH   9  11
ENDBRANCH   8   9
TORSDOF 3
ENDMDL
MODEL      221
REMARK 921   NORMALIZED FREE ENERGY PREDICTED BY IDOCK:   -3.23 KCAL/MOL
REMARK 922        TOTAL FREE ENERGY PREDICTED BY IDOCK:   -4.14 KCAL/MOL
REMARK 923 INTER-LIGAND FREE ENERGY PREDICTED BY IDOCK:   -3.55 KCAL/MOL
REMARK 924 INTRA-LIGAND FREE ENERGY PREDICTED BY IDOCK:   -0.59 KCAL/MOL
REMARK 927      BINDING AFFINITY PREDICTED BY RF-SCORE:    0.00 PKD
ROOT
HETATM    1  O   UNL     1      -8.092   8.165  68.748  1.00  0.00    -0.116 OA 
HETATM    2  C   UNL     1      -9.004   9.135  68.445  1.00  0.00    -0.133 A  
HETATM    3  H   UNL     1      -8.217   7.668  69.548  1.00  0.00     0.000 HD 
HETATM    4  C   UNL     1      -8.820   9.868  67.266  1.00  0.00    -0.138 A  
HETATM    5  C   UNL     1      -9.722  10.870  66.911  1.00  0.00    -0.210 A  
HETATM    6  C   UNL     1     -10.814  11.143  67.727  1.00  0.00    -0.288 A  
HETATM    7  C   UNL     1     -11.001  10.413  68.903  1.00  0.00    -0.289 A  
HETATM    8  C   UNL     1     -10.097   9.400  69.282  1.00  0.00    -0.200 A  
ENDROOT
BRANCH   8   9
HETATM    9  C   UNL     1     -10.418   8.675  70.549  1.00  0.00    -0.206 C  
HETATM   10  O   UNL     1     -10.423   9.244  71.634  1.00  0.00    -0.344 OA 
BRANCH   9  11
HETATM   11  O   UNL     1     -10.734   7.350  70.324  1.00  0.00    -0.227 OA 
BRANCH  11  12
HETATM   12  C   UNL     1     -10.457   6.422  71.342  1.00  0.00    -0.218 A  
HETATM   13  C   UNL     1     -11.470   5.910  72.154  1.00  0.00    -0.333 A  
HETATM   14  C   UNL     1     -11.169   4.922  73.090  1.00  0.00    -0.403 A  
HETATM   15  C   UNL     1      -9.865   4.435  73.194  1.00  0.00    -0.173 A  
HETATM   16  C   UNL     1      -8.860   4.937  72.365  1.00  0.00    -0.130 A  
HETATM   17  C   UNL     1      -9.154   5.931  71.430  1.00  0.00    -0.148 A  
ENDBRANCH  11  12
ENDBRANCH   9  11
ENDBRANCH   8   9
TORSDOF 3
ENDMDL
MODEL      222
REMARK 921   NORMALIZED FREE ENERGY PREDICTED BY IDOCK:   -3.23 KCAL/MOL
REMARK 922        TOTAL FREE ENERGY PREDICTED BY IDOCK:   -4.14 KCAL/MOL
REMARK 923 INTER-LIGAND FREE ENERGY PREDICTED BY IDOCK:   -3.59 KCAL/MOL
REMARK 924 INTRA-LIGAND FREE ENERGY PREDICTED BY IDOCK:   -0.55 KCAL/MOL
REMARK 927      BINDING AFFINITY PREDICTED BY RF-SCORE:    0.00 PKD
ROOT
HETATM    1  O   UNL     1      -7.244   7.289  67.190  1.00  0.00    -0.087 OA 
HETATM    2  C   UNL     1      -7.841   6.227  66.574  1.00  0.00    -0.104 A  
HETATM    3  H   UNL     1      -7.802   7.966  67.555  1.00  0.00     0.000 HD 
HETATM    4  C   UNL     1      -7.018   5.230  66.035  1.00  0.00    -0.067 A  
HETATM    5  C   UNL     1      -7.578   4.124  65.395  1.00  0.00    -0.085 A  
HETATM    6  C   UNL     1      -8.960   4.006  65.293  1.00  0.00    -0.132 A  
HETATM    7  C   UNL     1      -9.782   4.999  65.829  1.00  0.00    -0.158 A  
HETATM    8  C   UNL     1      -9.236   6.126  66.475  1.00  0.00    -0.161 A  
ENDROOT
BRANCH   8   9
HETATM    9  C   UNL     1     -10.219   7.106  67.029  1.00  0.00    -0.269 C  
HETATM   10  O   UNL     1     -11.405   6.824  67.161  1.00  0.00    -0.330 OA 
BRANCH   9  11
HETATM   11  O   UNL     1      -9.622   8.297  67.390  1.00  0.00    -0.148 OA 
BRANCH  11  12
HETATM   12  C   UNL     1      -9.993   9.460  66.694  1.00  0.00    -0.258 A  
HETATM   13  C   UNL     1      -9.713   9.615  65.336  1.00  0.00    -0.365 A  
HETATM   14  C   UNL     1     -10.181  10.742  64.661  1.00  0.00    -0.419 A  
HETATM   15  C   UNL     1     -10.943  11.693  65.340  1.00  0.00    -0.328 A  
HETATM   16  C   UNL     1     -11.238  11.522  66.693  1.00  0.00    -0.336 A  
HETATM   17  C   UNL     1     -10.767  10.399  67.376  1.00  0.00    -0.338 A  
ENDBRANCH  11  12
ENDBRANCH   9  11
ENDBRANCH   8   9
TORSDOF 3
ENDMDL
MODEL      223
REMARK 921   NORMALIZED FREE ENERGY PREDICTED BY IDOCK:   -3.22 KCAL/MOL
REMARK 922        TOTAL FREE ENERGY PREDICTED BY IDOCK:   -4.13 KCAL/MOL
REMARK 923 INTER-LIGAND FREE ENERGY PREDICTED BY IDOCK:   -3.74 KCAL/MOL
REMARK 924 INTRA-LIGAND FREE ENERGY PREDICTED BY IDOCK:   -0.39 KCAL/MOL
REMARK 927      BINDING AFFINITY PREDICTED BY RF-SCORE:    0.00 PKD
ROOT
HETATM    1  O   UNL     1     -11.233   6.346  71.078  1.00  0.00    -0.282 OA 
HETATM    2  C   UNL     1     -11.252   7.646  70.657  1.00  0.00    -0.266 A  
HETATM    3  H   UNL     1     -10.855   5.694  70.499  1.00  0.00     0.000 HD 
HETATM    4  C   UNL     1     -11.809   8.607  71.510  1.00  0.00    -0.366 A  
HETATM    5  C   UNL     1     -11.853   9.947  71.128  1.00  0.00    -0.472 A  
HETATM    6  C   UNL     1     -11.338  10.336  69.897  1.00  0.00    -0.354 A  
HETATM    7  C   UNL     1     -10.781   9.380  69.044  1.00  0.00    -0.209 A  
HETATM    8  C   UNL     1     -10.733   8.019  69.410  1.00  0.00    -0.167 A  
ENDROOT
BRANCH   8   9
HETATM    9  C   UNL     1     -10.091   7.098  68.424  1.00  0.00    -0.168 C  
HETATM   10  O   UNL     1      -9.150   7.457  67.725  1.00  0.00    -0.130 OA 
BRANCH   9  11
HETATM   11  O   UNL     1     -10.655   5.838  68.444  1.00  0.00    -0.218 OA 
BRANCH  11  12
HETATM   12  C   UNL     1     -10.125   4.862  67.583  1.00  0.00    -0.116 A  
HETATM   13  C   UNL     1      -9.441   3.751  68.077  1.00  0.00    -0.221 A  
HETATM   14  C   UNL     1      -9.014   2.758  67.197  1.00  0.00    -0.182 A  
HETATM   15  C   UNL     1      -9.292   2.870  65.833  1.00  0.00    -0.056 A  
HETATM   16  C   UNL     1      -9.995   3.973  65.348  1.00  0.00    -0.182 A  
HETATM   17  C   UNL     1     -10.421   4.974  66.224  1.00  0.00    -0.352 A  
ENDBRANCH  11  12
ENDBRANCH   9  11
ENDBRANCH   8   9
TORSDOF 3
ENDMDL
MODEL      224
REMARK 921   NORMALIZED FREE ENERGY PREDICTED BY IDOCK:   -3.22 KCAL/MOL
REMARK 922        TOTAL FREE ENERGY PREDICTED BY IDOCK:   -4.12 KCAL/MOL
REMARK 923 INTER-LIGAND FREE ENERGY PREDICTED BY IDOCK:   -4.02 KCAL/MOL
REMARK 924 INTRA-LIGAND FREE ENERGY PREDICTED BY IDOCK:   -0.10 KCAL/MOL
REMARK 927      BINDING AFFINITY PREDICTED BY RF-SCORE:    0.00 PKD
ROOT
HETATM    1  O   UNL     1      -8.954  12.508  66.514  1.00  0.00    -0.313 OA 
HETATM    2  C   UNL     1      -9.933  12.970  65.681  1.00  0.00    -0.230 A  
HETATM    3  H   UNL     1      -8.740  13.026  67.282  1.00  0.00     0.000 HD 
HETATM    4  C   UNL     1     -10.248  12.208  64.549  1.00  0.00    -0.321 A  
HETATM    5  C   UNL     1     -11.240  12.635  63.666  1.00  0.00    -0.525 A  
HETATM    6  C   UNL     1     -11.924  13.820  63.910  1.00  0.00    -0.414 A  
HETATM    7  C   UNL     1     -11.612  14.582  65.039  1.00  0.00    -0.382 A  
HETATM    8  C   UNL     1     -10.609  14.170  65.940  1.00  0.00    -0.301 A  
ENDROOT
BRANCH   8   9
HETATM    9  C   UNL     1     -10.385  15.057  67.122  1.00  0.00    -0.257 C  
HETATM   10  O   UNL     1      -9.261  15.281  67.555  1.00  0.00    -0.195 OA 
BRANCH   9  11
HETATM   11  O   UNL     1     -11.564  15.592  67.602  1.00  0.00    -0.237 OA 
BRANCH  11  12
HETATM   12  C   UNL     1     -11.835  15.469  68.976  1.00  0.00    -0.354 A  
HETATM   13  C   UNL     1     -13.055  14.970  69.433  1.00  0.00     0.830 A  
HETATM   14  C   UNL     1     -13.250  14.774  70.799  1.00  0.00    -0.355 A  
HETATM   15  C   UNL     1     -12.219  15.055  71.697  1.00  0.00    -0.411 A  
HETATM   16  C   UNL     1     -10.993  15.534  71.231  1.00  0.00    -0.229 A  
HETATM   17  C   UNL     1     -10.794  15.738  69.864  1.00  0.00    -0.330 A  
ENDBRANCH  11  12
ENDBRANCH   9  11
ENDBRANCH   8   9
TORSDOF 3
ENDMDL
MODEL      225
REMARK 921   NORMALIZED FREE ENERGY PREDICTED BY IDOCK:   -3.19 KCAL/MOL
REMARK 922        TOTAL FREE ENERGY PREDICTED BY IDOCK:   -4.09 KCAL/MOL
REMARK 923 INTER-LIGAND FREE ENERGY PREDICTED BY IDOCK:   -3.53 KCAL/MOL
REMARK 924 INTRA-LIGAND FREE ENERGY PREDICTED BY IDOCK:   -0.56 KCAL/MOL
REMARK 927      BINDING AFFINITY PREDICTED BY RF-SCORE:    0.00 PKD
ROOT
HETATM    1  O   UNL     1      -8.208   8.802  65.974  1.00  0.00    -0.110 OA 
HETATM    2  C   UNL     1      -9.048   7.786  66.328  1.00  0.00    -0.178 A  
HETATM    3  H   UNL     1      -8.423   9.682  66.263  1.00  0.00     0.000 HD 
HETATM    4  C   UNL     1      -8.731   6.490  65.902  1.00  0.00    -0.149 A  
HETATM    5  C   UNL     1      -9.557   5.417  66.236  1.00  0.00    -0.175 A  
HETATM    6  C   UNL     1     -10.699   5.630  66.999  1.00  0.00    -0.332 A  
HETATM    7  C   UNL     1     -11.017   6.922  67.426  1.00  0.00    -0.374 A  
HETATM    8  C   UNL     1     -10.199   8.020  67.094  1.00  0.00    -0.362 A  
ENDROOT
BRANCH   8   9
HETATM    9  C   UNL     1     -10.632   9.346  67.630  1.00  0.00    -0.271 C  
HETATM   10  O   UNL     1     -10.620  10.356  66.935  1.00  0.00    -0.248 OA 
BRANCH   9  11
HETATM   11  O   UNL     1     -11.064   9.263  68.938  1.00  0.00    -0.080 OA 
BRANCH  11  12
HETATM   12  C   UNL     1     -10.101   9.055  69.940  1.00  0.00    -0.201 A  
HETATM   13  C   UNL     1     -10.391   8.305  71.081  1.00  0.00    -0.247 A  
HETATM   14  C   UNL     1      -9.382   8.041  72.006  1.00  0.00    -0.237 A  
HETATM   15  C   UNL     1      -8.087   8.509  71.776  1.00  0.00    -0.191 A  
HETATM   16  C   UNL     1      -7.799   9.241  70.623  1.00  0.00    -0.181 A  
HETATM   17  C   UNL     1      -8.807   9.513  69.696  1.00  0.00    -0.196 A  
ENDBRANCH  11  12
ENDBRANCH   9  11
ENDBRANCH   8   9
TORSDOF 3
ENDMDL
MODEL      226
REMARK 921   NORMALIZED FREE ENERGY PREDICTED BY IDOCK:   -3.14 KCAL/MOL
REMARK 922        TOTAL FREE ENERGY PREDICTED BY IDOCK:   -4.03 KCAL/MOL
REMARK 923 INTER-LIGAND FREE ENERGY PREDICTED BY IDOCK:   -3.52 KCAL/MOL
REMARK 924 INTRA-LIGAND FREE ENERGY PREDICTED BY IDOCK:   -0.51 KCAL/MOL
REMARK 927      BINDING AFFINITY PREDICTED BY RF-SCORE:    0.00 PKD
ROOT
HETATM    1  O   UNL     1      -7.680  11.077  67.562  1.00  0.00    -0.109 OA 
HETATM    2  C   UNL     1      -8.842  11.624  67.096  1.00  0.00    -0.172 A  
HETATM    3  H   UNL     1      -7.570  10.136  67.492  1.00  0.00     0.000 HD 
HETATM    4  C   UNL     1      -9.005  13.011  67.199  1.00  0.00    -0.223 A  
HETATM    5  C   UNL     1     -10.173  13.619  66.738  1.00  0.00    -0.268 A  
HETATM    6  C   UNL     1     -11.181  12.848  66.170  1.00  0.00    -0.326 A  
HETATM    7  C   UNL     1     -11.020  11.464  66.066  1.00  0.00    -0.286 A  
HETATM    8  C   UNL     1      -9.850  10.830  66.530  1.00  0.00    -0.246 A  
ENDROOT
BRANCH   8   9
HETATM    9  C   UNL     1      -9.787   9.349  66.340  1.00  0.00    -0.269 C  
HETATM   10  O   UNL     1      -8.955   8.830  65.606  1.00  0.00    -0.190 OA 
BRANCH   9  11
HETATM   11  O   UNL     1     -10.726   8.686  67.103  1.00  0.00    -0.270 OA 
BRANCH  11  12
HETATM   12  C   UNL     1     -10.267   7.805  68.098  1.00  0.00    -0.202 A  
HETATM   13  C   UNL     1     -10.166   8.205  69.431  1.00  0.00    -0.211 A  
HETATM   14  C   UNL     1      -9.797   7.276  70.402  1.00  0.00    -0.183 A  
HETATM   15  C   UNL     1      -9.555   5.950  70.040  1.00  0.00    -0.200 A  
HETATM   16  C   UNL     1      -9.678   5.551  68.708  1.00  0.00    -0.190 A  
HETATM   17  C   UNL     1     -10.041   6.479  67.730  1.00  0.00    -0.176 A  
ENDBRANCH  11  12
ENDBRANCH   9  11
ENDBRANCH   8   9
TORSDOF 3
ENDMDL
MODEL      227
REMARK 921   NORMALIZED FREE ENERGY PREDICTED BY IDOCK:   -3.07 KCAL/MOL
REMARK 922        TOTAL FREE ENERGY PREDICTED BY IDOCK:   -3.96 KCAL/MOL
REMARK 923 INTER-LIGAND FREE ENERGY PREDICTED BY IDOCK:   -3.49 KCAL/MOL
REMARK 924 INTRA-LIGAND FREE ENERGY PREDICTED BY IDOCK:   -0.47 KCAL/MOL
REMARK 927      BINDING AFFINITY PREDICTED BY RF-SCORE:    0.00 PKD
ROOT
HETATM    1  O   UNL     1     -10.621   9.273  68.371  1.00  0.00    -0.239 OA 
HETATM    2  C   UNL     1     -10.879  10.415  67.667  1.00  0.00    -0.306 A  
HETATM    3  H   UNL     1     -10.126   8.585  67.941  1.00  0.00     0.000 HD 
HETATM    4  C   UNL     1     -11.609  11.428  68.300  1.00  0.00    -0.376 A  
HETATM    5  C   UNL     1     -11.900  12.614  67.625  1.00  0.00    -0.390 A  
HETATM    6  C   UNL     1     -11.461  12.795  66.319  1.00  0.00    -0.405 A  
HETATM    7  C   UNL     1     -10.733  11.786  65.685  1.00  0.00    -0.328 A  
HETATM    8  C   UNL     1     -10.433  10.579  66.348  1.00  0.00    -0.258 A  
ENDROOT
BRANCH   8   9
HETATM    9  C   UNL     1      -9.627   9.588  65.573  1.00  0.00    -0.279 C  
HETATM   10  O   UNL     1      -8.830   9.939  64.711  1.00  0.00    -0.171 OA 
BRANCH   9  11
HETATM   11  O   UNL     1      -9.868   8.290  65.977  1.00  0.00    -0.147 OA 
BRANCH  11  12
HETATM   12  C   UNL     1      -8.764   7.471  66.266  1.00  0.00    -0.149 A  
HETATM   13  C   UNL     1      -8.505   6.314  65.531  1.00  0.00    -0.145 A  
HETATM   14  C   UNL     1      -7.348   5.580  65.787  1.00  0.00    -0.073 A  
HETATM   15  C   UNL     1      -6.446   6.018  66.758  1.00  0.00    -0.050 A  
HETATM   16  C   UNL     1      -6.700   7.188  67.475  1.00  0.00    -0.064 A  
HETATM   17  C   UNL     1      -7.860   7.924  67.228  1.00  0.00    -0.113 A  
ENDBRANCH  11  12
ENDBRANCH   9  11
ENDBRANCH   8   9
TORSDOF 3
ENDMDL
MODEL      228
REMARK 921   NORMALIZED FREE ENERGY PREDICTED BY IDOCK:   -3.07 KCAL/MOL
REMARK 922        TOTAL FREE ENERGY PREDICTED BY IDOCK:   -3.95 KCAL/MOL
REMARK 923 INTER-LIGAND FREE ENERGY PREDICTED BY IDOCK:   -3.72 KCAL/MOL
REMARK 924 INTRA-LIGAND FREE ENERGY PREDICTED BY IDOCK:   -0.23 KCAL/MOL
REMARK 927      BINDING AFFINITY PREDICTED BY RF-SCORE:    0.00 PKD
ROOT
HETATM    1  O   UNL     1     -10.249  13.834  68.848  1.00  0.00    -0.356 OA 
HETATM    2  C   UNL     1      -9.058  13.302  68.441  1.00  0.00    -0.137 A  
HETATM    3  H   UNL     1     -10.993  13.250  68.935  1.00  0.00     0.000 HD 
HETATM    4  C   UNL     1      -7.962  14.163  68.312  1.00  0.00    -0.140 A  
HETATM    5  C   UNL     1      -6.724  13.670  67.900  1.00  0.00    -0.156 A  
HETATM    6  C   UNL     1      -6.573  12.317  67.619  1.00  0.00    -0.122 A  
HETATM    7  C   UNL     1      -7.665  11.456  67.748  1.00  0.00    -0.115 A  
HETATM    8  C   UNL     1      -8.925  11.936  68.158  1.00  0.00    -0.185 A  
ENDROOT
BRANCH   8   9
HETATM    9  C   UNL     1     -10.008  10.913  68.282  1.00  0.00    -0.175 C  
HETATM   10  O   UNL     1     -11.038  11.138  68.905  1.00  0.00    -0.199 OA 
BRANCH   9  11
HETATM   11  O   UNL     1      -9.711   9.754  67.592  1.00  0.00    -0.150 OA 
BRANCH  11  12
HETATM   12  C   UNL     1     -10.247   8.546  68.068  1.00  0.00    -0.213 A  
HETATM   13  C   UNL     1     -10.583   7.507  67.198  1.00  0.00    -0.415 A  
HETATM   14  C   UNL     1     -11.023   6.291  67.716  1.00  0.00    -0.427 A  
HETATM   15  C   UNL     1     -11.105   6.110  69.098  1.00  0.00    -0.448 A  
HETATM   16  C   UNL     1     -10.748   7.146  69.963  1.00  0.00    -0.268 A  
HETATM   17  C   UNL     1     -10.312   8.369  69.450  1.00  0.00    -0.217 A  
ENDBRANCH  11  12
ENDBRANCH   9  11
ENDBRANCH   8   9
TORSDOF 3
ENDMDL
MODEL      229
REMARK 921   NORMALIZED FREE ENERGY PREDICTED BY IDOCK:   -3.06 KCAL/MOL
REMARK 922        TOTAL FREE ENERGY PREDICTED BY IDOCK:   -3.94 KCAL/MOL
REMARK 923 INTER-LIGAND FREE ENERGY PREDICTED BY IDOCK:   -3.44 KCAL/MOL
REMARK 924 INTRA-LIGAND FREE ENERGY PREDICTED BY IDOCK:   -0.50 KCAL/MOL
REMARK 927      BINDING AFFINITY PREDICTED BY RF-SCORE:    0.00 PKD
ROOT
HETATM    1  O   UNL     1      -8.032   9.009  71.905  1.00  0.00    -0.348 OA 
HETATM    2  C   UNL     1      -9.352   8.657  71.916  1.00  0.00    -0.287 A  
HETATM    3  H   UNL     1      -7.709   9.507  71.163  1.00  0.00     0.000 HD 
HETATM    4  C   UNL     1      -9.829   7.923  73.009  1.00  0.00    -0.355 A  
HETATM    5  C   UNL     1     -11.169   7.539  73.069  1.00  0.00    -0.373 A  
HETATM    6  C   UNL     1     -12.039   7.889  72.042  1.00  0.00    -0.363 A  
HETATM    7  C   UNL     1     -11.565   8.621  70.951  1.00  0.00    -0.307 A  
HETATM    8  C   UNL     1     -10.214   9.014  70.870  1.00  0.00    -0.324 A  
ENDROOT
BRANCH   8   9
HETATM    9  C   UNL     1      -9.836   9.815  69.666  1.00  0.00    -0.221 C  
HETATM   10  O   UNL     1     -10.573   9.898  68.690  1.00  0.00    -0.201 OA 
BRANCH   9  11
HETATM   11  O   UNL     1      -8.619  10.448  69.823  1.00  0.00    -0.118 OA 
BRANCH  11  12
HETATM   12  C   UNL     1      -7.701  10.389  68.760  1.00  0.00    -0.104 A  
HETATM   13  C   UNL     1      -7.146   9.177  68.347  1.00  0.00    -0.073 A  
HETATM   14  C   UNL     1      -6.313   9.147  67.230  1.00  0.00    -0.059 A  
HETATM   15  C   UNL     1      -6.058  10.321  66.520  1.00  0.00    -0.071 A  
HETATM   16  C   UNL     1      -6.632  11.526  66.926  1.00  0.00    -0.138 A  
HETATM   17  C   UNL     1      -7.463  11.564  68.048  1.00  0.00    -0.098 A  
ENDBRANCH  11  12
ENDBRANCH   9  11
ENDBRANCH   8   9
TORSDOF 3
ENDMDL
MODEL      230
REMARK 921   NORMALIZED FREE ENERGY PREDICTED BY IDOCK:   -3.05 KCAL/MOL
REMARK 922        TOTAL FREE ENERGY PREDICTED BY IDOCK:   -3.93 KCAL/MOL
REMARK 923 INTER-LIGAND FREE ENERGY PREDICTED BY IDOCK:   -3.28 KCAL/MOL
REMARK 924 INTRA-LIGAND FREE ENERGY PREDICTED BY IDOCK:   -0.65 KCAL/MOL
REMARK 927      BINDING AFFINITY PREDICTED BY RF-SCORE:    0.00 PKD
ROOT
HETATM    1  O   UNL     1      -8.342  11.925  67.714  1.00  0.00    -0.134 OA 
HETATM    2  C   UNL     1      -7.683  11.046  68.527  1.00  0.00    -0.122 A  
HETATM    3  H   UNL     1      -9.154  11.638  67.311  1.00  0.00     0.000 HD 
HETATM    4  C   UNL     1      -6.487  11.468  69.120  1.00  0.00    -0.092 A  
HETATM    5  C   UNL     1      -5.776  10.609  69.958  1.00  0.00    -0.067 A  
HETATM    6  C   UNL     1      -6.255   9.329  70.210  1.00  0.00    -0.048 A  
HETATM    7  C   UNL     1      -7.448   8.906  69.620  1.00  0.00    -0.071 A  
HETATM    8  C   UNL     1      -8.179   9.757  68.766  1.00  0.00    -0.108 A  
ENDROOT
BRANCH   8   9
HETATM    9  C   UNL     1      -9.451   9.198  68.216  1.00  0.00    -0.142 C  
HETATM   10  O   UNL     1      -9.501   8.080  67.719  1.00  0.00    -0.142 OA 
BRANCH   9  11
HETATM   11  O   UNL     1     -10.514  10.064  68.379  1.00  0.00    -0.185 OA 
BRANCH  11  12
HETATM   12  C   UNL     1     -11.180  10.068  69.617  1.00  0.00    -0.239 A  
HETATM   13  C   UNL     1     -11.814  11.215  70.097  1.00  0.00    -0.449 A  
HETATM   14  C   UNL     1     -12.544  11.152  71.283  1.00  0.00    -0.503 A  
HETATM   15  C   UNL     1     -12.655   9.942  71.969  1.00  0.00    -0.410 A  
HETATM   16  C   UNL     1     -12.036   8.794  71.473  1.00  0.00    -0.386 A  
HETATM   17  C   UNL     1     -11.298   8.852  70.288  1.00  0.00    -0.179 A  
ENDBRANCH  11  12
ENDBRANCH   9  11
ENDBRANCH   8   9
TORSDOF 3
ENDMDL
MODEL      231
REMARK 921   NORMALIZED FREE ENERGY PREDICTED BY IDOCK:   -3.05 KCAL/MOL
REMARK 922        TOTAL FREE ENERGY PREDICTED BY IDOCK:   -3.93 KCAL/MOL
REMARK 923 INTER-LIGAND FREE ENERGY PREDICTED BY IDOCK:   -3.10 KCAL/MOL
REMARK 924 INTRA-LIGAND FREE ENERGY PREDICTED BY IDOCK:   -0.83 KCAL/MOL
REMARK 927      BINDING AFFINITY PREDICTED BY RF-SCORE:    0.00 PKD
ROOT
HETATM    1  O   UNL     1      -8.618  10.442  65.398  1.00  0.00    -0.162 OA 
HETATM    2  C   UNL     1      -8.309  10.506  66.727  1.00  0.00    -0.128 A  
HETATM    3  H   UNL     1      -9.500  10.182  65.156  1.00  0.00     0.000 HD 
HETATM    4  C   UNL     1      -7.010  10.888  67.083  1.00  0.00    -0.098 A  
HETATM    5  C   UNL     1      -6.643  10.969  68.426  1.00  0.00    -0.058 A  
HETATM    6  C   UNL     1      -7.570  10.673  69.419  1.00  0.00    -0.135 A  
HETATM    7  C   UNL     1      -8.866  10.292  69.066  1.00  0.00    -0.170 A  
HETATM    8  C   UNL     1      -9.255  10.199  67.715  1.00  0.00    -0.146 A  
ENDROOT
BRANCH   8   9
HETATM    9  C   UNL     1     -10.675   9.805  67.466  1.00  0.00    -0.264 C  
HETATM   10  O   UNL     1     -11.611  10.508  67.830  1.00  0.00    -0.461 OA 
BRANCH   9  11
HETATM   11  O   UNL     1     -10.772   8.619  66.768  1.00  0.00    -0.221 OA 
BRANCH  11  12
HETATM   12  C   UNL     1     -10.334   7.442  67.399  1.00  0.00    -0.270 A  
HETATM   13  C   UNL     1     -10.923   6.990  68.581  1.00  0.00    -0.144 A  
HETATM   14  C   UNL     1     -10.524   5.770  69.125  1.00  0.00    -0.346 A  
HETATM   15  C   UNL     1      -9.559   4.999  68.474  1.00  0.00    -0.200 A  
HETATM   16  C   UNL     1      -8.990   5.447  67.281  1.00  0.00    -0.111 A  
HETATM   17  C   UNL     1      -9.380   6.671  66.735  1.00  0.00    -0.184 A  
ENDBRANCH  11  12
ENDBRANCH   9  11
ENDBRANCH   8   9
TORSDOF 3
ENDMDL
MODEL      232
REMARK 921   NORMALIZED FREE ENERGY PREDICTED BY IDOCK:   -3.05 KCAL/MOL
REMARK 922        TOTAL FREE ENERGY PREDICTED BY IDOCK:   -3.93 KCAL/MOL
REMARK 923 INTER-LIGAND FREE ENERGY PREDICTED BY IDOCK:   -3.47 KCAL/MOL
REMARK 924 INTRA-LIGAND FREE ENERGY PREDICTED BY IDOCK:   -0.45 KCAL/MOL
REMARK 927      BINDING AFFINITY PREDICTED BY RF-SCORE:    0.00 PKD
ROOT
HETATM    1  O   UNL     1      -8.060  13.935  68.551  1.00  0.00    -0.140 OA 
HETATM    2  C   UNL     1      -9.159  13.654  67.790  1.00  0.00    -0.199 A  
HETATM    3  H   UNL     1      -7.350  13.302  68.562  1.00  0.00     0.000 HD 
HETATM    4  C   UNL     1     -10.205  14.585  67.775  1.00  0.00    -0.226 A  
HETATM    5  C   UNL     1     -11.350  14.346  67.014  1.00  0.00    -0.357 A  
HETATM    6  C   UNL     1     -11.455  13.180  66.264  1.00  0.00    -0.372 A  
HETATM    7  C   UNL     1     -10.413  12.250  66.278  1.00  0.00    -0.266 A  
HETATM    8  C   UNL     1      -9.250  12.471  67.044  1.00  0.00    -0.214 A  
ENDROOT
BRANCH   8   9
HETATM    9  C   UNL     1      -8.197  11.414  66.956  1.00  0.00    -0.160 C  
HETATM   10  O   UNL     1      -7.083  11.574  67.442  1.00  0.00    -0.101 OA 
BRANCH   9  11
HETATM   11  O   UNL     1      -8.651  10.277  66.320  1.00  0.00    -0.133 OA 
BRANCH  11  12
HETATM   12  C   UNL     1      -9.131   9.222  67.114  1.00  0.00    -0.130 A  
HETATM   13  C   UNL     1      -8.693   9.043  68.426  1.00  0.00    -0.130 A  
HETATM   14  C   UNL     1      -9.262   8.042  69.212  1.00  0.00    -0.152 A  
HETATM   15  C   UNL     1     -10.280   7.242  68.690  1.00  0.00    -0.191 A  
HETATM   16  C   UNL     1     -10.729   7.440  67.384  1.00  0.00    -0.348 A  
HETATM   17  C   UNL     1     -10.159   8.437  66.590  1.00  0.00    -0.358 A  
ENDBRANCH  11  12
ENDBRANCH   9  11
ENDBRANCH   8   9
TORSDOF 3
ENDMDL
MODEL      233
REMARK 921   NORMALIZED FREE ENERGY PREDICTED BY IDOCK:   -3.03 KCAL/MOL
REMARK 922        TOTAL FREE ENERGY PREDICTED BY IDOCK:   -3.91 KCAL/MOL
REMARK 923 INTER-LIGAND FREE ENERGY PREDICTED BY IDOCK:   -3.38 KCAL/MOL
REMARK 924 INTRA-LIGAND FREE ENERGY PREDICTED BY IDOCK:   -0.52 KCAL/MOL
REMARK 927      BINDING AFFINITY PREDICTED BY RF-SCORE:    0.00 PKD
ROOT
HETATM    1  O   UNL     1      -7.132  11.429  70.103  1.00  0.00    -0.429 OA 
HETATM    2  C   UNL     1      -6.858  10.805  68.919  1.00  0.00    -0.069 A  
HETATM    3  H   UNL     1      -8.043  11.555  70.342  1.00  0.00     0.000 HD 
HETATM    4  C   UNL     1      -5.516  10.620  68.567  1.00  0.00    -0.040 A  
HETATM    5  C   UNL     1      -5.182   9.989  67.369  1.00  0.00    -0.038 A  
HETATM    6  C   UNL     1      -6.185   9.536  66.519  1.00  0.00    -0.065 A  
HETATM    7  C   UNL     1      -7.525   9.719  66.869  1.00  0.00    -0.091 A  
HETATM    8  C   UNL     1      -7.882  10.359  68.072  1.00  0.00    -0.104 A  
ENDROOT
BRANCH   8   9
HETATM    9  C   UNL     1      -9.348  10.473  68.345  1.00  0.00    -0.158 C  
HETATM   10  O   UNL     1      -9.812  10.275  69.462  1.00  0.00    -0.224 OA 
BRANCH   9  11
HETATM   11  O   UNL     1     -10.058  10.853  67.225  1.00  0.00    -0.181 OA 
BRANCH  11  12
HETATM   12  C   UNL     1     -10.501  12.184  67.143  1.00  0.00    -0.219 A  
HETATM   13  C   UNL     1     -11.685  12.516  66.483  1.00  0.00    -0.454 A  
HETATM   14  C   UNL     1     -12.139  13.834  66.505  1.00  0.00    -0.483 A  
HETATM   15  C   UNL     1     -11.420  14.806  67.203  1.00  0.00    -0.375 A  
HETATM   16  C   UNL     1     -10.248  14.464  67.878  1.00  0.00    -0.232 A  
HETATM   17  C   UNL     1      -9.785  13.146  67.855  1.00  0.00    -0.221 A  
ENDBRANCH  11  12
ENDBRANCH   9  11
ENDBRANCH   8   9
TORSDOF 3
ENDMDL
MODEL      234
REMARK 921   NORMALIZED FREE ENERGY PREDICTED BY IDOCK:   -3.03 KCAL/MOL
REMARK 922        TOTAL FREE ENERGY PREDICTED BY IDOCK:   -3.90 KCAL/MOL
REMARK 923 INTER-LIGAND FREE ENERGY PREDICTED BY IDOCK:   -3.27 KCAL/MOL
REMARK 924 INTRA-LIGAND FREE ENERGY PREDICTED BY IDOCK:   -0.63 KCAL/MOL
REMARK 927      BINDING AFFINITY PREDICTED BY RF-SCORE:    0.00 PKD
ROOT
HETATM    1  O   UNL     1     -12.428   9.208  72.052  1.00  0.00    -0.353 OA 
HETATM    2  C   UNL     1     -11.361   9.094  71.207  1.00  0.00    -0.336 A  
HETATM    3  H   UNL     1     -12.630   8.473  72.619  1.00  0.00     0.000 HD 
HETATM    4  C   UNL     1     -11.064  10.177  70.370  1.00  0.00    -0.393 A  
HETATM    5  C   UNL     1      -9.985  10.111  69.489  1.00  0.00    -0.257 A  
HETATM    6  C   UNL     1      -9.196   8.967  69.440  1.00  0.00    -0.150 A  
HETATM    7  C   UNL     1      -9.490   7.886  70.275  1.00  0.00    -0.163 A  
HETATM    8  C   UNL     1     -10.579   7.931  71.168  1.00  0.00    -0.238 A  
ENDROOT
BRANCH   8   9
HETATM    9  C   UNL     1     -10.775   6.722  72.024  1.00  0.00    -0.218 C  
HETATM   10  O   UNL     1     -11.274   6.798  73.141  1.00  0.00    -0.218 OA 
BRANCH   9  11
HETATM   11  O   UNL     1     -10.372   5.564  71.391  1.00  0.00    -0.212 OA 
BRANCH  11  12
HETATM   12  C   UNL     1      -9.664   4.611  72.143  1.00  0.00    -0.165 A  
HETATM   13  C   UNL     1     -10.063   3.274  72.180  1.00  0.00    -0.199 A  
HETATM   14  C   UNL     1      -9.281   2.341  72.860  1.00  0.00    -0.105 A  
HETATM   15  C   UNL     1      -8.097   2.745  73.479  1.00  0.00    -0.067 A  
HETATM   16  C   UNL     1      -7.693   4.079  73.421  1.00  0.00    -0.084 A  
HETATM   17  C   UNL     1      -8.475   5.019  72.746  1.00  0.00    -0.116 A  
ENDBRANCH  11  12
ENDBRANCH   9  11
ENDBRANCH   8   9
TORSDOF 3
ENDMDL
MODEL      235
REMARK 921   NORMALIZED FREE ENERGY PREDICTED BY IDOCK:   -3.03 KCAL/MOL
REMARK 922        TOTAL FREE ENERGY PREDICTED BY IDOCK:   -3.90 KCAL/MOL
REMARK 923 INTER-LIGAND FREE ENERGY PREDICTED BY IDOCK:   -3.44 KCAL/MOL
REMARK 924 INTRA-LIGAND FREE ENERGY PREDICTED BY IDOCK:   -0.46 KCAL/MOL
REMARK 927      BINDING AFFINITY PREDICTED BY RF-SCORE:    0.00 PKD
ROOT
HETATM    1  O   UNL     1      -9.002   7.986  72.702  1.00  0.00    -0.173 OA 
HETATM    2  C   UNL     1     -10.154   7.623  72.064  1.00  0.00    -0.188 A  
HETATM    3  H   UNL     1      -8.175   7.742  72.303  1.00  0.00     0.000 HD 
HETATM    4  C   UNL     1     -11.374   7.983  72.652  1.00  0.00    -0.469 A  
HETATM    5  C   UNL     1     -12.579   7.636  72.042  1.00  0.00    -0.282 A  
HETATM    6  C   UNL     1     -12.574   6.934  70.842  1.00  0.00    -0.257 A  
HETATM    7  C   UNL     1     -11.359   6.575  70.254  1.00  0.00    -0.456 A  
HETATM    8  C   UNL     1     -10.131   6.911  70.857  1.00  0.00    -0.207 A  
ENDROOT
BRANCH   8   9
HETATM    9  C   UNL     1      -8.901   6.493  70.118  1.00  0.00    -0.144 C  
HETATM   10  O   UNL     1      -8.427   7.177  69.219  1.00  0.00    -0.131 OA 
BRANCH   9  11
HETATM   11  O   UNL     1      -8.381   5.308  70.600  1.00  0.00    -0.109 OA 
BRANCH  11  12
HETATM   12  C   UNL     1      -8.815   4.108  70.011  1.00  0.00    -0.078 A  
HETATM   13  C   UNL     1      -9.010   4.005  68.633  1.00  0.00    -0.164 A  
HETATM   14  C   UNL     1      -9.349   2.773  68.076  1.00  0.00    -0.257 A  
HETATM   15  C   UNL     1      -9.469   1.648  68.895  1.00  0.00    -0.192 A  
HETATM   16  C   UNL     1      -9.252   1.754  70.270  1.00  0.00    -0.166 A  
HETATM   17  C   UNL     1      -8.918   2.987  70.834  1.00  0.00    -0.164 A  
ENDBRANCH  11  12
ENDBRANCH   9  11
ENDBRANCH   8   9
TORSDOF 3
ENDMDL
MODEL      236
REMARK 921   NORMALIZED FREE ENERGY PREDICTED BY IDOCK:   -2.96 KCAL/MOL
REMARK 922        TOTAL FREE ENERGY PREDICTED BY IDOCK:   -3.83 KCAL/MOL
REMARK 923 INTER-LIGAND FREE ENERGY PREDICTED BY IDOCK:   -3.17 KCAL/MOL
REMARK 924 INTRA-LIGAND FREE ENERGY PREDICTED BY IDOCK:   -0.66 KCAL/MOL
REMARK 927      BINDING AFFINITY PREDICTED BY RF-SCORE:    0.00 PKD
ROOT
HETATM    1  O   UNL     1      -7.815   7.686  70.809  1.00  0.00    -0.093 OA 
HETATM    2  C   UNL     1      -9.055   8.253  70.722  1.00  0.00    -0.150 A  
HETATM    3  H   UNL     1      -7.342   7.521  70.002  1.00  0.00     0.000 HD 
HETATM    4  C   UNL     1      -9.753   8.496  71.912  1.00  0.00    -0.358 A  
HETATM    5  C   UNL     1     -11.023   9.073  71.878  1.00  0.00    -0.423 A  
HETATM    6  C   UNL     1     -11.600   9.412  70.660  1.00  0.00    -0.330 A  
HETATM    7  C   UNL     1     -10.906   9.171  69.472  1.00  0.00    -0.194 A  
HETATM    8  C   UNL     1      -9.624   8.584  69.485  1.00  0.00    -0.170 A  
ENDROOT
BRANCH   8   9
HETATM    9  C   UNL     1      -8.974   8.400  68.151  1.00  0.00    -0.139 C  
HETATM   10  O   UNL     1      -9.002   9.276  67.295  1.00  0.00    -0.123 OA 
BRANCH   9  11
HETATM   11  O   UNL     1      -8.336   7.180  68.047  1.00  0.00    -0.118 OA 
BRANCH  11  12
HETATM   12  C   UNL     1      -8.779   6.285  67.059  1.00  0.00    -0.108 A  
HETATM   13  C   UNL     1      -7.882   5.651  66.199  1.00  0.00    -0.100 A  
HETATM   14  C   UNL     1      -8.351   4.698  65.295  1.00  0.00    -0.124 A  
HETATM   15  C   UNL     1      -9.707   4.369  65.272  1.00  0.00    -0.199 A  
HETATM   16  C   UNL     1     -10.596   4.992  66.149  1.00  0.00    -0.321 A  
HETATM   17  C   UNL     1     -10.134   5.951  67.052  1.00  0.00    -0.221 A  
ENDBRANCH  11  12
ENDBRANCH   9  11
ENDBRANCH   8   9
TORSDOF 3
ENDMDL
MODEL      237
REMARK 921   NORMALIZED FREE ENERGY PREDICTED BY IDOCK:   -2.96 KCAL/MOL
REMARK 922        TOTAL FREE ENERGY PREDICTED BY IDOCK:   -3.82 KCAL/MOL
REMARK 923 INTER-LIGAND FREE ENERGY PREDICTED BY IDOCK:   -3.29 KCAL/MOL
REMARK 924 INTRA-LIGAND FREE ENERGY PREDICTED BY IDOCK:   -0.53 KCAL/MOL
REMARK 927      BINDING AFFINITY PREDICTED BY RF-SCORE:    0.00 PKD
ROOT
HETATM    1  O   UNL     1     -11.983   9.796  70.753  1.00  0.00    -0.284 OA 
HETATM    2  C   UNL     1     -11.580  10.771  69.886  1.00  0.00    -0.331 A  
HETATM    3  H   UNL     1     -11.592   8.934  70.670  1.00  0.00     0.000 HD 
HETATM    4  C   UNL     1     -12.157  12.041  70.008  1.00  0.00    -0.355 A  
HETATM    5  C   UNL     1     -11.780  13.071  69.147  1.00  0.00    -0.378 A  
HETATM    6  C   UNL     1     -10.825  12.841  68.163  1.00  0.00    -0.249 A  
HETATM    7  C   UNL     1     -10.248  11.575  68.040  1.00  0.00    -0.205 A  
HETATM    8  C   UNL     1     -10.619  10.520  68.896  1.00  0.00    -0.243 A  
ENDROOT
BRANCH   8   9
HETATM    9  C   UNL     1      -9.913   9.220  68.680  1.00  0.00    -0.178 C  
HETATM   10  O   UNL     1     -10.128   8.528  67.692  1.00  0.00    -0.184 OA 
BRANCH   9  11
HETATM   11  O   UNL     1      -9.001   8.950  69.681  1.00  0.00    -0.140 OA 
BRANCH  11  12
HETATM   12  C   UNL     1      -8.724   7.604  69.976  1.00  0.00    -0.142 A  
HETATM   13  C   UNL     1      -7.543   6.995  69.548  1.00  0.00    -0.098 A  
HETATM   14  C   UNL     1      -7.261   5.688  69.941  1.00  0.00    -0.069 A  
HETATM   15  C   UNL     1      -8.147   5.006  70.777  1.00  0.00    -0.095 A  
HETATM   16  C   UNL     1      -9.316   5.628  71.219  1.00  0.00    -0.171 A  
HETATM   17  C   UNL     1      -9.607   6.935  70.824  1.00  0.00    -0.167 A  
ENDBRANCH  11  12
ENDBRANCH   9  11
ENDBRANCH   8   9
TORSDOF 3
ENDMDL
MODEL      238
REMARK 921   NORMALIZED FREE ENERGY PREDICTED BY IDOCK:   -2.95 KCAL/MOL
REMARK 922        TOTAL FREE ENERGY PREDICTED BY IDOCK:   -3.82 KCAL/MOL
REMARK 923 INTER-LIGAND FREE ENERGY PREDICTED BY IDOCK:   -3.14 KCAL/MOL
REMARK 924 INTRA-LIGAND FREE ENERGY PREDICTED BY IDOCK:   -0.68 KCAL/MOL
REMARK 927      BINDING AFFINITY PREDICTED BY RF-SCORE:    0.00 PKD
ROOT
HETATM    1  O   UNL     1      -8.496   8.579  72.725  1.00  0.00    -0.336 OA 
HETATM    2  C   UNL     1      -9.565   7.916  72.193  1.00  0.00    -0.197 A  
HETATM    3  H   UNL     1      -7.690   8.604  72.223  1.00  0.00     0.000 HD 
HETATM    4  C   UNL     1     -10.753   7.879  72.933  1.00  0.00    -0.440 A  
HETATM    5  C   UNL     1     -11.874   7.215  72.434  1.00  0.00    -0.224 A  
HETATM    6  C   UNL     1     -11.816   6.589  71.195  1.00  0.00    -0.383 A  
HETATM    7  C   UNL     1     -10.632   6.625  70.454  1.00  0.00    -0.266 A  
HETATM    8  C   UNL     1      -9.488   7.286  70.943  1.00  0.00    -0.159 A  
ENDROOT
BRANCH   8   9
HETATM    9  C   UNL     1      -8.291   7.276  70.047  1.00  0.00    -0.137 C  
HETATM   10  O   UNL     1      -7.813   6.230  69.624  1.00  0.00    -0.102 OA 
BRANCH   9  11
HETATM   11  O   UNL     1      -7.853   8.550  69.748  1.00  0.00    -0.090 OA 
BRANCH  11  12
HETATM   12  C   UNL     1      -7.986   9.001  68.424  1.00  0.00    -0.104 A  
HETATM   13  C   UNL     1      -6.868   9.279  67.636  1.00  0.00    -0.076 A  
HETATM   14  C   UNL     1      -7.040   9.633  66.299  1.00  0.00    -0.093 A  
HETATM   15  C   UNL     1      -8.323   9.686  65.751  1.00  0.00    -0.132 A  
HETATM   16  C   UNL     1      -9.435   9.387  66.539  1.00  0.00    -0.246 A  
HETATM   17  C   UNL     1      -9.270   9.037  67.881  1.00  0.00    -0.151 A  
ENDBRANCH  11  12
ENDBRANCH   9  11
ENDBRANCH   8   9
TORSDOF 3
ENDMDL
MODEL      239
REMARK 921   NORMALIZED FREE ENERGY PREDICTED BY IDOCK:   -2.93 KCAL/MOL
REMARK 922        TOTAL FREE ENERGY PREDICTED BY IDOCK:   -3.79 KCAL/MOL
REMARK 923 INTER-LIGAND FREE ENERGY PREDICTED BY IDOCK:   -3.04 KCAL/MOL
REMARK 924 INTRA-LIGAND FREE ENERGY PREDICTED BY IDOCK:   -0.76 KCAL/MOL
REMARK 927      BINDING AFFINITY PREDICTED BY RF-SCORE:    0.00 PKD
ROOT
HETATM    1  O   UNL     1      -9.361   7.569  69.462  1.00  0.00    -0.153 OA 
HETATM    2  C   UNL     1      -9.539   6.504  68.625  1.00  0.00    -0.125 A  
HETATM    3  H   UNL     1      -8.813   7.449  70.229  1.00  0.00     0.000 HD 
HETATM    4  C   UNL     1     -10.348   6.681  67.496  1.00  0.00    -0.262 A  
HETATM    5  C   UNL     1     -10.561   5.625  66.610  1.00  0.00    -0.361 A  
HETATM    6  C   UNL     1      -9.966   4.391  66.844  1.00  0.00    -0.210 A  
HETATM    7  C   UNL     1      -9.158   4.212  67.969  1.00  0.00    -0.172 A  
HETATM    8  C   UNL     1      -8.935   5.265  68.879  1.00  0.00    -0.120 A  
ENDROOT
BRANCH   8   9
HETATM    9  C   UNL     1      -8.033   4.956  70.030  1.00  0.00    -0.073 C  
HETATM   10  O   UNL     1      -7.017   4.285  69.889  1.00  0.00    -0.040 OA 
BRANCH   9  11
HETATM   11  O   UNL     1      -8.466   5.541  71.203  1.00  0.00    -0.122 OA 
BRANCH  11  12
HETATM   12  C   UNL     1      -9.370   4.824  72.004  1.00  0.00    -0.138 A  
HETATM   13  C   UNL     1      -9.070   3.544  72.472  1.00  0.00    -0.129 A  
HETATM   14  C   UNL     1      -9.951   2.904  73.341  1.00  0.00    -0.174 A  
HETATM   15  C   UNL     1     -11.115   3.553  73.756  1.00  0.00    -0.286 A  
HETATM   16  C   UNL     1     -11.400   4.842  73.301  1.00  0.00    -0.408 A  
HETATM   17  C   UNL     1     -10.523   5.486  72.425  1.00  0.00    -0.261 A  
ENDBRANCH  11  12
ENDBRANCH   9  11
ENDBRANCH   8   9
TORSDOF 3
ENDMDL
MODEL      240
REMARK 921   NORMALIZED FREE ENERGY PREDICTED BY IDOCK:   -2.90 KCAL/MOL
REMARK 922        TOTAL FREE ENERGY PREDICTED BY IDOCK:   -3.75 KCAL/MOL
REMARK 923 INTER-LIGAND FREE ENERGY PREDICTED BY IDOCK:   -3.37 KCAL/MOL
REMARK 924 INTRA-LIGAND FREE ENERGY PREDICTED BY IDOCK:   -0.38 KCAL/MOL
REMARK 927      BINDING AFFINITY PREDICTED BY RF-SCORE:    0.00 PKD
ROOT
HETATM    1  O   UNL     1      -7.676   9.732  66.087  1.00  0.00    -0.101 OA 
HETATM    2  C   UNL     1      -8.782   9.833  66.882  1.00  0.00    -0.135 A  
HETATM    3  H   UNL     1      -7.217  10.531  65.855  1.00  0.00     0.000 HD 
HETATM    4  C   UNL     1      -9.458   8.655  67.223  1.00  0.00    -0.198 A  
HETATM    5  C   UNL     1     -10.593   8.704  68.032  1.00  0.00    -0.205 A  
HETATM    6  C   UNL     1     -11.057   9.925  68.507  1.00  0.00    -0.181 A  
HETATM    7  C   UNL     1     -10.384  11.101  68.168  1.00  0.00    -0.207 A  
HETATM    8  C   UNL     1      -9.238  11.074  67.347  1.00  0.00    -0.157 A  
ENDROOT
BRANCH   8   9
HETATM    9  C   UNL     1      -8.594  12.395  67.077  1.00  0.00    -0.191 C  
HETATM   10  O   UNL     1      -7.408  12.593  67.313  1.00  0.00    -0.148 OA 
BRANCH   9  11
HETATM   11  O   UNL     1      -9.473  13.298  66.513  1.00  0.00    -0.257 OA 
BRANCH  11  12
HETATM   12  C   UNL     1      -9.784  14.460  67.239  1.00  0.00    -0.233 A  
HETATM   13  C   UNL     1     -11.048  14.650  67.800  1.00  0.00    -0.306 A  
HETATM   14  C   UNL     1     -11.287  15.771  68.592  1.00  0.00    -0.369 A  
HETATM   15  C   UNL     1     -10.259  16.682  68.839  1.00  0.00    -0.284 A  
HETATM   16  C   UNL     1      -8.992  16.476  68.293  1.00  0.00    -0.214 A  
HETATM   17  C   UNL     1      -8.747  15.358  67.493  1.00  0.00    -0.186 A  
ENDBRANCH  11  12
ENDBRANCH   9  11
ENDBRANCH   8   9
TORSDOF 3
ENDMDL
MODEL      241
REMARK 921   NORMALIZED FREE ENERGY PREDICTED BY IDOCK:   -2.88 KCAL/MOL
REMARK 922        TOTAL FREE ENERGY PREDICTED BY IDOCK:   -3.73 KCAL/MOL
REMARK 923 INTER-LIGAND FREE ENERGY PREDICTED BY IDOCK:   -3.36 KCAL/MOL
REMARK 924 INTRA-LIGAND FREE ENERGY PREDICTED BY IDOCK:   -0.37 KCAL/MOL
REMARK 927      BINDING AFFINITY PREDICTED BY RF-SCORE:    0.00 PKD
ROOT
HETATM    1  O   UNL     1      -8.165  13.582  66.487  1.00  0.00    -0.354 OA 
HETATM    2  C   UNL     1      -7.406  13.347  67.598  1.00  0.00    -0.168 A  
HETATM    3  H   UNL     1      -8.792  12.918  66.224  1.00  0.00     0.000 HD 
HETATM    4  C   UNL     1      -6.483  14.327  67.985  1.00  0.00    -0.158 A  
HETATM    5  C   UNL     1      -5.683  14.135  69.111  1.00  0.00    -0.085 A  
HETATM    6  C   UNL     1      -5.803  12.969  69.859  1.00  0.00    -0.132 A  
HETATM    7  C   UNL     1      -6.724  11.991  69.475  1.00  0.00    -0.035 A  
HETATM    8  C   UNL     1      -7.537  12.163  68.337  1.00  0.00    -0.128 A  
ENDROOT
BRANCH   8   9
HETATM    9  C   UNL     1      -8.499  11.057  68.045  1.00  0.00    -0.129 C  
HETATM   10  O   UNL     1      -8.175  10.082  67.377  1.00  0.00    -0.117 OA 
BRANCH   9  11
HETATM   11  O   UNL     1      -9.727  11.264  68.641  1.00  0.00    -0.196 OA 
BRANCH  11  12
HETATM   12  C   UNL     1     -10.576  12.235  68.084  1.00  0.00    -0.214 A  
HETATM   13  C   UNL     1     -11.157  12.058  66.828  1.00  0.00    -0.353 A  
HETATM   14  C   UNL     1     -12.068  13.000  66.352  1.00  0.00    -0.428 A  
HETATM   15  C   UNL     1     -12.410  14.099  67.141  1.00  0.00    -0.213 A  
HETATM   16  C   UNL     1     -11.842  14.260  68.405  1.00  0.00    -0.373 A  
HETATM   17  C   UNL     1     -10.924  13.323  68.885  1.00  0.00    -0.278 A  
ENDBRANCH  11  12
ENDBRANCH   9  11
ENDBRANCH   8   9
TORSDOF 3
ENDMDL
MODEL      242
REMARK 921   NORMALIZED FREE ENERGY PREDICTED BY IDOCK:   -2.88 KCAL/MOL
REMARK 922        TOTAL FREE ENERGY PREDICTED BY IDOCK:   -3.72 KCAL/MOL
REMARK 923 INTER-LIGAND FREE ENERGY PREDICTED BY IDOCK:   -3.13 KCAL/MOL
REMARK 924 INTRA-LIGAND FREE ENERGY PREDICTED BY IDOCK:   -0.60 KCAL/MOL
REMARK 927      BINDING AFFINITY PREDICTED BY RF-SCORE:    0.00 PKD
ROOT
HETATM    1  O   UNL     1      -9.846  10.846  66.755  1.00  0.00    -0.186 OA 
HETATM    2  C   UNL     1      -8.919   9.845  66.701  1.00  0.00    -0.139 A  
HETATM    3  H   UNL     1     -10.527  10.790  67.416  1.00  0.00     0.000 HD 
HETATM    4  C   UNL     1      -7.916   9.928  65.727  1.00  0.00    -0.120 A  
HETATM    5  C   UNL     1      -6.946   8.931  65.628  1.00  0.00    -0.080 A  
HETATM    6  C   UNL     1      -6.968   7.850  66.502  1.00  0.00    -0.071 A  
HETATM    7  C   UNL     1      -7.967   7.765  67.475  1.00  0.00    -0.123 A  
HETATM    8  C   UNL     1      -8.960   8.759  67.587  1.00  0.00    -0.141 A  
ENDROOT
BRANCH   8   9
HETATM    9  C   UNL     1      -9.959   8.568  68.682  1.00  0.00    -0.184 C  
HETATM   10  O   UNL     1     -10.275   9.485  69.432  1.00  0.00    -0.186 OA 
BRANCH   9  11
HETATM   11  O   UNL     1     -10.475   7.288  68.699  1.00  0.00    -0.193 OA 
BRANCH  11  12
HETATM   12  C   UNL     1     -10.703   6.683  69.947  1.00  0.00    -0.250 A  
HETATM   13  C   UNL     1      -9.678   6.039  70.640  1.00  0.00    -0.209 A  
HETATM   14  C   UNL     1      -9.921   5.535  71.916  1.00  0.00    -0.227 A  
HETATM   15  C   UNL     1     -11.178   5.696  72.501  1.00  0.00    -0.346 A  
HETATM   16  C   UNL     1     -12.194   6.359  71.810  1.00  0.00    -0.312 A  
HETATM   17  C   UNL     1     -11.958   6.861  70.529  1.00  0.00    -0.358 A  
ENDBRANCH  11  12
ENDBRANCH   9  11
ENDBRANCH   8   9
TORSDOF 3
ENDMDL
MODEL      243
REMARK 921   NORMALIZED FREE ENERGY PREDICTED BY IDOCK:   -2.82 KCAL/MOL
REMARK 922        TOTAL FREE ENERGY PREDICTED BY IDOCK:   -3.66 KCAL/MOL
REMARK 923 INTER-LIGAND FREE ENERGY PREDICTED BY IDOCK:   -2.85 KCAL/MOL
REMARK 924 INTRA-LIGAND FREE ENERGY PREDICTED BY IDOCK:   -0.81 KCAL/MOL
REMARK 927      BINDING AFFINITY PREDICTED BY RF-SCORE:    0.00 PKD
ROOT
HETATM    1  O   UNL     1     -10.879   4.855  71.237  1.00  0.00    -0.028 OA 
HETATM    2  C   UNL     1     -11.104   6.156  71.586  1.00  0.00    -0.276 A  
HETATM    3  H   UNL     1      -9.995   4.516  71.320  1.00  0.00     0.000 HD 
HETATM    4  C   UNL     1     -12.407   6.656  71.463  1.00  0.00    -0.365 A  
HETATM    5  C   UNL     1     -12.689   7.978  71.806  1.00  0.00    -0.352 A  
HETATM    6  C   UNL     1     -11.677   8.806  72.276  1.00  0.00    -0.398 A  
HETATM    7  C   UNL     1     -10.377   8.310  72.400  1.00  0.00    -0.402 A  
HETATM    8  C   UNL     1     -10.070   6.979  72.053  1.00  0.00    -0.201 A  
ENDROOT
BRANCH   8   9
HETATM    9  C   UNL     1      -8.649   6.560  72.253  1.00  0.00    -0.123 C  
HETATM   10  O   UNL     1      -8.033   6.842  73.274  1.00  0.00    -0.102 OA 
BRANCH   9  11
HETATM   11  O   UNL     1      -8.172   5.814  71.195  1.00  0.00    -0.118 OA 
BRANCH  11  12
HETATM   12  C   UNL     1      -7.745   6.497  70.043  1.00  0.00    -0.102 A  
HETATM   13  C   UNL     1      -6.544   7.207  70.023  1.00  0.00    -0.050 A  
HETATM   14  C   UNL     1      -6.110   7.792  68.834  1.00  0.00    -0.035 A  
HETATM   15  C   UNL     1      -6.866   7.645  67.670  1.00  0.00    -0.069 A  
HETATM   16  C   UNL     1      -8.056   6.916  67.692  1.00  0.00    -0.113 A  
HETATM   17  C   UNL     1      -8.499   6.333  68.881  1.00  0.00    -0.120 A  
ENDBRANCH  11  12
ENDBRANCH   9  11
ENDBRANCH   8   9
TORSDOF 3
ENDMDL
MODEL      244
REMARK 921   NORMALIZED FREE ENERGY PREDICTED BY IDOCK:   -2.81 KCAL/MOL
REMARK 922        TOTAL FREE ENERGY PREDICTED BY IDOCK:   -3.64 KCAL/MOL
REMARK 923 INTER-LIGAND FREE ENERGY PREDICTED BY IDOCK:   -2.92 KCAL/MOL
REMARK 924 INTRA-LIGAND FREE ENERGY PREDICTED BY IDOCK:   -0.72 KCAL/MOL
REMARK 927      BINDING AFFINITY PREDICTED BY RF-SCORE:    0.00 PKD
ROOT
HETATM    1  O   UNL     1      -8.381   8.042  66.736  1.00  0.00    -0.112 OA 
HETATM    2  C   UNL     1      -8.337   8.239  65.385  1.00  0.00    -0.162 A  
HETATM    3  H   UNL     1      -8.829   8.690  67.268  1.00  0.00     0.000 HD 
HETATM    4  C   UNL     1      -7.676   7.286  64.601  1.00  0.00    -0.116 A  
HETATM    5  C   UNL     1      -7.603   7.440  63.217  1.00  0.00    -0.114 A  
HETATM    6  C   UNL     1      -8.192   8.542  62.609  1.00  0.00    -0.185 A  
HETATM    7  C   UNL     1      -8.853   9.494  63.388  1.00  0.00    -0.236 A  
HETATM    8  C   UNL     1      -8.933   9.359  64.789  1.00  0.00    -0.241 A  
ENDROOT
BRANCH   8   9
HETATM    9  C   UNL     1      -9.688  10.430  65.509  1.00  0.00    -0.249 C  
HETATM   10  O   UNL     1     -10.642  11.002  64.995  1.00  0.00    -0.292 OA 
BRANCH   9  11
HETATM   11  O   UNL     1      -9.205  10.639  66.785  1.00  0.00    -0.154 OA 
BRANCH  11  12
HETATM   12  C   UNL     1      -8.352  11.736  66.998  1.00  0.00    -0.172 A  
HETATM   13  C   UNL     1      -8.859  13.020  67.202  1.00  0.00    -0.218 A  
HETATM   14  C   UNL     1      -7.986  14.064  67.503  1.00  0.00    -0.199 A  
HETATM   15  C   UNL     1      -6.617  13.815  67.621  1.00  0.00    -0.181 A  
HETATM   16  C   UNL     1      -6.120  12.525  67.437  1.00  0.00    -0.155 A  
HETATM   17  C   UNL     1      -6.988  11.476  67.129  1.00  0.00    -0.138 A  
ENDBRANCH  11  12
ENDBRANCH   9  11
ENDBRANCH   8   9
TORSDOF 3
ENDMDL
MODEL      245
REMARK 921   NORMALIZED FREE ENERGY PREDICTED BY IDOCK:   -2.76 KCAL/MOL
REMARK 922        TOTAL FREE ENERGY PREDICTED BY IDOCK:   -3.59 KCAL/MOL
REMARK 923 INTER-LIGAND FREE ENERGY PREDICTED BY IDOCK:   -3.24 KCAL/MOL
REMARK 924 INTRA-LIGAND FREE ENERGY PREDICTED BY IDOCK:   -0.35 KCAL/MOL
REMARK 927      BINDING AFFINITY PREDICTED BY RF-SCORE:    0.00 PKD
ROOT
HETATM    1  O   UNL     1     -11.770   7.636  73.361  1.00  0.00    -0.615 OA 
HETATM    2  C   UNL     1     -11.399   6.916  72.261  1.00  0.00    -0.269 A  
HETATM    3  H   UNL     1     -11.376   7.410  74.196  1.00  0.00     0.000 HD 
HETATM    4  C   UNL     1     -11.980   7.248  71.031  1.00  0.00    -0.362 A  
HETATM    5  C   UNL     1     -11.636   6.545  69.877  1.00  0.00    -0.433 A  
HETATM    6  C   UNL     1     -10.709   5.511  69.943  1.00  0.00    -0.358 A  
HETATM    7  C   UNL     1     -10.128   5.179  71.169  1.00  0.00    -0.291 A  
HETATM    8  C   UNL     1     -10.466   5.874  72.347  1.00  0.00    -0.246 A  
ENDROOT
BRANCH   8   9
HETATM    9  C   UNL     1      -9.759   5.441  73.590  1.00  0.00    -0.146 C  
HETATM   10  O   UNL     1      -9.289   6.253  74.379  1.00  0.00    -0.155 OA 
BRANCH   9  11
HETATM   11  O   UNL     1      -9.749   4.068  73.733  1.00  0.00    -0.108 OA 
BRANCH  11  12
HETATM   12  C   UNL     1      -8.561   3.380  73.431  1.00  0.00    -0.078 A  
HETATM   13  C   UNL     1      -7.353   3.714  74.043  1.00  0.00    -0.054 A  
HETATM   14  C   UNL     1      -6.217   2.948  73.788  1.00  0.00    -0.019 A  
HETATM   15  C   UNL     1      -6.300   1.840  72.942  1.00  0.00    -0.009 A  
HETATM   16  C   UNL     1      -7.516   1.499  72.349  1.00  0.00    -0.035 A  
HETATM   17  C   UNL     1      -8.656   2.267  72.597  1.00  0.00    -0.065 A  
ENDBRANCH  11  12
ENDBRANCH   9  11
ENDBRANCH   8   9
TORSDOF 3
ENDMDL
MODEL      246
REMARK 921   NORMALIZED FREE ENERGY PREDICTED BY IDOCK:   -2.75 KCAL/MOL
REMARK 922        TOTAL FREE ENERGY PREDICTED BY IDOCK:   -3.57 KCAL/MOL
REMARK 923 INTER-LIGAND FREE ENERGY PREDICTED BY IDOCK:   -3.02 KCAL/MOL
REMARK 924 INTRA-LIGAND FREE ENERGY PREDICTED BY IDOCK:   -0.55 KCAL/MOL
REMARK 927      BINDING AFFINITY PREDICTED BY RF-SCORE:    0.00 PKD
ROOT
HETATM    1  O   UNL     1      -8.132  12.577  67.462  1.00  0.00    -0.154 OA 
HETATM    2  C   UNL     1      -9.365  13.150  67.322  1.00  0.00    -0.225 A  
HETATM    3  H   UNL     1      -7.918  11.837  66.906  1.00  0.00     0.000 HD 
HETATM    4  C   UNL     1      -9.681  14.240  68.141  1.00  0.00    -0.226 A  
HETATM    5  C   UNL     1     -10.927  14.860  68.038  1.00  0.00    -0.282 A  
HETATM    6  C   UNL     1     -11.859  14.399  67.116  1.00  0.00    -0.437 A  
HETATM    7  C   UNL     1     -11.545  13.312  66.297  1.00  0.00    -0.384 A  
HETATM    8  C   UNL     1     -10.294  12.668  66.389  1.00  0.00    -0.264 A  
ENDROOT
BRANCH   8   9
HETATM    9  C   UNL     1     -10.069  11.534  65.443  1.00  0.00    -0.260 C  
HETATM   10  O   UNL     1     -10.991  10.824  65.058  1.00  0.00    -0.087 OA 
BRANCH   9  11
HETATM   11  O   UNL     1      -8.748  11.435  65.054  1.00  0.00     0.037 OA 
BRANCH  11  12
HETATM   12  C   UNL     1      -8.322  10.234  64.461  1.00  0.00    -0.168 A  
HETATM   13  C   UNL     1      -8.308  10.073  63.075  1.00  0.00    -0.166 A  
HETATM   14  C   UNL     1      -7.790   8.902  62.524  1.00  0.00    -0.129 A  
HETATM   15  C   UNL     1      -7.269   7.911  63.357  1.00  0.00    -0.091 A  
HETATM   16  C   UNL     1      -7.267   8.087  64.741  1.00  0.00    -0.078 A  
HETATM   17  C   UNL     1      -7.791   9.255  65.300  1.00  0.00    -0.105 A  
ENDBRANCH  11  12
ENDBRANCH   9  11
ENDBRANCH   8   9
TORSDOF 3
ENDMDL
MODEL      247
REMARK 921   NORMALIZED FREE ENERGY PREDICTED BY IDOCK:   -2.67 KCAL/MOL
REMARK 922        TOTAL FREE ENERGY PREDICTED BY IDOCK:   -3.48 KCAL/MOL
REMARK 923 INTER-LIGAND FREE ENERGY PREDICTED BY IDOCK:   -3.87 KCAL/MOL
REMARK 924 INTRA-LIGAND FREE ENERGY PREDICTED BY IDOCK:    0.39 KCAL/MOL
REMARK 927      BINDING AFFINITY PREDICTED BY RF-SCORE:    0.00 PKD
ROOT
HETATM    1  O   UNL     1      -9.900  13.243  67.097  1.00  0.00    -0.228 OA 
HETATM    2  C   UNL     1     -10.501  13.009  65.893  1.00  0.00    -0.281 A  
HETATM    3  H   UNL     1      -9.446  12.522  67.518  1.00  0.00     0.000 HD 
HETATM    4  C   UNL     1     -11.171  14.072  65.273  1.00  0.00    -0.319 A  
HETATM    5  C   UNL     1     -11.801  13.885  64.043  1.00  0.00    -0.372 A  
HETATM    6  C   UNL     1     -11.763  12.641  63.424  1.00  0.00    -0.571 A  
HETATM    7  C   UNL     1     -11.095  11.580  64.040  1.00  0.00    -0.441 A  
HETATM    8  C   UNL     1     -10.457  11.747  65.285  1.00  0.00    -0.320 A  
ENDROOT
BRANCH   8   9
HETATM    9  C   UNL     1      -9.756  10.544  65.829  1.00  0.00    -0.223 C  
HETATM   10  O   UNL     1      -9.034   9.848  65.126  1.00  0.00    -0.169 OA 
BRANCH   9  11
HETATM   11  O   UNL     1      -9.996  10.366  67.177  1.00  0.00    -0.181 OA 
BRANCH  11  12
HETATM   12  C   UNL     1      -9.315   9.330  67.838  1.00  0.00    -0.129 A  
HETATM   13  C   UNL     1      -8.591   8.370  67.131  1.00  0.00    -0.123 A  
HETATM   14  C   UNL     1      -7.853   7.414  67.827  1.00  0.00    -0.113 A  
HETATM   15  C   UNL     1      -7.825   7.436  69.222  1.00  0.00    -0.116 A  
HETATM   16  C   UNL     1      -8.535   8.412  69.924  1.00  0.00    -0.126 A  
HETATM   17  C   UNL     1      -9.281   9.368  69.232  1.00  0.00    -0.159 A  
ENDBRANCH  11  12
ENDBRANCH   9  11
ENDBRANCH   8   9
TORSDOF 3
ENDMDL
MODEL      248
REMARK 921   NORMALIZED FREE ENERGY PREDICTED BY IDOCK:   -2.60 KCAL/MOL
REMARK 922        TOTAL FREE ENERGY PREDICTED BY IDOCK:   -3.40 KCAL/MOL
REMARK 923 INTER-LIGAND FREE ENERGY PREDICTED BY IDOCK:   -2.68 KCAL/MOL
REMARK 924 INTRA-LIGAND FREE ENERGY PREDICTED BY IDOCK:   -0.71 KCAL/MOL
REMARK 927      BINDING AFFINITY PREDICTED BY RF-SCORE:    0.00 PKD
ROOT
HETATM    1  O   UNL     1      -9.423  11.287  69.123  1.00  0.00    -0.394 OA 
HETATM    2  C   UNL     1      -9.935  10.308  69.926  1.00  0.00    -0.135 A  
HETATM    3  H   UNL     1      -8.480  11.405  69.108  1.00  0.00     0.000 HD 
HETATM    4  C   UNL     1     -11.324  10.135  69.949  1.00  0.00    -0.335 A  
HETATM    5  C   UNL     1     -11.898   9.150  70.753  1.00  0.00    -0.280 A  
HETATM    6  C   UNL     1     -11.089   8.331  71.533  1.00  0.00    -0.315 A  
HETATM    7  C   UNL     1      -9.703   8.502  71.511  1.00  0.00    -0.303 A  
HETATM    8  C   UNL     1      -9.104   9.496  70.710  1.00  0.00    -0.176 A  
ENDROOT
BRANCH   8   9
HETATM    9  C   UNL     1      -7.612   9.563  70.754  1.00  0.00    -0.071 C  
HETATM   10  O   UNL     1      -6.987   9.322  71.781  1.00  0.00    -0.309 OA 
BRANCH   9  11
HETATM   11  O   UNL     1      -7.068   9.877  69.525  1.00  0.00    -0.064 OA 
BRANCH  11  12
HETATM   12  C   UNL     1      -6.748   8.822  68.654  1.00  0.00    -0.059 A  
HETATM   13  C   UNL     1      -6.088   7.680  69.109  1.00  0.00    -0.034 A  
HETATM   14  C   UNL     1      -5.873   6.615  68.235  1.00  0.00    -0.020 A  
HETATM   15  C   UNL     1      -6.338   6.689  66.921  1.00  0.00    -0.042 A  
HETATM   16  C   UNL     1      -7.016   7.825  66.478  1.00  0.00    -0.067 A  
HETATM   17  C   UNL     1      -7.229   8.897  67.347  1.00  0.00    -0.080 A  
ENDBRANCH  11  12
ENDBRANCH   9  11
ENDBRANCH   8   9
TORSDOF 3
ENDMDL
MODEL      249
REMARK 921   NORMALIZED FREE ENERGY PREDICTED BY IDOCK:   -2.53 KCAL/MOL
REMARK 922        TOTAL FREE ENERGY PREDICTED BY IDOCK:   -3.31 KCAL/MOL
REMARK 923 INTER-LIGAND FREE ENERGY PREDICTED BY IDOCK:   -2.65 KCAL/MOL
REMARK 924 INTRA-LIGAND FREE ENERGY PREDICTED BY IDOCK:   -0.66 KCAL/MOL
REMARK 927      BINDING AFFINITY PREDICTED BY RF-SCORE:    0.00 PKD
ROOT
HETATM    1  O   UNL     1      -7.762   7.691  70.769  1.00  0.00    -0.082 OA 
HETATM    2  C   UNL     1      -8.953   8.333  70.579  1.00  0.00    -0.147 A  
HETATM    3  H   UNL     1      -7.277   7.413  70.001  1.00  0.00     0.000 HD 
HETATM    4  C   UNL     1      -9.668   8.743  71.711  1.00  0.00    -0.380 A  
HETATM    5  C   UNL     1     -10.889   9.402  71.572  1.00  0.00    -0.398 A  
HETATM    6  C   UNL     1     -11.400   9.659  70.305  1.00  0.00    -0.311 A  
HETATM    7  C   UNL     1     -10.688   9.252  69.175  1.00  0.00    -0.202 A  
HETATM    8  C   UNL     1      -9.455   8.580  69.294  1.00  0.00    -0.158 A  
ENDROOT
BRANCH   8   9
HETATM    9  C   UNL     1      -8.779   8.217  68.012  1.00  0.00    -0.135 C  
HETATM   10  O   UNL     1      -8.327   7.095  67.817  1.00  0.00    -0.117 OA 
BRANCH   9  11
HETATM   11  O   UNL     1      -8.775   9.264  67.111  1.00  0.00    -0.126 OA 
BRANCH  11  12
HETATM   12  C   UNL     1      -7.534   9.726  66.640  1.00  0.00    -0.095 A  
HETATM   13  C   UNL     1      -7.231   9.731  65.278  1.00  0.00    -0.120 A  
HETATM   14  C   UNL     1      -6.028  10.284  64.843  1.00  0.00    -0.133 A  
HETATM   15  C   UNL     1      -5.147  10.849  65.766  1.00  0.00    -0.129 A  
HETATM   16  C   UNL     1      -5.466  10.860  67.125  1.00  0.00    -0.048 A  
HETATM   17  C   UNL     1      -6.666  10.302  67.568  1.00  0.00    -0.071 A  
ENDBRANCH  11  12
ENDBRANCH   9  11
ENDBRANCH   8   9
TORSDOF 3
ENDMDL
MODEL      250
REMARK 921   NORMALIZED FREE ENERGY PREDICTED BY IDOCK:   -2.50 KCAL/MOL
REMARK 922        TOTAL FREE ENERGY PREDICTED BY IDOCK:   -3.28 KCAL/MOL
REMARK 923 INTER-LIGAND FREE ENERGY PREDICTED BY IDOCK:   -2.68 KCAL/MOL
REMARK 924 INTRA-LIGAND FREE ENERGY PREDICTED BY IDOCK:   -0.60 KCAL/MOL
REMARK 927      BINDING AFFINITY PREDICTED BY RF-SCORE:    0.00 PKD
ROOT
HETATM    1  O   UNL     1      -7.243   8.290  70.294  1.00  0.00    -0.049 OA 
HETATM    2  C   UNL     1      -8.506   7.781  70.190  1.00  0.00    -0.134 A  
HETATM    3  H   UNL     1      -6.907   8.803  69.569  1.00  0.00     0.000 HD 
HETATM    4  C   UNL     1      -9.002   7.024  71.259  1.00  0.00    -0.137 A  
HETATM    5  C   UNL     1     -10.286   6.482  71.202  1.00  0.00    -0.219 A  
HETATM    6  C   UNL     1     -11.082   6.695  70.083  1.00  0.00    -0.384 A  
HETATM    7  C   UNL     1     -10.590   7.451  69.016  1.00  0.00    -0.203 A  
HETATM    8  C   UNL     1      -9.294   8.002  69.052  1.00  0.00    -0.147 A  
ENDROOT
BRANCH   8   9
HETATM    9  C   UNL     1      -8.892   8.811  67.861  1.00  0.00    -0.136 C  
HETATM   10  O   UNL     1      -9.387   8.619  66.756  1.00  0.00    -0.156 OA 
BRANCH   9  11
HETATM   11  O   UNL     1      -7.963   9.781  68.179  1.00  0.00    -0.099 OA 
BRANCH  11  12
HETATM   12  C   UNL     1      -8.319  11.126  67.986  1.00  0.00    -0.134 A  
HETATM   13  C   UNL     1      -9.553  11.619  68.412  1.00  0.00    -0.195 A  
HETATM   14  C   UNL     1      -9.831  12.979  68.288  1.00  0.00    -0.225 A  
HETATM   15  C   UNL     1      -8.868  13.841  67.761  1.00  0.00    -0.188 A  
HETATM   16  C   UNL     1      -7.628  13.346  67.356  1.00  0.00    -0.138 A  
HETATM   17  C   UNL     1      -7.346  11.983  67.472  1.00  0.00    -0.137 A  
ENDBRANCH  11  12
ENDBRANCH   9  11
ENDBRANCH   8   9
TORSDOF 3
ENDMDL
MODEL      251
REMARK 921   NORMALIZED FREE ENERGY PREDICTED BY IDOCK:   -2.46 KCAL/MOL
REMARK 922        TOTAL FREE ENERGY PREDICTED BY IDOCK:   -3.24 KCAL/MOL
REMARK 923 INTER-LIGAND FREE ENERGY PREDICTED BY IDOCK:   -2.53 KCAL/MOL
REMARK 924 INTRA-LIGAND FREE ENERGY PREDICTED BY IDOCK:   -0.71 KCAL/MOL
REMARK 927      BINDING AFFINITY PREDICTED BY RF-SCORE:    0.00 PKD
ROOT
HETATM    1  O   UNL     1      -9.662  11.420  69.063  1.00  0.00    -0.378 OA 
HETATM    2  C   UNL     1      -9.871  10.270  69.770  1.00  0.00    -0.161 A  
HETATM    3  H   UNL     1      -8.874  11.483  68.535  1.00  0.00     0.000 HD 
HETATM    4  C   UNL     1     -11.032  10.177  70.548  1.00  0.00    -0.380 A  
HETATM    5  C   UNL     1     -11.293   9.025  71.289  1.00  0.00    -0.389 A  
HETATM    6  C   UNL     1     -10.400   7.960  71.255  1.00  0.00    -0.222 A  
HETATM    7  C   UNL     1      -9.242   8.050  70.480  1.00  0.00    -0.154 A  
HETATM    8  C   UNL     1      -8.958   9.208  69.728  1.00  0.00    -0.168 A  
ENDROOT
BRANCH   8   9
HETATM    9  C   UNL     1      -7.701   9.174  68.920  1.00  0.00    -0.083 C  
HETATM   10  O   UNL     1      -7.119  10.200  68.590  1.00  0.00    -0.071 OA 
BRANCH   9  11
HETATM   11  O   UNL     1      -7.290   7.883  68.651  1.00  0.00    -0.086 OA 
BRANCH  11  12
HETATM   12  C   UNL     1      -7.295   7.454  67.313  1.00  0.00    -0.098 A  
HETATM   13  C   UNL     1      -8.489   7.187  66.641  1.00  0.00    -0.121 A  
HETATM   14  C   UNL     1      -8.457   6.854  65.287  1.00  0.00    -0.062 A  
HETATM   15  C   UNL     1      -7.237   6.812  64.610  1.00  0.00    -0.075 A  
HETATM   16  C   UNL     1      -6.049   7.100  65.283  1.00  0.00    -0.037 A  
HETATM   17  C   UNL     1      -6.074   7.428  66.640  1.00  0.00    -0.043 A  
ENDBRANCH  11  12
ENDBRANCH   9  11
ENDBRANCH   8   9
TORSDOF 3
ENDMDL
MODEL      252
REMARK 921   NORMALIZED FREE ENERGY PREDICTED BY IDOCK:   -2.39 KCAL/MOL
REMARK 922        TOTAL FREE ENERGY PREDICTED BY IDOCK:   -3.15 KCAL/MOL
REMARK 923 INTER-LIGAND FREE ENERGY PREDICTED BY IDOCK:   -2.57 KCAL/MOL
REMARK 924 INTRA-LIGAND FREE ENERGY PREDICTED BY IDOCK:   -0.58 KCAL/MOL
REMARK 927      BINDING AFFINITY PREDICTED BY RF-SCORE:    0.00 PKD
ROOT
HETATM    1  O   UNL     1      -7.710  13.229  68.282  1.00  0.00    -0.124 OA 
HETATM    2  C   UNL     1      -8.849  13.076  67.544  1.00  0.00    -0.195 A  
HETATM    3  H   UNL     1      -7.054  12.543  68.239  1.00  0.00     0.000 HD 
HETATM    4  C   UNL     1      -9.816  14.087  67.608  1.00  0.00    -0.233 A  
HETATM    5  C   UNL     1     -10.997  13.980  66.874  1.00  0.00    -0.301 A  
HETATM    6  C   UNL     1     -11.217  12.867  66.071  1.00  0.00    -0.325 A  
HETATM    7  C   UNL     1     -10.254  11.857  66.005  1.00  0.00    -0.262 A  
HETATM    8  C   UNL     1      -9.057  11.945  66.743  1.00  0.00    -0.197 A  
ENDROOT
BRANCH   8   9
HETATM    9  C   UNL     1      -8.095  10.814  66.570  1.00  0.00    -0.146 C  
HETATM   10  O   UNL     1      -8.000  10.207  65.510  1.00  0.00    -0.133 OA 
BRANCH   9  11
HETATM   11  O   UNL     1      -7.341  10.593  67.705  1.00  0.00    -0.088 OA 
BRANCH  11  12
HETATM   12  C   UNL     1      -7.586   9.423  68.444  1.00  0.00    -0.082 A  
HETATM   13  C   UNL     1      -8.842   8.815  68.447  1.00  0.00    -0.138 A  
HETATM   14  C   UNL     1      -9.019   7.605  69.116  1.00  0.00    -0.135 A  
HETATM   15  C   UNL     1      -7.938   6.999  69.757  1.00  0.00    -0.124 A  
HETATM   16  C   UNL     1      -6.679   7.601  69.732  1.00  0.00    -0.039 A  
HETATM   17  C   UNL     1      -6.496   8.816  69.069  1.00  0.00    -0.048 A  
ENDBRANCH  11  12
ENDBRANCH   9  11
ENDBRANCH   8   9
TORSDOF 3
ENDMDL
MODEL      253
REMARK 921   NORMALIZED FREE ENERGY PREDICTED BY IDOCK:   -2.30 KCAL/MOL
REMARK 922        TOTAL FREE ENERGY PREDICTED BY IDOCK:   -3.05 KCAL/MOL
REMARK 923 INTER-LIGAND FREE ENERGY PREDICTED BY IDOCK:   -2.55 KCAL/MOL
REMARK 924 INTRA-LIGAND FREE ENERGY PREDICTED BY IDOCK:   -0.50 KCAL/MOL
REMARK 927      BINDING AFFINITY PREDICTED BY RF-SCORE:    0.00 PKD
ROOT
HETATM    1  O   UNL     1      -7.655  13.212  68.298  1.00  0.00    -0.120 OA 
HETATM    2  C   UNL     1      -8.754  12.931  67.537  1.00  0.00    -0.190 A  
HETATM    3  H   UNL     1      -6.946  12.579  68.309  1.00  0.00     0.000 HD 
HETATM    4  C   UNL     1      -9.800  13.862  67.521  1.00  0.00    -0.236 A  
HETATM    5  C   UNL     1     -10.945  13.623  66.761  1.00  0.00    -0.297 A  
HETATM    6  C   UNL     1     -11.050  12.457  66.011  1.00  0.00    -0.344 A  
HETATM    7  C   UNL     1     -10.008  11.527  66.025  1.00  0.00    -0.258 A  
HETATM    8  C   UNL     1      -8.846  11.748  66.791  1.00  0.00    -0.191 A  
ENDROOT
BRANCH   8   9
HETATM    9  C   UNL     1      -7.792  10.691  66.703  1.00  0.00    -0.135 C  
HETATM   10  O   UNL     1      -6.678  10.851  67.188  1.00  0.00    -0.077 OA 
BRANCH   9  11
HETATM   11  O   UNL     1      -8.247   9.554  66.066  1.00  0.00    -0.113 OA 
BRANCH  11  12
HETATM   12  C   UNL     1      -7.692   9.229  64.817  1.00  0.00    -0.111 A  
HETATM   13  C   UNL     1      -7.152  10.211  63.984  1.00  0.00    -0.103 A  
HETATM   14  C   UNL     1      -6.527   9.838  62.796  1.00  0.00    -0.108 A  
HETATM   15  C   UNL     1      -6.424   8.488  62.458  1.00  0.00    -0.091 A  
HETATM   16  C   UNL     1      -6.947   7.509  63.304  1.00  0.00    -0.064 A  
HETATM   17  C   UNL     1      -7.580   7.877  64.493  1.00  0.00    -0.111 A  
ENDBRANCH  11  12
ENDBRANCH   9  11
ENDBRANCH   8   9
TORSDOF 3
ENDMDL
MODEL      254
REMARK 921   NORMALIZED FREE ENERGY PREDICTED BY IDOCK:   -2.04 KCAL/MOL
REMARK 922        TOTAL FREE ENERGY PREDICTED BY IDOCK:   -2.74 KCAL/MOL
REMARK 923 INTER-LIGAND FREE ENERGY PREDICTED BY IDOCK:   -2.99 KCAL/MOL
REMARK 924 INTRA-LIGAND FREE ENERGY PREDICTED BY IDOCK:    0.25 KCAL/MOL
REMARK 927      BINDING AFFINITY PREDICTED BY RF-SCORE:    0.00 PKD
ROOT
HETATM    1  O   UNL     1      -9.764  11.372  69.034  1.00  0.00    -0.378 OA 
HETATM    2  C   UNL     1     -10.351  10.279  69.605  1.00  0.00    -0.248 A  
HETATM    3  H   UNL     1      -8.930  11.252  68.594  1.00  0.00     0.000 HD 
HETATM    4  C   UNL     1     -11.580  10.455  70.254  1.00  0.00    -0.410 A  
HETATM    5  C   UNL     1     -12.222   9.372  70.853  1.00  0.00    -0.297 A  
HETATM    6  C   UNL     1     -11.645   8.108  70.804  1.00  0.00    -0.249 A  
HETATM    7  C   UNL     1     -10.420   7.930  70.156  1.00  0.00    -0.231 A  
HETATM    8  C   UNL     1      -9.753   9.013  69.550  1.00  0.00    -0.171 A  
ENDROOT
BRANCH   8   9
HETATM    9  C   UNL     1      -8.462   8.690  68.868  1.00  0.00    -0.129 C  
HETATM   10  O   UNL     1      -7.521   9.474  68.868  1.00  0.00    -0.072 OA 
BRANCH   9  11
HETATM   11  O   UNL     1      -8.472   7.430  68.305  1.00  0.00    -0.124 OA 
BRANCH  11  12
HETATM   12  C   UNL     1      -8.286   6.325  69.153  1.00  0.00    -0.120 A  
HETATM   13  C   UNL     1      -7.333   6.343  70.172  1.00  0.00    -0.086 A  
HETATM   14  C   UNL     1      -7.244   5.266  71.051  1.00  0.00    -0.069 A  
HETATM   15  C   UNL     1      -8.121   4.188  70.922  1.00  0.00    -0.070 A  
HETATM   16  C   UNL     1      -9.086   4.184  69.914  1.00  0.00    -0.179 A  
HETATM   17  C   UNL     1      -9.176   5.258  69.026  1.00  0.00    -0.152 A  
ENDBRANCH  11  12
ENDBRANCH   9  11
ENDBRANCH   8   9
TORSDOF 3
ENDMDL
MODEL      255
REMARK 921   NORMALIZED FREE ENERGY PREDICTED BY IDOCK:    0.64 KCAL/MOL
REMARK 922        TOTAL FREE ENERGY PREDICTED BY IDOCK:    0.41 KCAL/MOL
REMARK 923 INTER-LIGAND FREE ENERGY PREDICTED BY IDOCK:    0.36 KCAL/MOL
REMARK 924 INTRA-LIGAND FREE ENERGY PREDICTED BY IDOCK:    0.05 KCAL/MOL
REMARK 927      BINDING AFFINITY PREDICTED BY RF-SCORE:    0.00 PKD
ROOT
HETATM    1  O   UNL     1     -11.987  13.141  66.960  1.00  0.00    -0.379 OA 
HETATM    2  C   UNL     1     -10.633  13.135  66.776  1.00  0.00    -0.263 A  
HETATM    3  H   UNL     1     -12.351  13.763  67.579  1.00  0.00     0.000 HD 
HETATM    4  C   UNL     1     -10.096  12.218  65.864  1.00  0.00    -0.272 A  
HETATM    5  C   UNL     1      -8.720  12.172  65.640  1.00  0.00     0.466 A  
HETATM    6  C   UNL     1      -7.875  13.041  66.321  1.00  0.00     1.321 A  
HETATM    7  C   UNL     1      -8.409  13.957  67.231  1.00  0.00    -0.199 A  
HETATM    8  C   UNL     1      -9.796  14.016  67.475  1.00  0.00    -0.236 A  
ENDROOT
BRANCH   8   9
HETATM    9  C   UNL     1     -10.246  15.054  68.451  1.00  0.00    -0.228 C  
HETATM   10  O   UNL     1     -10.707  16.128  68.082  1.00  0.00    -0.289 OA 
BRANCH   9  11
HETATM   11  O   UNL     1     -10.112  14.632  69.759  1.00  0.00    -0.008 OA 
BRANCH  11  12
HETATM   12  C   UNL     1     -11.256  14.637  70.575  1.00  0.00    -0.099 A  
HETATM   13  C   UNL     1     -12.310  15.522  70.344  1.00  0.00    -0.451 A  
HETATM   14  C   UNL     1     -13.466  15.432  71.116  1.00  0.00    -0.565 A  
HETATM   15  C   UNL     1     -13.573  14.446  72.098  1.00  0.00    -0.529 A  
HETATM   16  C   UNL     1     -12.524  13.550  72.311  1.00  0.00     0.072 A  
HETATM   17  C   UNL     1     -11.360  13.639  71.544  1.00  0.00     2.018 A  
ENDBRANCH  11  12
ENDBRANCH   9  11
ENDBRANCH   8   9
TORSDOF 3
ENDMDL
MODEL      256
REMARK 921   NORMALIZED FREE ENERGY PREDICTED BY IDOCK:    2.99 KCAL/MOL
REMARK 922        TOTAL FREE ENERGY PREDICTED BY IDOCK:    3.17 KCAL/MOL
REMARK 923 INTER-LIGAND FREE ENERGY PREDICTED BY IDOCK:    3.02 KCAL/MOL
REMARK 924 INTRA-LIGAND FREE ENERGY PREDICTED BY IDOCK:    0.15 KCAL/MOL
REMARK 927      BINDING AFFINITY PREDICTED BY RF-SCORE:    0.00 PKD
ROOT
HETATM    1  O   UNL     1      -9.214  13.999  68.818  1.00  0.00    -0.334 OA 
HETATM    2  C   UNL     1     -10.471  13.498  68.631  1.00  0.00    -0.232 A  
HETATM    3  H   UNL     1      -8.501  13.383  68.938  1.00  0.00     0.000 HD 
HETATM    4  C   UNL     1     -11.523  14.406  68.455  1.00  0.00    -0.329 A  
HETATM    5  C   UNL     1     -12.825  13.946  68.260  1.00  0.00     1.398 A  
HETATM    6  C   UNL     1     -13.083  12.580  68.235  1.00  0.00     3.483 A  
HETATM    7  C   UNL     1     -12.036  11.673  68.409  1.00  0.00    -0.266 A  
HETATM    8  C   UNL     1     -10.714  12.118  68.613  1.00  0.00    -0.261 A  
ENDROOT
BRANCH   8   9
HETATM    9  C   UNL     1      -9.679  11.050  68.762  1.00  0.00    -0.191 C  
HETATM   10  O   UNL     1      -9.835   9.931  68.288  1.00  0.00    -0.143 OA 
BRANCH   9  11
HETATM   11  O   UNL     1      -8.562  11.499  69.439  1.00  0.00     0.279 OA 
BRANCH  11  12
HETATM   12  C   UNL     1      -7.400  11.763  68.696  1.00  0.00    -0.115 A  
HETATM   13  C   UNL     1      -7.371  11.599  67.310  1.00  0.00    -0.136 A  
HETATM   14  C   UNL     1      -6.229  11.962  66.598  1.00  0.00     0.056 A  
HETATM   15  C   UNL     1      -5.134  12.507  67.269  1.00  0.00    -0.016 A  
HETATM   16  C   UNL     1      -5.177  12.689  68.652  1.00  0.00    -0.056 A  
HETATM   17  C   UNL     1      -6.315  12.321  69.372  1.00  0.00    -0.118 A  
ENDBRANCH  11  12
ENDBRANCH   9  11
ENDBRANCH   8   9
TORSDOF 3
ENDMDL
