MODEL        1
REMARK 921   NORMALIZED FREE ENERGY PREDICTED BY IDOCK:   -6.97 KCAL/MOL
REMARK 922        TOTAL FREE ENERGY PREDICTED BY IDOCK:   -8.79 KCAL/MOL
REMARK 923 INTER-LIGAND FREE ENERGY PREDICTED BY IDOCK:   -8.19 KCAL/MOL
REMARK 924 INTRA-LIGAND FREE ENERGY PREDICTED BY IDOCK:   -0.59 KCAL/MOL
REMARK 927      BINDING AFFINITY PREDICTED BY RF-SCORE:    0.00 PKD
ROOT
HETATM    1  N   UNL     1     -11.437  16.587  63.886  1.00  0.00    -1.599 NA 
HETATM    2  H1  UNL     1     -11.076  17.509  64.133  1.00  0.00     0.000 HD 
HETATM    3  C   UNL     1     -11.511  15.579  64.853  1.00  0.00    -0.279 A  
HETATM    4  H2  UNL     1     -12.362  16.705  63.471  1.00  0.00     0.000 HD 
HETATM    5  C   UNL     1     -12.005  14.317  64.514  1.00  0.00    -0.478 A  
HETATM    6  C   UNL     1     -12.029  13.282  65.456  1.00  0.00    -0.405 A  
HETATM    7  C   UNL     1     -11.496  13.474  66.738  1.00  0.00    -0.374 A  
HETATM    8  O   UNL     1     -12.616  12.099  65.104  1.00  0.00    -0.505 OA 
HETATM    9  C   UNL     1     -10.903  15.747  66.097  1.00  0.00    -0.240 A  
HETATM   10  C   UNL     1     -10.914  14.714  67.042  1.00  0.00    -0.317 A  
HETATM   11  H   UNL     1     -12.632  11.396  65.743  1.00  0.00     0.000 HD 
ENDROOT
BRANCH   7  12
HETATM   12  C   UNL     1     -11.589  12.481  67.842  1.00  0.00    -0.347 C  
HETATM   13  O   UNL     1     -12.021  11.349  67.673  1.00  0.00    -0.630 OA 
BRANCH  12  14
HETATM   14  O   UNL     1     -11.134  13.015  69.035  1.00  0.00    -0.249 OA 
BRANCH  14  15
HETATM   15  C   UNL     1     -12.046  13.162  70.095  1.00  0.00    -0.321 A  
HETATM   16  C   UNL     1     -12.445  12.077  70.877  1.00  0.00    -0.384 A  
HETATM   17  C   UNL     1     -13.253  12.295  71.992  1.00  0.00    -0.508 A  
HETATM   18  C   UNL     1     -13.642  13.591  72.330  1.00  0.00    -0.709 A  
HETATM   19  C   UNL     1     -13.222  14.675  71.556  1.00  0.00    -0.428 A  
HETATM   20  C   UNL     1     -12.414  14.462  70.437  1.00  0.00    -0.420 A  
ENDBRANCH  14  15
ENDBRANCH  12  14
ENDBRANCH   7  12
TORSDOF 3
ENDMDL
MODEL        2
REMARK 921   NORMALIZED FREE ENERGY PREDICTED BY IDOCK:   -6.91 KCAL/MOL
REMARK 922        TOTAL FREE ENERGY PREDICTED BY IDOCK:   -8.71 KCAL/MOL
REMARK 923 INTER-LIGAND FREE ENERGY PREDICTED BY IDOCK:   -8.08 KCAL/MOL
REMARK 924 INTRA-LIGAND FREE ENERGY PREDICTED BY IDOCK:   -0.64 KCAL/MOL
REMARK 927      BINDING AFFINITY PREDICTED BY RF-SCORE:    0.00 PKD
ROOT
HETATM    1  N   UNL     1     -11.431  16.352  63.830  1.00  0.00    -1.618 NA 
HETATM    2  H1  UNL     1     -12.010  16.179  63.008  1.00  0.00     0.000 HD 
HETATM    3  C   UNL     1     -11.462  15.464  64.911  1.00  0.00    -0.311 A  
HETATM    4  H2  UNL     1     -10.463  16.456  63.525  1.00  0.00     0.000 HD 
HETATM    5  C   UNL     1     -10.669  15.701  66.036  1.00  0.00    -0.322 A  
HETATM    6  C   UNL     1     -10.734  14.854  67.148  1.00  0.00    -0.296 A  
HETATM    7  C   UNL     1     -11.645  13.789  67.179  1.00  0.00    -0.392 A  
HETATM    8  O   UNL     1      -9.864  15.071  68.180  1.00  0.00    -0.211 OA 
HETATM    9  C   UNL     1     -12.427  14.459  64.973  1.00  0.00    -0.366 A  
HETATM   10  C   UNL     1     -12.506  13.613  66.085  1.00  0.00    -0.449 A  
HETATM   11  H   UNL     1      -9.909  14.496  68.935  1.00  0.00     0.000 HD 
ENDROOT
BRANCH   7  12
HETATM   12  C   UNL     1     -11.701  12.764  68.256  1.00  0.00    -0.344 C  
HETATM   13  O   UNL     1     -12.050  11.610  68.047  1.00  0.00    -0.597 OA 
BRANCH  12  14
HETATM   14  O   UNL     1     -11.318  13.297  69.474  1.00  0.00    -0.240 OA 
BRANCH  14  15
HETATM   15  C   UNL     1     -12.319  13.700  70.375  1.00  0.00    -0.345 A  
HETATM   16  C   UNL     1     -12.849  12.825  71.324  1.00  0.00    -0.355 A  
HETATM   17  C   UNL     1     -13.750  13.307  72.274  1.00  0.00    -0.686 A  
HETATM   18  C   UNL     1     -14.101  14.657  72.282  1.00  0.00    -0.588 A  
HETATM   19  C   UNL     1     -13.551  15.531  71.341  1.00  0.00    -0.561 A  
HETATM   20  C   UNL     1     -12.651  15.053  70.387  1.00  0.00    -0.399 A  
ENDBRANCH  14  15
ENDBRANCH  12  14
ENDBRANCH   7  12
TORSDOF 3
ENDMDL
MODEL        3
REMARK 921   NORMALIZED FREE ENERGY PREDICTED BY IDOCK:   -6.86 KCAL/MOL
REMARK 922        TOTAL FREE ENERGY PREDICTED BY IDOCK:   -8.65 KCAL/MOL
REMARK 923 INTER-LIGAND FREE ENERGY PREDICTED BY IDOCK:   -8.00 KCAL/MOL
REMARK 924 INTRA-LIGAND FREE ENERGY PREDICTED BY IDOCK:   -0.65 KCAL/MOL
REMARK 927      BINDING AFFINITY PREDICTED BY RF-SCORE:    0.00 PKD
ROOT
HETATM    1  N   UNL     1     -12.549  11.498  62.972  1.00  0.00    -0.904 NA 
HETATM    2  H1  UNL     1     -12.319  10.515  63.122  1.00  0.00     0.000 HD 
HETATM    3  C   UNL     1     -11.889  12.493  63.700  1.00  0.00    -0.530 A  
HETATM    4  H2  UNL     1     -12.445  11.703  61.978  1.00  0.00     0.000 HD 
HETATM    5  C   UNL     1     -12.204  13.838  63.494  1.00  0.00    -0.236 A  
HETATM    6  C   UNL     1     -11.595  14.841  64.259  1.00  0.00    -0.203 A  
HETATM    7  C   UNL     1     -10.706  14.508  65.290  1.00  0.00    -0.390 A  
HETATM    8  O   UNL     1     -11.862  16.145  63.947  1.00  0.00    -1.359 OA 
HETATM    9  C   UNL     1     -11.073  12.155  64.780  1.00  0.00    -0.364 A  
HETATM   10  C   UNL     1     -10.467  13.151  65.555  1.00  0.00    -0.297 A  
HETATM   11  H   UNL     1     -11.448  16.825  64.466  1.00  0.00     0.000 HD 
ENDROOT
BRANCH   7  12
HETATM   12  C   UNL     1      -9.917  15.499  66.069  1.00  0.00    -0.330 C  
HETATM   13  O   UNL     1      -8.695  15.547  66.026  1.00  0.00    -0.258 OA 
BRANCH  12  14
HETATM   14  O   UNL     1     -10.743  16.319  66.818  1.00  0.00    -0.293 OA 
BRANCH  14  15
HETATM   15  C   UNL     1     -10.361  17.657  67.015  1.00  0.00    -0.330 A  
HETATM   16  C   UNL     1     -10.531  18.624  66.022  1.00  0.00    -0.456 A  
HETATM   17  C   UNL     1     -10.251  19.959  66.310  1.00  0.00    -0.614 A  
HETATM   18  C   UNL     1      -9.822  20.324  67.586  1.00  0.00    -0.563 A  
HETATM   19  C   UNL     1      -9.675  19.354  68.581  1.00  0.00    -0.504 A  
HETATM   20  C   UNL     1      -9.951  18.015  68.298  1.00  0.00    -0.374 A  
ENDBRANCH  14  15
ENDBRANCH  12  14
ENDBRANCH   7  12
TORSDOF 3
ENDMDL
MODEL        4
REMARK 921   NORMALIZED FREE ENERGY PREDICTED BY IDOCK:   -6.83 KCAL/MOL
REMARK 922        TOTAL FREE ENERGY PREDICTED BY IDOCK:   -8.62 KCAL/MOL
REMARK 923 INTER-LIGAND FREE ENERGY PREDICTED BY IDOCK:   -8.22 KCAL/MOL
REMARK 924 INTRA-LIGAND FREE ENERGY PREDICTED BY IDOCK:   -0.40 KCAL/MOL
REMARK 927      BINDING AFFINITY PREDICTED BY RF-SCORE:    0.00 PKD
ROOT
HETATM    1  N   UNL     1     -11.848  11.104  67.335  1.00  0.00    -0.513 NA 
HETATM    2  H1  UNL     1     -11.455  10.885  68.251  1.00  0.00     0.000 HD 
HETATM    3  C   UNL     1     -11.593  12.344  66.739  1.00  0.00    -0.379 A  
HETATM    4  H2  UNL     1     -11.570  10.370  66.682  1.00  0.00     0.000 HD 
HETATM    5  C   UNL     1     -12.130  12.643  65.485  1.00  0.00    -0.515 A  
HETATM    6  C   UNL     1     -11.934  13.902  64.904  1.00  0.00    -0.395 A  
HETATM    7  C   UNL     1     -11.249  14.907  65.600  1.00  0.00    -0.347 A  
HETATM    8  O   UNL     1     -12.393  14.107  63.632  1.00  0.00    -0.998 OA 
HETATM    9  C   UNL     1     -10.987  13.367  67.468  1.00  0.00    -0.284 A  
HETATM   10  C   UNL     1     -10.794  14.631  66.898  1.00  0.00    -0.305 A  
HETATM   11  H   UNL     1     -12.259  14.961  63.238  1.00  0.00     0.000 HD 
ENDROOT
BRANCH   7  12
HETATM   12  C   UNL     1     -10.882  16.227  65.020  1.00  0.00    -0.320 C  
HETATM   13  O   UNL     1     -11.489  16.724  64.081  1.00  0.00    -1.171 OA 
BRANCH  12  14
HETATM   14  O   UNL     1      -9.794  16.776  65.675  1.00  0.00    -0.544 OA 
BRANCH  14  15
HETATM   15  C   UNL     1     -10.000  17.904  66.489  1.00  0.00    -0.357 A  
HETATM   16  C   UNL     1     -10.060  17.806  67.880  1.00  0.00    -0.342 A  
HETATM   17  C   UNL     1     -10.142  18.968  68.646  1.00  0.00    -0.449 A  
HETATM   18  C   UNL     1     -10.146  20.217  68.025  1.00  0.00    -0.519 A  
HETATM   19  C   UNL     1     -10.065  20.308  66.633  1.00  0.00    -0.538 A  
HETATM   20  C   UNL     1      -9.985  19.148  65.861  1.00  0.00    -0.245 A  
ENDBRANCH  14  15
ENDBRANCH  12  14
ENDBRANCH   7  12
TORSDOF 3
ENDMDL
MODEL        5
REMARK 921   NORMALIZED FREE ENERGY PREDICTED BY IDOCK:   -6.71 KCAL/MOL
REMARK 922        TOTAL FREE ENERGY PREDICTED BY IDOCK:   -8.48 KCAL/MOL
REMARK 923 INTER-LIGAND FREE ENERGY PREDICTED BY IDOCK:   -7.89 KCAL/MOL
REMARK 924 INTRA-LIGAND FREE ENERGY PREDICTED BY IDOCK:   -0.59 KCAL/MOL
REMARK 927      BINDING AFFINITY PREDICTED BY RF-SCORE:    0.00 PKD
ROOT
HETATM    1  N   UNL     1     -12.253  13.745  63.107  1.00  0.00    -1.066 NA 
HETATM    2  H1  UNL     1     -12.324  14.621  62.590  1.00  0.00     0.000 HD 
HETATM    3  C   UNL     1     -12.157  13.757  64.503  1.00  0.00    -0.428 A  
HETATM    4  H2  UNL     1     -13.041  13.152  62.843  1.00  0.00     0.000 HD 
HETATM    5  C   UNL     1     -12.061  12.557  65.210  1.00  0.00    -0.500 A  
HETATM    6  C   UNL     1     -11.904  12.557  66.601  1.00  0.00    -0.352 A  
HETATM    7  C   UNL     1     -11.775  13.764  67.302  1.00  0.00    -0.416 A  
HETATM    8  O   UNL     1     -11.918  11.356  67.254  1.00  0.00    -0.580 OA 
HETATM    9  C   UNL     1     -11.944  14.955  65.185  1.00  0.00    -0.210 A  
HETATM   10  C   UNL     1     -11.777  14.964  66.575  1.00  0.00    -0.204 A  
HETATM   11  H   UNL     1     -11.811  11.356  68.198  1.00  0.00     0.000 HD 
ENDROOT
BRANCH   7  12
HETATM   12  C   UNL     1     -11.731  13.871  68.785  1.00  0.00    -0.357 C  
HETATM   13  O   UNL     1     -11.371  12.945  69.501  1.00  0.00    -0.230 OA 
BRANCH  12  14
HETATM   14  O   UNL     1     -12.147  15.120  69.209  1.00  0.00    -0.298 OA 
BRANCH  14  15
HETATM   15  C   UNL     1     -12.446  15.302  70.571  1.00  0.00    -0.405 A  
HETATM   16  C   UNL     1     -11.575  15.970  71.432  1.00  0.00    -0.520 A  
HETATM   17  C   UNL     1     -11.973  16.232  72.743  1.00  0.00    -0.636 A  
HETATM   18  C   UNL     1     -13.239  15.844  73.179  1.00  0.00    -0.692 A  
HETATM   19  C   UNL     1     -14.115  15.195  72.305  1.00  0.00    -0.633 A  
HETATM   20  C   UNL     1     -13.720  14.928  70.993  1.00  0.00    -0.367 A  
ENDBRANCH  14  15
ENDBRANCH  12  14
ENDBRANCH   7  12
TORSDOF 3
ENDMDL
MODEL        6
REMARK 921   NORMALIZED FREE ENERGY PREDICTED BY IDOCK:   -6.51 KCAL/MOL
REMARK 922        TOTAL FREE ENERGY PREDICTED BY IDOCK:   -8.25 KCAL/MOL
REMARK 923 INTER-LIGAND FREE ENERGY PREDICTED BY IDOCK:   -7.77 KCAL/MOL
REMARK 924 INTRA-LIGAND FREE ENERGY PREDICTED BY IDOCK:   -0.48 KCAL/MOL
REMARK 927      BINDING AFFINITY PREDICTED BY RF-SCORE:    0.00 PKD
ROOT
HETATM    1  N   UNL     1     -12.300  13.857  63.187  1.00  0.00    -1.106 NA 
HETATM    2  H1  UNL     1     -12.937  13.094  62.955  1.00  0.00     0.000 HD 
HETATM    3  C   UNL     1     -11.963  14.110  64.522  1.00  0.00    -0.458 A  
HETATM    4  H2  UNL     1     -11.439  13.729  62.656  1.00  0.00     0.000 HD 
HETATM    5  C   UNL     1     -11.092  15.153  64.840  1.00  0.00    -0.425 A  
HETATM    6  C   UNL     1     -10.793  15.456  66.174  1.00  0.00    -0.313 A  
HETATM    7  C   UNL     1     -11.415  14.756  67.217  1.00  0.00    -0.378 A  
HETATM    8  O   UNL     1      -9.856  16.418  66.426  1.00  0.00    -0.260 OA 
HETATM    9  C   UNL     1     -12.647  13.471  65.556  1.00  0.00    -0.531 A  
HETATM   10  C   UNL     1     -12.362  13.773  66.893  1.00  0.00    -0.328 A  
HETATM   11  H   UNL     1      -9.654  16.623  67.331  1.00  0.00     0.000 HD 
ENDROOT
BRANCH   7  12
HETATM   12  C   UNL     1     -11.071  14.917  68.656  1.00  0.00    -0.263 C  
HETATM   13  O   UNL     1     -10.115  14.353  69.170  1.00  0.00    -0.197 OA 
BRANCH  12  14
HETATM   14  O   UNL     1     -11.963  15.762  69.292  1.00  0.00    -0.369 OA 
BRANCH  14  15
HETATM   15  C   UNL     1     -12.300  15.498  70.631  1.00  0.00    -0.416 A  
HETATM   16  C   UNL     1     -13.032  14.367  70.995  1.00  0.00    -0.416 A  
HETATM   17  C   UNL     1     -13.234  14.086  72.346  1.00  0.00    -0.585 A  
HETATM   18  C   UNL     1     -12.691  14.921  73.322  1.00  0.00    -0.624 A  
HETATM   19  C   UNL     1     -11.941  16.040  72.951  1.00  0.00    -0.611 A  
HETATM   20  C   UNL     1     -11.738  16.327  71.599  1.00  0.00    -0.490 A  
ENDBRANCH  14  15
ENDBRANCH  12  14
ENDBRANCH   7  12
TORSDOF 3
ENDMDL
MODEL        7
REMARK 921   NORMALIZED FREE ENERGY PREDICTED BY IDOCK:   -6.30 KCAL/MOL
REMARK 922        TOTAL FREE ENERGY PREDICTED BY IDOCK:   -8.00 KCAL/MOL
REMARK 923 INTER-LIGAND FREE ENERGY PREDICTED BY IDOCK:   -7.33 KCAL/MOL
REMARK 924 INTRA-LIGAND FREE ENERGY PREDICTED BY IDOCK:   -0.67 KCAL/MOL
REMARK 927      BINDING AFFINITY PREDICTED BY RF-SCORE:    0.00 PKD
ROOT
HETATM    1  N   UNL     1     -11.665  16.331  63.824  1.00  0.00    -1.488 NA 
HETATM    2  H1  UNL     1     -12.541  16.484  63.323  1.00  0.00     0.000 HD 
HETATM    3  C   UNL     1     -11.521  15.222  64.665  1.00  0.00    -0.354 A  
HETATM    4  H2  UNL     1     -10.904  16.321  63.144  1.00  0.00     0.000 HD 
HETATM    5  C   UNL     1     -10.322  15.013  65.349  1.00  0.00    -0.410 A  
HETATM    6  C   UNL     1     -10.184  13.942  66.240  1.00  0.00    -0.297 A  
HETATM    7  C   UNL     1     -11.270  13.097  66.510  1.00  0.00    -0.339 A  
HETATM    8  O   UNL     1      -8.959  13.722  66.805  1.00  0.00    -0.313 OA 
HETATM    9  C   UNL     1     -12.626  14.437  64.995  1.00  0.00    -0.309 A  
HETATM   10  C   UNL     1     -12.499  13.369  65.892  1.00  0.00    -0.468 A  
HETATM   11  H   UNL     1      -8.866  12.995  67.410  1.00  0.00     0.000 HD 
ENDROOT
BRANCH   7  12
HETATM   12  C   UNL     1     -11.187  11.864  67.339  1.00  0.00    -0.305 C  
HETATM   13  O   UNL     1     -11.497  10.761  66.909  1.00  0.00    -0.304 OA 
BRANCH  12  14
HETATM   14  O   UNL     1     -10.731  12.149  68.614  1.00  0.00    -0.223 OA 
BRANCH  14  15
HETATM   15  C   UNL     1     -11.654  12.147  69.674  1.00  0.00    -0.291 A  
HETATM   16  C   UNL     1     -12.138  10.961  70.225  1.00  0.00    -0.440 A  
HETATM   17  C   UNL     1     -12.956  11.012  71.353  1.00  0.00    -0.517 A  
HETATM   18  C   UNL     1     -13.270  12.241  71.934  1.00  0.00    -0.481 A  
HETATM   19  C   UNL     1     -12.765  13.424  71.389  1.00  0.00    -0.411 A  
HETATM   20  C   UNL     1     -11.947  13.378  70.258  1.00  0.00    -0.378 A  
ENDBRANCH  14  15
ENDBRANCH  12  14
ENDBRANCH   7  12
TORSDOF 3
ENDMDL
MODEL        8
REMARK 921   NORMALIZED FREE ENERGY PREDICTED BY IDOCK:   -6.28 KCAL/MOL
REMARK 922        TOTAL FREE ENERGY PREDICTED BY IDOCK:   -7.98 KCAL/MOL
REMARK 923 INTER-LIGAND FREE ENERGY PREDICTED BY IDOCK:   -7.27 KCAL/MOL
REMARK 924 INTRA-LIGAND FREE ENERGY PREDICTED BY IDOCK:   -0.71 KCAL/MOL
REMARK 927      BINDING AFFINITY PREDICTED BY RF-SCORE:    0.00 PKD
ROOT
HETATM    1  N   UNL     1     -12.604  11.788  63.080  1.00  0.00    -0.905 NA 
HETATM    2  H1  UNL     1     -13.435  12.102  62.580  1.00  0.00     0.000 HD 
HETATM    3  C   UNL     1     -11.921  12.666  63.930  1.00  0.00    -0.479 A  
HETATM    4  H2  UNL     1     -12.845  10.950  63.610  1.00  0.00     0.000 HD 
HETATM    5  C   UNL     1     -10.784  12.236  64.616  1.00  0.00    -0.347 A  
HETATM    6  C   UNL     1     -10.057  13.120  65.422  1.00  0.00    -0.248 A  
HETATM    7  C   UNL     1     -10.421  14.471  65.504  1.00  0.00    -0.373 A  
HETATM    8  O   UNL     1      -9.013  12.622  66.151  1.00  0.00    -0.426 OA 
HETATM    9  C   UNL     1     -12.235  14.025  63.942  1.00  0.00    -0.336 A  
HETATM   10  C   UNL     1     -11.508  14.918  64.738  1.00  0.00    -0.410 A  
HETATM   11  H   UNL     1      -8.519  13.223  66.698  1.00  0.00     0.000 HD 
ENDROOT
BRANCH   7  12
HETATM   12  C   UNL     1      -9.792  15.454  66.426  1.00  0.00    -0.281 C  
HETATM   13  O   UNL     1      -8.579  15.541  66.566  1.00  0.00    -0.269 OA 
BRANCH  12  14
HETATM   14  O   UNL     1     -10.749  16.216  67.073  1.00  0.00    -0.313 OA 
BRANCH  14  15
HETATM   15  C   UNL     1     -10.512  17.592  67.238  1.00  0.00    -0.338 A  
HETATM   16  C   UNL     1     -10.116  18.128  68.465  1.00  0.00    -0.413 A  
HETATM   17  C   UNL     1      -9.775  19.477  68.546  1.00  0.00    -0.503 A  
HETATM   18  C   UNL     1      -9.813  20.278  67.405  1.00  0.00    -0.586 A  
HETATM   19  C   UNL     1     -10.189  19.730  66.175  1.00  0.00    -0.618 A  
HETATM   20  C   UNL     1     -10.534  18.380  66.089  1.00  0.00    -0.422 A  
ENDBRANCH  14  15
ENDBRANCH  12  14
ENDBRANCH   7  12
TORSDOF 3
ENDMDL
MODEL        9
REMARK 921   NORMALIZED FREE ENERGY PREDICTED BY IDOCK:   -6.25 KCAL/MOL
REMARK 922        TOTAL FREE ENERGY PREDICTED BY IDOCK:   -7.94 KCAL/MOL
REMARK 923 INTER-LIGAND FREE ENERGY PREDICTED BY IDOCK:   -7.35 KCAL/MOL
REMARK 924 INTRA-LIGAND FREE ENERGY PREDICTED BY IDOCK:   -0.60 KCAL/MOL
REMARK 927      BINDING AFFINITY PREDICTED BY RF-SCORE:    0.00 PKD
ROOT
HETATM    1  N   UNL     1     -11.798  13.199  63.111  1.00  0.00    -0.833 NA 
HETATM    2  H1  UNL     1     -12.106  12.292  62.761  1.00  0.00     0.000 HD 
HETATM    3  C   UNL     1     -11.700  13.425  64.489  1.00  0.00    -0.384 A  
HETATM    4  H2  UNL     1     -10.898  13.419  62.684  1.00  0.00     0.000 HD 
HETATM    5  C   UNL     1     -11.279  14.667  64.967  1.00  0.00    -0.388 A  
HETATM    6  C   UNL     1     -11.234  14.927  66.342  1.00  0.00    -0.331 A  
HETATM    7  C   UNL     1     -11.675  13.966  67.262  1.00  0.00    -0.418 A  
HETATM    8  O   UNL     1     -10.717  16.122  66.759  1.00  0.00    -0.310 OA 
HETATM    9  C   UNL     1     -12.219  12.501  65.395  1.00  0.00    -0.475 A  
HETATM   10  C   UNL     1     -12.187  12.755  66.771  1.00  0.00    -0.134 A  
HETATM   11  H   UNL     1     -10.687  16.298  67.693  1.00  0.00     0.000 HD 
ENDROOT
BRANCH   7  12
HETATM   12  C   UNL     1     -11.549  14.099  68.738  1.00  0.00    -0.327 C  
HETATM   13  O   UNL     1     -11.038  13.232  69.435  1.00  0.00    -0.197 OA 
BRANCH  12  14
HETATM   14  O   UNL     1     -12.080  15.298  69.179  1.00  0.00    -0.304 OA 
BRANCH  14  15
HETATM   15  C   UNL     1     -12.455  15.410  70.530  1.00  0.00    -0.422 A  
HETATM   16  C   UNL     1     -11.643  16.047  71.468  1.00  0.00    -0.529 A  
HETATM   17  C   UNL     1     -12.115  16.240  72.766  1.00  0.00    -0.637 A  
HETATM   18  C   UNL     1     -13.396  15.815  73.114  1.00  0.00    -0.685 A  
HETATM   19  C   UNL     1     -14.213  15.196  72.163  1.00  0.00    -0.656 A  
HETATM   20  C   UNL     1     -13.744  14.998  70.863  1.00  0.00    -0.319 A  
ENDBRANCH  14  15
ENDBRANCH  12  14
ENDBRANCH   7  12
TORSDOF 3
ENDMDL
MODEL       10
REMARK 921   NORMALIZED FREE ENERGY PREDICTED BY IDOCK:   -6.22 KCAL/MOL
REMARK 922        TOTAL FREE ENERGY PREDICTED BY IDOCK:   -7.91 KCAL/MOL
REMARK 923 INTER-LIGAND FREE ENERGY PREDICTED BY IDOCK:   -7.29 KCAL/MOL
REMARK 924 INTRA-LIGAND FREE ENERGY PREDICTED BY IDOCK:   -0.62 KCAL/MOL
REMARK 927      BINDING AFFINITY PREDICTED BY RF-SCORE:    0.00 PKD
ROOT
HETATM    1  N   UNL     1     -13.808  16.101  73.388  1.00  0.00    -0.788 NA 
HETATM    2  H1  UNL     1     -13.667  17.099  73.235  1.00  0.00     0.000 HD 
HETATM    3  C   UNL     1     -13.305  15.171  72.471  1.00  0.00    -0.441 A  
HETATM    4  H2  UNL     1     -13.451  15.864  74.315  1.00  0.00     0.000 HD 
HETATM    5  C   UNL     1     -13.497  13.804  72.681  1.00  0.00    -0.638 A  
HETATM    6  C   UNL     1     -13.053  12.866  71.742  1.00  0.00    -0.360 A  
HETATM    7  C   UNL     1     -12.464  13.287  70.541  1.00  0.00    -0.332 A  
HETATM    8  O   UNL     1     -13.174  11.539  72.044  1.00  0.00    -0.509 OA 
HETATM    9  C   UNL     1     -12.799  15.594  71.242  1.00  0.00    -0.550 A  
HETATM   10  C   UNL     1     -12.360  14.664  70.293  1.00  0.00    -0.406 A  
HETATM   11  H   UNL     1     -12.872  10.902  71.406  1.00  0.00     0.000 HD 
ENDROOT
BRANCH   7  12
HETATM   12  C   UNL     1     -11.849  12.371  69.543  1.00  0.00    -0.303 C  
HETATM   13  O   UNL     1     -12.064  11.166  69.537  1.00  0.00    -0.322 OA 
BRANCH  12  14
HETATM   14  O   UNL     1     -11.032  13.062  68.667  1.00  0.00    -0.247 OA 
BRANCH  14  15
HETATM   15  C   UNL     1     -11.291  12.964  67.288  1.00  0.00    -0.310 A  
HETATM   16  C   UNL     1     -10.806  11.903  66.522  1.00  0.00    -0.317 A  
HETATM   17  C   UNL     1     -11.194  11.787  65.188  1.00  0.00    -0.311 A  
HETATM   18  C   UNL     1     -12.073  12.716  64.632  1.00  0.00    -0.484 A  
HETATM   19  C   UNL     1     -12.571  13.764  65.411  1.00  0.00    -0.534 A  
HETATM   20  C   UNL     1     -12.184  13.886  66.746  1.00  0.00    -0.438 A  
ENDBRANCH  14  15
ENDBRANCH  12  14
ENDBRANCH   7  12
TORSDOF 3
ENDMDL
MODEL       11
REMARK 921   NORMALIZED FREE ENERGY PREDICTED BY IDOCK:   -6.20 KCAL/MOL
REMARK 922        TOTAL FREE ENERGY PREDICTED BY IDOCK:   -7.89 KCAL/MOL
REMARK 923 INTER-LIGAND FREE ENERGY PREDICTED BY IDOCK:   -7.29 KCAL/MOL
REMARK 924 INTRA-LIGAND FREE ENERGY PREDICTED BY IDOCK:   -0.59 KCAL/MOL
REMARK 927      BINDING AFFINITY PREDICTED BY RF-SCORE:    0.00 PKD
ROOT
HETATM    1  N   UNL     1     -13.285  16.110  74.158  1.00  0.00    -0.913 NA 
HETATM    2  H1  UNL     1     -13.981  15.679  74.766  1.00  0.00     0.000 HD 
HETATM    3  C   UNL     1     -12.958  15.517  72.933  1.00  0.00    -0.477 A  
HETATM    4  H2  UNL     1     -13.565  17.076  73.983  1.00  0.00     0.000 HD 
HETATM    5  C   UNL     1     -12.005  16.108  72.101  1.00  0.00    -0.623 A  
HETATM    6  C   UNL     1     -11.624  15.494  70.901  1.00  0.00    -0.375 A  
HETATM    7  C   UNL     1     -12.144  14.242  70.546  1.00  0.00    -0.413 A  
HETATM    8  O   UNL     1     -10.765  16.164  70.075  1.00  0.00    -0.320 OA 
HETATM    9  C   UNL     1     -13.412  14.235  72.625  1.00  0.00    -0.623 A  
HETATM   10  C   UNL     1     -13.029  13.609  71.433  1.00  0.00    -0.427 A  
HETATM   11  H   UNL     1     -10.506  15.747  69.262  1.00  0.00     0.000 HD 
ENDROOT
BRANCH   7  12
HETATM   12  C   UNL     1     -11.899  13.572  69.241  1.00  0.00    -0.341 C  
HETATM   13  O   UNL     1     -11.568  12.397  69.158  1.00  0.00    -0.274 OA 
BRANCH  12  14
HETATM   14  O   UNL     1     -12.091  14.446  68.186  1.00  0.00    -0.310 OA 
BRANCH  14  15
HETATM   15  C   UNL     1     -11.744  14.022  66.891  1.00  0.00    -0.410 A  
HETATM   16  C   UNL     1     -12.690  13.494  66.012  1.00  0.00    -0.307 A  
HETATM   17  C   UNL     1     -12.321  13.203  64.700  1.00  0.00    -0.463 A  
HETATM   18  C   UNL     1     -11.019  13.458  64.267  1.00  0.00    -0.391 A  
HETATM   19  C   UNL     1     -10.083  14.008  65.147  1.00  0.00    -0.343 A  
HETATM   20  C   UNL     1     -10.447  14.298  66.463  1.00  0.00    -0.287 A  
ENDBRANCH  14  15
ENDBRANCH  12  14
ENDBRANCH   7  12
TORSDOF 3
ENDMDL
MODEL       12
REMARK 921   NORMALIZED FREE ENERGY PREDICTED BY IDOCK:   -6.18 KCAL/MOL
REMARK 922        TOTAL FREE ENERGY PREDICTED BY IDOCK:   -7.86 KCAL/MOL
REMARK 923 INTER-LIGAND FREE ENERGY PREDICTED BY IDOCK:   -7.31 KCAL/MOL
REMARK 924 INTRA-LIGAND FREE ENERGY PREDICTED BY IDOCK:   -0.55 KCAL/MOL
REMARK 927      BINDING AFFINITY PREDICTED BY RF-SCORE:    0.00 PKD
ROOT
HETATM    1  N   UNL     1     -10.399  10.634  62.534  1.00  0.00    -0.697 NA 
HETATM    2  H1  UNL     1      -9.599  10.002  62.492  1.00  0.00     0.000 HD 
HETATM    3  C   UNL     1     -10.704  11.304  63.724  1.00  0.00    -0.379 A  
HETATM    4  H2  UNL     1     -10.300  11.327  61.791  1.00  0.00     0.000 HD 
HETATM    5  C   UNL     1     -11.799  12.169  63.781  1.00  0.00    -0.592 A  
HETATM    6  C   UNL     1     -12.152  12.799  64.980  1.00  0.00    -0.441 A  
HETATM    7  C   UNL     1     -11.451  12.521  66.162  1.00  0.00    -0.426 A  
HETATM    8  O   UNL     1     -13.166  13.715  64.957  1.00  0.00    -0.729 OA 
HETATM    9  C   UNL     1     -10.061  10.960  64.913  1.00  0.00    -0.374 A  
HETATM   10  C   UNL     1     -10.413  11.578  66.119  1.00  0.00    -0.296 A  
HETATM   11  H   UNL     1     -13.406  14.142  65.772  1.00  0.00     0.000 HD 
ENDROOT
BRANCH   7  12
HETATM   12  C   UNL     1     -11.668  13.231  67.452  1.00  0.00    -0.373 C  
HETATM   13  O   UNL     1     -12.307  14.272  67.530  1.00  0.00    -0.287 OA 
BRANCH  12  14
HETATM   14  O   UNL     1     -11.060  12.562  68.499  1.00  0.00    -0.232 OA 
BRANCH  14  15
HETATM   15  C   UNL     1     -11.860  12.112  69.564  1.00  0.00    -0.321 A  
HETATM   16  C   UNL     1     -12.148  10.759  69.746  1.00  0.00    -0.389 A  
HETATM   17  C   UNL     1     -12.842  10.352  70.885  1.00  0.00    -0.482 A  
HETATM   18  C   UNL     1     -13.228  11.292  71.841  1.00  0.00    -0.491 A  
HETATM   19  C   UNL     1     -12.918  12.643  71.662  1.00  0.00    -0.400 A  
HETATM   20  C   UNL     1     -12.225  13.055  70.522  1.00  0.00    -0.392 A  
ENDBRANCH  14  15
ENDBRANCH  12  14
ENDBRANCH   7  12
TORSDOF 3
ENDMDL
MODEL       13
REMARK 921   NORMALIZED FREE ENERGY PREDICTED BY IDOCK:   -6.14 KCAL/MOL
REMARK 922        TOTAL FREE ENERGY PREDICTED BY IDOCK:   -7.81 KCAL/MOL
REMARK 923 INTER-LIGAND FREE ENERGY PREDICTED BY IDOCK:   -7.26 KCAL/MOL
REMARK 924 INTRA-LIGAND FREE ENERGY PREDICTED BY IDOCK:   -0.55 KCAL/MOL
REMARK 927      BINDING AFFINITY PREDICTED BY RF-SCORE:    0.00 PKD
ROOT
HETATM    1  N   UNL     1     -11.896   7.112  72.860  1.00  0.00    -0.522 NA 
HETATM    2  H1  UNL     1     -12.684   6.834  73.445  1.00  0.00     0.000 HD 
HETATM    3  C   UNL     1     -11.907   8.350  72.207  1.00  0.00    -0.389 A  
HETATM    4  H2  UNL     1     -11.044   7.050  73.418  1.00  0.00     0.000 HD 
HETATM    5  C   UNL     1     -10.828   8.730  71.407  1.00  0.00    -0.359 A  
HETATM    6  C   UNL     1     -10.852   9.938  70.700  1.00  0.00    -0.330 A  
HETATM    7  C   UNL     1     -11.988  10.758  70.732  1.00  0.00    -0.464 A  
HETATM    8  O   UNL     1      -9.729  10.310  70.014  1.00  0.00    -0.395 OA 
HETATM    9  C   UNL     1     -13.069   9.120  72.173  1.00  0.00    -0.516 A  
HETATM   10  C   UNL     1     -13.106  10.325  71.462  1.00  0.00    -0.534 A  
HETATM   11  H   UNL     1      -9.746  11.130  69.535  1.00  0.00     0.000 HD 
ENDROOT
BRANCH   7  12
HETATM   12  C   UNL     1     -12.062  12.113  70.121  1.00  0.00    -0.290 C  
HETATM   13  O   UNL     1     -11.335  12.458  69.199  1.00  0.00    -0.249 OA 
BRANCH  12  14
HETATM   14  O   UNL     1     -13.034  12.885  70.732  1.00  0.00    -0.103 OA 
BRANCH  14  15
HETATM   15  C   UNL     1     -12.629  14.001  71.485  1.00  0.00    -0.349 A  
HETATM   16  C   UNL     1     -11.948  15.072  70.903  1.00  0.00    -0.374 A  
HETATM   17  C   UNL     1     -11.678  16.208  71.665  1.00  0.00    -0.558 A  
HETATM   18  C   UNL     1     -12.104  16.278  72.991  1.00  0.00    -0.629 A  
HETATM   19  C   UNL     1     -12.804  15.211  73.561  1.00  0.00    -0.657 A  
HETATM   20  C   UNL     1     -13.074  14.070  72.803  1.00  0.00    -0.537 A  
ENDBRANCH  14  15
ENDBRANCH  12  14
ENDBRANCH   7  12
TORSDOF 3
ENDMDL
MODEL       14
REMARK 921   NORMALIZED FREE ENERGY PREDICTED BY IDOCK:   -6.12 KCAL/MOL
REMARK 922        TOTAL FREE ENERGY PREDICTED BY IDOCK:   -7.78 KCAL/MOL
REMARK 923 INTER-LIGAND FREE ENERGY PREDICTED BY IDOCK:   -7.15 KCAL/MOL
REMARK 924 INTRA-LIGAND FREE ENERGY PREDICTED BY IDOCK:   -0.63 KCAL/MOL
REMARK 927      BINDING AFFINITY PREDICTED BY RF-SCORE:    0.00 PKD
ROOT
HETATM    1  N   UNL     1      -9.414   9.732  63.099  1.00  0.00    -0.534 NA 
HETATM    2  H1  UNL     1      -8.819   9.075  63.605  1.00  0.00     0.000 HD 
HETATM    3  C   UNL     1     -10.090  10.743  63.790  1.00  0.00    -0.327 A  
HETATM    4  H2  UNL     1      -8.860  10.162  62.358  1.00  0.00     0.000 HD 
HETATM    5  C   UNL     1     -10.904  11.642  63.098  1.00  0.00    -0.281 A  
HETATM    6  C   UNL     1     -11.633  12.621  63.783  1.00  0.00    -0.476 A  
HETATM    7  C   UNL     1     -11.610  12.675  65.184  1.00  0.00    -0.386 A  
HETATM    8  O   UNL     1     -12.332  13.540  63.051  1.00  0.00    -0.970 OA 
HETATM    9  C   UNL     1     -10.132  10.740  65.184  1.00  0.00    -0.363 A  
HETATM   10  C   UNL     1     -10.866  11.710  65.878  1.00  0.00    -0.339 A  
HETATM   11  H   UNL     1     -12.827  14.204  63.516  1.00  0.00     0.000 HD 
ENDROOT
BRANCH   7  12
HETATM   12  C   UNL     1     -12.246  13.750  65.992  1.00  0.00    -0.457 C  
HETATM   13  O   UNL     1     -13.375  14.163  65.764  1.00  0.00    -0.503 OA 
BRANCH  12  14
HETATM   14  O   UNL     1     -11.399  14.191  66.993  1.00  0.00    -0.306 OA 
BRANCH  14  15
HETATM   15  C   UNL     1     -11.844  14.131  68.325  1.00  0.00    -0.356 A  
HETATM   16  C   UNL     1     -11.899  12.927  69.028  1.00  0.00    -0.352 A  
HETATM   17  C   UNL     1     -12.230  12.938  70.382  1.00  0.00    -0.381 A  
HETATM   18  C   UNL     1     -12.486  14.146  71.030  1.00  0.00    -0.438 A  
HETATM   19  C   UNL     1     -12.409  15.350  70.324  1.00  0.00    -0.425 A  
HETATM   20  C   UNL     1     -12.081  15.345  68.968  1.00  0.00    -0.254 A  
ENDBRANCH  14  15
ENDBRANCH  12  14
ENDBRANCH   7  12
TORSDOF 3
ENDMDL
MODEL       15
REMARK 921   NORMALIZED FREE ENERGY PREDICTED BY IDOCK:   -6.11 KCAL/MOL
REMARK 922        TOTAL FREE ENERGY PREDICTED BY IDOCK:   -7.77 KCAL/MOL
REMARK 923 INTER-LIGAND FREE ENERGY PREDICTED BY IDOCK:   -7.37 KCAL/MOL
REMARK 924 INTRA-LIGAND FREE ENERGY PREDICTED BY IDOCK:   -0.40 KCAL/MOL
REMARK 927      BINDING AFFINITY PREDICTED BY RF-SCORE:    0.00 PKD
ROOT
HETATM    1  N   UNL     1      -9.768  17.654  68.262  1.00  0.00    -0.300 NA 
HETATM    2  H1  UNL     1      -9.629  17.393  69.239  1.00  0.00     0.000 HD 
HETATM    3  C   UNL     1     -10.328  16.740  67.363  1.00  0.00    -0.302 A  
HETATM    4  H2  UNL     1     -10.319  18.513  68.235  1.00  0.00     0.000 HD 
HETATM    5  C   UNL     1     -10.519  17.098  66.027  1.00  0.00    -0.271 A  
HETATM    6  C   UNL     1     -11.023  16.174  65.104  1.00  0.00    -0.316 A  
HETATM    7  C   UNL     1     -11.284  14.852  65.491  1.00  0.00    -0.348 A  
HETATM    8  O   UNL     1     -11.287  16.605  63.834  1.00  0.00    -1.558 OA 
HETATM    9  C   UNL     1     -10.505  15.406  67.730  1.00  0.00    -0.266 A  
HETATM   10  C   UNL     1     -11.000  14.473  66.812  1.00  0.00    -0.316 A  
HETATM   11  H   UNL     1     -11.628  15.977  63.207  1.00  0.00     0.000 HD 
ENDROOT
BRANCH   7  12
HETATM   12  C   UNL     1     -11.935  13.837  64.620  1.00  0.00    -0.416 C  
HETATM   13  O   UNL     1     -12.444  14.122  63.545  1.00  0.00    -0.817 OA 
BRANCH  12  14
HETATM   14  O   UNL     1     -11.881  12.578  65.193  1.00  0.00    -0.366 OA 
BRANCH  14  15
HETATM   15  C   UNL     1     -10.851  11.706  64.800  1.00  0.00    -0.308 A  
HETATM   16  C   UNL     1     -10.355  10.721  65.656  1.00  0.00    -0.297 A  
HETATM   17  C   UNL     1      -9.421   9.803  65.177  1.00  0.00    -0.338 A  
HETATM   18  C   UNL     1      -9.001   9.861  63.848  1.00  0.00    -0.280 A  
HETATM   19  C   UNL     1      -9.518  10.836  62.991  1.00  0.00    -0.372 A  
HETATM   20  C   UNL     1     -10.451  11.759  63.466  1.00  0.00    -0.500 A  
ENDBRANCH  14  15
ENDBRANCH  12  14
ENDBRANCH   7  12
TORSDOF 3
ENDMDL
MODEL       16
REMARK 921   NORMALIZED FREE ENERGY PREDICTED BY IDOCK:   -6.07 KCAL/MOL
REMARK 922        TOTAL FREE ENERGY PREDICTED BY IDOCK:   -7.73 KCAL/MOL
REMARK 923 INTER-LIGAND FREE ENERGY PREDICTED BY IDOCK:   -7.07 KCAL/MOL
REMARK 924 INTRA-LIGAND FREE ENERGY PREDICTED BY IDOCK:   -0.65 KCAL/MOL
REMARK 927      BINDING AFFINITY PREDICTED BY RF-SCORE:    0.00 PKD
ROOT
HETATM    1  N   UNL     1      -9.085   9.271  64.118  1.00  0.00    -0.429 NA 
HETATM    2  H1  UNL     1      -8.634   8.676  64.814  1.00  0.00     0.000 HD 
HETATM    3  C   UNL     1      -9.876  10.352  64.524  1.00  0.00    -0.339 A  
HETATM    4  H2  UNL     1      -8.368   9.617  63.480  1.00  0.00     0.000 HD 
HETATM    5  C   UNL     1     -10.492  11.166  63.571  1.00  0.00    -0.422 A  
HETATM    6  C   UNL     1     -11.334  12.214  63.962  1.00  0.00    -0.395 A  
HETATM    7  C   UNL     1     -11.625  12.424  65.317  1.00  0.00    -0.419 A  
HETATM    8  O   UNL     1     -11.829  13.043  62.994  1.00  0.00    -0.841 OA 
HETATM    9  C   UNL     1     -10.231  10.504  65.864  1.00  0.00    -0.311 A  
HETATM   10  C   UNL     1     -11.079  11.544  66.263  1.00  0.00    -0.321 A  
HETATM   11  H   UNL     1     -12.400  13.754  63.260  1.00  0.00     0.000 HD 
ENDROOT
BRANCH   7  12
HETATM   12  C   UNL     1     -12.402  13.581  65.838  1.00  0.00    -0.456 C  
HETATM   13  O   UNL     1     -13.331  14.081  65.217  1.00  0.00    -0.741 OA 
BRANCH  12  14
HETATM   14  O   UNL     1     -11.929  13.986  67.073  1.00  0.00    -0.403 OA 
BRANCH  14  15
HETATM   15  C   UNL     1     -11.161  15.161  67.145  1.00  0.00    -0.335 A  
HETATM   16  C   UNL     1     -10.409  15.616  66.061  1.00  0.00    -0.351 A  
HETATM   17  C   UNL     1      -9.764  16.849  66.143  1.00  0.00    -0.296 A  
HETATM   18  C   UNL     1      -9.886  17.627  67.294  1.00  0.00    -0.303 A  
HETATM   19  C   UNL     1     -10.657  17.175  68.368  1.00  0.00    -0.371 A  
HETATM   20  C   UNL     1     -11.303  15.939  68.292  1.00  0.00    -0.342 A  
ENDBRANCH  14  15
ENDBRANCH  12  14
ENDBRANCH   7  12
TORSDOF 3
ENDMDL
MODEL       17
REMARK 921   NORMALIZED FREE ENERGY PREDICTED BY IDOCK:   -6.04 KCAL/MOL
REMARK 922        TOTAL FREE ENERGY PREDICTED BY IDOCK:   -7.69 KCAL/MOL
REMARK 923 INTER-LIGAND FREE ENERGY PREDICTED BY IDOCK:   -7.00 KCAL/MOL
REMARK 924 INTRA-LIGAND FREE ENERGY PREDICTED BY IDOCK:   -0.70 KCAL/MOL
REMARK 927      BINDING AFFINITY PREDICTED BY RF-SCORE:    0.00 PKD
ROOT
HETATM    1  N   UNL     1     -12.446  14.326  63.352  1.00  0.00    -1.101 NA 
HETATM    2  H1  UNL     1     -12.966  15.146  63.663  1.00  0.00     0.000 HD 
HETATM    3  C   UNL     1     -12.044  13.355  64.276  1.00  0.00    -0.424 A  
HETATM    4  H2  UNL     1     -12.982  13.867  62.615  1.00  0.00     0.000 HD 
HETATM    5  C   UNL     1     -11.333  12.232  63.849  1.00  0.00    -0.501 A  
HETATM    6  C   UNL     1     -10.873  11.283  64.770  1.00  0.00    -0.244 A  
HETATM    7  C   UNL     1     -11.062  11.478  66.145  1.00  0.00    -0.302 A  
HETATM    8  O   UNL     1     -10.273  10.152  64.290  1.00  0.00    -0.426 OA 
HETATM    9  C   UNL     1     -12.158  13.593  65.645  1.00  0.00    -0.457 A  
HETATM   10  C   UNL     1     -11.693  12.655  66.574  1.00  0.00    -0.463 A  
HETATM   11  H   UNL     1      -9.961   9.509  64.916  1.00  0.00     0.000 HD 
ENDROOT
BRANCH   7  12
HETATM   12  C   UNL     1     -10.724  10.472  67.188  1.00  0.00    -0.265 C  
HETATM   13  O   UNL     1     -10.774   9.267  66.980  1.00  0.00    -0.232 OA 
BRANCH  12  14
HETATM   14  O   UNL     1     -10.365  11.084  68.376  1.00  0.00    -0.169 OA 
BRANCH  14  15
HETATM   15  C   UNL     1     -10.952  10.630  69.569  1.00  0.00    -0.272 A  
HETATM   16  C   UNL     1     -12.273  10.935  69.901  1.00  0.00    -0.408 A  
HETATM   17  C   UNL     1     -12.846  10.359  71.035  1.00  0.00    -0.494 A  
HETATM   18  C   UNL     1     -12.107   9.472  71.817  1.00  0.00    -0.459 A  
HETATM   19  C   UNL     1     -10.792   9.155  71.467  1.00  0.00    -0.436 A  
HETATM   20  C   UNL     1     -10.213   9.730  70.335  1.00  0.00    -0.343 A  
ENDBRANCH  14  15
ENDBRANCH  12  14
ENDBRANCH   7  12
TORSDOF 3
ENDMDL
MODEL       18
REMARK 921   NORMALIZED FREE ENERGY PREDICTED BY IDOCK:   -6.02 KCAL/MOL
REMARK 922        TOTAL FREE ENERGY PREDICTED BY IDOCK:   -7.68 KCAL/MOL
REMARK 923 INTER-LIGAND FREE ENERGY PREDICTED BY IDOCK:   -7.04 KCAL/MOL
REMARK 924 INTRA-LIGAND FREE ENERGY PREDICTED BY IDOCK:   -0.64 KCAL/MOL
REMARK 927      BINDING AFFINITY PREDICTED BY RF-SCORE:    0.00 PKD
ROOT
HETATM    1  N   UNL     1      -9.839  20.352  65.991  1.00  0.00    -0.643 NA 
HETATM    2  H1  UNL     1      -9.789  21.229  66.511  1.00  0.00     0.000 HD 
HETATM    3  C   UNL     1     -10.118  19.154  66.659  1.00  0.00    -0.395 A  
HETATM    4  H2  UNL     1     -10.516  20.465  65.236  1.00  0.00     0.000 HD 
HETATM    5  C   UNL     1     -10.187  17.955  65.947  1.00  0.00    -0.228 A  
HETATM    6  C   UNL     1     -10.405  16.741  66.610  1.00  0.00    -0.297 A  
HETATM    7  C   UNL     1     -10.492  16.701  68.009  1.00  0.00    -0.320 A  
HETATM    8  O   UNL     1     -10.566  15.611  65.858  1.00  0.00    -0.314 OA 
HETATM    9  C   UNL     1     -10.118  19.106  68.053  1.00  0.00    -0.482 A  
HETATM   10  C   UNL     1     -10.327  17.896  68.725  1.00  0.00    -0.311 A  
HETATM   11  H   UNL     1     -10.714  14.788  66.308  1.00  0.00     0.000 HD 
ENDROOT
BRANCH   7  12
HETATM   12  C   UNL     1     -10.846  15.486  68.792  1.00  0.00    -0.256 C  
HETATM   13  O   UNL     1     -10.084  14.536  68.912  1.00  0.00    -0.234 OA 
BRANCH  12  14
HETATM   14  O   UNL     1     -12.115  15.592  69.333  1.00  0.00    -0.356 OA 
BRANCH  14  15
HETATM   15  C   UNL     1     -12.290  15.296  70.697  1.00  0.00    -0.377 A  
HETATM   16  C   UNL     1     -11.781  16.123  71.699  1.00  0.00    -0.558 A  
HETATM   17  C   UNL     1     -12.087  15.852  73.033  1.00  0.00    -0.615 A  
HETATM   18  C   UNL     1     -12.910  14.773  73.356  1.00  0.00    -0.597 A  
HETATM   19  C   UNL     1     -13.433  13.962  72.345  1.00  0.00    -0.661 A  
HETATM   20  C   UNL     1     -13.128  14.228  71.009  1.00  0.00    -0.394 A  
ENDBRANCH  14  15
ENDBRANCH  12  14
ENDBRANCH   7  12
TORSDOF 3
ENDMDL
MODEL       19
REMARK 921   NORMALIZED FREE ENERGY PREDICTED BY IDOCK:   -6.01 KCAL/MOL
REMARK 922        TOTAL FREE ENERGY PREDICTED BY IDOCK:   -7.66 KCAL/MOL
REMARK 923 INTER-LIGAND FREE ENERGY PREDICTED BY IDOCK:   -7.03 KCAL/MOL
REMARK 924 INTRA-LIGAND FREE ENERGY PREDICTED BY IDOCK:   -0.63 KCAL/MOL
REMARK 927      BINDING AFFINITY PREDICTED BY RF-SCORE:    0.00 PKD
ROOT
HETATM    1  N   UNL     1     -12.162  11.484  63.096  1.00  0.00    -0.932 NA 
HETATM    2  H1  UNL     1     -13.128  11.318  62.813  1.00  0.00     0.000 HD 
HETATM    3  C   UNL     1     -11.881  12.320  64.182  1.00  0.00    -0.419 A  
HETATM    4  H2  UNL     1     -11.717  10.580  63.260  1.00  0.00     0.000 HD 
HETATM    5  C   UNL     1     -10.558  12.545  64.569  1.00  0.00    -0.363 A  
HETATM    6  C   UNL     1     -10.259  13.426  65.615  1.00  0.00    -0.292 A  
HETATM    7  C   UNL     1     -11.279  14.148  66.251  1.00  0.00    -0.329 A  
HETATM    8  O   UNL     1      -8.957  13.532  66.021  1.00  0.00    -0.444 OA 
HETATM    9  C   UNL     1     -12.887  13.099  64.754  1.00  0.00    -0.298 A  
HETATM   10  C   UNL     1     -12.596  13.988  65.794  1.00  0.00    -0.512 A  
HETATM   11  H   UNL     1      -8.755  14.130  66.731  1.00  0.00     0.000 HD 
ENDROOT
BRANCH   7  12
HETATM   12  C   UNL     1     -11.076  15.006  67.449  1.00  0.00    -0.324 C  
HETATM   13  O   UNL     1     -11.870  15.033  68.380  1.00  0.00    -0.319 OA 
BRANCH  12  14
HETATM   14  O   UNL     1      -9.907  15.739  67.347  1.00  0.00    -0.230 OA 
BRANCH  14  15
HETATM   15  C   UNL     1      -9.988  17.142  67.394  1.00  0.00    -0.280 A  
HETATM   16  C   UNL     1     -10.339  17.896  66.274  1.00  0.00    -0.364 A  
HETATM   17  C   UNL     1     -10.525  19.272  66.403  1.00  0.00    -0.563 A  
HETATM   18  C   UNL     1     -10.378  19.883  67.649  1.00  0.00    -0.557 A  
HETATM   19  C   UNL     1     -10.047  19.119  68.770  1.00  0.00    -0.445 A  
HETATM   20  C   UNL     1      -9.857  17.741  68.645  1.00  0.00    -0.359 A  
ENDBRANCH  14  15
ENDBRANCH  12  14
ENDBRANCH   7  12
TORSDOF 3
ENDMDL
MODEL       20
REMARK 921   NORMALIZED FREE ENERGY PREDICTED BY IDOCK:   -5.99 KCAL/MOL
REMARK 922        TOTAL FREE ENERGY PREDICTED BY IDOCK:   -7.63 KCAL/MOL
REMARK 923 INTER-LIGAND FREE ENERGY PREDICTED BY IDOCK:   -6.96 KCAL/MOL
REMARK 924 INTRA-LIGAND FREE ENERGY PREDICTED BY IDOCK:   -0.67 KCAL/MOL
REMARK 927      BINDING AFFINITY PREDICTED BY RF-SCORE:    0.00 PKD
ROOT
HETATM    1  N   UNL     1     -13.219  16.127  73.985  1.00  0.00    -0.941 NA 
HETATM    2  H1  UNL     1     -14.046  15.917  74.545  1.00  0.00     0.000 HD 
HETATM    3  C   UNL     1     -12.912  15.349  72.863  1.00  0.00    -0.470 A  
HETATM    4  H2  UNL     1     -13.267  17.105  73.696  1.00  0.00     0.000 HD 
HETATM    5  C   UNL     1     -11.781  15.637  72.098  1.00  0.00    -0.576 A  
HETATM    6  C   UNL     1     -11.429  14.830  71.009  1.00  0.00    -0.216 A  
HETATM    7  C   UNL     1     -12.171  13.680  70.708  1.00  0.00    -0.424 A  
HETATM    8  O   UNL     1     -10.373  15.215  70.232  1.00  0.00    -0.481 OA 
HETATM    9  C   UNL     1     -13.600  14.160  72.619  1.00  0.00    -0.618 A  
HETATM   10  C   UNL     1     -13.250  13.343  71.538  1.00  0.00    -0.395 A  
HETATM   11  H   UNL     1     -10.134  14.668  69.493  1.00  0.00     0.000 HD 
ENDROOT
BRANCH   7  12
HETATM   12  C   UNL     1     -11.953  12.834  69.503  1.00  0.00    -0.276 C  
HETATM   13  O   UNL     1     -11.451  13.270  68.476  1.00  0.00    -0.268 OA 
BRANCH  12  14
HETATM   14  O   UNL     1     -12.391  11.539  69.716  1.00  0.00    -0.240 OA 
BRANCH  14  15
HETATM   15  C   UNL     1     -11.462  10.579  70.153  1.00  0.00    -0.325 A  
HETATM   16  C   UNL     1     -10.229  10.408  69.521  1.00  0.00    -0.258 A  
HETATM   17  C   UNL     1      -9.294   9.530  70.068  1.00  0.00    -0.265 A  
HETATM   18  C   UNL     1      -9.585   8.844  71.247  1.00  0.00    -0.348 A  
HETATM   19  C   UNL     1     -10.812   9.036  71.886  1.00  0.00    -0.413 A  
HETATM   20  C   UNL     1     -11.753   9.912  71.342  1.00  0.00    -0.449 A  
ENDBRANCH  14  15
ENDBRANCH  12  14
ENDBRANCH   7  12
TORSDOF 3
ENDMDL
MODEL       21
REMARK 921   NORMALIZED FREE ENERGY PREDICTED BY IDOCK:   -5.96 KCAL/MOL
REMARK 922        TOTAL FREE ENERGY PREDICTED BY IDOCK:   -7.60 KCAL/MOL
REMARK 923 INTER-LIGAND FREE ENERGY PREDICTED BY IDOCK:   -6.97 KCAL/MOL
REMARK 924 INTRA-LIGAND FREE ENERGY PREDICTED BY IDOCK:   -0.63 KCAL/MOL
REMARK 927      BINDING AFFINITY PREDICTED BY RF-SCORE:    0.00 PKD
ROOT
HETATM    1  N   UNL     1     -13.915   8.945  73.294  1.00  0.00    -1.217 NA 
HETATM    2  H1  UNL     1     -13.929   7.944  73.487  1.00  0.00     0.000 HD 
HETATM    3  C   UNL     1     -13.196   9.441  72.200  1.00  0.00    -0.460 A  
HETATM    4  H2  UNL     1     -14.879   9.271  73.220  1.00  0.00     0.000 HD 
HETATM    5  C   UNL     1     -13.178  10.812  71.936  1.00  0.00    -0.524 A  
HETATM    6  C   UNL     1     -12.414  11.327  70.882  1.00  0.00    -0.394 A  
HETATM    7  C   UNL     1     -11.603  10.482  70.113  1.00  0.00    -0.408 A  
HETATM    8  O   UNL     1     -12.513  12.662  70.603  1.00  0.00    -0.318 OA 
HETATM    9  C   UNL     1     -12.325   8.612  71.493  1.00  0.00    -0.370 A  
HETATM   10  C   UNL     1     -11.551   9.120  70.443  1.00  0.00    -0.181 A  
HETATM   11  H   UNL     1     -11.994  13.011  69.887  1.00  0.00     0.000 HD 
ENDROOT
BRANCH   7  12
HETATM   12  C   UNL     1     -10.857  10.913  68.899  1.00  0.00    -0.219 C  
HETATM   13  O   UNL     1      -9.635  10.904  68.841  1.00  0.00    -0.192 OA 
BRANCH  12  14
HETATM   14  O   UNL     1     -11.723  11.309  67.895  1.00  0.00    -0.534 OA 
BRANCH  14  15
HETATM   15  C   UNL     1     -11.273  12.251  66.954  1.00  0.00    -0.312 A  
HETATM   16  C   UNL     1     -10.812  11.869  65.693  1.00  0.00    -0.333 A  
HETATM   17  C   UNL     1     -10.493  12.848  64.753  1.00  0.00    -0.371 A  
HETATM   18  C   UNL     1     -10.652  14.197  65.068  1.00  0.00    -0.436 A  
HETATM   19  C   UNL     1     -11.135  14.573  66.325  1.00  0.00    -0.332 A  
HETATM   20  C   UNL     1     -11.453  13.596  67.270  1.00  0.00    -0.370 A  
ENDBRANCH  14  15
ENDBRANCH  12  14
ENDBRANCH   7  12
TORSDOF 3
ENDMDL
MODEL       22
REMARK 921   NORMALIZED FREE ENERGY PREDICTED BY IDOCK:   -5.95 KCAL/MOL
REMARK 922        TOTAL FREE ENERGY PREDICTED BY IDOCK:   -7.59 KCAL/MOL
REMARK 923 INTER-LIGAND FREE ENERGY PREDICTED BY IDOCK:   -6.89 KCAL/MOL
REMARK 924 INTRA-LIGAND FREE ENERGY PREDICTED BY IDOCK:   -0.70 KCAL/MOL
REMARK 927      BINDING AFFINITY PREDICTED BY RF-SCORE:    0.00 PKD
ROOT
HETATM    1  N   UNL     1     -12.724  14.747  73.236  1.00  0.00    -0.490 NA 
HETATM    2  H1  UNL     1     -13.200  13.934  73.628  1.00  0.00     0.000 HD 
HETATM    3  C   UNL     1     -12.424  14.794  71.870  1.00  0.00    -0.340 A  
HETATM    4  H2  UNL     1     -13.261  15.580  73.477  1.00  0.00     0.000 HD 
HETATM    5  C   UNL     1     -11.774  15.907  71.333  1.00  0.00    -0.530 A  
HETATM    6  C   UNL     1     -11.414  15.942  69.981  1.00  0.00    -0.354 A  
HETATM    7  C   UNL     1     -11.643  14.833  69.155  1.00  0.00    -0.330 A  
HETATM    8  O   UNL     1     -10.873  17.095  69.484  1.00  0.00    -0.380 OA 
HETATM    9  C   UNL     1     -12.575  13.659  71.074  1.00  0.00    -0.441 A  
HETATM   10  C   UNL     1     -12.210  13.682  69.722  1.00  0.00    -0.350 A  
HETATM   11  H   UNL     1     -10.628  17.118  68.566  1.00  0.00     0.000 HD 
ENDROOT
BRANCH   7  12
HETATM   12  C   UNL     1     -11.413  14.820  67.685  1.00  0.00    -0.347 C  
HETATM   13  O   UNL     1     -10.484  15.420  67.160  1.00  0.00    -0.277 OA 
BRANCH  12  14
HETATM   14  O   UNL     1     -12.372  14.064  67.035  1.00  0.00    -0.397 OA 
BRANCH  14  15
HETATM   15  C   UNL     1     -11.977  13.275  65.941  1.00  0.00    -0.419 A  
HETATM   16  C   UNL     1     -12.239  13.661  64.625  1.00  0.00    -0.448 A  
HETATM   17  C   UNL     1     -11.719  12.907  63.573  1.00  0.00    -0.576 A  
HETATM   18  C   UNL     1     -10.929  11.788  63.839  1.00  0.00    -0.476 A  
HETATM   19  C   UNL     1     -10.654  11.420  65.158  1.00  0.00    -0.352 A  
HETATM   20  C   UNL     1     -11.174  12.170  66.215  1.00  0.00    -0.382 A  
ENDBRANCH  14  15
ENDBRANCH  12  14
ENDBRANCH   7  12
TORSDOF 3
ENDMDL
MODEL       23
REMARK 921   NORMALIZED FREE ENERGY PREDICTED BY IDOCK:   -5.93 KCAL/MOL
REMARK 922        TOTAL FREE ENERGY PREDICTED BY IDOCK:   -7.56 KCAL/MOL
REMARK 923 INTER-LIGAND FREE ENERGY PREDICTED BY IDOCK:   -6.90 KCAL/MOL
REMARK 924 INTRA-LIGAND FREE ENERGY PREDICTED BY IDOCK:   -0.66 KCAL/MOL
REMARK 927      BINDING AFFINITY PREDICTED BY RF-SCORE:    0.00 PKD
ROOT
HETATM    1  N   UNL     1     -13.555  10.054  72.371  1.00  0.00    -0.599 NA 
HETATM    2  H1  UNL     1     -13.362   9.124  72.000  1.00  0.00     0.000 HD 
HETATM    3  C   UNL     1     -13.145  11.191  71.665  1.00  0.00    -0.424 A  
HETATM    4  H2  UNL     1     -14.557  10.128  72.547  1.00  0.00     0.000 HD 
HETATM    5  C   UNL     1     -13.410  12.465  72.173  1.00  0.00    -0.508 A  
HETATM    6  C   UNL     1     -12.953  13.609  71.508  1.00  0.00    -0.360 A  
HETATM    7  C   UNL     1     -12.166  13.494  70.354  1.00  0.00    -0.426 A  
HETATM    8  O   UNL     1     -13.327  14.832  71.991  1.00  0.00    -0.318 OA 
HETATM    9  C   UNL     1     -12.292  11.072  70.569  1.00  0.00    -0.462 A  
HETATM   10  C   UNL     1     -11.823  12.211  69.903  1.00  0.00    -0.392 A  
HETATM   11  H   UNL     1     -13.017  15.608  71.540  1.00  0.00     0.000 HD 
ENDROOT
BRANCH   7  12
HETATM   12  C   UNL     1     -11.742  14.644  69.511  1.00  0.00    -0.324 C  
HETATM   13  O   UNL     1     -12.140  15.785  69.706  1.00  0.00    -0.353 OA 
BRANCH  12  14
HETATM   14  O   UNL     1     -10.870  14.240  68.515  1.00  0.00    -0.238 OA 
BRANCH  14  15
HETATM   15  C   UNL     1     -11.221  14.485  67.176  1.00  0.00    -0.333 A  
HETATM   16  C   UNL     1     -10.527  15.406  66.391  1.00  0.00    -0.307 A  
HETATM   17  C   UNL     1     -10.835  15.522  65.036  1.00  0.00    -0.468 A  
HETATM   18  C   UNL     1     -11.816  14.708  64.470  1.00  0.00    -0.442 A  
HETATM   19  C   UNL     1     -12.492  13.773  65.257  1.00  0.00    -0.512 A  
HETATM   20  C   UNL     1     -12.190  13.655  66.615  1.00  0.00    -0.437 A  
ENDBRANCH  14  15
ENDBRANCH  12  14
ENDBRANCH   7  12
TORSDOF 3
ENDMDL
MODEL       24
REMARK 921   NORMALIZED FREE ENERGY PREDICTED BY IDOCK:   -5.92 KCAL/MOL
REMARK 922        TOTAL FREE ENERGY PREDICTED BY IDOCK:   -7.56 KCAL/MOL
REMARK 923 INTER-LIGAND FREE ENERGY PREDICTED BY IDOCK:   -6.97 KCAL/MOL
REMARK 924 INTRA-LIGAND FREE ENERGY PREDICTED BY IDOCK:   -0.58 KCAL/MOL
REMARK 927      BINDING AFFINITY PREDICTED BY RF-SCORE:    0.00 PKD
ROOT
HETATM    1  N   UNL     1     -12.334  13.972  63.087  1.00  0.00    -1.094 NA 
HETATM    2  H1  UNL     1     -12.077  13.408  62.276  1.00  0.00     0.000 HD 
HETATM    3  C   UNL     1     -12.011  13.537  64.377  1.00  0.00    -0.422 A  
HETATM    4  H2  UNL     1     -11.953  14.910  62.959  1.00  0.00     0.000 HD 
HETATM    5  C   UNL     1     -12.362  14.309  65.486  1.00  0.00    -0.417 A  
HETATM    6  C   UNL     1     -12.100  13.858  66.785  1.00  0.00    -0.439 A  
HETATM    7  C   UNL     1     -11.538  12.591  66.997  1.00  0.00    -0.437 A  
HETATM    8  O   UNL     1     -12.370  14.697  67.830  1.00  0.00    -0.602 OA 
HETATM    9  C   UNL     1     -11.532  12.244  64.587  1.00  0.00    -0.392 A  
HETATM   10  C   UNL     1     -11.275  11.780  65.883  1.00  0.00    -0.345 A  
HETATM   11  H   UNL     1     -12.192  14.390  68.711  1.00  0.00     0.000 HD 
ENDROOT
BRANCH   7  12
HETATM   12  C   UNL     1     -11.108  12.077  68.325  1.00  0.00    -0.243 C  
HETATM   13  O   UNL     1     -10.553  12.785  69.156  1.00  0.00    -0.103 OA 
BRANCH  12  14
HETATM   14  O   UNL     1     -11.415  10.735  68.466  1.00  0.00    -0.279 OA 
BRANCH  14  15
HETATM   15  C   UNL     1     -11.613  10.224  69.760  1.00  0.00    -0.227 A  
HETATM   16  C   UNL     1     -12.746  10.541  70.510  1.00  0.00    -0.385 A  
HETATM   17  C   UNL     1     -12.955   9.911  71.737  1.00  0.00    -0.549 A  
HETATM   18  C   UNL     1     -12.046   8.960  72.198  1.00  0.00    -0.430 A  
HETATM   19  C   UNL     1     -10.924   8.632  71.432  1.00  0.00    -0.341 A  
HETATM   20  C   UNL     1     -10.709   9.261  70.204  1.00  0.00    -0.269 A  
ENDBRANCH  14  15
ENDBRANCH  12  14
ENDBRANCH   7  12
TORSDOF 3
ENDMDL
MODEL       25
REMARK 921   NORMALIZED FREE ENERGY PREDICTED BY IDOCK:   -5.92 KCAL/MOL
REMARK 922        TOTAL FREE ENERGY PREDICTED BY IDOCK:   -7.55 KCAL/MOL
REMARK 923 INTER-LIGAND FREE ENERGY PREDICTED BY IDOCK:   -6.89 KCAL/MOL
REMARK 924 INTRA-LIGAND FREE ENERGY PREDICTED BY IDOCK:   -0.66 KCAL/MOL
REMARK 927      BINDING AFFINITY PREDICTED BY RF-SCORE:    0.00 PKD
ROOT
HETATM    1  N   UNL     1     -13.697  13.425  72.685  1.00  0.00    -0.722 NA 
HETATM    2  H1  UNL     1     -13.681  14.440  72.786  1.00  0.00     0.000 HD 
HETATM    3  C   UNL     1     -13.011  12.812  71.630  1.00  0.00    -0.303 A  
HETATM    4  H2  UNL     1     -13.378  13.009  73.561  1.00  0.00     0.000 HD 
HETATM    5  C   UNL     1     -13.033  11.423  71.492  1.00  0.00    -0.505 A  
HETATM    6  C   UNL     1     -12.402  10.801  70.408  1.00  0.00    -0.353 A  
HETATM    7  C   UNL     1     -11.791  11.568  69.406  1.00  0.00    -0.417 A  
HETATM    8  O   UNL     1     -12.365   9.435  70.376  1.00  0.00    -0.478 OA 
HETATM    9  C   UNL     1     -12.481  13.579  70.593  1.00  0.00    -0.405 A  
HETATM   10  C   UNL     1     -11.855  12.966  69.500  1.00  0.00    -0.383 A  
HETATM   11  H   UNL     1     -11.937   9.014  69.640  1.00  0.00     0.000 HD 
ENDROOT
BRANCH   7  12
HETATM   12  C   UNL     1     -10.990  11.001  68.288  1.00  0.00    -0.235 C  
HETATM   13  O   UNL     1     -10.826   9.797  68.142  1.00  0.00    -0.242 OA 
BRANCH  12  14
HETATM   14  O   UNL     1     -10.481  12.002  67.479  1.00  0.00    -0.207 OA 
BRANCH  14  15
HETATM   15  C   UNL     1     -10.892  12.053  66.136  1.00  0.00    -0.286 A  
HETATM   16  C   UNL     1     -10.175  11.415  65.123  1.00  0.00    -0.328 A  
HETATM   17  C   UNL     1     -10.689  11.392  63.827  1.00  0.00    -0.470 A  
HETATM   18  C   UNL     1     -11.920  11.989  63.554  1.00  0.00    -0.605 A  
HETATM   19  C   UNL     1     -12.642  12.608  64.577  1.00  0.00    -0.491 A  
HETATM   20  C   UNL     1     -12.130  12.636  65.875  1.00  0.00    -0.459 A  
ENDBRANCH  14  15
ENDBRANCH  12  14
ENDBRANCH   7  12
TORSDOF 3
ENDMDL
MODEL       26
REMARK 921   NORMALIZED FREE ENERGY PREDICTED BY IDOCK:   -5.91 KCAL/MOL
REMARK 922        TOTAL FREE ENERGY PREDICTED BY IDOCK:   -7.55 KCAL/MOL
REMARK 923 INTER-LIGAND FREE ENERGY PREDICTED BY IDOCK:   -7.13 KCAL/MOL
REMARK 924 INTRA-LIGAND FREE ENERGY PREDICTED BY IDOCK:   -0.41 KCAL/MOL
REMARK 927      BINDING AFFINITY PREDICTED BY RF-SCORE:    0.00 PKD
ROOT
HETATM    1  N   UNL     1     -12.592  14.193  63.302  1.00  0.00    -0.991 NA 
HETATM    2  H1  UNL     1     -12.386  14.749  62.471  1.00  0.00     0.000 HD 
HETATM    3  C   UNL     1     -12.101  14.587  64.551  1.00  0.00    -0.484 A  
HETATM    4  H2  UNL     1     -13.604  14.084  63.372  1.00  0.00     0.000 HD 
HETATM    5  C   UNL     1     -12.384  13.826  65.688  1.00  0.00    -0.517 A  
HETATM    6  C   UNL     1     -11.850  14.176  66.934  1.00  0.00    -0.431 A  
HETATM    7  C   UNL     1     -10.969  15.259  67.051  1.00  0.00    -0.324 A  
HETATM    8  O   UNL     1     -12.240  13.458  68.030  1.00  0.00    -0.289 OA 
HETATM    9  C   UNL     1     -11.159  15.611  64.650  1.00  0.00    -0.387 A  
HETATM   10  C   UNL     1     -10.613  15.962  65.890  1.00  0.00    -0.348 A  
HETATM   11  H   UNL     1     -11.878  13.696  68.876  1.00  0.00     0.000 HD 
ENDROOT
BRANCH   7  12
HETATM   12  C   UNL     1     -10.452  15.783  68.344  1.00  0.00    -0.245 C  
HETATM   13  O   UNL     1      -9.685  15.144  69.053  1.00  0.00    -0.216 OA 
BRANCH  12  14
HETATM   14  O   UNL     1     -10.953  17.045  68.609  1.00  0.00    -0.312 OA 
BRANCH  14  15
HETATM   15  C   UNL     1     -10.207  18.164  68.198  1.00  0.00    -0.388 A  
HETATM   16  C   UNL     1      -8.829  18.244  68.402  1.00  0.00    -0.321 A  
HETATM   17  C   UNL     1      -8.118  19.317  67.867  1.00  0.00    -0.325 A  
HETATM   18  C   UNL     1      -8.779  20.290  67.118  1.00  0.00    -0.429 A  
HETATM   19  C   UNL     1     -10.155  20.192  66.899  1.00  0.00    -0.592 A  
HETATM   20  C   UNL     1     -10.873  19.121  67.435  1.00  0.00    -0.533 A  
ENDBRANCH  14  15
ENDBRANCH  12  14
ENDBRANCH   7  12
TORSDOF 3
ENDMDL
MODEL       27
REMARK 921   NORMALIZED FREE ENERGY PREDICTED BY IDOCK:   -5.89 KCAL/MOL
REMARK 922        TOTAL FREE ENERGY PREDICTED BY IDOCK:   -7.52 KCAL/MOL
REMARK 923 INTER-LIGAND FREE ENERGY PREDICTED BY IDOCK:   -6.98 KCAL/MOL
REMARK 924 INTRA-LIGAND FREE ENERGY PREDICTED BY IDOCK:   -0.54 KCAL/MOL
REMARK 927      BINDING AFFINITY PREDICTED BY RF-SCORE:    0.00 PKD
ROOT
HETATM    1  N   UNL     1     -13.540  15.623  72.886  1.00  0.00    -0.562 NA 
HETATM    2  H1  UNL     1     -13.829  15.198  73.767  1.00  0.00     0.000 HD 
HETATM    3  C   UNL     1     -13.138  14.816  71.815  1.00  0.00    -0.336 A  
HETATM    4  H2  UNL     1     -14.289  16.236  72.564  1.00  0.00     0.000 HD 
HETATM    5  C   UNL     1     -12.742  15.398  70.609  1.00  0.00    -0.490 A  
HETATM    6  C   UNL     1     -12.280  14.608  69.550  1.00  0.00    -0.258 A  
HETATM    7  C   UNL     1     -12.145  13.221  69.705  1.00  0.00    -0.355 A  
HETATM    8  O   UNL     1     -12.004  15.218  68.358  1.00  0.00    -0.514 OA 
HETATM    9  C   UNL     1     -12.923  13.451  72.000  1.00  0.00    -0.409 A  
HETATM   10  C   UNL     1     -12.453  12.653  70.950  1.00  0.00    -0.368 A  
HETATM   11  H   UNL     1     -11.690  14.680  67.640  1.00  0.00     0.000 HD 
ENDROOT
BRANCH   7  12
HETATM   12  C   UNL     1     -11.785  12.286  68.605  1.00  0.00    -0.328 C  
HETATM   13  O   UNL     1     -12.199  11.135  68.559  1.00  0.00    -0.600 OA 
BRANCH  12  14
HETATM   14  O   UNL     1     -10.946  12.892  67.688  1.00  0.00    -0.236 OA 
BRANCH  14  15
HETATM   15  C   UNL     1     -11.074  12.549  66.330  1.00  0.00    -0.290 A  
HETATM   16  C   UNL     1     -10.239  11.607  65.728  1.00  0.00    -0.281 A  
HETATM   17  C   UNL     1     -10.486  11.212  64.414  1.00  0.00    -0.418 A  
HETATM   18  C   UNL     1     -11.572  11.742  63.717  1.00  0.00    -0.508 A  
HETATM   19  C   UNL     1     -12.417  12.669  64.334  1.00  0.00    -0.509 A  
HETATM   20  C   UNL     1     -12.172  13.070  65.648  1.00  0.00    -0.521 A  
ENDBRANCH  14  15
ENDBRANCH  12  14
ENDBRANCH   7  12
TORSDOF 3
ENDMDL
MODEL       28
REMARK 921   NORMALIZED FREE ENERGY PREDICTED BY IDOCK:   -5.83 KCAL/MOL
REMARK 922        TOTAL FREE ENERGY PREDICTED BY IDOCK:   -7.44 KCAL/MOL
REMARK 923 INTER-LIGAND FREE ENERGY PREDICTED BY IDOCK:   -6.79 KCAL/MOL
REMARK 924 INTRA-LIGAND FREE ENERGY PREDICTED BY IDOCK:   -0.66 KCAL/MOL
REMARK 927      BINDING AFFINITY PREDICTED BY RF-SCORE:    0.00 PKD
ROOT
HETATM    1  N   UNL     1     -13.612  12.812  72.779  1.00  0.00    -0.684 NA 
HETATM    2  H1  UNL     1     -13.727  11.876  73.169  1.00  0.00     0.000 HD 
HETATM    3  C   UNL     1     -13.076  12.979  71.497  1.00  0.00    -0.310 A  
HETATM    4  H2  UNL     1     -14.514  13.288  72.816  1.00  0.00     0.000 HD 
HETATM    5  C   UNL     1     -12.919  14.260  70.964  1.00  0.00    -0.411 A  
HETATM    6  C   UNL     1     -12.329  14.445  69.708  1.00  0.00    -0.285 A  
HETATM    7  C   UNL     1     -11.825  13.352  68.991  1.00  0.00    -0.378 A  
HETATM    8  O   UNL     1     -12.294  15.710  69.189  1.00  0.00    -0.598 OA 
HETATM    9  C   UNL     1     -12.499  11.901  70.826  1.00  0.00    -0.384 A  
HETATM   10  C   UNL     1     -11.899  12.078  69.574  1.00  0.00    -0.390 A  
HETATM   11  H   UNL     1     -11.893  15.835  68.337  1.00  0.00     0.000 HD 
ENDROOT
BRANCH   7  12
HETATM   12  C   UNL     1     -11.298  13.431  67.602  1.00  0.00    -0.290 C  
HETATM   13  O   UNL     1     -10.430  14.229  67.273  1.00  0.00    -0.266 OA 
BRANCH  12  14
HETATM   14  O   UNL     1     -11.917  12.507  66.779  1.00  0.00    -0.518 OA 
BRANCH  14  15
HETATM   15  C   UNL     1     -11.174  11.940  65.728  1.00  0.00    -0.312 A  
HETATM   16  C   UNL     1     -10.354  10.828  65.924  1.00  0.00    -0.302 A  
HETATM   17  C   UNL     1      -9.735  10.230  64.827  1.00  0.00    -0.397 A  
HETATM   18  C   UNL     1      -9.952  10.731  63.544  1.00  0.00    -0.403 A  
HETATM   19  C   UNL     1     -10.791  11.832  63.352  1.00  0.00    -0.460 A  
HETATM   20  C   UNL     1     -11.411  12.436  64.448  1.00  0.00    -0.396 A  
ENDBRANCH  14  15
ENDBRANCH  12  14
ENDBRANCH   7  12
TORSDOF 3
ENDMDL
MODEL       29
REMARK 921   NORMALIZED FREE ENERGY PREDICTED BY IDOCK:   -5.78 KCAL/MOL
REMARK 922        TOTAL FREE ENERGY PREDICTED BY IDOCK:   -7.38 KCAL/MOL
REMARK 923 INTER-LIGAND FREE ENERGY PREDICTED BY IDOCK:   -6.95 KCAL/MOL
REMARK 924 INTRA-LIGAND FREE ENERGY PREDICTED BY IDOCK:   -0.43 KCAL/MOL
REMARK 927      BINDING AFFINITY PREDICTED BY RF-SCORE:    0.00 PKD
ROOT
HETATM    1  N   UNL     1      -9.068   6.687  72.660  1.00  0.00    -0.134 NA 
HETATM    2  H1  UNL     1      -8.179   6.614  72.166  1.00  0.00     0.000 HD 
HETATM    3  C   UNL     1     -10.026   7.620  72.247  1.00  0.00    -0.190 A  
HETATM    4  H2  UNL     1      -9.504   5.764  72.676  1.00  0.00     0.000 HD 
HETATM    5  C   UNL     1     -11.244   7.720  72.922  1.00  0.00    -0.434 A  
HETATM    6  C   UNL     1     -12.187   8.689  72.558  1.00  0.00    -0.303 A  
HETATM    7  C   UNL     1     -11.898   9.619  71.551  1.00  0.00    -0.483 A  
HETATM    8  O   UNL     1     -13.403   8.677  73.183  1.00  0.00    -0.865 OA 
HETATM    9  C   UNL     1      -9.702   8.596  71.305  1.00  0.00    -0.305 A  
HETATM   10  C   UNL     1     -10.635   9.574  70.941  1.00  0.00    -0.395 A  
HETATM   11  H   UNL     1     -14.043   9.334  72.936  1.00  0.00     0.000 HD 
ENDROOT
BRANCH   7  12
HETATM   12  C   UNL     1     -12.876  10.600  71.010  1.00  0.00    -0.402 C  
HETATM   13  O   UNL     1     -13.244  10.586  69.842  1.00  0.00    -0.025 OA 
BRANCH  12  14
HETATM   14  O   UNL     1     -13.283  11.492  71.986  1.00  0.00    -0.509 OA 
BRANCH  14  15
HETATM   15  C   UNL     1     -13.205  12.869  71.713  1.00  0.00    -0.384 A  
HETATM   16  C   UNL     1     -14.010  13.796  72.376  1.00  0.00    -0.651 A  
HETATM   17  C   UNL     1     -13.808  15.159  72.159  1.00  0.00    -0.607 A  
HETATM   18  C   UNL     1     -12.796  15.587  71.299  1.00  0.00    -0.540 A  
HETATM   19  C   UNL     1     -11.981  14.653  70.655  1.00  0.00    -0.380 A  
HETATM   20  C   UNL     1     -12.180  13.288  70.867  1.00  0.00    -0.346 A  
ENDBRANCH  14  15
ENDBRANCH  12  14
ENDBRANCH   7  12
TORSDOF 3
ENDMDL
MODEL       30
REMARK 921   NORMALIZED FREE ENERGY PREDICTED BY IDOCK:   -5.77 KCAL/MOL
REMARK 922        TOTAL FREE ENERGY PREDICTED BY IDOCK:   -7.38 KCAL/MOL
REMARK 923 INTER-LIGAND FREE ENERGY PREDICTED BY IDOCK:   -6.82 KCAL/MOL
REMARK 924 INTRA-LIGAND FREE ENERGY PREDICTED BY IDOCK:   -0.56 KCAL/MOL
REMARK 927      BINDING AFFINITY PREDICTED BY RF-SCORE:    0.00 PKD
ROOT
HETATM    1  N   UNL     1     -12.297  13.269  62.956  1.00  0.00    -0.885 NA 
HETATM    2  H1  UNL     1     -13.258  13.493  62.696  1.00  0.00     0.000 HD 
HETATM    3  C   UNL     1     -11.852  13.493  64.263  1.00  0.00    -0.428 A  
HETATM    4  H2  UNL     1     -12.120  12.292  62.718  1.00  0.00     0.000 HD 
HETATM    5  C   UNL     1     -10.537  13.186  64.619  1.00  0.00    -0.410 A  
HETATM    6  C   UNL     1     -10.061  13.461  65.906  1.00  0.00    -0.293 A  
HETATM    7  C   UNL     1     -10.877  14.111  66.842  1.00  0.00    -0.296 A  
HETATM    8  O   UNL     1      -8.800  13.047  66.233  1.00  0.00    -0.439 OA 
HETATM    9  C   UNL     1     -12.636  14.216  65.162  1.00  0.00    -0.426 A  
HETATM   10  C   UNL     1     -12.165  14.504  66.449  1.00  0.00    -0.274 A  
HETATM   11  H   UNL     1      -8.477  13.234  67.107  1.00  0.00     0.000 HD 
ENDROOT
BRANCH   7  12
HETATM   12  C   UNL     1     -10.507  14.332  68.266  1.00  0.00    -0.247 C  
HETATM   13  O   UNL     1      -9.354  14.251  68.666  1.00  0.00    -0.202 OA 
BRANCH  12  14
HETATM   14  O   UNL     1     -11.621  14.627  69.032  1.00  0.00    -0.268 OA 
BRANCH  14  15
HETATM   15  C   UNL     1     -12.135  13.631  69.881  1.00  0.00    -0.341 A  
HETATM   16  C   UNL     1     -11.884  12.276  69.660  1.00  0.00    -0.393 A  
HETATM   17  C   UNL     1     -12.312  11.337  70.598  1.00  0.00    -0.477 A  
HETATM   18  C   UNL     1     -12.969  11.755  71.755  1.00  0.00    -0.466 A  
HETATM   19  C   UNL     1     -13.198  13.115  71.980  1.00  0.00    -0.543 A  
HETATM   20  C   UNL     1     -12.774  14.058  71.043  1.00  0.00    -0.431 A  
ENDBRANCH  14  15
ENDBRANCH  12  14
ENDBRANCH   7  12
TORSDOF 3
ENDMDL
MODEL       31
REMARK 921   NORMALIZED FREE ENERGY PREDICTED BY IDOCK:   -5.77 KCAL/MOL
REMARK 922        TOTAL FREE ENERGY PREDICTED BY IDOCK:   -7.38 KCAL/MOL
REMARK 923 INTER-LIGAND FREE ENERGY PREDICTED BY IDOCK:   -6.83 KCAL/MOL
REMARK 924 INTRA-LIGAND FREE ENERGY PREDICTED BY IDOCK:   -0.55 KCAL/MOL
REMARK 927      BINDING AFFINITY PREDICTED BY RF-SCORE:    0.00 PKD
ROOT
HETATM    1  N   UNL     1     -13.168   9.014  72.865  1.00  0.00    -0.791 NA 
HETATM    2  H1  UNL     1     -12.991   8.013  72.785  1.00  0.00     0.000 HD 
HETATM    3  C   UNL     1     -12.796   9.879  71.830  1.00  0.00    -0.442 A  
HETATM    4  H2  UNL     1     -14.161   9.150  73.058  1.00  0.00     0.000 HD 
HETATM    5  C   UNL     1     -13.039  11.250  71.940  1.00  0.00    -0.510 A  
HETATM    6  C   UNL     1     -12.618  12.134  70.939  1.00  0.00    -0.247 A  
HETATM    7  C   UNL     1     -11.887  11.665  69.839  1.00  0.00    -0.434 A  
HETATM    8  O   UNL     1     -12.971  13.450  71.046  1.00  0.00    -0.272 OA 
HETATM    9  C   UNL     1     -11.996   9.424  70.782  1.00  0.00    -0.298 A  
HETATM   10  C   UNL     1     -11.563  10.301  69.781  1.00  0.00    -0.294 A  
HETATM   11  H   UNL     1     -12.685  14.049  70.367  1.00  0.00     0.000 HD 
ENDROOT
BRANCH   7  12
HETATM   12  C   UNL     1     -11.507  12.501  68.668  1.00  0.00    -0.306 C  
HETATM   13  O   UNL     1     -10.658  13.380  68.735  1.00  0.00    -0.245 OA 
BRANCH  12  14
HETATM   14  O   UNL     1     -12.233  12.147  67.544  1.00  0.00    -0.474 OA 
BRANCH  14  15
HETATM   15  C   UNL     1     -11.612  12.243  66.286  1.00  0.00    -0.385 A  
HETATM   16  C   UNL     1     -10.517  11.449  65.945  1.00  0.00    -0.309 A  
HETATM   17  C   UNL     1     -10.016  11.494  64.644  1.00  0.00    -0.305 A  
HETATM   18  C   UNL     1     -10.620  12.314  63.691  1.00  0.00    -0.501 A  
HETATM   19  C   UNL     1     -11.729  13.090  64.034  1.00  0.00    -0.497 A  
HETATM   20  C   UNL     1     -12.233  13.051  65.335  1.00  0.00    -0.520 A  
ENDBRANCH  14  15
ENDBRANCH  12  14
ENDBRANCH   7  12
TORSDOF 3
ENDMDL
MODEL       32
REMARK 921   NORMALIZED FREE ENERGY PREDICTED BY IDOCK:   -5.77 KCAL/MOL
REMARK 922        TOTAL FREE ENERGY PREDICTED BY IDOCK:   -7.37 KCAL/MOL
REMARK 923 INTER-LIGAND FREE ENERGY PREDICTED BY IDOCK:   -6.89 KCAL/MOL
REMARK 924 INTRA-LIGAND FREE ENERGY PREDICTED BY IDOCK:   -0.49 KCAL/MOL
REMARK 927      BINDING AFFINITY PREDICTED BY RF-SCORE:    0.00 PKD
ROOT
HETATM    1  N   UNL     1     -13.794   8.913  73.308  1.00  0.00    -1.162 NA 
HETATM    2  H1  UNL     1     -14.327   9.550  73.901  1.00  0.00     0.000 HD 
HETATM    3  C   UNL     1     -13.094   9.405  72.200  1.00  0.00    -0.442 A  
HETATM    4  H2  UNL     1     -13.141   8.395  73.897  1.00  0.00     0.000 HD 
HETATM    5  C   UNL     1     -12.365   8.535  71.388  1.00  0.00    -0.332 A  
HETATM    6  C   UNL     1     -11.709   9.003  70.243  1.00  0.00     0.014 A  
HETATM    7  C   UNL     1     -11.828  10.345  69.856  1.00  0.00    -0.314 A  
HETATM    8  O   UNL     1     -10.926   8.130  69.542  1.00  0.00    -0.399 OA 
HETATM    9  C   UNL     1     -13.284  10.719  71.771  1.00  0.00    -0.523 A  
HETATM   10  C   UNL     1     -12.641  11.194  70.622  1.00  0.00    -0.408 A  
HETATM   11  H   UNL     1     -10.481   8.449  68.765  1.00  0.00     0.000 HD 
ENDROOT
BRANCH   7  12
HETATM   12  C   UNL     1     -11.073  10.963  68.733  1.00  0.00    -0.256 C  
HETATM   13  O   UNL     1      -9.872  11.194  68.797  1.00  0.00    -0.197 OA 
BRANCH  12  14
HETATM   14  O   UNL     1     -11.902  11.227  67.657  1.00  0.00    -0.614 OA 
BRANCH  14  15
HETATM   15  C   UNL     1     -11.567  12.287  66.796  1.00  0.00    -0.369 A  
HETATM   16  C   UNL     1     -11.611  13.617  67.216  1.00  0.00    -0.387 A  
HETATM   17  C   UNL     1     -11.152  14.621  66.364  1.00  0.00    -0.334 A  
HETATM   18  C   UNL     1     -10.638  14.292  65.110  1.00  0.00    -0.423 A  
HETATM   19  C   UNL     1     -10.577  12.957  64.704  1.00  0.00    -0.384 A  
HETATM   20  C   UNL     1     -11.038  11.948  65.553  1.00  0.00    -0.356 A  
ENDBRANCH  14  15
ENDBRANCH  12  14
ENDBRANCH   7  12
TORSDOF 3
ENDMDL
MODEL       33
REMARK 921   NORMALIZED FREE ENERGY PREDICTED BY IDOCK:   -5.75 KCAL/MOL
REMARK 922        TOTAL FREE ENERGY PREDICTED BY IDOCK:   -7.36 KCAL/MOL
REMARK 923 INTER-LIGAND FREE ENERGY PREDICTED BY IDOCK:   -6.71 KCAL/MOL
REMARK 924 INTRA-LIGAND FREE ENERGY PREDICTED BY IDOCK:   -0.64 KCAL/MOL
REMARK 927      BINDING AFFINITY PREDICTED BY RF-SCORE:    0.00 PKD
ROOT
HETATM    1  N   UNL     1     -13.900  13.391  72.698  1.00  0.00    -0.745 NA 
HETATM    2  H1  UNL     1     -14.419  14.027  73.304  1.00  0.00     0.000 HD 
HETATM    3  C   UNL     1     -13.045  13.899  71.714  1.00  0.00    -0.377 A  
HETATM    4  H2  UNL     1     -13.369  12.749  73.286  1.00  0.00     0.000 HD 
HETATM    5  C   UNL     1     -12.334  13.029  70.885  1.00  0.00    -0.376 A  
HETATM    6  C   UNL     1     -11.521  13.522  69.858  1.00  0.00    -0.124 A  
HETATM    7  C   UNL     1     -11.458  14.899  69.601  1.00  0.00    -0.325 A  
HETATM    8  O   UNL     1     -10.769  12.633  69.143  1.00  0.00    -0.411 OA 
HETATM    9  C   UNL     1     -13.050  15.260  71.407  1.00  0.00    -0.529 A  
HETATM   10  C   UNL     1     -12.248  15.762  70.375  1.00  0.00    -0.388 A  
HETATM   11  H   UNL     1     -10.217  12.969  68.445  1.00  0.00     0.000 HD 
ENDROOT
BRANCH   7  12
HETATM   12  C   UNL     1     -10.532  15.527  68.620  1.00  0.00    -0.237 C  
HETATM   13  O   UNL     1      -9.339  15.255  68.575  1.00  0.00    -0.188 OA 
BRANCH  12  14
HETATM   14  O   UNL     1     -11.198  16.426  67.807  1.00  0.00    -0.254 OA 
BRANCH  14  15
HETATM   15  C   UNL     1     -10.613  17.683  67.574  1.00  0.00    -0.343 A  
HETATM   16  C   UNL     1     -10.512  18.220  66.290  1.00  0.00    -0.397 A  
HETATM   17  C   UNL     1     -10.036  19.520  66.126  1.00  0.00    -0.557 A  
HETATM   18  C   UNL     1      -9.682  20.281  67.241  1.00  0.00    -0.590 A  
HETATM   19  C   UNL     1      -9.806  19.744  68.525  1.00  0.00    -0.506 A  
HETATM   20  C   UNL     1     -10.279  18.442  68.694  1.00  0.00    -0.370 A  
ENDBRANCH  14  15
ENDBRANCH  12  14
ENDBRANCH   7  12
TORSDOF 3
ENDMDL
MODEL       34
REMARK 921   NORMALIZED FREE ENERGY PREDICTED BY IDOCK:   -5.74 KCAL/MOL
REMARK 922        TOTAL FREE ENERGY PREDICTED BY IDOCK:   -7.34 KCAL/MOL
REMARK 923 INTER-LIGAND FREE ENERGY PREDICTED BY IDOCK:   -6.85 KCAL/MOL
REMARK 924 INTRA-LIGAND FREE ENERGY PREDICTED BY IDOCK:   -0.48 KCAL/MOL
REMARK 927      BINDING AFFINITY PREDICTED BY RF-SCORE:    0.00 PKD
ROOT
HETATM    1  N   UNL     1     -13.104  12.278  64.719  1.00  0.00    -0.627 NA 
HETATM    2  H1  UNL     1     -13.179  11.435  65.288  1.00  0.00     0.000 HD 
HETATM    3  C   UNL     1     -12.237  13.308  65.101  1.00  0.00    -0.443 A  
HETATM    4  H2  UNL     1     -12.875  12.002  63.764  1.00  0.00     0.000 HD 
HETATM    5  C   UNL     1     -12.133  14.462  64.322  1.00  0.00    -0.461 A  
HETATM    6  C   UNL     1     -11.316  15.526  64.723  1.00  0.00    -0.357 A  
HETATM    7  C   UNL     1     -10.636  15.477  65.948  1.00  0.00    -0.350 A  
HETATM    8  O   UNL     1     -11.170  16.587  63.874  1.00  0.00    -1.440 OA 
HETATM    9  C   UNL     1     -11.632  13.293  66.357  1.00  0.00    -0.387 A  
HETATM   10  C   UNL     1     -10.820  14.355  66.771  1.00  0.00    -0.301 A  
HETATM   11  H   UNL     1     -10.615  17.309  64.147  1.00  0.00     0.000 HD 
ENDROOT
BRANCH   7  12
HETATM   12  C   UNL     1      -9.651  16.495  66.401  1.00  0.00    -0.285 C  
HETATM   13  O   UNL     1      -9.085  17.254  65.625  1.00  0.00    -0.487 OA 
BRANCH  12  14
HETATM   14  O   UNL     1      -9.479  16.449  67.773  1.00  0.00    -0.219 OA 
BRANCH  14  15
HETATM   15  C   UNL     1      -8.418  17.176  68.342  1.00  0.00    -0.241 A  
HETATM   16  C   UNL     1      -8.482  18.560  68.511  1.00  0.00    -0.354 A  
HETATM   17  C   UNL     1      -7.457  19.216  69.191  1.00  0.00    -0.298 A  
HETATM   18  C   UNL     1      -6.387  18.489  69.712  1.00  0.00    -0.160 A  
HETATM   19  C   UNL     1      -6.339  17.101  69.557  1.00  0.00    -0.230 A  
HETATM   20  C   UNL     1      -7.362  16.440  68.875  1.00  0.00    -0.214 A  
ENDBRANCH  14  15
ENDBRANCH  12  14
ENDBRANCH   7  12
TORSDOF 3
ENDMDL
MODEL       35
REMARK 921   NORMALIZED FREE ENERGY PREDICTED BY IDOCK:   -5.73 KCAL/MOL
REMARK 922        TOTAL FREE ENERGY PREDICTED BY IDOCK:   -7.33 KCAL/MOL
REMARK 923 INTER-LIGAND FREE ENERGY PREDICTED BY IDOCK:   -6.73 KCAL/MOL
REMARK 924 INTRA-LIGAND FREE ENERGY PREDICTED BY IDOCK:   -0.61 KCAL/MOL
REMARK 927      BINDING AFFINITY PREDICTED BY RF-SCORE:    0.00 PKD
ROOT
HETATM    1  N   UNL     1     -12.175  15.444  69.162  1.00  0.00    -0.596 NA 
HETATM    2  H1  UNL     1     -11.644  15.536  68.296  1.00  0.00     0.000 HD 
HETATM    3  C   UNL     1     -12.272  14.201  69.797  1.00  0.00    -0.344 A  
HETATM    4  H2  UNL     1     -11.815  16.122  69.834  1.00  0.00     0.000 HD 
HETATM    5  C   UNL     1     -12.999  14.074  70.983  1.00  0.00    -0.378 A  
HETATM    6  C   UNL     1     -13.155  12.826  71.597  1.00  0.00    -0.331 A  
HETATM    7  C   UNL     1     -12.638  11.669  70.997  1.00  0.00    -0.431 A  
HETATM    8  O   UNL     1     -13.787  12.774  72.808  1.00  0.00    -0.696 OA 
HETATM    9  C   UNL     1     -11.832  13.043  69.156  1.00  0.00    -0.360 A  
HETATM   10  C   UNL     1     -11.992  11.789  69.758  1.00  0.00    -0.392 A  
HETATM   11  H   UNL     1     -13.893  11.926  73.224  1.00  0.00     0.000 HD 
ENDROOT
BRANCH   7  12
HETATM   12  C   UNL     1     -12.643  10.323  71.631  1.00  0.00    -0.432 C  
HETATM   13  O   UNL     1     -13.648   9.834  72.129  1.00  0.00    -0.419 OA 
BRANCH  12  14
HETATM   14  O   UNL     1     -11.389   9.740  71.574  1.00  0.00    -0.367 OA 
BRANCH  14  15
HETATM   15  C   UNL     1     -11.297   8.338  71.645  1.00  0.00    -0.272 A  
HETATM   16  C   UNL     1     -11.293   7.543  70.498  1.00  0.00    -0.279 A  
HETATM   17  C   UNL     1     -11.075   6.171  70.615  1.00  0.00    -0.384 A  
HETATM   18  C   UNL     1     -10.846   5.604  71.869  1.00  0.00    -0.302 A  
HETATM   19  C   UNL     1     -10.831   6.410  73.011  1.00  0.00    -0.287 A  
HETATM   20  C   UNL     1     -11.051   7.784  72.899  1.00  0.00    -0.457 A  
ENDBRANCH  14  15
ENDBRANCH  12  14
ENDBRANCH   7  12
TORSDOF 3
ENDMDL
MODEL       36
REMARK 921   NORMALIZED FREE ENERGY PREDICTED BY IDOCK:   -5.73 KCAL/MOL
REMARK 922        TOTAL FREE ENERGY PREDICTED BY IDOCK:   -7.33 KCAL/MOL
REMARK 923 INTER-LIGAND FREE ENERGY PREDICTED BY IDOCK:   -6.72 KCAL/MOL
REMARK 924 INTRA-LIGAND FREE ENERGY PREDICTED BY IDOCK:   -0.61 KCAL/MOL
REMARK 927      BINDING AFFINITY PREDICTED BY RF-SCORE:    0.00 PKD
ROOT
HETATM    1  N   UNL     1     -12.230  10.504  68.708  1.00  0.00    -0.780 NA 
HETATM    2  H1  UNL     1     -12.531   9.789  68.046  1.00  0.00     0.000 HD 
HETATM    3  C   UNL     1     -11.756  11.737  68.244  1.00  0.00    -0.310 A  
HETATM    4  H2  UNL     1     -12.993  10.679  69.362  1.00  0.00     0.000 HD 
HETATM    5  C   UNL     1     -11.344  12.716  69.150  1.00  0.00    -0.339 A  
HETATM    6  C   UNL     1     -10.812  13.930  68.699  1.00  0.00    -0.262 A  
HETATM    7  C   UNL     1     -10.621  14.157  67.329  1.00  0.00    -0.277 A  
HETATM    8  O   UNL     1     -10.521  14.893  69.624  1.00  0.00    -0.320 OA 
HETATM    9  C   UNL     1     -11.488  11.925  66.888  1.00  0.00    -0.390 A  
HETATM   10  C   UNL     1     -10.948  13.132  66.428  1.00  0.00    -0.305 A  
HETATM   11  H   UNL     1     -10.159  15.717  69.318  1.00  0.00     0.000 HD 
ENDROOT
BRANCH   7  12
HETATM   12  C   UNL     1     -10.183  15.455  66.748  1.00  0.00    -0.271 C  
HETATM   13  O   UNL     1      -9.199  15.554  66.028  1.00  0.00    -0.326 OA 
BRANCH  12  14
HETATM   14  O   UNL     1     -11.022  16.485  67.135  1.00  0.00    -0.202 OA 
BRANCH  14  15
HETATM   15  C   UNL     1     -10.496  17.786  67.211  1.00  0.00    -0.353 A  
HETATM   16  C   UNL     1     -10.529  18.658  66.122  1.00  0.00    -0.473 A  
HETATM   17  C   UNL     1     -10.107  19.977  66.285  1.00  0.00    -0.603 A  
HETATM   18  C   UNL     1      -9.674  20.422  67.534  1.00  0.00    -0.571 A  
HETATM   19  C   UNL     1      -9.664  19.550  68.626  1.00  0.00    -0.514 A  
HETATM   20  C   UNL     1     -10.083  18.228  68.467  1.00  0.00    -0.419 A  
ENDBRANCH  14  15
ENDBRANCH  12  14
ENDBRANCH   7  12
TORSDOF 3
ENDMDL
MODEL       37
REMARK 921   NORMALIZED FREE ENERGY PREDICTED BY IDOCK:   -5.72 KCAL/MOL
REMARK 922        TOTAL FREE ENERGY PREDICTED BY IDOCK:   -7.32 KCAL/MOL
REMARK 923 INTER-LIGAND FREE ENERGY PREDICTED BY IDOCK:   -6.83 KCAL/MOL
REMARK 924 INTRA-LIGAND FREE ENERGY PREDICTED BY IDOCK:   -0.48 KCAL/MOL
REMARK 927      BINDING AFFINITY PREDICTED BY RF-SCORE:    0.00 PKD
ROOT
HETATM    1  N   UNL     1     -12.467  11.461  63.298  1.00  0.00    -0.727 NA 
HETATM    2  H1  UNL     1     -12.434  10.510  63.666  1.00  0.00     0.000 HD 
HETATM    3  C   UNL     1     -12.045  12.536  64.088  1.00  0.00    -0.447 A  
HETATM    4  H2  UNL     1     -11.946  11.483  62.420  1.00  0.00     0.000 HD 
HETATM    5  C   UNL     1     -12.089  13.837  63.584  1.00  0.00    -0.330 A  
HETATM    6  C   UNL     1     -11.728  14.927  64.384  1.00  0.00    -0.328 A  
HETATM    7  C   UNL     1     -11.378  14.738  65.727  1.00  0.00    -0.336 A  
HETATM    8  O   UNL     1     -11.691  16.168  63.810  1.00  0.00    -1.404 OA 
HETATM    9  C   UNL     1     -11.781  12.354  65.446  1.00  0.00    -0.452 A  
HETATM   10  C   UNL     1     -11.427  13.439  66.256  1.00  0.00    -0.354 A  
HETATM   11  H   UNL     1     -11.446  16.908  64.353  1.00  0.00     0.000 HD 
ENDROOT
BRANCH   7  12
HETATM   12  C   UNL     1     -10.860  15.812  66.618  1.00  0.00    -0.241 C  
HETATM   13  O   UNL     1     -11.218  15.929  67.782  1.00  0.00    -0.326 OA 
BRANCH  12  14
HETATM   14  O   UNL     1      -9.956  16.621  65.953  1.00  0.00    -0.392 OA 
BRANCH  14  15
HETATM   15  C   UNL     1      -8.603  16.570  66.333  1.00  0.00    -0.312 A  
HETATM   16  C   UNL     1      -7.734  17.637  66.100  1.00  0.00    -0.293 A  
HETATM   17  C   UNL     1      -6.436  17.586  66.606  1.00  0.00    -0.252 A  
HETATM   18  C   UNL     1      -6.019  16.485  67.354  1.00  0.00    -0.188 A  
HETATM   19  C   UNL     1      -6.901  15.430  67.601  1.00  0.00    -0.208 A  
HETATM   20  C   UNL     1      -8.202  15.475  67.095  1.00  0.00    -0.246 A  
ENDBRANCH  14  15
ENDBRANCH  12  14
ENDBRANCH   7  12
TORSDOF 3
ENDMDL
MODEL       38
REMARK 921   NORMALIZED FREE ENERGY PREDICTED BY IDOCK:   -5.68 KCAL/MOL
REMARK 922        TOTAL FREE ENERGY PREDICTED BY IDOCK:   -7.27 KCAL/MOL
REMARK 923 INTER-LIGAND FREE ENERGY PREDICTED BY IDOCK:   -6.79 KCAL/MOL
REMARK 924 INTRA-LIGAND FREE ENERGY PREDICTED BY IDOCK:   -0.48 KCAL/MOL
REMARK 927      BINDING AFFINITY PREDICTED BY RF-SCORE:    0.00 PKD
ROOT
HETATM    1  N   UNL     1     -13.598  15.825  72.688  1.00  0.00    -0.553 NA 
HETATM    2  H1  UNL     1     -13.340  16.760  72.370  1.00  0.00     0.000 HD 
HETATM    3  C   UNL     1     -13.143  14.698  71.995  1.00  0.00    -0.337 A  
HETATM    4  H2  UNL     1     -13.327  15.733  73.667  1.00  0.00     0.000 HD 
HETATM    5  C   UNL     1     -13.495  13.418  72.430  1.00  0.00    -0.685 A  
HETATM    6  C   UNL     1     -13.098  12.284  71.713  1.00  0.00    -0.344 A  
HETATM    7  C   UNL     1     -12.394  12.415  70.508  1.00  0.00    -0.346 A  
HETATM    8  O   UNL     1     -13.381  11.054  72.237  1.00  0.00    -0.633 OA 
HETATM    9  C   UNL     1     -12.519  14.834  70.755  1.00  0.00    -0.402 A  
HETATM   10  C   UNL     1     -12.126  13.705  70.026  1.00  0.00    -0.417 A  
HETATM   11  H   UNL     1     -13.111  10.284  71.750  1.00  0.00     0.000 HD 
ENDROOT
BRANCH   7  12
HETATM   12  C   UNL     1     -11.822  11.275  69.743  1.00  0.00    -0.364 C  
HETATM   13  O   UNL     1     -12.070  11.087  68.559  1.00  0.00    -0.573 OA 
BRANCH  12  14
HETATM   14  O   UNL     1     -11.007  10.494  70.544  1.00  0.00    -0.271 OA 
BRANCH  14  15
HETATM   15  C   UNL     1     -11.077   9.096  70.413  1.00  0.00    -0.253 A  
HETATM   16  C   UNL     1     -12.020   8.340  71.110  1.00  0.00    -0.290 A  
HETATM   17  C   UNL     1     -12.130   6.974  70.853  1.00  0.00    -0.403 A  
HETATM   18  C   UNL     1     -11.314   6.376  69.892  1.00  0.00    -0.500 A  
HETATM   19  C   UNL     1     -10.386   7.143  69.183  1.00  0.00    -0.205 A  
HETATM   20  C   UNL     1     -10.271   8.511  69.439  1.00  0.00    -0.211 A  
ENDBRANCH  14  15
ENDBRANCH  12  14
ENDBRANCH   7  12
TORSDOF 3
ENDMDL
MODEL       39
REMARK 921   NORMALIZED FREE ENERGY PREDICTED BY IDOCK:   -5.67 KCAL/MOL
REMARK 922        TOTAL FREE ENERGY PREDICTED BY IDOCK:   -7.26 KCAL/MOL
REMARK 923 INTER-LIGAND FREE ENERGY PREDICTED BY IDOCK:   -6.55 KCAL/MOL
REMARK 924 INTRA-LIGAND FREE ENERGY PREDICTED BY IDOCK:   -0.71 KCAL/MOL
REMARK 927      BINDING AFFINITY PREDICTED BY RF-SCORE:    0.00 PKD
ROOT
HETATM    1  N   UNL     1     -11.411  16.590  63.860  1.00  0.00    -1.599 NA 
HETATM    2  H1  UNL     1     -10.911  17.444  64.105  1.00  0.00     0.000 HD 
HETATM    3  C   UNL     1     -11.553  15.563  64.800  1.00  0.00    -0.256 A  
HETATM    4  H2  UNL     1     -12.339  16.847  63.521  1.00  0.00     0.000 HD 
HETATM    5  C   UNL     1     -12.238  14.394  64.464  1.00  0.00    -0.483 A  
HETATM    6  C   UNL     1     -12.336  13.335  65.374  1.00  0.00    -0.479 A  
HETATM    7  C   UNL     1     -11.691  13.404  66.616  1.00  0.00    -0.428 A  
HETATM    8  O   UNL     1     -13.104  12.256  65.033  1.00  0.00    -0.546 OA 
HETATM    9  C   UNL     1     -10.841  15.599  65.998  1.00  0.00    -0.276 A  
HETATM   10  C   UNL     1     -10.925  14.541  66.911  1.00  0.00    -0.316 A  
HETATM   11  H   UNL     1     -13.170  11.538  65.651  1.00  0.00     0.000 HD 
ENDROOT
BRANCH   7  12
HETATM   12  C   UNL     1     -11.840  12.389  67.695  1.00  0.00    -0.295 C  
HETATM   13  O   UNL     1     -11.966  12.696  68.873  1.00  0.00    -0.302 OA 
BRANCH  12  14
HETATM   14  O   UNL     1     -11.810  11.105  67.181  1.00  0.00    -0.466 OA 
BRANCH  14  15
HETATM   15  C   UNL     1     -10.593  10.401  67.204  1.00  0.00    -0.261 A  
HETATM   16  C   UNL     1      -9.557  10.697  66.317  1.00  0.00    -0.228 A  
HETATM   17  C   UNL     1      -8.327  10.055  66.460  1.00  0.00    -0.126 A  
HETATM   18  C   UNL     1      -8.133   9.139  67.494  1.00  0.00    -0.104 A  
HETATM   19  C   UNL     1      -9.169   8.863  68.391  1.00  0.00    -0.140 A  
HETATM   20  C   UNL     1     -10.402   9.502  68.250  1.00  0.00    -0.244 A  
ENDBRANCH  14  15
ENDBRANCH  12  14
ENDBRANCH   7  12
TORSDOF 3
ENDMDL
MODEL       40
REMARK 921   NORMALIZED FREE ENERGY PREDICTED BY IDOCK:   -5.64 KCAL/MOL
REMARK 922        TOTAL FREE ENERGY PREDICTED BY IDOCK:   -7.22 KCAL/MOL
REMARK 923 INTER-LIGAND FREE ENERGY PREDICTED BY IDOCK:   -6.47 KCAL/MOL
REMARK 924 INTRA-LIGAND FREE ENERGY PREDICTED BY IDOCK:   -0.75 KCAL/MOL
REMARK 927      BINDING AFFINITY PREDICTED BY RF-SCORE:    0.00 PKD
ROOT
HETATM    1  N   UNL     1     -12.257  16.023  63.832  1.00  0.00    -1.180 NA 
HETATM    2  H1  UNL     1     -12.120  16.918  64.301  1.00  0.00     0.000 HD 
HETATM    3  C   UNL     1     -11.672  14.861  64.350  1.00  0.00    -0.328 A  
HETATM    4  H2  UNL     1     -13.260  15.862  63.734  1.00  0.00     0.000 HD 
HETATM    5  C   UNL     1     -11.860  13.635  63.709  1.00  0.00    -0.373 A  
HETATM    6  C   UNL     1     -11.232  12.477  64.181  1.00  0.00    -0.382 A  
HETATM    7  C   UNL     1     -10.351  12.539  65.269  1.00  0.00    -0.310 A  
HETATM    8  O   UNL     1     -11.532  11.286  63.579  1.00  0.00    -0.639 OA 
HETATM    9  C   UNL     1     -10.731  14.941  65.377  1.00  0.00    -0.391 A  
HETATM   10  C   UNL     1     -10.092  13.790  65.850  1.00  0.00    -0.325 A  
HETATM   11  H   UNL     1     -11.105  10.500  63.900  1.00  0.00     0.000 HD 
ENDROOT
BRANCH   7  12
HETATM   12  C   UNL     1      -9.737  11.350  65.920  1.00  0.00    -0.227 C  
HETATM   13  O   UNL     1      -8.527  11.227  66.057  1.00  0.00    -0.167 OA 
BRANCH  12  14
HETATM   14  O   UNL     1     -10.704  10.446  66.322  1.00  0.00    -0.151 OA 
BRANCH  14  15
HETATM   15  C   UNL     1     -10.932  10.276  67.699  1.00  0.00    -0.294 A  
HETATM   16  C   UNL     1     -10.332   9.243  68.422  1.00  0.00    -0.244 A  
HETATM   17  C   UNL     1     -10.493   9.192  69.806  1.00  0.00    -0.234 A  
HETATM   18  C   UNL     1     -11.233  10.176  70.461  1.00  0.00    -0.411 A  
HETATM   19  C   UNL     1     -11.813  11.218  69.734  1.00  0.00    -0.437 A  
HETATM   20  C   UNL     1     -11.657  11.273  68.347  1.00  0.00    -0.378 A  
ENDBRANCH  14  15
ENDBRANCH  12  14
ENDBRANCH   7  12
TORSDOF 3
ENDMDL
MODEL       41
REMARK 921   NORMALIZED FREE ENERGY PREDICTED BY IDOCK:   -5.62 KCAL/MOL
REMARK 922        TOTAL FREE ENERGY PREDICTED BY IDOCK:   -7.20 KCAL/MOL
REMARK 923 INTER-LIGAND FREE ENERGY PREDICTED BY IDOCK:   -6.66 KCAL/MOL
REMARK 924 INTRA-LIGAND FREE ENERGY PREDICTED BY IDOCK:   -0.54 KCAL/MOL
REMARK 927      BINDING AFFINITY PREDICTED BY RF-SCORE:    0.00 PKD
ROOT
HETATM    1  N   UNL     1     -11.082  16.366  64.298  1.00  0.00    -1.233 NA 
HETATM    2  H1  UNL     1     -10.587  16.366  63.406  1.00  0.00     0.000 HD 
HETATM    3  C   UNL     1     -11.072  15.226  65.108  1.00  0.00    -0.404 A  
HETATM    4  H2  UNL     1     -10.748  17.157  64.850  1.00  0.00     0.000 HD 
HETATM    5  C   UNL     1     -11.749  15.227  66.330  1.00  0.00     0.102 A  
HETATM    6  C   UNL     1     -11.798  14.075  67.122  1.00  0.00    -0.411 A  
HETATM    7  C   UNL     1     -11.223  12.878  66.673  1.00  0.00    -0.342 A  
HETATM    8  O   UNL     1     -12.385  14.160  68.354  1.00  0.00    -0.559 OA 
HETATM    9  C   UNL     1     -10.575  14.017  64.621  1.00  0.00    -0.416 A  
HETATM   10  C   UNL     1     -10.627  12.857  65.403  1.00  0.00    -0.308 A  
HETATM   11  H   UNL     1     -12.419  13.377  68.892  1.00  0.00     0.000 HD 
ENDROOT
BRANCH   7  12
HETATM   12  C   UNL     1     -11.114  11.641  67.493  1.00  0.00    -0.276 C  
HETATM   13  O   UNL     1     -11.262  10.523  67.018  1.00  0.00    -0.238 OA 
BRANCH  12  14
HETATM   14  O   UNL     1     -10.836  11.940  68.815  1.00  0.00    -0.216 OA 
BRANCH  14  15
HETATM   15  C   UNL     1     -11.301  11.066  69.813  1.00  0.00    -0.292 A  
HETATM   16  C   UNL     1     -10.577   9.936  70.196  1.00  0.00    -0.350 A  
HETATM   17  C   UNL     1     -11.020   9.171  71.274  1.00  0.00    -0.400 A  
HETATM   18  C   UNL     1     -12.167   9.546  71.973  1.00  0.00    -0.370 A  
HETATM   19  C   UNL     1     -12.876  10.690  71.597  1.00  0.00    -0.570 A  
HETATM   20  C   UNL     1     -12.438  11.458  70.516  1.00  0.00    -0.381 A  
ENDBRANCH  14  15
ENDBRANCH  12  14
ENDBRANCH   7  12
TORSDOF 3
ENDMDL
MODEL       42
REMARK 921   NORMALIZED FREE ENERGY PREDICTED BY IDOCK:   -5.62 KCAL/MOL
REMARK 922        TOTAL FREE ENERGY PREDICTED BY IDOCK:   -7.20 KCAL/MOL
REMARK 923 INTER-LIGAND FREE ENERGY PREDICTED BY IDOCK:   -7.26 KCAL/MOL
REMARK 924 INTRA-LIGAND FREE ENERGY PREDICTED BY IDOCK:    0.06 KCAL/MOL
REMARK 927      BINDING AFFINITY PREDICTED BY RF-SCORE:    0.00 PKD
ROOT
HETATM    1  N   UNL     1      -9.946  10.836  62.330  1.00  0.00    -0.701 NA 
HETATM    2  H1  UNL     1      -9.125  10.232  62.284  1.00  0.00     0.000 HD 
HETATM    3  C   UNL     1     -10.419  11.285  63.568  1.00  0.00    -0.395 A  
HETATM    4  H2  UNL     1      -9.781  11.648  61.734  1.00  0.00     0.000 HD 
HETATM    5  C   UNL     1     -11.542  12.112  63.631  1.00  0.00    -0.575 A  
HETATM    6  C   UNL     1     -12.062  12.520  64.866  1.00  0.00    -0.440 A  
HETATM    7  C   UNL     1     -11.503  12.051  66.062  1.00  0.00    -0.399 A  
HETATM    8  O   UNL     1     -13.098  13.411  64.870  1.00  0.00    -0.723 OA 
HETATM    9  C   UNL     1      -9.915  10.749  64.753  1.00  0.00    -0.382 A  
HETATM   10  C   UNL     1     -10.435  11.144  65.992  1.00  0.00    -0.312 A  
HETATM   11  H   UNL     1     -13.451  13.688  65.708  1.00  0.00     0.000 HD 
ENDROOT
BRANCH   7  12
HETATM   12  C   UNL     1     -11.902  12.523  67.416  1.00  0.00    -0.312 C  
HETATM   13  O   UNL     1     -12.080  11.756  68.353  1.00  0.00    -0.490 OA 
BRANCH  12  14
HETATM   14  O   UNL     1     -12.038  13.899  67.445  1.00  0.00    -0.392 OA 
BRANCH  14  15
HETATM   15  C   UNL     1     -11.953  14.556  68.685  1.00  0.00    -0.285 A  
HETATM   16  C   UNL     1     -12.498  14.007  69.847  1.00  0.00    -0.301 A  
HETATM   17  C   UNL     1     -12.279  14.637  71.071  1.00  0.00    -0.399 A  
HETATM   18  C   UNL     1     -11.506  15.796  71.133  1.00  0.00    -0.466 A  
HETATM   19  C   UNL     1     -10.946  16.329  69.969  1.00  0.00    -0.356 A  
HETATM   20  C   UNL     1     -11.164  15.703  68.740  1.00  0.00    -0.332 A  
ENDBRANCH  14  15
ENDBRANCH  12  14
ENDBRANCH   7  12
TORSDOF 3
ENDMDL
MODEL       43
REMARK 921   NORMALIZED FREE ENERGY PREDICTED BY IDOCK:   -5.61 KCAL/MOL
REMARK 922        TOTAL FREE ENERGY PREDICTED BY IDOCK:   -7.19 KCAL/MOL
REMARK 923 INTER-LIGAND FREE ENERGY PREDICTED BY IDOCK:   -6.56 KCAL/MOL
REMARK 924 INTRA-LIGAND FREE ENERGY PREDICTED BY IDOCK:   -0.63 KCAL/MOL
REMARK 927      BINDING AFFINITY PREDICTED BY RF-SCORE:    0.00 PKD
ROOT
HETATM    1  N   UNL     1     -13.884  12.756  72.608  1.00  0.00    -0.676 NA 
HETATM    2  H1  UNL     1     -14.131  11.781  72.438  1.00  0.00     0.000 HD 
HETATM    3  C   UNL     1     -13.106  13.457  71.679  1.00  0.00    -0.375 A  
HETATM    4  H2  UNL     1     -14.743  13.282  72.770  1.00  0.00     0.000 HD 
HETATM    5  C   UNL     1     -12.768  14.792  71.913  1.00  0.00    -0.396 A  
HETATM    6  C   UNL     1     -11.941  15.487  71.023  1.00  0.00    -0.381 A  
HETATM    7  C   UNL     1     -11.384  14.835  69.914  1.00  0.00    -0.310 A  
HETATM    8  O   UNL     1     -11.726  16.819  71.243  1.00  0.00    -0.528 OA 
HETATM    9  C   UNL     1     -12.485  12.784  70.627  1.00  0.00    -0.328 A  
HETATM   10  C   UNL     1     -11.650  13.469  69.737  1.00  0.00    -0.313 A  
HETATM   11  H   UNL     1     -11.164  17.290  70.639  1.00  0.00     0.000 HD 
ENDROOT
BRANCH   7  12
HETATM   12  C   UNL     1     -10.600  15.516  68.848  1.00  0.00    -0.240 C  
HETATM   13  O   UNL     1      -9.474  15.159  68.531  1.00  0.00    -0.191 OA 
BRANCH  12  14
HETATM   14  O   UNL     1     -11.311  16.569  68.301  1.00  0.00    -0.331 OA 
BRANCH  14  15
HETATM   15  C   UNL     1     -10.601  17.697  67.853  1.00  0.00    -0.387 A  
HETATM   16  C   UNL     1     -10.592  18.075  66.509  1.00  0.00    -0.263 A  
HETATM   17  C   UNL     1      -9.976  19.269  66.136  1.00  0.00    -0.466 A  
HETATM   18  C   UNL     1      -9.390  20.085  67.103  1.00  0.00    -0.502 A  
HETATM   19  C   UNL     1      -9.421  19.711  68.449  1.00  0.00    -0.452 A  
HETATM   20  C   UNL     1     -10.035  18.516  68.828  1.00  0.00    -0.417 A  
ENDBRANCH  14  15
ENDBRANCH  12  14
ENDBRANCH   7  12
TORSDOF 3
ENDMDL
MODEL       44
REMARK 921   NORMALIZED FREE ENERGY PREDICTED BY IDOCK:   -5.61 KCAL/MOL
REMARK 922        TOTAL FREE ENERGY PREDICTED BY IDOCK:   -7.18 KCAL/MOL
REMARK 923 INTER-LIGAND FREE ENERGY PREDICTED BY IDOCK:   -6.49 KCAL/MOL
REMARK 924 INTRA-LIGAND FREE ENERGY PREDICTED BY IDOCK:   -0.69 KCAL/MOL
REMARK 927      BINDING AFFINITY PREDICTED BY RF-SCORE:    0.00 PKD
ROOT
HETATM    1  N   UNL     1      -9.224  20.191  66.363  1.00  0.00    -0.542 NA 
HETATM    2  H1  UNL     1      -9.292  21.025  66.945  1.00  0.00     0.000 HD 
HETATM    3  C   UNL     1      -9.772  18.980  66.802  1.00  0.00    -0.330 A  
HETATM    4  H2  UNL     1      -9.614  20.407  65.445  1.00  0.00     0.000 HD 
HETATM    5  C   UNL     1      -9.679  17.838  66.005  1.00  0.00    -0.145 A  
HETATM    6  C   UNL     1     -10.169  16.607  66.457  1.00  0.00    -0.310 A  
HETATM    7  C   UNL     1     -10.704  16.486  67.747  1.00  0.00    -0.329 A  
HETATM    8  O   UNL     1     -10.146  15.545  65.597  1.00  0.00    -0.326 OA 
HETATM    9  C   UNL     1     -10.224  18.844  68.115  1.00  0.00    -0.454 A  
HETATM   10  C   UNL     1     -10.707  17.616  68.579  1.00  0.00    -0.193 A  
HETATM   11  H   UNL     1     -10.479  14.709  65.905  1.00  0.00     0.000 HD 
ENDROOT
BRANCH   7  12
HETATM   12  C   UNL     1     -11.361  15.258  68.270  1.00  0.00    -0.336 C  
HETATM   13  O   UNL     1     -12.114  14.575  67.589  1.00  0.00    -0.343 OA 
BRANCH  12  14
HETATM   14  O   UNL     1     -11.007  15.023  69.587  1.00  0.00    -0.259 OA 
BRANCH  14  15
HETATM   15  C   UNL     1     -12.013  14.655  70.497  1.00  0.00    -0.310 A  
HETATM   16  C   UNL     1     -12.291  13.318  70.784  1.00  0.00    -0.425 A  
HETATM   17  C   UNL     1     -13.212  13.009  71.784  1.00  0.00    -0.486 A  
HETATM   18  C   UNL     1     -13.835  14.030  72.502  1.00  0.00    -0.610 A  
HETATM   19  C   UNL     1     -13.536  15.366  72.223  1.00  0.00    -0.573 A  
HETATM   20  C   UNL     1     -12.616  15.681  71.221  1.00  0.00    -0.523 A  
ENDBRANCH  14  15
ENDBRANCH  12  14
ENDBRANCH   7  12
TORSDOF 3
ENDMDL
MODEL       45
REMARK 921   NORMALIZED FREE ENERGY PREDICTED BY IDOCK:   -5.61 KCAL/MOL
REMARK 922        TOTAL FREE ENERGY PREDICTED BY IDOCK:   -7.18 KCAL/MOL
REMARK 923 INTER-LIGAND FREE ENERGY PREDICTED BY IDOCK:   -6.37 KCAL/MOL
REMARK 924 INTRA-LIGAND FREE ENERGY PREDICTED BY IDOCK:   -0.81 KCAL/MOL
REMARK 927      BINDING AFFINITY PREDICTED BY RF-SCORE:    0.00 PKD
ROOT
HETATM    1  N   UNL     1     -11.542  16.449  63.799  1.00  0.00    -1.515 NA 
HETATM    2  H1  UNL     1     -12.185  16.384  63.008  1.00  0.00     0.000 HD 
HETATM    3  C   UNL     1     -11.525  15.446  64.775  1.00  0.00    -0.336 A  
HETATM    4  H2  UNL     1     -10.596  16.561  63.435  1.00  0.00     0.000 HD 
HETATM    5  C   UNL     1     -10.646  15.535  65.856  1.00  0.00    -0.350 A  
HETATM    6  C   UNL     1     -10.659  14.571  66.871  1.00  0.00    -0.279 A  
HETATM    7  C   UNL     1     -11.601  13.533  66.852  1.00  0.00    -0.398 A  
HETATM    8  O   UNL     1      -9.710  14.649  67.851  1.00  0.00    -0.211 OA 
HETATM    9  C   UNL     1     -12.517  14.466  64.799  1.00  0.00    -0.371 A  
HETATM   10  C   UNL     1     -12.544  13.503  65.814  1.00  0.00    -0.490 A  
HETATM   11  H   UNL     1      -9.720  13.994  68.540  1.00  0.00     0.000 HD 
ENDROOT
BRANCH   7  12
HETATM   12  C   UNL     1     -11.614  12.396  67.812  1.00  0.00    -0.352 C  
HETATM   13  O   UNL     1     -11.677  12.559  69.023  1.00  0.00    -0.285 OA 
BRANCH  12  14
HETATM   14  O   UNL     1     -11.543  11.183  67.151  1.00  0.00    -0.495 OA 
BRANCH  14  15
HETATM   15  C   UNL     1     -10.345  10.842  66.500  1.00  0.00    -0.247 A  
HETATM   16  C   UNL     1     -10.275  10.699  65.114  1.00  0.00    -0.368 A  
HETATM   17  C   UNL     1      -9.039  10.481  64.507  1.00  0.00    -0.251 A  
HETATM   18  C   UNL     1      -7.880  10.426  65.282  1.00  0.00    -0.137 A  
HETATM   19  C   UNL     1      -7.954  10.592  66.668  1.00  0.00    -0.125 A  
HETATM   20  C   UNL     1      -9.190  10.807  67.280  1.00  0.00    -0.158 A  
ENDBRANCH  14  15
ENDBRANCH  12  14
ENDBRANCH   7  12
TORSDOF 3
ENDMDL
MODEL       46
REMARK 921   NORMALIZED FREE ENERGY PREDICTED BY IDOCK:   -5.55 KCAL/MOL
REMARK 922        TOTAL FREE ENERGY PREDICTED BY IDOCK:   -7.12 KCAL/MOL
REMARK 923 INTER-LIGAND FREE ENERGY PREDICTED BY IDOCK:   -6.40 KCAL/MOL
REMARK 924 INTRA-LIGAND FREE ENERGY PREDICTED BY IDOCK:   -0.72 KCAL/MOL
REMARK 927      BINDING AFFINITY PREDICTED BY RF-SCORE:    0.00 PKD
ROOT
HETATM    1  N   UNL     1      -7.866  21.240  67.018  1.00  0.00    -0.697 NA 
HETATM    2  H1  UNL     1      -8.438  21.932  66.533  1.00  0.00     0.000 HD 
HETATM    3  C   UNL     1      -8.436  20.041  67.459  1.00  0.00    -0.339 A  
HETATM    4  H2  UNL     1      -7.063  21.017  66.428  1.00  0.00     0.000 HD 
HETATM    5  C   UNL     1      -7.653  19.094  68.122  1.00  0.00    -0.321 A  
HETATM    6  C   UNL     1      -8.222  17.918  68.623  1.00  0.00    -0.275 A  
HETATM    7  C   UNL     1      -9.603  17.699  68.524  1.00  0.00    -0.315 A  
HETATM    8  O   UNL     1      -7.394  16.979  69.171  1.00  0.00    -0.242 OA 
HETATM    9  C   UNL     1      -9.820  19.866  67.436  1.00  0.00    -0.541 A  
HETATM   10  C   UNL     1     -10.399  18.696  67.942  1.00  0.00    -0.442 A  
HETATM   11  H   UNL     1      -7.781  16.180  69.511  1.00  0.00     0.000 HD 
ENDROOT
BRANCH   7  12
HETATM   12  C   UNL     1     -10.281  16.431  68.910  1.00  0.00    -0.258 C  
HETATM   13  O   UNL     1      -9.891  15.733  69.836  1.00  0.00    -0.272 OA 
BRANCH  12  14
HETATM   14  O   UNL     1     -11.367  16.176  68.092  1.00  0.00    -0.340 OA 
BRANCH  14  15
HETATM   15  C   UNL     1     -11.251  15.171  67.116  1.00  0.00    -0.320 A  
HETATM   16  C   UNL     1     -11.863  13.926  67.266  1.00  0.00    -0.442 A  
HETATM   17  C   UNL     1     -11.821  13.009  66.216  1.00  0.00    -0.466 A  
HETATM   18  C   UNL     1     -11.187  13.345  65.020  1.00  0.00    -0.332 A  
HETATM   19  C   UNL     1     -10.595  14.601  64.869  1.00  0.00    -0.446 A  
HETATM   20  C   UNL     1     -10.632  15.522  65.918  1.00  0.00    -0.350 A  
ENDBRANCH  14  15
ENDBRANCH  12  14
ENDBRANCH   7  12
TORSDOF 3
ENDMDL
MODEL       47
REMARK 921   NORMALIZED FREE ENERGY PREDICTED BY IDOCK:   -5.54 KCAL/MOL
REMARK 922        TOTAL FREE ENERGY PREDICTED BY IDOCK:   -7.11 KCAL/MOL
REMARK 923 INTER-LIGAND FREE ENERGY PREDICTED BY IDOCK:   -6.41 KCAL/MOL
REMARK 924 INTRA-LIGAND FREE ENERGY PREDICTED BY IDOCK:   -0.69 KCAL/MOL
REMARK 927      BINDING AFFINITY PREDICTED BY RF-SCORE:    0.00 PKD
ROOT
HETATM    1  N   UNL     1      -9.859  11.006  62.383  1.00  0.00    -0.569 NA 
HETATM    2  H1  UNL     1      -9.045  10.392  62.376  1.00  0.00     0.000 HD 
HETATM    3  C   UNL     1     -10.376  11.474  63.596  1.00  0.00    -0.417 A  
HETATM    4  H2  UNL     1      -9.660  11.810  61.786  1.00  0.00     0.000 HD 
HETATM    5  C   UNL     1     -11.491  12.315  63.606  1.00  0.00    -0.572 A  
HETATM    6  C   UNL     1     -12.055  12.742  64.814  1.00  0.00    -0.432 A  
HETATM    7  C   UNL     1     -11.550  12.279  66.037  1.00  0.00    -0.451 A  
HETATM    8  O   UNL     1     -13.079  13.646  64.767  1.00  0.00    -0.658 OA 
HETATM    9  C   UNL     1      -9.927  10.945  64.806  1.00  0.00    -0.366 A  
HETATM   10  C   UNL     1     -10.491  11.359  66.019  1.00  0.00    -0.305 A  
HETATM   11  H   UNL     1     -13.462  13.935  65.587  1.00  0.00     0.000 HD 
ENDROOT
BRANCH   7  12
HETATM   12  C   UNL     1     -11.998  12.771  67.368  1.00  0.00    -0.272 C  
HETATM   13  O   UNL     1     -12.378  12.016  68.253  1.00  0.00    -0.288 OA 
BRANCH  12  14
HETATM   14  O   UNL     1     -11.924  14.150  67.443  1.00  0.00    -0.395 OA 
BRANCH  14  15
HETATM   15  C   UNL     1     -10.673  14.766  67.265  1.00  0.00    -0.294 A  
HETATM   16  C   UNL     1      -9.503  14.221  67.795  1.00  0.00    -0.216 A  
HETATM   17  C   UNL     1      -8.274  14.802  67.487  1.00  0.00    -0.201 A  
HETATM   18  C   UNL     1      -8.217  15.909  66.640  1.00  0.00    -0.317 A  
HETATM   19  C   UNL     1      -9.391  16.437  66.096  1.00  0.00    -0.360 A  
HETATM   20  C   UNL     1     -10.624  15.860  66.403  1.00  0.00    -0.298 A  
ENDBRANCH  14  15
ENDBRANCH  12  14
ENDBRANCH   7  12
TORSDOF 3
ENDMDL
MODEL       48
REMARK 921   NORMALIZED FREE ENERGY PREDICTED BY IDOCK:   -5.54 KCAL/MOL
REMARK 922        TOTAL FREE ENERGY PREDICTED BY IDOCK:   -7.11 KCAL/MOL
REMARK 923 INTER-LIGAND FREE ENERGY PREDICTED BY IDOCK:   -6.58 KCAL/MOL
REMARK 924 INTRA-LIGAND FREE ENERGY PREDICTED BY IDOCK:   -0.53 KCAL/MOL
REMARK 927      BINDING AFFINITY PREDICTED BY RF-SCORE:    0.00 PKD
ROOT
HETATM    1  N   UNL     1     -12.669   8.651  72.794  1.00  0.00    -0.587 NA 
HETATM    2  H1  UNL     1     -13.355   8.944  73.490  1.00  0.00     0.000 HD 
HETATM    3  C   UNL     1     -12.273   9.535  71.784  1.00  0.00    -0.387 A  
HETATM    4  H2  UNL     1     -11.835   8.325  73.282  1.00  0.00     0.000 HD 
HETATM    5  C   UNL     1     -11.334   9.134  70.831  1.00  0.00    -0.359 A  
HETATM    6  C   UNL     1     -10.972   9.986  69.780  1.00  0.00    -0.276 A  
HETATM    7  C   UNL     1     -11.596  11.232  69.629  1.00  0.00    -0.401 A  
HETATM    8  O   UNL     1      -9.975   9.586  68.936  1.00  0.00    -0.168 OA 
HETATM    9  C   UNL     1     -12.955  10.735  71.587  1.00  0.00    -0.581 A  
HETATM   10  C   UNL     1     -12.607  11.589  70.534  1.00  0.00    -0.286 A  
HETATM   11  H   UNL     1      -9.730  10.164  68.223  1.00  0.00     0.000 HD 
ENDROOT
BRANCH   7  12
HETATM   12  C   UNL     1     -11.194  12.254  68.625  1.00  0.00    -0.259 C  
HETATM   13  O   UNL     1     -10.150  12.887  68.714  1.00  0.00    -0.168 OA 
BRANCH  12  14
HETATM   14  O   UNL     1     -12.142  12.373  67.625  1.00  0.00    -0.470 OA 
BRANCH  14  15
HETATM   15  C   UNL     1     -11.711  12.366  66.287  1.00  0.00    -0.395 A  
HETATM   16  C   UNL     1     -10.911  11.343  65.778  1.00  0.00    -0.290 A  
HETATM   17  C   UNL     1     -10.613  11.318  64.416  1.00  0.00    -0.410 A  
HETATM   18  C   UNL     1     -11.129  12.299  63.570  1.00  0.00    -0.533 A  
HETATM   19  C   UNL     1     -11.947  13.309  64.083  1.00  0.00    -0.505 A  
HETATM   20  C   UNL     1     -12.246  13.340  65.446  1.00  0.00    -0.501 A  
ENDBRANCH  14  15
ENDBRANCH  12  14
ENDBRANCH   7  12
TORSDOF 3
ENDMDL
MODEL       49
REMARK 921   NORMALIZED FREE ENERGY PREDICTED BY IDOCK:   -5.49 KCAL/MOL
REMARK 922        TOTAL FREE ENERGY PREDICTED BY IDOCK:   -7.04 KCAL/MOL
REMARK 923 INTER-LIGAND FREE ENERGY PREDICTED BY IDOCK:   -6.33 KCAL/MOL
REMARK 924 INTRA-LIGAND FREE ENERGY PREDICTED BY IDOCK:   -0.71 KCAL/MOL
REMARK 927      BINDING AFFINITY PREDICTED BY RF-SCORE:    0.00 PKD
ROOT
HETATM    1  N   UNL     1     -10.806   7.280  73.834  1.00  0.00    -0.554 NA 
HETATM    2  H1  UNL     1      -9.885   6.976  74.150  1.00  0.00     0.000 HD 
HETATM    3  C   UNL     1     -10.934   8.029  72.659  1.00  0.00    -0.382 A  
HETATM    4  H2  UNL     1     -11.407   6.458  73.759  1.00  0.00     0.000 HD 
HETATM    5  C   UNL     1     -12.196   8.444  72.226  1.00  0.00    -0.449 A  
HETATM    6  C   UNL     1     -12.334   9.244  71.086  1.00  0.00    -0.293 A  
HETATM    7  C   UNL     1     -11.202   9.698  70.395  1.00  0.00    -0.342 A  
HETATM    8  O   UNL     1     -13.595   9.536  70.648  1.00  0.00    -0.588 OA 
HETATM    9  C   UNL     1      -9.806   8.548  72.025  1.00  0.00    -0.383 A  
HETATM   10  C   UNL     1      -9.934   9.357  70.889  1.00  0.00    -0.353 A  
HETATM   11  H   UNL     1     -13.689  10.080  69.875  1.00  0.00     0.000 HD 
ENDROOT
BRANCH   7  12
HETATM   12  C   UNL     1     -11.249  10.443  69.108  1.00  0.00    -0.246 C  
HETATM   13  O   UNL     1     -10.427  10.270  68.218  1.00  0.00    -0.177 OA 
BRANCH  12  14
HETATM   14  O   UNL     1     -12.315  11.324  69.079  1.00  0.00    -0.446 OA 
BRANCH  14  15
HETATM   15  C   UNL     1     -12.073  12.681  69.358  1.00  0.00    -0.179 A  
HETATM   16  C   UNL     1     -11.875  13.616  68.341  1.00  0.00    -0.407 A  
HETATM   17  C   UNL     1     -11.762  14.968  68.666  1.00  0.00    -0.363 A  
HETATM   18  C   UNL     1     -11.865  15.379  69.994  1.00  0.00    -0.368 A  
HETATM   19  C   UNL     1     -12.084  14.439  71.005  1.00  0.00    -0.417 A  
HETATM   20  C   UNL     1     -12.196  13.084  70.686  1.00  0.00    -0.390 A  
ENDBRANCH  14  15
ENDBRANCH  12  14
ENDBRANCH   7  12
TORSDOF 3
ENDMDL
MODEL       50
REMARK 921   NORMALIZED FREE ENERGY PREDICTED BY IDOCK:   -5.47 KCAL/MOL
REMARK 922        TOTAL FREE ENERGY PREDICTED BY IDOCK:   -7.03 KCAL/MOL
REMARK 923 INTER-LIGAND FREE ENERGY PREDICTED BY IDOCK:   -6.37 KCAL/MOL
REMARK 924 INTRA-LIGAND FREE ENERGY PREDICTED BY IDOCK:   -0.65 KCAL/MOL
REMARK 927      BINDING AFFINITY PREDICTED BY RF-SCORE:    0.00 PKD
ROOT
HETATM    1  N   UNL     1     -10.751   5.180  74.389  1.00  0.00    -0.376 NA 
HETATM    2  H1  UNL     1     -10.073   5.191  75.150  1.00  0.00     0.000 HD 
HETATM    3  C   UNL     1     -10.752   6.201  73.432  1.00  0.00    -0.259 A  
HETATM    4  H2  UNL     1     -10.675   4.285  73.904  1.00  0.00     0.000 HD 
HETATM    5  C   UNL     1     -11.681   6.186  72.390  1.00  0.00    -0.319 A  
HETATM    6  C   UNL     1     -11.732   7.232  71.461  1.00  0.00    -0.289 A  
HETATM    7  C   UNL     1     -10.894   8.347  71.599  1.00  0.00    -0.335 A  
HETATM    8  O   UNL     1     -12.589   7.117  70.402  1.00  0.00    -0.612 OA 
HETATM    9  C   UNL     1      -9.978   7.347  73.621  1.00  0.00    -0.379 A  
HETATM   10  C   UNL     1     -10.029   8.402  72.703  1.00  0.00    -0.329 A  
HETATM   11  H   UNL     1     -12.624   7.827  69.772  1.00  0.00     0.000 HD 
ENDROOT
BRANCH   7  12
HETATM   12  C   UNL     1     -10.786   9.443  70.599  1.00  0.00    -0.283 C  
HETATM   13  O   UNL     1      -9.716   9.793  70.120  1.00  0.00    -0.242 OA 
BRANCH  12  14
HETATM   14  O   UNL     1     -12.027   9.983  70.313  1.00  0.00    -0.249 OA 
BRANCH  14  15
HETATM   15  C   UNL     1     -12.293  11.305  70.710  1.00  0.00    -0.398 A  
HETATM   16  C   UNL     1     -11.889  12.398  69.942  1.00  0.00    -0.376 A  
HETATM   17  C   UNL     1     -12.283  13.682  70.315  1.00  0.00    -0.423 A  
HETATM   18  C   UNL     1     -13.090  13.867  71.438  1.00  0.00    -0.413 A  
HETATM   19  C   UNL     1     -13.508  12.766  72.190  1.00  0.00    -0.591 A  
HETATM   20  C   UNL     1     -13.114  11.479  71.822  1.00  0.00    -0.503 A  
ENDBRANCH  14  15
ENDBRANCH  12  14
ENDBRANCH   7  12
TORSDOF 3
ENDMDL
MODEL       51
REMARK 921   NORMALIZED FREE ENERGY PREDICTED BY IDOCK:   -5.47 KCAL/MOL
REMARK 922        TOTAL FREE ENERGY PREDICTED BY IDOCK:   -7.02 KCAL/MOL
REMARK 923 INTER-LIGAND FREE ENERGY PREDICTED BY IDOCK:   -6.53 KCAL/MOL
REMARK 924 INTRA-LIGAND FREE ENERGY PREDICTED BY IDOCK:   -0.49 KCAL/MOL
REMARK 927      BINDING AFFINITY PREDICTED BY RF-SCORE:    0.00 PKD
ROOT
HETATM    1  N   UNL     1     -13.720  15.692  72.684  1.00  0.00    -0.569 NA 
HETATM    2  H1  UNL     1     -13.416  16.620  72.388  1.00  0.00     0.000 HD 
HETATM    3  C   UNL     1     -13.221  14.552  72.045  1.00  0.00    -0.362 A  
HETATM    4  H2  UNL     1     -13.546  15.602  73.686  1.00  0.00     0.000 HD 
HETATM    5  C   UNL     1     -13.637  13.282  72.451  1.00  0.00    -0.694 A  
HETATM    6  C   UNL     1     -13.193  12.135  71.781  1.00  0.00    -0.320 A  
HETATM    7  C   UNL     1     -12.374  12.246  70.649  1.00  0.00    -0.375 A  
HETATM    8  O   UNL     1     -13.548  10.914  72.283  1.00  0.00    -0.546 OA 
HETATM    9  C   UNL     1     -12.478  14.668  70.870  1.00  0.00    -0.406 A  
HETATM   10  C   UNL     1     -12.038  13.528  70.189  1.00  0.00    -0.425 A  
HETATM   11  H   UNL     1     -13.247  10.136  71.828  1.00  0.00     0.000 HD 
ENDROOT
BRANCH   7  12
HETATM   12  C   UNL     1     -11.752  11.090  69.949  1.00  0.00    -0.346 C  
HETATM   13  O   UNL     1     -10.864  10.416  70.455  1.00  0.00    -0.289 OA 
BRANCH  12  14
HETATM   14  O   UNL     1     -12.305  10.908  68.694  1.00  0.00    -0.501 OA 
BRANCH  14  15
HETATM   15  C   UNL     1     -11.449  10.882  67.580  1.00  0.00    -0.152 A  
HETATM   16  C   UNL     1     -11.175  12.031  66.836  1.00  0.00    -0.375 A  
HETATM   17  C   UNL     1     -10.225  11.978  65.817  1.00  0.00    -0.274 A  
HETATM   18  C   UNL     1      -9.542  10.789  65.559  1.00  0.00    -0.269 A  
HETATM   19  C   UNL     1      -9.806   9.649  66.321  1.00  0.00    -0.323 A  
HETATM   20  C   UNL     1     -10.758   9.695  67.341  1.00  0.00    -0.308 A  
ENDBRANCH  14  15
ENDBRANCH  12  14
ENDBRANCH   7  12
TORSDOF 3
ENDMDL
MODEL       52
REMARK 921   NORMALIZED FREE ENERGY PREDICTED BY IDOCK:   -5.47 KCAL/MOL
REMARK 922        TOTAL FREE ENERGY PREDICTED BY IDOCK:   -7.02 KCAL/MOL
REMARK 923 INTER-LIGAND FREE ENERGY PREDICTED BY IDOCK:   -6.46 KCAL/MOL
REMARK 924 INTRA-LIGAND FREE ENERGY PREDICTED BY IDOCK:   -0.56 KCAL/MOL
REMARK 927      BINDING AFFINITY PREDICTED BY RF-SCORE:    0.00 PKD
ROOT
HETATM    1  N   UNL     1     -12.519  14.514  63.468  1.00  0.00    -1.063 NA 
HETATM    2  H1  UNL     1     -13.414  14.980  63.619  1.00  0.00     0.000 HD 
HETATM    3  C   UNL     1     -11.939  13.758  64.493  1.00  0.00    -0.427 A  
HETATM    4  H2  UNL     1     -12.598  13.926  62.638  1.00  0.00     0.000 HD 
HETATM    5  C   UNL     1     -10.714  13.121  64.287  1.00  0.00    -0.431 A  
HETATM    6  C   UNL     1     -10.094  12.410  65.322  1.00  0.00    -0.265 A  
HETATM    7  C   UNL     1     -10.661  12.381  66.603  1.00  0.00    -0.256 A  
HETATM    8  O   UNL     1      -8.948  11.721  65.038  1.00  0.00    -0.406 OA 
HETATM    9  C   UNL     1     -12.461  13.801  65.786  1.00  0.00    -0.527 A  
HETATM   10  C   UNL     1     -11.843  13.102  66.829  1.00  0.00    -0.444 A  
HETATM   11  H   UNL     1      -8.527  11.239  65.741  1.00  0.00     0.000 HD 
ENDROOT
BRANCH   7  12
HETATM   12  C   UNL     1     -10.147  11.554  67.728  1.00  0.00    -0.182 C  
HETATM   13  O   UNL     1      -9.176  11.885  68.397  1.00  0.00    -0.191 OA 
BRANCH  12  14
HETATM   14  O   UNL     1     -10.900  10.405  67.890  1.00  0.00    -0.237 OA 
BRANCH  14  15
HETATM   15  C   UNL     1     -11.398  10.104  69.170  1.00  0.00    -0.143 A  
HETATM   16  C   UNL     1     -10.892   9.045  69.925  1.00  0.00    -0.228 A  
HETATM   17  C   UNL     1     -11.333   8.864  71.235  1.00  0.00    -0.371 A  
HETATM   18  C   UNL     1     -12.260   9.747  71.788  1.00  0.00    -0.449 A  
HETATM   19  C   UNL     1     -12.748  10.817  71.034  1.00  0.00    -0.513 A  
HETATM   20  C   UNL     1     -12.311  11.001  69.721  1.00  0.00    -0.331 A  
ENDBRANCH  14  15
ENDBRANCH  12  14
ENDBRANCH   7  12
TORSDOF 3
ENDMDL
MODEL       53
REMARK 921   NORMALIZED FREE ENERGY PREDICTED BY IDOCK:   -5.46 KCAL/MOL
REMARK 922        TOTAL FREE ENERGY PREDICTED BY IDOCK:   -7.02 KCAL/MOL
REMARK 923 INTER-LIGAND FREE ENERGY PREDICTED BY IDOCK:   -6.44 KCAL/MOL
REMARK 924 INTRA-LIGAND FREE ENERGY PREDICTED BY IDOCK:   -0.58 KCAL/MOL
REMARK 927      BINDING AFFINITY PREDICTED BY RF-SCORE:    0.00 PKD
ROOT
HETATM    1  N   UNL     1     -12.047  10.484  68.298  1.00  0.00    -0.725 NA 
HETATM    2  H1  UNL     1     -11.964  10.134  67.343  1.00  0.00     0.000 HD 
HETATM    3  C   UNL     1     -11.884  11.848  68.563  1.00  0.00    -0.297 A  
HETATM    4  H2  UNL     1     -12.950  10.189  68.671  1.00  0.00     0.000 HD 
HETATM    5  C   UNL     1     -11.997  12.326  69.870  1.00  0.00    -0.377 A  
HETATM    6  C   UNL     1     -11.777  13.678  70.159  1.00  0.00    -0.218 A  
HETATM    7  C   UNL     1     -11.374  14.564  69.150  1.00  0.00    -0.305 A  
HETATM    8  O   UNL     1     -12.002  14.113  71.435  1.00  0.00    -0.411 OA 
HETATM    9  C   UNL     1     -11.401  12.707  67.576  1.00  0.00    -0.361 A  
HETATM   10  C   UNL     1     -11.169  14.059  67.858  1.00  0.00    -0.295 A  
HETATM   11  H   UNL     1     -11.852  15.031  71.631  1.00  0.00     0.000 HD 
ENDROOT
BRANCH   7  12
HETATM   12  C   UNL     1     -11.239  16.035  69.331  1.00  0.00    -0.349 C  
HETATM   13  O   UNL     1     -11.256  16.566  70.434  1.00  0.00    -0.336 OA 
BRANCH  12  14
HETATM   14  O   UNL     1     -11.102  16.678  68.114  1.00  0.00    -0.361 OA 
BRANCH  14  15
HETATM   15  C   UNL     1     -10.265  17.805  68.041  1.00  0.00    -0.377 A  
HETATM   16  C   UNL     1      -8.918  17.746  68.400  1.00  0.00    -0.281 A  
HETATM   17  C   UNL     1      -8.103  18.858  68.193  1.00  0.00    -0.333 A  
HETATM   18  C   UNL     1      -8.629  20.012  67.614  1.00  0.00    -0.385 A  
HETATM   19  C   UNL     1      -9.974  20.058  67.237  1.00  0.00    -0.574 A  
HETATM   20  C   UNL     1     -10.795  18.948  67.445  1.00  0.00    -0.449 A  
ENDBRANCH  14  15
ENDBRANCH  12  14
ENDBRANCH   7  12
TORSDOF 3
ENDMDL
MODEL       54
REMARK 921   NORMALIZED FREE ENERGY PREDICTED BY IDOCK:   -5.45 KCAL/MOL
REMARK 922        TOTAL FREE ENERGY PREDICTED BY IDOCK:   -7.01 KCAL/MOL
REMARK 923 INTER-LIGAND FREE ENERGY PREDICTED BY IDOCK:   -6.44 KCAL/MOL
REMARK 924 INTRA-LIGAND FREE ENERGY PREDICTED BY IDOCK:   -0.56 KCAL/MOL
REMARK 927      BINDING AFFINITY PREDICTED BY RF-SCORE:    0.00 PKD
ROOT
HETATM    1  N   UNL     1     -11.969  11.035  67.855  1.00  0.00    -0.727 NA 
HETATM    2  H1  UNL     1     -11.946  10.885  68.864  1.00  0.00     0.000 HD 
HETATM    3  C   UNL     1     -11.626  12.283  67.322  1.00  0.00    -0.357 A  
HETATM    4  H2  UNL     1     -11.388  10.324  67.411  1.00  0.00     0.000 HD 
HETATM    5  C   UNL     1     -11.657  12.488  65.941  1.00  0.00    -0.454 A  
HETATM    6  C   UNL     1     -11.375  13.747  65.398  1.00  0.00    -0.308 A  
HETATM    7  C   UNL     1     -11.118  14.841  66.236  1.00  0.00    -0.341 A  
HETATM    8  O   UNL     1     -11.319  13.868  64.038  1.00  0.00    -0.591 OA 
HETATM    9  C   UNL     1     -11.456  13.386  68.158  1.00  0.00    -0.339 A  
HETATM   10  C   UNL     1     -11.181  14.651  67.624  1.00  0.00    -0.332 A  
HETATM   11  H   UNL     1     -11.127  14.723  63.669  1.00  0.00     0.000 HD 
ENDROOT
BRANCH   7  12
HETATM   12  C   UNL     1     -10.686  16.181  65.755  1.00  0.00    -0.280 C  
HETATM   13  O   UNL     1     -10.713  16.496  64.573  1.00  0.00    -0.721 OA 
BRANCH  12  14
HETATM   14  O   UNL     1     -10.263  16.977  66.806  1.00  0.00    -0.284 OA 
BRANCH  14  15
HETATM   15  C   UNL     1      -9.026  17.635  66.694  1.00  0.00    -0.265 A  
HETATM   16  C   UNL     1      -7.910  17.012  66.132  1.00  0.00    -0.295 A  
HETATM   17  C   UNL     1      -6.742  17.747  65.932  1.00  0.00    -0.286 A  
HETATM   18  C   UNL     1      -6.700  19.098  66.276  1.00  0.00    -0.229 A  
HETATM   19  C   UNL     1      -7.827  19.721  66.818  1.00  0.00    -0.317 A  
HETATM   20  C   UNL     1      -8.998  18.988  67.023  1.00  0.00    -0.314 A  
ENDBRANCH  14  15
ENDBRANCH  12  14
ENDBRANCH   7  12
TORSDOF 3
ENDMDL
MODEL       55
REMARK 921   NORMALIZED FREE ENERGY PREDICTED BY IDOCK:   -5.44 KCAL/MOL
REMARK 922        TOTAL FREE ENERGY PREDICTED BY IDOCK:   -6.99 KCAL/MOL
REMARK 923 INTER-LIGAND FREE ENERGY PREDICTED BY IDOCK:   -6.11 KCAL/MOL
REMARK 924 INTRA-LIGAND FREE ENERGY PREDICTED BY IDOCK:   -0.88 KCAL/MOL
REMARK 927      BINDING AFFINITY PREDICTED BY RF-SCORE:    0.00 PKD
ROOT
HETATM    1  N   UNL     1      -9.757  17.761  67.076  1.00  0.00    -0.279 NA 
HETATM    2  H1  UNL     1      -9.248  18.296  66.372  1.00  0.00     0.000 HD 
HETATM    3  C   UNL     1     -10.375  16.554  66.732  1.00  0.00    -0.296 A  
HETATM    4  H2  UNL     1      -9.130  17.589  67.863  1.00  0.00     0.000 HD 
HETATM    5  C   UNL     1     -11.070  15.822  67.696  1.00  0.00    -0.283 A  
HETATM    6  C   UNL     1     -11.744  14.644  67.353  1.00  0.00    -0.390 A  
HETATM    7  C   UNL     1     -11.787  14.213  66.020  1.00  0.00    -0.409 A  
HETATM    8  O   UNL     1     -12.322  13.913  68.353  1.00  0.00    -0.494 OA 
HETATM    9  C   UNL     1     -10.488  16.174  65.394  1.00  0.00    -0.396 A  
HETATM   10  C   UNL     1     -11.167  15.003  65.040  1.00  0.00    -0.413 A  
HETATM   11  H   UNL     1     -12.779  13.113  68.119  1.00  0.00     0.000 HD 
ENDROOT
BRANCH   7  12
HETATM   12  C   UNL     1     -12.366  12.916  65.577  1.00  0.00    -0.461 C  
HETATM   13  O   UNL     1     -13.157  12.833  64.647  1.00  0.00    -0.760 OA 
BRANCH  12  14
HETATM   14  O   UNL     1     -11.895  11.868  66.348  1.00  0.00    -0.561 OA 
BRANCH  14  15
HETATM   15  C   UNL     1     -10.671  11.273  65.997  1.00  0.00    -0.242 A  
HETATM   16  C   UNL     1     -10.422  10.811  64.704  1.00  0.00    -0.346 A  
HETATM   17  C   UNL     1      -9.151  10.342  64.376  1.00  0.00    -0.275 A  
HETATM   18  C   UNL     1      -8.134  10.354  65.330  1.00  0.00    -0.152 A  
HETATM   19  C   UNL     1      -8.384  10.837  66.616  1.00  0.00    -0.141 A  
HETATM   20  C   UNL     1      -9.656  11.306  66.951  1.00  0.00    -0.210 A  
ENDBRANCH  14  15
ENDBRANCH  12  14
ENDBRANCH   7  12
TORSDOF 3
ENDMDL
MODEL       56
REMARK 921   NORMALIZED FREE ENERGY PREDICTED BY IDOCK:   -5.42 KCAL/MOL
REMARK 922        TOTAL FREE ENERGY PREDICTED BY IDOCK:   -6.96 KCAL/MOL
REMARK 923 INTER-LIGAND FREE ENERGY PREDICTED BY IDOCK:   -6.46 KCAL/MOL
REMARK 924 INTRA-LIGAND FREE ENERGY PREDICTED BY IDOCK:   -0.50 KCAL/MOL
REMARK 927      BINDING AFFINITY PREDICTED BY RF-SCORE:    0.00 PKD
ROOT
HETATM    1  N   UNL     1     -14.203  13.885  72.576  1.00  0.00    -0.685 NA 
HETATM    2  H1  UNL     1     -14.680  14.697  72.967  1.00  0.00     0.000 HD 
HETATM    3  C   UNL     1     -13.300  14.042  71.518  1.00  0.00    -0.350 A  
HETATM    4  H2  UNL     1     -13.729  13.394  73.334  1.00  0.00     0.000 HD 
HETATM    5  C   UNL     1     -12.648  12.929  70.982  1.00  0.00    -0.376 A  
HETATM    6  C   UNL     1     -11.788  13.063  69.886  1.00  0.00    -0.307 A  
HETATM    7  C   UNL     1     -11.617  14.308  69.264  1.00  0.00    -0.350 A  
HETATM    8  O   UNL     1     -11.096  11.962  69.466  1.00  0.00    -0.405 OA 
HETATM    9  C   UNL     1     -13.199  15.262  70.850  1.00  0.00    -0.506 A  
HETATM   10  C   UNL     1     -12.348  15.404  69.748  1.00  0.00    -0.288 A  
HETATM   11  H   UNL     1     -10.513  12.053  68.722  1.00  0.00     0.000 HD 
ENDROOT
BRANCH   7  12
HETATM   12  C   UNL     1     -10.635  14.576  68.179  1.00  0.00    -0.238 C  
HETATM   13  O   UNL     1      -9.429  14.435  68.335  1.00  0.00    -0.197 OA 
BRANCH  12  14
HETATM   14  O   UNL     1     -11.268  14.993  67.023  1.00  0.00    -0.331 OA 
BRANCH  14  15
HETATM   15  C   UNL     1     -11.298  14.120  65.921  1.00  0.00    -0.323 A  
HETATM   16  C   UNL     1     -10.806  12.817  66.003  1.00  0.00    -0.301 A  
HETATM   17  C   UNL     1     -10.971  11.952  64.921  1.00  0.00    -0.367 A  
HETATM   18  C   UNL     1     -11.639  12.385  63.776  1.00  0.00    -0.553 A  
HETATM   19  C   UNL     1     -12.148  13.685  63.709  1.00  0.00    -0.435 A  
HETATM   20  C   UNL     1     -11.983  14.555  64.788  1.00  0.00    -0.449 A  
ENDBRANCH  14  15
ENDBRANCH  12  14
ENDBRANCH   7  12
TORSDOF 3
ENDMDL
MODEL       57
REMARK 921   NORMALIZED FREE ENERGY PREDICTED BY IDOCK:   -5.40 KCAL/MOL
REMARK 922        TOTAL FREE ENERGY PREDICTED BY IDOCK:   -6.94 KCAL/MOL
REMARK 923 INTER-LIGAND FREE ENERGY PREDICTED BY IDOCK:   -6.41 KCAL/MOL
REMARK 924 INTRA-LIGAND FREE ENERGY PREDICTED BY IDOCK:   -0.53 KCAL/MOL
REMARK 927      BINDING AFFINITY PREDICTED BY RF-SCORE:    0.00 PKD
ROOT
HETATM    1  N   UNL     1      -9.045  18.267  66.176  1.00  0.00    -0.502 NA 
HETATM    2  H1  UNL     1      -9.381  19.118  66.626  1.00  0.00     0.000 HD 
HETATM    3  C   UNL     1      -9.648  17.036  66.461  1.00  0.00    -0.278 A  
HETATM    4  H2  UNL     1      -9.065  18.409  65.165  1.00  0.00     0.000 HD 
HETATM    5  C   UNL     1      -9.189  15.871  65.844  1.00  0.00    -0.332 A  
HETATM    6  C   UNL     1      -9.742  14.625  66.164  1.00  0.00    -0.319 A  
HETATM    7  C   UNL     1     -10.723  14.519  67.160  1.00  0.00    -0.286 A  
HETATM    8  O   UNL     1      -9.328  13.531  65.458  1.00  0.00    -0.475 OA 
HETATM    9  C   UNL     1     -10.561  16.923  67.509  1.00  0.00    -0.307 A  
HETATM   10  C   UNL     1     -11.113  15.680  67.843  1.00  0.00    -0.324 A  
HETATM   11  H   UNL     1      -9.704  12.686  65.676  1.00  0.00     0.000 HD 
ENDROOT
BRANCH   7  12
HETATM   12  C   UNL     1     -11.458  13.266  67.481  1.00  0.00    -0.322 C  
HETATM   13  O   UNL     1     -12.400  12.865  66.810  1.00  0.00    -0.405 OA 
BRANCH  12  14
HETATM   14  O   UNL     1     -10.936  12.655  68.607  1.00  0.00    -0.237 OA 
BRANCH  14  15
HETATM   15  C   UNL     1     -11.795  12.392  69.688  1.00  0.00    -0.311 A  
HETATM   16  C   UNL     1     -12.132  11.090  70.060  1.00  0.00    -0.441 A  
HETATM   17  C   UNL     1     -12.888  10.880  71.213  1.00  0.00    -0.536 A  
HETATM   18  C   UNL     1     -13.285  11.964  71.996  1.00  0.00    -0.461 A  
HETATM   19  C   UNL     1     -12.926  13.263  71.629  1.00  0.00    -0.441 A  
HETATM   20  C   UNL     1     -12.172  13.480  70.474  1.00  0.00    -0.433 A  
ENDBRANCH  14  15
ENDBRANCH  12  14
ENDBRANCH   7  12
TORSDOF 3
ENDMDL
MODEL       58
REMARK 921   NORMALIZED FREE ENERGY PREDICTED BY IDOCK:   -5.39 KCAL/MOL
REMARK 922        TOTAL FREE ENERGY PREDICTED BY IDOCK:   -6.93 KCAL/MOL
REMARK 923 INTER-LIGAND FREE ENERGY PREDICTED BY IDOCK:   -6.32 KCAL/MOL
REMARK 924 INTRA-LIGAND FREE ENERGY PREDICTED BY IDOCK:   -0.61 KCAL/MOL
REMARK 927      BINDING AFFINITY PREDICTED BY RF-SCORE:    0.00 PKD
ROOT
HETATM    1  N   UNL     1     -11.232  15.028  71.602  1.00  0.00    -0.574 NA 
HETATM    2  H1  UNL     1     -11.512  14.306  72.266  1.00  0.00     0.000 HD 
HETATM    3  C   UNL     1     -11.426  14.835  70.230  1.00  0.00    -0.260 A  
HETATM    4  H2  UNL     1     -11.683  15.903  71.871  1.00  0.00     0.000 HD 
HETATM    5  C   UNL     1     -11.043  15.824  69.321  1.00  0.00    -0.297 A  
HETATM    6  C   UNL     1     -11.175  15.620  67.943  1.00  0.00    -0.328 A  
HETATM    7  C   UNL     1     -11.634  14.392  67.447  1.00  0.00    -0.398 A  
HETATM    8  O   UNL     1     -10.883  16.658  67.103  1.00  0.00    -0.253 OA 
HETATM    9  C   UNL     1     -11.800  13.585  69.738  1.00  0.00    -0.395 A  
HETATM   10  C   UNL     1     -11.927  13.368  68.361  1.00  0.00    -0.359 A  
HETATM   11  H   UNL     1     -10.972  16.519  66.167  1.00  0.00     0.000 HD 
ENDROOT
BRANCH   7  12
HETATM   12  C   UNL     1     -11.927  14.123  66.013  1.00  0.00    -0.413 C  
HETATM   13  O   UNL     1     -13.068  14.081  65.572  1.00  0.00    -0.713 OA 
BRANCH  12  14
HETATM   14  O   UNL     1     -10.762  13.934  65.292  1.00  0.00    -0.309 OA 
BRANCH  14  15
HETATM   15  C   UNL     1     -10.438  12.633  64.868  1.00  0.00    -0.309 A  
HETATM   16  C   UNL     1     -10.548  12.247  63.531  1.00  0.00    -0.488 A  
HETATM   17  C   UNL     1     -10.099  10.985  63.143  1.00  0.00    -0.350 A  
HETATM   18  C   UNL     1      -9.528  10.127  64.082  1.00  0.00    -0.353 A  
HETATM   19  C   UNL     1      -9.402  10.528  65.414  1.00  0.00    -0.255 A  
HETATM   20  C   UNL     1      -9.852  11.789  65.809  1.00  0.00    -0.267 A  
ENDBRANCH  14  15
ENDBRANCH  12  14
ENDBRANCH   7  12
TORSDOF 3
ENDMDL
MODEL       59
REMARK 921   NORMALIZED FREE ENERGY PREDICTED BY IDOCK:   -5.39 KCAL/MOL
REMARK 922        TOTAL FREE ENERGY PREDICTED BY IDOCK:   -6.93 KCAL/MOL
REMARK 923 INTER-LIGAND FREE ENERGY PREDICTED BY IDOCK:   -6.38 KCAL/MOL
REMARK 924 INTRA-LIGAND FREE ENERGY PREDICTED BY IDOCK:   -0.55 KCAL/MOL
REMARK 927      BINDING AFFINITY PREDICTED BY RF-SCORE:    0.00 PKD
ROOT
HETATM    1  N   UNL     1     -13.183  16.108  74.094  1.00  0.00    -0.913 NA 
HETATM    2  H1  UNL     1     -13.781  15.619  74.760  1.00  0.00     0.000 HD 
HETATM    3  C   UNL     1     -12.875  15.520  72.862  1.00  0.00    -0.457 A  
HETATM    4  H2  UNL     1     -13.583  17.030  73.919  1.00  0.00     0.000 HD 
HETATM    5  C   UNL     1     -12.056  16.189  71.950  1.00  0.00    -0.548 A  
HETATM    6  C   UNL     1     -11.691  15.588  70.740  1.00  0.00    -0.362 A  
HETATM    7  C   UNL     1     -12.087  14.275  70.451  1.00  0.00    -0.409 A  
HETATM    8  O   UNL     1     -10.974  16.326  69.840  1.00  0.00    -0.337 OA 
HETATM    9  C   UNL     1     -13.198  14.186  72.615  1.00  0.00    -0.612 A  
HETATM   10  C   UNL     1     -12.830  13.573  71.412  1.00  0.00    -0.440 A  
HETATM   11  H   UNL     1     -10.726  15.917  69.019  1.00  0.00     0.000 HD 
ENDROOT
BRANCH   7  12
HETATM   12  C   UNL     1     -11.857  13.598  69.146  1.00  0.00    -0.348 C  
HETATM   13  O   UNL     1     -12.190  14.098  68.079  1.00  0.00    -0.310 OA 
BRANCH  12  14
HETATM   14  O   UNL     1     -11.241  12.372  69.320  1.00  0.00    -0.242 OA 
BRANCH  14  15
HETATM   15  C   UNL     1     -10.583  11.789  68.223  1.00  0.00    -0.211 A  
HETATM   16  C   UNL     1      -9.343  12.251  67.780  1.00  0.00    -0.194 A  
HETATM   17  C   UNL     1      -8.676  11.561  66.768  1.00  0.00    -0.178 A  
HETATM   18  C   UNL     1      -9.239  10.410  66.218  1.00  0.00    -0.195 A  
HETATM   19  C   UNL     1     -10.472   9.942  66.680  1.00  0.00    -0.239 A  
HETATM   20  C   UNL     1     -11.145  10.630  67.692  1.00  0.00    -0.385 A  
ENDBRANCH  14  15
ENDBRANCH  12  14
ENDBRANCH   7  12
TORSDOF 3
ENDMDL
MODEL       60
REMARK 921   NORMALIZED FREE ENERGY PREDICTED BY IDOCK:   -5.33 KCAL/MOL
REMARK 922        TOTAL FREE ENERGY PREDICTED BY IDOCK:   -6.86 KCAL/MOL
REMARK 923 INTER-LIGAND FREE ENERGY PREDICTED BY IDOCK:   -6.21 KCAL/MOL
REMARK 924 INTRA-LIGAND FREE ENERGY PREDICTED BY IDOCK:   -0.65 KCAL/MOL
REMARK 927      BINDING AFFINITY PREDICTED BY RF-SCORE:    0.00 PKD
ROOT
HETATM    1  N   UNL     1      -9.468   8.315  65.525  1.00  0.00    -0.400 NA 
HETATM    2  H1  UNL     1      -9.281   7.549  66.173  1.00  0.00     0.000 HD 
HETATM    3  C   UNL     1      -9.977   9.529  66.000  1.00  0.00    -0.278 A  
HETATM    4  H2  UNL     1      -8.614   8.507  65.000  1.00  0.00     0.000 HD 
HETATM    5  C   UNL     1     -10.232  10.577  65.112  1.00  0.00    -0.358 A  
HETATM    6  C   UNL     1     -10.798  11.775  65.564  1.00  0.00    -0.297 A  
HETATM    7  C   UNL     1     -11.178  11.920  66.906  1.00  0.00    -0.382 A  
HETATM    8  O   UNL     1     -10.932  12.804  64.675  1.00  0.00    -0.298 OA 
HETATM    9  C   UNL     1     -10.432   9.639  67.313  1.00  0.00    -0.323 A  
HETATM   10  C   UNL     1     -11.007  10.830  67.772  1.00  0.00    -0.354 A  
HETATM   11  H   UNL     1     -11.316  13.617  64.982  1.00  0.00     0.000 HD 
ENDROOT
BRANCH   7  12
HETATM   12  C   UNL     1     -11.667  13.191  67.505  1.00  0.00    -0.366 C  
HETATM   13  O   UNL     1     -12.524  13.883  66.971  1.00  0.00    -0.323 OA 
BRANCH  12  14
HETATM   14  O   UNL     1     -11.028  13.458  68.703  1.00  0.00    -0.244 OA 
BRANCH  14  15
HETATM   15  C   UNL     1     -11.811  13.794  69.821  1.00  0.00    -0.331 A  
HETATM   16  C   UNL     1     -12.222  15.105  70.064  1.00  0.00    -0.379 A  
HETATM   17  C   UNL     1     -13.098  15.366  71.116  1.00  0.00    -0.565 A  
HETATM   18  C   UNL     1     -13.572  14.319  71.907  1.00  0.00    -0.501 A  
HETATM   19  C   UNL     1     -13.172  13.006  71.646  1.00  0.00    -0.426 A  
HETATM   20  C   UNL     1     -12.293  12.740  70.595  1.00  0.00    -0.381 A  
ENDBRANCH  14  15
ENDBRANCH  12  14
ENDBRANCH   7  12
TORSDOF 3
ENDMDL
MODEL       61
REMARK 921   NORMALIZED FREE ENERGY PREDICTED BY IDOCK:   -5.28 KCAL/MOL
REMARK 922        TOTAL FREE ENERGY PREDICTED BY IDOCK:   -6.80 KCAL/MOL
REMARK 923 INTER-LIGAND FREE ENERGY PREDICTED BY IDOCK:   -6.10 KCAL/MOL
REMARK 924 INTRA-LIGAND FREE ENERGY PREDICTED BY IDOCK:   -0.70 KCAL/MOL
REMARK 927      BINDING AFFINITY PREDICTED BY RF-SCORE:    0.00 PKD
ROOT
HETATM    1  N   UNL     1     -12.544   8.509  71.147  1.00  0.00    -0.472 NA 
HETATM    2  H1  UNL     1     -12.043   7.912  70.488  1.00  0.00     0.000 HD 
HETATM    3  C   UNL     1     -12.551   9.897  70.972  1.00  0.00    -0.336 A  
HETATM    4  H2  UNL     1     -13.510   8.186  71.202  1.00  0.00     0.000 HD 
HETATM    5  C   UNL     1     -13.237  10.714  71.874  1.00  0.00    -0.528 A  
HETATM    6  C   UNL     1     -13.204  12.107  71.746  1.00  0.00    -0.320 A  
HETATM    7  C   UNL     1     -12.426  12.711  70.748  1.00  0.00    -0.357 A  
HETATM    8  O   UNL     1     -13.975  12.855  72.592  1.00  0.00    -0.727 OA 
HETATM    9  C   UNL     1     -11.710  10.496  70.034  1.00  0.00    -0.394 A  
HETATM   10  C   UNL     1     -11.663  11.889  69.905  1.00  0.00    -0.383 A  
HETATM   11  H   UNL     1     -13.951  13.800  72.505  1.00  0.00     0.000 HD 
ENDROOT
BRANCH   7  12
HETATM   12  C   UNL     1     -12.425  14.169  70.454  1.00  0.00    -0.357 C  
HETATM   13  O   UNL     1     -12.702  15.010  71.299  1.00  0.00    -0.299 OA 
BRANCH  12  14
HETATM   14  O   UNL     1     -12.081  14.414  69.136  1.00  0.00    -0.318 OA 
BRANCH  14  15
HETATM   15  C   UNL     1     -11.040  15.321  68.871  1.00  0.00    -0.266 A  
HETATM   16  C   UNL     1     -11.286  16.583  68.330  1.00  0.00    -0.265 A  
HETATM   17  C   UNL     1     -10.235  17.491  68.201  1.00  0.00    -0.359 A  
HETATM   18  C   UNL     1      -8.954  17.142  68.627  1.00  0.00    -0.267 A  
HETATM   19  C   UNL     1      -8.719  15.883  69.187  1.00  0.00    -0.256 A  
HETATM   20  C   UNL     1      -9.767  14.970  69.317  1.00  0.00    -0.192 A  
ENDBRANCH  14  15
ENDBRANCH  12  14
ENDBRANCH   7  12
TORSDOF 3
ENDMDL
MODEL       62
REMARK 921   NORMALIZED FREE ENERGY PREDICTED BY IDOCK:   -5.27 KCAL/MOL
REMARK 922        TOTAL FREE ENERGY PREDICTED BY IDOCK:   -6.79 KCAL/MOL
REMARK 923 INTER-LIGAND FREE ENERGY PREDICTED BY IDOCK:   -6.32 KCAL/MOL
REMARK 924 INTRA-LIGAND FREE ENERGY PREDICTED BY IDOCK:   -0.46 KCAL/MOL
REMARK 927      BINDING AFFINITY PREDICTED BY RF-SCORE:    0.00 PKD
ROOT
HETATM    1  N   UNL     1      -8.161  21.198  67.342  1.00  0.00    -0.471 NA 
HETATM    2  H1  UNL     1      -8.711  22.057  67.352  1.00  0.00     0.000 HD 
HETATM    3  C   UNL     1      -8.709  20.018  66.825  1.00  0.00    -0.333 A  
HETATM    4  H2  UNL     1      -7.283  21.384  66.856  1.00  0.00     0.000 HD 
HETATM    5  C   UNL     1      -7.955  18.842  66.811  1.00  0.00    -0.269 A  
HETATM    6  C   UNL     1      -8.511  17.642  66.354  1.00  0.00    -0.246 A  
HETATM    7  C   UNL     1      -9.855  17.584  65.962  1.00  0.00    -0.195 A  
HETATM    8  O   UNL     1      -7.700  16.545  66.264  1.00  0.00    -0.291 OA 
HETATM    9  C   UNL     1     -10.067  19.945  66.518  1.00  0.00    -0.607 A  
HETATM   10  C   UNL     1     -10.634  18.747  66.068  1.00  0.00    -0.442 A  
HETATM   11  H   UNL     1      -8.077  15.730  65.954  1.00  0.00     0.000 HD 
ENDROOT
BRANCH   7  12
HETATM   12  C   UNL     1     -10.499  16.393  65.346  1.00  0.00    -0.311 C  
HETATM   13  O   UNL     1     -11.311  16.482  64.435  1.00  0.00    -0.921 OA 
BRANCH  12  14
HETATM   14  O   UNL     1     -10.058  15.223  65.939  1.00  0.00    -0.287 OA 
BRANCH  14  15
HETATM   15  C   UNL     1     -10.709  14.773  67.101  1.00  0.00    -0.299 A  
HETATM   16  C   UNL     1     -11.132  15.657  68.095  1.00  0.00    -0.330 A  
HETATM   17  C   UNL     1     -11.881  15.174  69.168  1.00  0.00    -0.340 A  
HETATM   18  C   UNL     1     -12.217  13.822  69.234  1.00  0.00    -0.307 A  
HETATM   19  C   UNL     1     -11.808  12.947  68.224  1.00  0.00    -0.372 A  
HETATM   20  C   UNL     1     -11.056  13.425  67.149  1.00  0.00    -0.303 A  
ENDBRANCH  14  15
ENDBRANCH  12  14
ENDBRANCH   7  12
TORSDOF 3
ENDMDL
MODEL       63
REMARK 921   NORMALIZED FREE ENERGY PREDICTED BY IDOCK:   -5.26 KCAL/MOL
REMARK 922        TOTAL FREE ENERGY PREDICTED BY IDOCK:   -6.77 KCAL/MOL
REMARK 923 INTER-LIGAND FREE ENERGY PREDICTED BY IDOCK:   -6.15 KCAL/MOL
REMARK 924 INTRA-LIGAND FREE ENERGY PREDICTED BY IDOCK:   -0.62 KCAL/MOL
REMARK 927      BINDING AFFINITY PREDICTED BY RF-SCORE:    0.00 PKD
ROOT
HETATM    1  N   UNL     1     -11.195  11.230  63.278  1.00  0.00    -0.832 NA 
HETATM    2  H1  UNL     1     -11.800  11.458  62.489  1.00  0.00     0.000 HD 
HETATM    3  C   UNL     1     -10.983  12.169  64.295  1.00  0.00    -0.339 A  
HETATM    4  H2  UNL     1     -11.534  10.366  63.703  1.00  0.00     0.000 HD 
HETATM    5  C   UNL     1     -10.156  11.856  65.375  1.00  0.00    -0.285 A  
HETATM    6  C   UNL     1      -9.886  12.806  66.368  1.00  0.00    -0.269 A  
HETATM    7  C   UNL     1     -10.390  14.110  66.260  1.00  0.00    -0.294 A  
HETATM    8  O   UNL     1      -9.155  12.417  67.456  1.00  0.00    -0.171 OA 
HETATM    9  C   UNL     1     -11.413  13.486  64.141  1.00  0.00    -0.394 A  
HETATM   10  C   UNL     1     -11.141  14.445  65.124  1.00  0.00    -0.365 A  
HETATM   11  H   UNL     1      -8.972  13.062  68.129  1.00  0.00     0.000 HD 
ENDROOT
BRANCH   7  12
HETATM   12  C   UNL     1     -10.264  15.147  67.319  1.00  0.00    -0.243 C  
HETATM   13  O   UNL     1      -9.192  15.655  67.618  1.00  0.00    -0.192 OA 
BRANCH  12  14
HETATM   14  O   UNL     1     -11.493  15.432  67.888  1.00  0.00    -0.335 OA 
BRANCH  14  15
HETATM   15  C   UNL     1     -11.668  15.187  69.262  1.00  0.00    -0.329 A  
HETATM   16  C   UNL     1     -11.450  16.180  70.219  1.00  0.00    -0.319 A  
HETATM   17  C   UNL     1     -11.757  15.924  71.555  1.00  0.00    -0.545 A  
HETATM   18  C   UNL     1     -12.294  14.691  71.925  1.00  0.00    -0.410 A  
HETATM   19  C   UNL     1     -12.530  13.710  70.958  1.00  0.00    -0.456 A  
HETATM   20  C   UNL     1     -12.222  13.960  69.620  1.00  0.00    -0.374 A  
ENDBRANCH  14  15
ENDBRANCH  12  14
ENDBRANCH   7  12
TORSDOF 3
ENDMDL
MODEL       64
REMARK 921   NORMALIZED FREE ENERGY PREDICTED BY IDOCK:   -5.21 KCAL/MOL
REMARK 922        TOTAL FREE ENERGY PREDICTED BY IDOCK:   -6.72 KCAL/MOL
REMARK 923 INTER-LIGAND FREE ENERGY PREDICTED BY IDOCK:   -6.03 KCAL/MOL
REMARK 924 INTRA-LIGAND FREE ENERGY PREDICTED BY IDOCK:   -0.68 KCAL/MOL
REMARK 927      BINDING AFFINITY PREDICTED BY RF-SCORE:    0.00 PKD
ROOT
HETATM    1  N   UNL     1     -12.030  13.382  70.590  1.00  0.00    -0.526 NA 
HETATM    2  H1  UNL     1     -11.948  13.484  71.602  1.00  0.00     0.000 HD 
HETATM    3  C   UNL     1     -11.563  14.392  69.741  1.00  0.00    -0.298 A  
HETATM    4  H2  UNL     1     -11.587  12.503  70.319  1.00  0.00     0.000 HD 
HETATM    5  C   UNL     1     -11.675  14.252  68.357  1.00  0.00    -0.373 A  
HETATM    6  C   UNL     1     -11.267  15.279  67.498  1.00  0.00    -0.317 A  
HETATM    7  C   UNL     1     -10.800  16.495  68.016  1.00  0.00    -0.337 A  
HETATM    8  O   UNL     1     -11.302  15.050  66.151  1.00  0.00    -0.339 OA 
HETATM    9  C   UNL     1     -11.180  15.629  70.260  1.00  0.00    -0.357 A  
HETATM   10  C   UNL     1     -10.779  16.666  69.409  1.00  0.00    -0.331 A  
HETATM   11  H   UNL     1     -11.026  15.748  65.568  1.00  0.00     0.000 HD 
ENDROOT
BRANCH   7  12
HETATM   12  C   UNL     1     -10.228  17.593  67.191  1.00  0.00    -0.342 C  
HETATM   13  O   UNL     1     -10.015  17.472  65.992  1.00  0.00    -0.459 OA 
BRANCH  12  14
HETATM   14  O   UNL     1      -9.983  18.719  67.957  1.00  0.00    -0.322 OA 
BRANCH  14  15
HETATM   15  C   UNL     1      -8.687  19.264  67.955  1.00  0.00    -0.313 A  
HETATM   16  C   UNL     1      -8.370  20.403  67.213  1.00  0.00    -0.398 A  
HETATM   17  C   UNL     1      -7.105  20.974  67.341  1.00  0.00    -0.393 A  
HETATM   18  C   UNL     1      -6.173  20.420  68.218  1.00  0.00    -0.335 A  
HETATM   19  C   UNL     1      -6.504  19.293  68.974  1.00  0.00    -0.324 A  
HETATM   20  C   UNL     1      -7.769  18.715  68.847  1.00  0.00    -0.270 A  
ENDBRANCH  14  15
ENDBRANCH  12  14
ENDBRANCH   7  12
TORSDOF 3
ENDMDL
MODEL       65
REMARK 921   NORMALIZED FREE ENERGY PREDICTED BY IDOCK:   -5.21 KCAL/MOL
REMARK 922        TOTAL FREE ENERGY PREDICTED BY IDOCK:   -6.71 KCAL/MOL
REMARK 923 INTER-LIGAND FREE ENERGY PREDICTED BY IDOCK:   -6.42 KCAL/MOL
REMARK 924 INTRA-LIGAND FREE ENERGY PREDICTED BY IDOCK:   -0.29 KCAL/MOL
REMARK 927      BINDING AFFINITY PREDICTED BY RF-SCORE:    0.00 PKD
ROOT
HETATM    1  N   UNL     1     -11.690  15.998  71.133  1.00  0.00    -0.463 NA 
HETATM    2  H1  UNL     1     -12.241  15.231  71.518  1.00  0.00     0.000 HD 
HETATM    3  C   UNL     1     -11.399  16.036  69.764  1.00  0.00    -0.331 A  
HETATM    4  H2  UNL     1     -12.138  16.877  71.392  1.00  0.00     0.000 HD 
HETATM    5  C   UNL     1     -10.645  17.086  69.237  1.00  0.00    -0.276 A  
HETATM    6  C   UNL     1     -10.296  17.106  67.881  1.00  0.00    -0.350 A  
HETATM    7  C   UNL     1     -10.643  16.038  67.042  1.00  0.00    -0.302 A  
HETATM    8  O   UNL     1      -9.647  18.206  67.395  1.00  0.00    -0.269 OA 
HETATM    9  C   UNL     1     -11.670  14.934  68.953  1.00  0.00    -0.343 A  
HETATM   10  C   UNL     1     -11.317  14.941  67.599  1.00  0.00    -0.348 A  
HETATM   11  H   UNL     1      -9.410  18.219  66.475  1.00  0.00     0.000 HD 
ENDROOT
BRANCH   7  12
HETATM   12  C   UNL     1     -10.429  16.025  65.570  1.00  0.00    -0.405 C  
HETATM   13  O   UNL     1     -10.765  16.955  64.849  1.00  0.00    -0.725 OA 
BRANCH  12  14
HETATM   14  O   UNL     1      -9.822  14.851  65.163  1.00  0.00    -0.300 OA 
BRANCH  14  15
HETATM   15  C   UNL     1     -10.621  13.844  64.593  1.00  0.00    -0.412 A  
HETATM   16  C   UNL     1     -11.948  14.077  64.229  1.00  0.00    -0.463 A  
HETATM   17  C   UNL     1     -12.659  13.084  63.556  1.00  0.00    -0.262 A  
HETATM   18  C   UNL     1     -12.039  11.877  63.235  1.00  0.00    -0.466 A  
HETATM   19  C   UNL     1     -10.704  11.658  63.583  1.00  0.00    -0.500 A  
HETATM   20  C   UNL     1      -9.988  12.648  64.260  1.00  0.00    -0.202 A  
ENDBRANCH  14  15
ENDBRANCH  12  14
ENDBRANCH   7  12
TORSDOF 3
ENDMDL
MODEL       66
REMARK 921   NORMALIZED FREE ENERGY PREDICTED BY IDOCK:   -5.20 KCAL/MOL
REMARK 922        TOTAL FREE ENERGY PREDICTED BY IDOCK:   -6.71 KCAL/MOL
REMARK 923 INTER-LIGAND FREE ENERGY PREDICTED BY IDOCK:   -6.08 KCAL/MOL
REMARK 924 INTRA-LIGAND FREE ENERGY PREDICTED BY IDOCK:   -0.63 KCAL/MOL
REMARK 927      BINDING AFFINITY PREDICTED BY RF-SCORE:    0.00 PKD
ROOT
HETATM    1  N   UNL     1     -12.446  13.804  63.151  1.00  0.00    -1.074 NA 
HETATM    2  H1  UNL     1     -12.135  13.819  62.179  1.00  0.00     0.000 HD 
HETATM    3  C   UNL     1     -11.846  12.934  64.068  1.00  0.00    -0.443 A  
HETATM    4  H2  UNL     1     -12.388  14.753  63.522  1.00  0.00     0.000 HD 
HETATM    5  C   UNL     1     -12.271  12.914  65.398  1.00  0.00    -0.528 A  
HETATM    6  C   UNL     1     -11.721  12.007  66.311  1.00  0.00    -0.246 A  
HETATM    7  C   UNL     1     -10.779  11.058  65.891  1.00  0.00    -0.226 A  
HETATM    8  O   UNL     1     -12.098  12.098  67.622  1.00  0.00    -0.522 OA 
HETATM    9  C   UNL     1     -10.974  11.937  63.629  1.00  0.00    -0.511 A  
HETATM   10  C   UNL     1     -10.426  11.021  64.534  1.00  0.00    -0.411 A  
HETATM   11  H   UNL     1     -11.725  11.483  68.242  1.00  0.00     0.000 HD 
ENDROOT
BRANCH   7  12
HETATM   12  C   UNL     1     -10.048  10.141  66.807  1.00  0.00    -0.219 C  
HETATM   13  O   UNL     1     -10.061   8.925  66.667  1.00  0.00    -0.256 OA 
BRANCH  12  14
HETATM   14  O   UNL     1      -9.385  10.845  67.796  1.00  0.00    -0.153 OA 
BRANCH  14  15
HETATM   15  C   UNL     1      -9.361  10.314  69.097  1.00  0.00    -0.204 A  
HETATM   16  C   UNL     1     -10.525  10.164  69.852  1.00  0.00    -0.322 A  
HETATM   17  C   UNL     1     -10.464   9.519  71.087  1.00  0.00    -0.358 A  
HETATM   18  C   UNL     1      -9.251   9.012  71.551  1.00  0.00    -0.260 A  
HETATM   19  C   UNL     1      -8.093   9.146  70.781  1.00  0.00    -0.207 A  
HETATM   20  C   UNL     1      -8.148   9.794  69.545  1.00  0.00    -0.141 A  
ENDBRANCH  14  15
ENDBRANCH  12  14
ENDBRANCH   7  12
TORSDOF 3
ENDMDL
MODEL       67
REMARK 921   NORMALIZED FREE ENERGY PREDICTED BY IDOCK:   -5.15 KCAL/MOL
REMARK 922        TOTAL FREE ENERGY PREDICTED BY IDOCK:   -6.65 KCAL/MOL
REMARK 923 INTER-LIGAND FREE ENERGY PREDICTED BY IDOCK:   -5.97 KCAL/MOL
REMARK 924 INTRA-LIGAND FREE ENERGY PREDICTED BY IDOCK:   -0.68 KCAL/MOL
REMARK 927      BINDING AFFINITY PREDICTED BY RF-SCORE:    0.00 PKD
ROOT
HETATM    1  N   UNL     1      -6.066  19.975  69.792  1.00  0.00    -0.326 NA 
HETATM    2  H1  UNL     1      -6.395  20.303  70.701  1.00  0.00     0.000 HD 
HETATM    3  C   UNL     1      -6.980  19.515  68.838  1.00  0.00    -0.351 A  
HETATM    4  H2  UNL     1      -5.503  20.714  69.369  1.00  0.00     0.000 HD 
HETATM    5  C   UNL     1      -6.530  19.067  67.594  1.00  0.00    -0.212 A  
HETATM    6  C   UNL     1      -7.427  18.548  66.653  1.00  0.00    -0.231 A  
HETATM    7  C   UNL     1      -8.786  18.408  66.968  1.00  0.00    -0.270 A  
HETATM    8  O   UNL     1      -6.949  18.220  65.415  1.00  0.00    -0.523 OA 
HETATM    9  C   UNL     1      -8.314  19.298  69.184  1.00  0.00    -0.167 A  
HETATM   10  C   UNL     1      -9.216  18.771  68.252  1.00  0.00    -0.366 A  
HETATM   11  H   UNL     1      -7.558  17.867  64.776  1.00  0.00     0.000 HD 
ENDROOT
BRANCH   7  12
HETATM   12  C   UNL     1      -9.832  17.988  65.996  1.00  0.00    -0.169 C  
HETATM   13  O   UNL     1     -10.781  18.702  65.703  1.00  0.00    -0.555 OA 
BRANCH  12  14
HETATM   14  O   UNL     1      -9.576  16.720  65.504  1.00  0.00    -0.515 OA 
BRANCH  14  15
HETATM   15  C   UNL     1     -10.495  15.693  65.784  1.00  0.00    -0.366 A  
HETATM   16  C   UNL     1     -10.950  14.823  64.792  1.00  0.00    -0.393 A  
HETATM   17  C   UNL     1     -11.763  13.747  65.145  1.00  0.00    -0.354 A  
HETATM   18  C   UNL     1     -12.102  13.535  66.481  1.00  0.00    -0.460 A  
HETATM   19  C   UNL     1     -11.625  14.397  67.471  1.00  0.00    -0.398 A  
HETATM   20  C   UNL     1     -10.812  15.478  67.124  1.00  0.00    -0.316 A  
ENDBRANCH  14  15
ENDBRANCH  12  14
ENDBRANCH   7  12
TORSDOF 3
ENDMDL
MODEL       68
REMARK 921   NORMALIZED FREE ENERGY PREDICTED BY IDOCK:   -5.10 KCAL/MOL
REMARK 922        TOTAL FREE ENERGY PREDICTED BY IDOCK:   -6.59 KCAL/MOL
REMARK 923 INTER-LIGAND FREE ENERGY PREDICTED BY IDOCK:   -5.95 KCAL/MOL
REMARK 924 INTRA-LIGAND FREE ENERGY PREDICTED BY IDOCK:   -0.64 KCAL/MOL
REMARK 927      BINDING AFFINITY PREDICTED BY RF-SCORE:    0.00 PKD
ROOT
HETATM    1  N   UNL     1      -9.737  11.183  62.693  1.00  0.00    -0.598 NA 
HETATM    2  H1  UNL     1      -9.024  10.552  62.328  1.00  0.00     0.000 HD 
HETATM    3  C   UNL     1     -10.103  11.125  64.043  1.00  0.00    -0.336 A  
HETATM    4  H2  UNL     1      -9.460  12.141  62.475  1.00  0.00     0.000 HD 
HETATM    5  C   UNL     1     -11.078  11.990  64.543  1.00  0.00    -0.384 A  
HETATM    6  C   UNL     1     -11.497  11.903  65.876  1.00  0.00    -0.278 A  
HETATM    7  C   UNL     1     -10.990  10.902  66.716  1.00  0.00    -0.248 A  
HETATM    8  O   UNL     1     -12.378  12.839  66.341  1.00  0.00    -0.500 OA 
HETATM    9  C   UNL     1      -9.661  10.077  64.850  1.00  0.00    -0.377 A  
HETATM   10  C   UNL     1     -10.081   9.976  66.182  1.00  0.00    -0.317 A  
HETATM   11  H   UNL     1     -12.662  12.779  67.246  1.00  0.00     0.000 HD 
ENDROOT
BRANCH   7  12
HETATM   12  C   UNL     1     -11.276  10.806  68.173  1.00  0.00    -0.302 C  
HETATM   13  O   UNL     1     -12.285  11.281  68.677  1.00  0.00    -0.562 OA 
BRANCH  12  14
HETATM   14  O   UNL     1     -10.268  10.130  68.837  1.00  0.00    -0.179 OA 
BRANCH  14  15
HETATM   15  C   UNL     1     -10.624   9.169  69.799  1.00  0.00    -0.229 A  
HETATM   16  C   UNL     1     -10.902   9.520  71.121  1.00  0.00    -0.425 A  
HETATM   17  C   UNL     1     -11.370   8.549  72.005  1.00  0.00    -0.425 A  
HETATM   18  C   UNL     1     -11.574   7.242  71.563  1.00  0.00    -0.306 A  
HETATM   19  C   UNL     1     -11.314   6.902  70.233  1.00  0.00    -0.373 A  
HETATM   20  C   UNL     1     -10.843   7.871  69.344  1.00  0.00    -0.114 A  
ENDBRANCH  14  15
ENDBRANCH  12  14
ENDBRANCH   7  12
TORSDOF 3
ENDMDL
MODEL       69
REMARK 921   NORMALIZED FREE ENERGY PREDICTED BY IDOCK:   -5.10 KCAL/MOL
REMARK 922        TOTAL FREE ENERGY PREDICTED BY IDOCK:   -6.59 KCAL/MOL
REMARK 923 INTER-LIGAND FREE ENERGY PREDICTED BY IDOCK:   -5.88 KCAL/MOL
REMARK 924 INTRA-LIGAND FREE ENERGY PREDICTED BY IDOCK:   -0.71 KCAL/MOL
REMARK 927      BINDING AFFINITY PREDICTED BY RF-SCORE:    0.00 PKD
ROOT
HETATM    1  N   UNL     1     -11.416  16.486  63.799  1.00  0.00    -1.411 NA 
HETATM    2  H1  UNL     1     -10.807  17.273  64.026  1.00  0.00     0.000 HD 
HETATM    3  C   UNL     1     -11.431  15.350  64.617  1.00  0.00    -0.337 A  
HETATM    4  H2  UNL     1     -12.371  16.833  63.713  1.00  0.00     0.000 HD 
HETATM    5  C   UNL     1     -12.264  14.274  64.307  1.00  0.00    -0.451 A  
HETATM    6  C   UNL     1     -12.246  13.108  65.081  1.00  0.00    -0.450 A  
HETATM    7  C   UNL     1     -11.342  12.975  66.145  1.00  0.00    -0.349 A  
HETATM    8  O   UNL     1     -13.153  12.126  64.796  1.00  0.00    -0.602 OA 
HETATM    9  C   UNL     1     -10.474  15.188  65.619  1.00  0.00    -0.378 A  
HETATM   10  C   UNL     1     -10.442  14.022  66.393  1.00  0.00    -0.284 A  
HETATM   11  H   UNL     1     -13.140  11.335  65.322  1.00  0.00     0.000 HD 
ENDROOT
BRANCH   7  12
HETATM   12  C   UNL     1     -11.332  11.834  67.099  1.00  0.00    -0.322 C  
HETATM   13  O   UNL     1     -11.748  10.723  66.799  1.00  0.00    -0.063 OA 
BRANCH  12  14
HETATM   14  O   UNL     1     -10.808  12.209  68.323  1.00  0.00    -0.204 OA 
BRANCH  14  15
HETATM   15  C   UNL     1      -9.853  11.375  68.929  1.00  0.00    -0.112 A  
HETATM   16  C   UNL     1     -10.204  10.451  69.915  1.00  0.00    -0.190 A  
HETATM   17  C   UNL     1      -9.242   9.562  70.395  1.00  0.00    -0.305 A  
HETATM   18  C   UNL     1      -7.947   9.587  69.879  1.00  0.00    -0.154 A  
HETATM   19  C   UNL     1      -7.609  10.500  68.877  1.00  0.00    -0.108 A  
HETATM   20  C   UNL     1      -8.566  11.394  68.394  1.00  0.00    -0.156 A  
ENDBRANCH  14  15
ENDBRANCH  12  14
ENDBRANCH   7  12
TORSDOF 3
ENDMDL
MODEL       70
REMARK 921   NORMALIZED FREE ENERGY PREDICTED BY IDOCK:   -5.07 KCAL/MOL
REMARK 922        TOTAL FREE ENERGY PREDICTED BY IDOCK:   -6.56 KCAL/MOL
REMARK 923 INTER-LIGAND FREE ENERGY PREDICTED BY IDOCK:   -5.87 KCAL/MOL
REMARK 924 INTRA-LIGAND FREE ENERGY PREDICTED BY IDOCK:   -0.69 KCAL/MOL
REMARK 927      BINDING AFFINITY PREDICTED BY RF-SCORE:    0.00 PKD
ROOT
HETATM    1  N   UNL     1      -8.862   3.480  70.073  1.00  0.00    -0.079 NA 
HETATM    2  H1  UNL     1      -8.710   3.284  69.083  1.00  0.00     0.000 HD 
HETATM    3  C   UNL     1      -9.812   4.430  70.463  1.00  0.00    -0.215 A  
HETATM    4  H2  UNL     1      -9.073   2.601  70.545  1.00  0.00     0.000 HD 
HETATM    5  C   UNL     1     -10.021   4.698  71.818  1.00  0.00    -0.260 A  
HETATM    6  C   UNL     1     -10.925   5.688  72.221  1.00  0.00    -0.258 A  
HETATM    7  C   UNL     1     -11.588   6.475  71.269  1.00  0.00    -0.381 A  
HETATM    8  O   UNL     1     -11.167   5.838  73.558  1.00  0.00    -0.455 OA 
HETATM    9  C   UNL     1     -10.405   5.267  69.518  1.00  0.00    -0.333 A  
HETATM   10  C   UNL     1     -11.303   6.266  69.912  1.00  0.00    -0.504 A  
HETATM   11  H   UNL     1     -11.780   6.511  73.831  1.00  0.00     0.000 HD 
ENDROOT
BRANCH   7  12
HETATM   12  C   UNL     1     -12.655   7.460  71.593  1.00  0.00    -0.358 C  
HETATM   13  O   UNL     1     -13.826   7.287  71.282  1.00  0.00    -0.362 OA 
BRANCH  12  14
HETATM   14  O   UNL     1     -12.139   8.553  72.266  1.00  0.00    -0.358 OA 
BRANCH  14  15
HETATM   15  C   UNL     1     -11.980   9.761  71.564  1.00  0.00    -0.407 A  
HETATM   16  C   UNL     1     -11.018   9.909  70.564  1.00  0.00    -0.391 A  
HETATM   17  C   UNL     1     -10.984  11.084  69.815  1.00  0.00    -0.258 A  
HETATM   18  C   UNL     1     -11.917  12.093  70.053  1.00  0.00    -0.391 A  
HETATM   19  C   UNL     1     -12.891  11.929  71.041  1.00  0.00    -0.291 A  
HETATM   20  C   UNL     1     -12.928  10.755  71.796  1.00  0.00    -0.568 A  
ENDBRANCH  14  15
ENDBRANCH  12  14
ENDBRANCH   7  12
TORSDOF 3
ENDMDL
MODEL       71
REMARK 921   NORMALIZED FREE ENERGY PREDICTED BY IDOCK:   -5.07 KCAL/MOL
REMARK 922        TOTAL FREE ENERGY PREDICTED BY IDOCK:   -6.55 KCAL/MOL
REMARK 923 INTER-LIGAND FREE ENERGY PREDICTED BY IDOCK:   -6.03 KCAL/MOL
REMARK 924 INTRA-LIGAND FREE ENERGY PREDICTED BY IDOCK:   -0.52 KCAL/MOL
REMARK 927      BINDING AFFINITY PREDICTED BY RF-SCORE:    0.00 PKD
ROOT
HETATM    1  N   UNL     1     -12.738   6.648  72.287  1.00  0.00    -0.551 NA 
HETATM    2  H1  UNL     1     -12.172   5.885  71.916  1.00  0.00     0.000 HD 
HETATM    3  C   UNL     1     -12.554   7.953  71.815  1.00  0.00    -0.328 A  
HETATM    4  H2  UNL     1     -13.722   6.401  72.176  1.00  0.00     0.000 HD 
HETATM    5  C   UNL     1     -13.330   8.997  72.322  1.00  0.00    -0.523 A  
HETATM    6  C   UNL     1     -13.116  10.316  71.904  1.00  0.00    -0.463 A  
HETATM    7  C   UNL     1     -12.074  10.620  71.017  1.00  0.00    -0.473 A  
HETATM    8  O   UNL     1     -13.970  11.285  72.353  1.00  0.00    -0.223 OA 
HETATM    9  C   UNL     1     -11.465   8.263  71.001  1.00  0.00    -0.303 A  
HETATM   10  C   UNL     1     -11.238   9.580  70.585  1.00  0.00    -0.364 A  
HETATM   11  H   UNL     1     -13.824  12.180  72.068  1.00  0.00     0.000 HD 
ENDROOT
BRANCH   7  12
HETATM   12  C   UNL     1     -11.848  11.964  70.419  1.00  0.00    -0.239 C  
HETATM   13  O   UNL     1     -12.293  12.989  70.918  1.00  0.00    -0.366 OA 
BRANCH  12  14
HETATM   14  O   UNL     1     -11.093  11.876  69.263  1.00  0.00    -0.240 OA 
BRANCH  14  15
HETATM   15  C   UNL     1     -11.306  12.826  68.248  1.00  0.00    -0.296 A  
HETATM   16  C   UNL     1     -10.723  14.092  68.293  1.00  0.00    -0.256 A  
HETATM   17  C   UNL     1     -10.865  14.952  67.204  1.00  0.00    -0.311 A  
HETATM   18  C   UNL     1     -11.570  14.538  66.074  1.00  0.00    -0.356 A  
HETATM   19  C   UNL     1     -12.134  13.261  66.028  1.00  0.00    -0.491 A  
HETATM   20  C   UNL     1     -11.997  12.397  67.116  1.00  0.00    -0.248 A  
ENDBRANCH  14  15
ENDBRANCH  12  14
ENDBRANCH   7  12
TORSDOF 3
ENDMDL
MODEL       72
REMARK 921   NORMALIZED FREE ENERGY PREDICTED BY IDOCK:   -5.07 KCAL/MOL
REMARK 922        TOTAL FREE ENERGY PREDICTED BY IDOCK:   -6.55 KCAL/MOL
REMARK 923 INTER-LIGAND FREE ENERGY PREDICTED BY IDOCK:   -5.82 KCAL/MOL
REMARK 924 INTRA-LIGAND FREE ENERGY PREDICTED BY IDOCK:   -0.74 KCAL/MOL
REMARK 927      BINDING AFFINITY PREDICTED BY RF-SCORE:    0.00 PKD
ROOT
HETATM    1  N   UNL     1      -9.360   8.464  66.299  1.00  0.00    -0.210 NA 
HETATM    2  H1  UNL     1      -9.388   8.133  67.264  1.00  0.00     0.000 HD 
HETATM    3  C   UNL     1      -9.916   9.703  65.965  1.00  0.00    -0.274 A  
HETATM    4  H2  UNL     1      -8.390   8.450  65.983  1.00  0.00     0.000 HD 
HETATM    5  C   UNL     1      -9.877  10.157  64.645  1.00  0.00    -0.361 A  
HETATM    6  C   UNL     1     -10.482  11.367  64.285  1.00  0.00    -0.342 A  
HETATM    7  C   UNL     1     -11.196  12.114  65.232  1.00  0.00    -0.381 A  
HETATM    8  O   UNL     1     -10.326  11.813  63.002  1.00  0.00    -0.623 OA 
HETATM    9  C   UNL     1     -10.696  10.400  66.888  1.00  0.00    -0.272 A  
HETATM   10  C   UNL     1     -11.313  11.606  66.535  1.00  0.00    -0.331 A  
HETATM   11  H   UNL     1     -10.737  12.635  62.759  1.00  0.00     0.000 HD 
ENDROOT
BRANCH   7  12
HETATM   12  C   UNL     1     -11.763  13.466  64.979  1.00  0.00    -0.325 C  
HETATM   13  O   UNL     1     -12.914  13.761  65.272  1.00  0.00    -0.731 OA 
BRANCH  12  14
HETATM   14  O   UNL     1     -10.830  14.296  64.384  1.00  0.00    -0.329 OA 
BRANCH  14  15
HETATM   15  C   UNL     1     -10.342  15.392  65.118  1.00  0.00    -0.374 A  
HETATM   16  C   UNL     1     -10.974  16.636  65.088  1.00  0.00    -0.160 A  
HETATM   17  C   UNL     1     -10.523  17.654  65.927  1.00  0.00    -0.247 A  
HETATM   18  C   UNL     1      -9.461  17.421  66.801  1.00  0.00    -0.282 A  
HETATM   19  C   UNL     1      -8.847  16.167  66.841  1.00  0.00    -0.246 A  
HETATM   20  C   UNL     1      -9.293  15.145  66.001  1.00  0.00    -0.326 A  
ENDBRANCH  14  15
ENDBRANCH  12  14
ENDBRANCH   7  12
TORSDOF 3
ENDMDL
MODEL       73
REMARK 921   NORMALIZED FREE ENERGY PREDICTED BY IDOCK:   -5.06 KCAL/MOL
REMARK 922        TOTAL FREE ENERGY PREDICTED BY IDOCK:   -6.55 KCAL/MOL
REMARK 923 INTER-LIGAND FREE ENERGY PREDICTED BY IDOCK:   -6.04 KCAL/MOL
REMARK 924 INTRA-LIGAND FREE ENERGY PREDICTED BY IDOCK:   -0.50 KCAL/MOL
REMARK 927      BINDING AFFINITY PREDICTED BY RF-SCORE:    0.00 PKD
ROOT
HETATM    1  N   UNL     1      -9.016   8.835  64.999  1.00  0.00    -0.403 NA 
HETATM    2  H1  UNL     1      -8.541   9.025  64.116  1.00  0.00     0.000 HD 
HETATM    3  C   UNL     1      -9.725   9.851  65.649  1.00  0.00    -0.279 A  
HETATM    4  H2  UNL     1      -9.643   8.041  64.862  1.00  0.00     0.000 HD 
HETATM    5  C   UNL     1     -10.375   9.590  66.857  1.00  0.00    -0.307 A  
HETATM    6  C   UNL     1     -11.037  10.612  67.549  1.00  0.00    -0.300 A  
HETATM    7  C   UNL     1     -11.003  11.930  67.073  1.00  0.00    -0.326 A  
HETATM    8  O   UNL     1     -11.743  10.282  68.672  1.00  0.00    -0.550 OA 
HETATM    9  C   UNL     1      -9.618  11.174  65.219  1.00  0.00    -0.268 A  
HETATM   10  C   UNL     1     -10.269  12.203  65.909  1.00  0.00    -0.272 A  
HETATM   11  H   UNL     1     -12.192  10.976  69.141  1.00  0.00     0.000 HD 
ENDROOT
BRANCH   7  12
HETATM   12  C   UNL     1     -11.777  13.054  67.665  1.00  0.00    -0.366 C  
HETATM   13  O   UNL     1     -12.739  13.559  67.101  1.00  0.00     0.053 OA 
BRANCH  12  14
HETATM   14  O   UNL     1     -11.259  13.425  68.893  1.00  0.00    -0.252 OA 
BRANCH  14  15
HETATM   15  C   UNL     1     -12.148  13.614  69.967  1.00  0.00    -0.348 A  
HETATM   16  C   UNL     1     -12.530  12.562  70.799  1.00  0.00    -0.357 A  
HETATM   17  C   UNL     1     -13.315  12.825  71.921  1.00  0.00    -0.510 A  
HETATM   18  C   UNL     1     -13.696  14.133  72.216  1.00  0.00    -0.623 A  
HETATM   19  C   UNL     1     -13.291  15.185  71.391  1.00  0.00    -0.547 A  
HETATM   20  C   UNL     1     -12.508  14.927  70.264  1.00  0.00    -0.386 A  
ENDBRANCH  14  15
ENDBRANCH  12  14
ENDBRANCH   7  12
TORSDOF 3
ENDMDL
MODEL       74
REMARK 921   NORMALIZED FREE ENERGY PREDICTED BY IDOCK:   -5.05 KCAL/MOL
REMARK 922        TOTAL FREE ENERGY PREDICTED BY IDOCK:   -6.53 KCAL/MOL
REMARK 923 INTER-LIGAND FREE ENERGY PREDICTED BY IDOCK:   -5.78 KCAL/MOL
REMARK 924 INTRA-LIGAND FREE ENERGY PREDICTED BY IDOCK:   -0.75 KCAL/MOL
REMARK 927      BINDING AFFINITY PREDICTED BY RF-SCORE:    0.00 PKD
ROOT
HETATM    1  N   UNL     1     -11.549  16.251  63.820  1.00  0.00    -1.482 NA 
HETATM    2  H1  UNL     1     -12.150  16.301  62.997  1.00  0.00     0.000 HD 
HETATM    3  C   UNL     1     -11.418  15.049  64.523  1.00  0.00    -0.318 A  
HETATM    4  H2  UNL     1     -10.617  16.574  63.557  1.00  0.00     0.000 HD 
HETATM    5  C   UNL     1     -10.595  14.981  65.649  1.00  0.00    -0.360 A  
HETATM    6  C   UNL     1     -10.501  13.801  66.397  1.00  0.00    -0.284 A  
HETATM    7  C   UNL     1     -11.283  12.686  66.067  1.00  0.00    -0.345 A  
HETATM    8  O   UNL     1      -9.604  13.757  67.428  1.00  0.00    -0.218 OA 
HETATM    9  C   UNL     1     -12.259  13.972  64.244  1.00  0.00    -0.453 A  
HETATM   10  C   UNL     1     -12.179  12.791  64.992  1.00  0.00    -0.527 A  
HETATM   11  H   UNL     1      -9.541  12.956  67.935  1.00  0.00     0.000 HD 
ENDROOT
BRANCH   7  12
HETATM   12  C   UNL     1     -11.162  11.355  66.720  1.00  0.00    -0.252 C  
HETATM   13  O   UNL     1     -11.278  11.202  67.928  1.00  0.00    -0.257 OA 
BRANCH  12  14
HETATM   14  O   UNL     1     -10.907  10.363  65.789  1.00  0.00    -0.008 OA 
BRANCH  14  15
HETATM   15  C   UNL     1      -9.676  10.381  65.110  1.00  0.00    -0.291 A  
HETATM   16  C   UNL     1      -8.467  10.161  65.773  1.00  0.00    -0.153 A  
HETATM   17  C   UNL     1      -7.288  10.067  65.035  1.00  0.00    -0.140 A  
HETATM   18  C   UNL     1      -7.323  10.174  63.645  1.00  0.00    -0.123 A  
HETATM   19  C   UNL     1      -8.539  10.372  62.986  1.00  0.00    -0.189 A  
HETATM   20  C   UNL     1      -9.722  10.470  63.720  1.00  0.00    -0.385 A  
ENDBRANCH  14  15
ENDBRANCH  12  14
ENDBRANCH   7  12
TORSDOF 3
ENDMDL
MODEL       75
REMARK 921   NORMALIZED FREE ENERGY PREDICTED BY IDOCK:   -5.02 KCAL/MOL
REMARK 922        TOTAL FREE ENERGY PREDICTED BY IDOCK:   -6.50 KCAL/MOL
REMARK 923 INTER-LIGAND FREE ENERGY PREDICTED BY IDOCK:   -5.82 KCAL/MOL
REMARK 924 INTRA-LIGAND FREE ENERGY PREDICTED BY IDOCK:   -0.68 KCAL/MOL
REMARK 927      BINDING AFFINITY PREDICTED BY RF-SCORE:    0.00 PKD
ROOT
HETATM    1  N   UNL     1     -12.227  10.932  68.339  1.00  0.00    -0.810 NA 
HETATM    2  H1  UNL     1     -12.457  10.780  69.321  1.00  0.00     0.000 HD 
HETATM    3  C   UNL     1     -11.398  11.996  67.967  1.00  0.00    -0.296 A  
HETATM    4  H2  UNL     1     -11.832  10.069  67.964  1.00  0.00     0.000 HD 
HETATM    5  C   UNL     1     -11.084  12.204  66.623  1.00  0.00    -0.353 A  
HETATM    6  C   UNL     1     -10.305  13.299  66.231  1.00  0.00    -0.290 A  
HETATM    7  C   UNL     1      -9.881  14.244  67.175  1.00  0.00    -0.252 A  
HETATM    8  O   UNL     1      -9.941  13.399  64.917  1.00  0.00    -0.545 OA 
HETATM    9  C   UNL     1     -11.050  12.978  68.895  1.00  0.00    -0.307 A  
HETATM   10  C   UNL     1     -10.279  14.082  68.510  1.00  0.00    -0.237 A  
HETATM   11  H   UNL     1      -9.413  14.142  64.651  1.00  0.00     0.000 HD 
ENDROOT
BRANCH   7  12
HETATM   12  C   UNL     1      -8.950  15.366  66.878  1.00  0.00    -0.247 C  
HETATM   13  O   UNL     1      -7.837  15.447  67.381  1.00  0.00    -0.154 OA 
BRANCH  12  14
HETATM   14  O   UNL     1      -9.515  16.263  65.989  1.00  0.00    -0.312 OA 
BRANCH  14  15
HETATM   15  C   UNL     1      -9.722  17.587  66.412  1.00  0.00    -0.288 A  
HETATM   16  C   UNL     1     -10.795  17.936  67.234  1.00  0.00    -0.188 A  
HETATM   17  C   UNL     1     -10.887  19.238  67.726  1.00  0.00    -0.416 A  
HETATM   18  C   UNL     1      -9.903  20.175  67.412  1.00  0.00    -0.573 A  
HETATM   19  C   UNL     1      -8.821  19.813  66.606  1.00  0.00    -0.418 A  
HETATM   20  C   UNL     1      -8.725  18.512  66.109  1.00  0.00    -0.137 A  
ENDBRANCH  14  15
ENDBRANCH  12  14
ENDBRANCH   7  12
TORSDOF 3
ENDMDL
MODEL       76
REMARK 921   NORMALIZED FREE ENERGY PREDICTED BY IDOCK:   -5.01 KCAL/MOL
REMARK 922        TOTAL FREE ENERGY PREDICTED BY IDOCK:   -6.48 KCAL/MOL
REMARK 923 INTER-LIGAND FREE ENERGY PREDICTED BY IDOCK:   -5.60 KCAL/MOL
REMARK 924 INTRA-LIGAND FREE ENERGY PREDICTED BY IDOCK:   -0.88 KCAL/MOL
REMARK 927      BINDING AFFINITY PREDICTED BY RF-SCORE:    0.00 PKD
ROOT
HETATM    1  N   UNL     1      -9.461  11.847  65.348  1.00  0.00    -0.400 NA 
HETATM    2  H1  UNL     1     -10.075  11.574  64.580  1.00  0.00     0.000 HD 
HETATM    3  C   UNL     1      -9.864  12.834  66.254  1.00  0.00    -0.267 A  
HETATM    4  H2  UNL     1      -9.213  11.008  65.874  1.00  0.00     0.000 HD 
HETATM    5  C   UNL     1      -9.024  13.206  67.305  1.00  0.00    -0.216 A  
HETATM    6  C   UNL     1      -9.388  14.234  68.184  1.00  0.00    -0.206 A  
HETATM    7  C   UNL     1     -10.575  14.952  67.984  1.00  0.00    -0.248 A  
HETATM    8  O   UNL     1      -8.578  14.488  69.255  1.00  0.00    -0.364 OA 
HETATM    9  C   UNL     1     -11.001  13.602  66.003  1.00  0.00    -0.288 A  
HETATM   10  C   UNL     1     -11.369  14.637  66.871  1.00  0.00    -0.361 A  
HETATM   11  H   UNL     1      -8.826  15.186  69.851  1.00  0.00     0.000 HD 
ENDROOT
BRANCH   7  12
HETATM   12  C   UNL     1     -11.108  15.970  68.929  1.00  0.00    -0.331 C  
HETATM   13  O   UNL     1     -12.240  15.910  69.390  1.00  0.00    -0.284 OA 
BRANCH  12  14
HETATM   14  O   UNL     1     -10.168  16.951  69.190  1.00  0.00    -0.283 OA 
BRANCH  14  15
HETATM   15  C   UNL     1      -9.852  17.865  68.170  1.00  0.00    -0.334 A  
HETATM   16  C   UNL     1     -10.786  18.784  67.690  1.00  0.00    -0.449 A  
HETATM   17  C   UNL     1     -10.387  19.750  66.767  1.00  0.00    -0.604 A  
HETATM   18  C   UNL     1      -9.060  19.805  66.342  1.00  0.00    -0.452 A  
HETATM   19  C   UNL     1      -8.125  18.895  66.842  1.00  0.00    -0.275 A  
HETATM   20  C   UNL     1      -8.519  17.925  67.765  1.00  0.00    -0.242 A  
ENDBRANCH  14  15
ENDBRANCH  12  14
ENDBRANCH   7  12
TORSDOF 3
ENDMDL
MODEL       77
REMARK 921   NORMALIZED FREE ENERGY PREDICTED BY IDOCK:   -4.99 KCAL/MOL
REMARK 922        TOTAL FREE ENERGY PREDICTED BY IDOCK:   -6.46 KCAL/MOL
REMARK 923 INTER-LIGAND FREE ENERGY PREDICTED BY IDOCK:   -5.80 KCAL/MOL
REMARK 924 INTRA-LIGAND FREE ENERGY PREDICTED BY IDOCK:   -0.67 KCAL/MOL
REMARK 927      BINDING AFFINITY PREDICTED BY RF-SCORE:    0.00 PKD
ROOT
HETATM    1  N   UNL     1     -11.602  14.211  66.329  1.00  0.00    -0.356 NA 
HETATM    2  H1  UNL     1     -11.415  13.824  65.404  1.00  0.00     0.000 HD 
HETATM    3  C   UNL     1     -11.648  13.369  67.446  1.00  0.00    -0.354 A  
HETATM    4  H2  UNL     1     -10.924  14.951  66.511  1.00  0.00     0.000 HD 
HETATM    5  C   UNL     1     -11.903  13.899  68.713  1.00  0.00    -0.396 A  
HETATM    6  C   UNL     1     -12.012  13.062  69.830  1.00  0.00    -0.311 A  
HETATM    7  C   UNL     1     -11.930  11.671  69.686  1.00  0.00    -0.390 A  
HETATM    8  O   UNL     1     -12.160  13.640  71.060  1.00  0.00    -0.425 OA 
HETATM    9  C   UNL     1     -11.652  11.984  67.288  1.00  0.00    -0.383 A  
HETATM   10  C   UNL     1     -11.769  11.139  68.398  1.00  0.00    -0.349 A  
HETATM   11  H   UNL     1     -12.234  13.072  71.818  1.00  0.00     0.000 HD 
ENDROOT
BRANCH   7  12
HETATM   12  C   UNL     1     -11.907  10.711  70.823  1.00  0.00    -0.357 C  
HETATM   13  O   UNL     1     -12.833  10.609  71.616  1.00  0.00    -0.414 OA 
BRANCH  12  14
HETATM   14  O   UNL     1     -10.727   9.988  70.843  1.00  0.00    -0.300 OA 
BRANCH  14  15
HETATM   15  C   UNL     1     -10.784   8.619  71.156  1.00  0.00    -0.240 A  
HETATM   16  C   UNL     1     -11.193   7.667  70.221  1.00  0.00    -0.230 A  
HETATM   17  C   UNL     1     -11.114   6.312  70.542  1.00  0.00    -0.399 A  
HETATM   18  C   UNL     1     -10.612   5.915  71.781  1.00  0.00    -0.286 A  
HETATM   19  C   UNL     1     -10.185   6.873  72.705  1.00  0.00    -0.210 A  
HETATM   20  C   UNL     1     -10.264   8.231  72.390  1.00  0.00    -0.397 A  
ENDBRANCH  14  15
ENDBRANCH  12  14
ENDBRANCH   7  12
TORSDOF 3
ENDMDL
MODEL       78
REMARK 921   NORMALIZED FREE ENERGY PREDICTED BY IDOCK:   -4.99 KCAL/MOL
REMARK 922        TOTAL FREE ENERGY PREDICTED BY IDOCK:   -6.46 KCAL/MOL
REMARK 923 INTER-LIGAND FREE ENERGY PREDICTED BY IDOCK:   -5.98 KCAL/MOL
REMARK 924 INTRA-LIGAND FREE ENERGY PREDICTED BY IDOCK:   -0.48 KCAL/MOL
REMARK 927      BINDING AFFINITY PREDICTED BY RF-SCORE:    0.00 PKD
ROOT
HETATM    1  N   UNL     1     -13.397  12.421  64.699  1.00  0.00    -0.607 NA 
HETATM    2  H1  UNL     1     -13.920  12.659  63.856  1.00  0.00     0.000 HD 
HETATM    3  C   UNL     1     -12.472  13.326  65.231  1.00  0.00    -0.489 A  
HETATM    4  H2  UNL     1     -14.063  12.173  65.431  1.00  0.00     0.000 HD 
HETATM    5  C   UNL     1     -11.756  12.999  66.385  1.00  0.00    -0.444 A  
HETATM    6  C   UNL     1     -10.784  13.869  66.894  1.00  0.00    -0.284 A  
HETATM    7  C   UNL     1     -10.467  15.055  66.218  1.00  0.00    -0.309 A  
HETATM    8  O   UNL     1     -10.187  13.549  68.082  1.00  0.00    -0.235 OA 
HETATM    9  C   UNL     1     -12.098  14.460  64.511  1.00  0.00    -0.498 A  
HETATM   10  C   UNL     1     -11.121  15.331  65.008  1.00  0.00    -0.436 A  
HETATM   11  H   UNL     1      -9.527  14.140  68.427  1.00  0.00     0.000 HD 
ENDROOT
BRANCH   7  12
HETATM   12  C   UNL     1      -9.545  16.098  66.743  1.00  0.00    -0.240 C  
HETATM   13  O   UNL     1      -8.869  15.932  67.749  1.00  0.00    -0.173 OA 
BRANCH  12  14
HETATM   14  O   UNL     1      -9.574  17.234  65.953  1.00  0.00    -0.500 OA 
BRANCH  14  15
HETATM   15  C   UNL     1      -8.813  18.347  66.350  1.00  0.00    -0.248 A  
HETATM   16  C   UNL     1      -9.362  19.380  67.112  1.00  0.00    -0.390 A  
HETATM   17  C   UNL     1      -8.535  20.399  67.584  1.00  0.00    -0.291 A  
HETATM   18  C   UNL     1      -7.168  20.373  67.310  1.00  0.00    -0.345 A  
HETATM   19  C   UNL     1      -6.621  19.325  66.564  1.00  0.00    -0.198 A  
HETATM   20  C   UNL     1      -7.445  18.304  66.087  1.00  0.00    -0.291 A  
ENDBRANCH  14  15
ENDBRANCH  12  14
ENDBRANCH   7  12
TORSDOF 3
ENDMDL
MODEL       79
REMARK 921   NORMALIZED FREE ENERGY PREDICTED BY IDOCK:   -4.99 KCAL/MOL
REMARK 922        TOTAL FREE ENERGY PREDICTED BY IDOCK:   -6.46 KCAL/MOL
REMARK 923 INTER-LIGAND FREE ENERGY PREDICTED BY IDOCK:   -5.89 KCAL/MOL
REMARK 924 INTRA-LIGAND FREE ENERGY PREDICTED BY IDOCK:   -0.57 KCAL/MOL
REMARK 927      BINDING AFFINITY PREDICTED BY RF-SCORE:    0.00 PKD
ROOT
HETATM    1  N   UNL     1      -8.065  21.113  66.969  1.00  0.00    -0.630 NA 
HETATM    2  H1  UNL     1      -8.505  21.798  66.354  1.00  0.00     0.000 HD 
HETATM    3  C   UNL     1      -8.660  19.862  67.169  1.00  0.00    -0.325 A  
HETATM    4  H2  UNL     1      -7.106  20.966  66.652  1.00  0.00     0.000 HD 
HETATM    5  C   UNL     1      -8.058  18.925  68.010  1.00  0.00    -0.321 A  
HETATM    6  C   UNL     1      -8.672  17.694  68.267  1.00  0.00    -0.276 A  
HETATM    7  C   UNL     1      -9.937  17.406  67.734  1.00  0.00    -0.301 A  
HETATM    8  O   UNL     1      -7.992  16.774  69.014  1.00  0.00    -0.238 OA 
HETATM    9  C   UNL     1      -9.953  19.614  66.708  1.00  0.00    -0.521 A  
HETATM   10  C   UNL     1     -10.580  18.389  66.967  1.00  0.00    -0.400 A  
HETATM   11  H   UNL     1      -8.410  15.938  69.189  1.00  0.00     0.000 HD 
ENDROOT
BRANCH   7  12
HETATM   12  C   UNL     1     -10.612  16.085  67.845  1.00  0.00    -0.301 C  
HETATM   13  O   UNL     1     -11.384  15.668  66.993  1.00  0.00    -0.209 OA 
BRANCH  12  14
HETATM   14  O   UNL     1     -10.249  15.434  69.011  1.00  0.00    -0.212 OA 
BRANCH  14  15
HETATM   15  C   UNL     1     -11.257  15.086  69.927  1.00  0.00    -0.276 A  
HETATM   16  C   UNL     1     -11.891  16.042  70.721  1.00  0.00    -0.372 A  
HETATM   17  C   UNL     1     -12.967  15.663  71.523  1.00  0.00    -0.549 A  
HETATM   18  C   UNL     1     -13.415  14.342  71.514  1.00  0.00    -0.443 A  
HETATM   19  C   UNL     1     -12.789  13.395  70.700  1.00  0.00    -0.157 A  
HETATM   20  C   UNL     1     -11.709  13.768  69.898  1.00  0.00    -0.353 A  
ENDBRANCH  14  15
ENDBRANCH  12  14
ENDBRANCH   7  12
TORSDOF 3
ENDMDL
MODEL       80
REMARK 921   NORMALIZED FREE ENERGY PREDICTED BY IDOCK:   -4.96 KCAL/MOL
REMARK 922        TOTAL FREE ENERGY PREDICTED BY IDOCK:   -6.42 KCAL/MOL
REMARK 923 INTER-LIGAND FREE ENERGY PREDICTED BY IDOCK:   -5.95 KCAL/MOL
REMARK 924 INTRA-LIGAND FREE ENERGY PREDICTED BY IDOCK:   -0.48 KCAL/MOL
REMARK 927      BINDING AFFINITY PREDICTED BY RF-SCORE:    0.00 PKD
ROOT
HETATM    1  N   UNL     1     -12.282  10.930  68.898  1.00  0.00    -0.764 NA 
HETATM    2  H1  UNL     1     -11.694  11.333  68.169  1.00  0.00     0.000 HD 
HETATM    3  C   UNL     1     -11.701  10.248  69.973  1.00  0.00    -0.254 A  
HETATM    4  H2  UNL     1     -12.881  11.668  69.272  1.00  0.00     0.000 HD 
HETATM    5  C   UNL     1     -12.506   9.697  70.972  1.00  0.00    -0.382 A  
HETATM    6  C   UNL     1     -11.943   8.960  72.020  1.00  0.00    -0.369 A  
HETATM    7  C   UNL     1     -10.564   8.706  72.050  1.00  0.00    -0.421 A  
HETATM    8  O   UNL     1     -12.764   8.531  73.025  1.00  0.00    -0.679 OA 
HETATM    9  C   UNL     1     -10.344   9.925  69.954  1.00  0.00    -0.298 A  
HETATM   10  C   UNL     1      -9.773   9.181  70.993  1.00  0.00    -0.359 A  
HETATM   11  H   UNL     1     -12.381   8.030  73.736  1.00  0.00     0.000 HD 
ENDROOT
BRANCH   7  12
HETATM   12  C   UNL     1      -9.858   8.045  73.180  1.00  0.00    -0.262 C  
HETATM   13  O   UNL     1      -8.735   8.376  73.537  1.00  0.00    -0.277 OA 
BRANCH  12  14
HETATM   14  O   UNL     1     -10.632   7.042  73.736  1.00  0.00    -0.375 OA 
BRANCH  14  15
HETATM   15  C   UNL     1     -10.432   5.720  73.300  1.00  0.00    -0.233 A  
HETATM   16  C   UNL     1     -10.878   4.626  74.043  1.00  0.00    -0.328 A  
HETATM   17  C   UNL     1     -10.765   3.343  73.510  1.00  0.00    -0.306 A  
HETATM   18  C   UNL     1     -10.226   3.160  72.236  1.00  0.00    -0.173 A  
HETATM   19  C   UNL     1      -9.801   4.262  71.490  1.00  0.00    -0.260 A  
HETATM   20  C   UNL     1      -9.910   5.549  72.020  1.00  0.00    -0.204 A  
ENDBRANCH  14  15
ENDBRANCH  12  14
ENDBRANCH   7  12
TORSDOF 3
ENDMDL
MODEL       81
REMARK 921   NORMALIZED FREE ENERGY PREDICTED BY IDOCK:   -4.94 KCAL/MOL
REMARK 922        TOTAL FREE ENERGY PREDICTED BY IDOCK:   -6.41 KCAL/MOL
REMARK 923 INTER-LIGAND FREE ENERGY PREDICTED BY IDOCK:   -5.80 KCAL/MOL
REMARK 924 INTRA-LIGAND FREE ENERGY PREDICTED BY IDOCK:   -0.61 KCAL/MOL
REMARK 927      BINDING AFFINITY PREDICTED BY RF-SCORE:    0.00 PKD
ROOT
HETATM    1  N   UNL     1     -10.018  14.116  64.330  1.00  0.00    -0.609 NA 
HETATM    2  H1  UNL     1     -10.670  14.092  63.546  1.00  0.00     0.000 HD 
HETATM    3  C   UNL     1     -10.441  13.727  65.607  1.00  0.00    -0.305 A  
HETATM    4  H2  UNL     1      -9.196  13.565  64.082  1.00  0.00     0.000 HD 
HETATM    5  C   UNL     1      -9.549  13.759  66.681  1.00  0.00    -0.295 A  
HETATM    6  C   UNL     1      -9.974  13.431  67.974  1.00  0.00    -0.239 A  
HETATM    7  C   UNL     1     -11.319  13.128  68.224  1.00  0.00    -0.333 A  
HETATM    8  O   UNL     1      -9.038  13.379  68.969  1.00  0.00    -0.366 OA 
HETATM    9  C   UNL     1     -11.794  13.510  65.867  1.00  0.00    -0.405 A  
HETATM   10  C   UNL     1     -12.229  13.190  67.159  1.00  0.00    -0.250 A  
HETATM   11  H   UNL     1      -9.327  13.156  69.847  1.00  0.00     0.000 HD 
ENDROOT
BRANCH   7  12
HETATM   12  C   UNL     1     -11.840  12.647  69.532  1.00  0.00    -0.312 C  
HETATM   13  O   UNL     1     -11.745  13.305  70.560  1.00  0.00    -0.194 OA 
BRANCH  12  14
HETATM   14  O   UNL     1     -12.417  11.395  69.411  1.00  0.00    -0.213 OA 
BRANCH  14  15
HETATM   15  C   UNL     1     -12.072  10.403  70.345  1.00  0.00    -0.315 A  
HETATM   16  C   UNL     1     -10.832   9.764  70.314  1.00  0.00    -0.356 A  
HETATM   17  C   UNL     1     -10.491   8.877  71.335  1.00  0.00    -0.375 A  
HETATM   18  C   UNL     1     -11.378   8.648  72.387  1.00  0.00    -0.353 A  
HETATM   19  C   UNL     1     -12.610   9.308  72.423  1.00  0.00    -0.348 A  
HETATM   20  C   UNL     1     -12.956  10.194  71.402  1.00  0.00    -0.528 A  
ENDBRANCH  14  15
ENDBRANCH  12  14
ENDBRANCH   7  12
TORSDOF 3
ENDMDL
MODEL       82
REMARK 921   NORMALIZED FREE ENERGY PREDICTED BY IDOCK:   -4.94 KCAL/MOL
REMARK 922        TOTAL FREE ENERGY PREDICTED BY IDOCK:   -6.40 KCAL/MOL
REMARK 923 INTER-LIGAND FREE ENERGY PREDICTED BY IDOCK:   -5.83 KCAL/MOL
REMARK 924 INTRA-LIGAND FREE ENERGY PREDICTED BY IDOCK:   -0.57 KCAL/MOL
REMARK 927      BINDING AFFINITY PREDICTED BY RF-SCORE:    0.00 PKD
ROOT
HETATM    1  N   UNL     1      -8.618  18.909  68.473  1.00  0.00    -0.340 NA 
HETATM    2  H1  UNL     1      -9.135  19.729  68.155  1.00  0.00     0.000 HD 
HETATM    3  C   UNL     1      -9.204  17.640  68.405  1.00  0.00    -0.288 A  
HETATM    4  H2  UNL     1      -7.727  18.879  67.977  1.00  0.00     0.000 HD 
HETATM    5  C   UNL     1      -8.496  16.517  68.840  1.00  0.00    -0.235 A  
HETATM    6  C   UNL     1      -9.092  15.250  68.834  1.00  0.00    -0.209 A  
HETATM    7  C   UNL     1     -10.432  15.095  68.453  1.00  0.00    -0.233 A  
HETATM    8  O   UNL     1      -8.322  14.171  69.172  1.00  0.00    -0.346 OA 
HETATM    9  C   UNL     1     -10.560  17.502  68.108  1.00  0.00    -0.366 A  
HETATM   10  C   UNL     1     -11.166  16.240  68.108  1.00  0.00    -0.298 A  
HETATM   11  H   UNL     1      -8.727  13.311  69.168  1.00  0.00     0.000 HD 
ENDROOT
BRANCH   7  12
HETATM   12  C   UNL     1     -11.112  13.782  68.294  1.00  0.00    -0.255 C  
HETATM   13  O   UNL     1     -10.803  12.798  68.953  1.00  0.00    -0.238 OA 
BRANCH  12  14
HETATM   14  O   UNL     1     -12.099  13.843  67.327  1.00  0.00    -0.401 OA 
BRANCH  14  15
HETATM   15  C   UNL     1     -11.816  13.338  66.046  1.00  0.00    -0.395 A  
HETATM   16  C   UNL     1     -11.173  12.112  65.865  1.00  0.00    -0.384 A  
HETATM   17  C   UNL     1     -11.027  11.598  64.577  1.00  0.00    -0.376 A  
HETATM   18  C   UNL     1     -11.536  12.297  63.483  1.00  0.00    -0.570 A  
HETATM   19  C   UNL     1     -12.197  13.513  63.673  1.00  0.00    -0.438 A  
HETATM   20  C   UNL     1     -12.345  14.034  64.960  1.00  0.00    -0.458 A  
ENDBRANCH  14  15
ENDBRANCH  12  14
ENDBRANCH   7  12
TORSDOF 3
ENDMDL
MODEL       83
REMARK 921   NORMALIZED FREE ENERGY PREDICTED BY IDOCK:   -4.93 KCAL/MOL
REMARK 922        TOTAL FREE ENERGY PREDICTED BY IDOCK:   -6.39 KCAL/MOL
REMARK 923 INTER-LIGAND FREE ENERGY PREDICTED BY IDOCK:   -6.26 KCAL/MOL
REMARK 924 INTRA-LIGAND FREE ENERGY PREDICTED BY IDOCK:   -0.14 KCAL/MOL
REMARK 927      BINDING AFFINITY PREDICTED BY RF-SCORE:    0.00 PKD
ROOT
HETATM    1  N   UNL     1      -9.946   9.963  65.346  1.00  0.00    -0.316 NA 
HETATM    2  H1  UNL     1      -9.487   9.057  65.442  1.00  0.00     0.000 HD 
HETATM    3  C   UNL     1     -10.416  10.636  66.480  1.00  0.00    -0.224 A  
HETATM    4  H2  UNL     1      -9.319  10.588  64.838  1.00  0.00     0.000 HD 
HETATM    5  C   UNL     1     -11.043  11.876  66.349  1.00  0.00    -0.359 A  
HETATM    6  C   UNL     1     -11.572  12.532  67.468  1.00  0.00    -0.361 A  
HETATM    7  C   UNL     1     -11.539  11.924  68.730  1.00  0.00    -0.366 A  
HETATM    8  O   UNL     1     -12.083  13.789  67.300  1.00  0.00    -0.389 OA 
HETATM    9  C   UNL     1     -10.458   9.992  67.717  1.00  0.00    -0.282 A  
HETATM   10  C   UNL     1     -10.993  10.636  68.838  1.00  0.00    -0.296 A  
HETATM   11  H   UNL     1     -12.442  14.233  68.059  1.00  0.00     0.000 HD 
ENDROOT
BRANCH   7  12
HETATM   12  C   UNL     1     -11.959  12.590  69.993  1.00  0.00    -0.299 C  
HETATM   13  O   UNL     1     -12.003  11.999  71.064  1.00  0.00    -0.133 OA 
BRANCH  12  14
HETATM   14  O   UNL     1     -12.279  13.918  69.775  1.00  0.00    -0.330 OA 
BRANCH  14  15
HETATM   15  C   UNL     1     -12.685  14.699  70.871  1.00  0.00    -0.348 A  
HETATM   16  C   UNL     1     -14.032  14.945  71.140  1.00  0.00    -0.403 A  
HETATM   17  C   UNL     1     -14.387  15.621  72.307  1.00  0.00    -0.480 A  
HETATM   18  C   UNL     1     -13.401  16.030  73.204  1.00  0.00    -0.624 A  
HETATM   19  C   UNL     1     -12.055  15.763  72.939  1.00  0.00    -0.596 A  
HETATM   20  C   UNL     1     -11.695  15.088  71.771  1.00  0.00    -0.452 A  
ENDBRANCH  14  15
ENDBRANCH  12  14
ENDBRANCH   7  12
TORSDOF 3
ENDMDL
MODEL       84
REMARK 921   NORMALIZED FREE ENERGY PREDICTED BY IDOCK:   -4.93 KCAL/MOL
REMARK 922        TOTAL FREE ENERGY PREDICTED BY IDOCK:   -6.39 KCAL/MOL
REMARK 923 INTER-LIGAND FREE ENERGY PREDICTED BY IDOCK:   -5.77 KCAL/MOL
REMARK 924 INTRA-LIGAND FREE ENERGY PREDICTED BY IDOCK:   -0.62 KCAL/MOL
REMARK 927      BINDING AFFINITY PREDICTED BY RF-SCORE:    0.00 PKD
ROOT
HETATM    1  N   UNL     1     -10.777   8.900  69.126  1.00  0.00    -0.364 NA 
HETATM    2  H1  UNL     1     -11.012   8.823  70.115  1.00  0.00     0.000 HD 
HETATM    3  C   UNL     1     -10.954  10.114  68.453  1.00  0.00    -0.244 A  
HETATM    4  H2  UNL     1      -9.809   8.601  69.002  1.00  0.00     0.000 HD 
HETATM    5  C   UNL     1     -10.632  10.219  67.099  1.00  0.00    -0.320 A  
HETATM    6  C   UNL     1     -10.860  11.409  66.398  1.00  0.00    -0.271 A  
HETATM    7  C   UNL     1     -11.479  12.497  67.030  1.00  0.00    -0.419 A  
HETATM    8  O   UNL     1     -10.432  11.492  65.103  1.00  0.00    -0.265 OA 
HETATM    9  C   UNL     1     -11.646  11.163  69.059  1.00  0.00    -0.392 A  
HETATM   10  C   UNL     1     -11.888  12.354  68.364  1.00  0.00    -0.361 A  
HETATM   11  H   UNL     1     -10.587  12.300  64.628  1.00  0.00     0.000 HD 
ENDROOT
BRANCH   7  12
HETATM   12  C   UNL     1     -11.649  13.840  66.410  1.00  0.00    -0.360 C  
HETATM   13  O   UNL     1     -12.738  14.261  66.044  1.00  0.00    -0.430 OA 
BRANCH  12  14
HETATM   14  O   UNL     1     -10.439  14.503  66.314  1.00  0.00    -0.288 OA 
BRANCH  14  15
HETATM   15  C   UNL     1     -10.384  15.858  66.686  1.00  0.00    -0.300 A  
HETATM   16  C   UNL     1     -10.424  16.882  65.739  1.00  0.00    -0.279 A  
HETATM   17  C   UNL     1     -10.491  18.208  66.165  1.00  0.00    -0.377 A  
HETATM   18  C   UNL     1     -10.538  18.503  67.527  1.00  0.00    -0.461 A  
HETATM   19  C   UNL     1     -10.520  17.472  68.470  1.00  0.00    -0.361 A  
HETATM   20  C   UNL     1     -10.449  16.142  68.049  1.00  0.00    -0.281 A  
ENDBRANCH  14  15
ENDBRANCH  12  14
ENDBRANCH   7  12
TORSDOF 3
ENDMDL
MODEL       85
REMARK 921   NORMALIZED FREE ENERGY PREDICTED BY IDOCK:   -4.93 KCAL/MOL
REMARK 922        TOTAL FREE ENERGY PREDICTED BY IDOCK:   -6.39 KCAL/MOL
REMARK 923 INTER-LIGAND FREE ENERGY PREDICTED BY IDOCK:   -5.92 KCAL/MOL
REMARK 924 INTRA-LIGAND FREE ENERGY PREDICTED BY IDOCK:   -0.46 KCAL/MOL
REMARK 927      BINDING AFFINITY PREDICTED BY RF-SCORE:    0.00 PKD
ROOT
HETATM    1  N   UNL     1     -13.499  15.538  70.939  1.00  0.00    -0.782 NA 
HETATM    2  H1  UNL     1     -14.052  14.815  71.399  1.00  0.00     0.000 HD 
HETATM    3  C   UNL     1     -12.497  15.184  70.028  1.00  0.00    -0.277 A  
HETATM    4  H2  UNL     1     -14.138  16.187  70.479  1.00  0.00     0.000 HD 
HETATM    5  C   UNL     1     -11.741  16.175  69.398  1.00  0.00    -0.213 A  
HETATM    6  C   UNL     1     -10.697  15.834  68.530  1.00  0.00    -0.274 A  
HETATM    7  C   UNL     1     -10.349  14.491  68.329  1.00  0.00    -0.236 A  
HETATM    8  O   UNL     1     -10.056  16.839  67.861  1.00  0.00    -0.265 OA 
HETATM    9  C   UNL     1     -12.099  13.854  69.897  1.00  0.00    -0.406 A  
HETATM   10  C   UNL     1     -11.050  13.504  69.039  1.00  0.00    -0.293 A  
HETATM   11  H   UNL     1      -9.347  16.607  67.272  1.00  0.00     0.000 HD 
ENDROOT
BRANCH   7  12
HETATM   12  C   UNL     1      -9.344  14.025  67.336  1.00  0.00    -0.220 C  
HETATM   13  O   UNL     1      -8.325  14.656  67.087  1.00  0.00    -0.200 OA 
BRANCH  12  14
HETATM   14  O   UNL     1      -9.725  12.825  66.764  1.00  0.00    -0.230 OA 
BRANCH  14  15
HETATM   15  C   UNL     1     -10.450  12.856  65.560  1.00  0.00    -0.289 A  
HETATM   16  C   UNL     1     -10.418  11.794  64.654  1.00  0.00    -0.347 A  
HETATM   17  C   UNL     1     -11.249  11.821  63.535  1.00  0.00    -0.494 A  
HETATM   18  C   UNL     1     -12.118  12.894  63.336  1.00  0.00    -0.610 A  
HETATM   19  C   UNL     1     -12.161  13.943  64.257  1.00  0.00    -0.477 A  
HETATM   20  C   UNL     1     -11.329  13.922  65.378  1.00  0.00    -0.311 A  
ENDBRANCH  14  15
ENDBRANCH  12  14
ENDBRANCH   7  12
TORSDOF 3
ENDMDL
MODEL       86
REMARK 921   NORMALIZED FREE ENERGY PREDICTED BY IDOCK:   -4.88 KCAL/MOL
REMARK 922        TOTAL FREE ENERGY PREDICTED BY IDOCK:   -6.33 KCAL/MOL
REMARK 923 INTER-LIGAND FREE ENERGY PREDICTED BY IDOCK:   -5.66 KCAL/MOL
REMARK 924 INTRA-LIGAND FREE ENERGY PREDICTED BY IDOCK:   -0.67 KCAL/MOL
REMARK 927      BINDING AFFINITY PREDICTED BY RF-SCORE:    0.00 PKD
ROOT
HETATM    1  N   UNL     1      -9.196   4.553  72.831  1.00  0.00    -0.123 NA 
HETATM    2  H1  UNL     1      -8.645   4.575  73.689  1.00  0.00     0.000 HD 
HETATM    3  C   UNL     1     -10.012   5.638  72.492  1.00  0.00    -0.168 A  
HETATM    4  H2  UNL     1      -8.567   4.366  72.049  1.00  0.00     0.000 HD 
HETATM    5  C   UNL     1     -10.766   5.608  71.317  1.00  0.00    -0.312 A  
HETATM    6  C   UNL     1     -11.632   6.660  70.995  1.00  0.00    -0.346 A  
HETATM    7  C   UNL     1     -11.806   7.733  71.880  1.00  0.00    -0.338 A  
HETATM    8  O   UNL     1     -12.269   6.628  69.786  1.00  0.00    -0.574 OA 
HETATM    9  C   UNL     1     -10.247   6.660  73.411  1.00  0.00    -0.275 A  
HETATM   10  C   UNL     1     -11.118   7.711  73.102  1.00  0.00    -0.373 A  
HETATM   11  H   UNL     1     -12.857   7.342  69.568  1.00  0.00     0.000 HD 
ENDROOT
BRANCH   7  12
HETATM   12  C   UNL     1     -12.603   8.952  71.573  1.00  0.00    -0.331 C  
HETATM   13  O   UNL     1     -13.813   8.918  71.394  1.00  0.00    -0.354 OA 
BRANCH  12  14
HETATM   14  O   UNL     1     -11.797  10.075  71.519  1.00  0.00    -0.377 OA 
BRANCH  14  15
HETATM   15  C   UNL     1     -11.826  10.867  70.358  1.00  0.00    -0.357 A  
HETATM   16  C   UNL     1     -12.118  12.231  70.406  1.00  0.00    -0.385 A  
HETATM   17  C   UNL     1     -12.013  12.996  69.245  1.00  0.00    -0.331 A  
HETATM   18  C   UNL     1     -11.601  12.403  68.052  1.00  0.00    -0.403 A  
HETATM   19  C   UNL     1     -11.289  11.042  68.016  1.00  0.00    -0.374 A  
HETATM   20  C   UNL     1     -11.395  10.271  69.175  1.00  0.00    -0.244 A  
ENDBRANCH  14  15
ENDBRANCH  12  14
ENDBRANCH   7  12
TORSDOF 3
ENDMDL
MODEL       87
REMARK 921   NORMALIZED FREE ENERGY PREDICTED BY IDOCK:   -4.86 KCAL/MOL
REMARK 922        TOTAL FREE ENERGY PREDICTED BY IDOCK:   -6.30 KCAL/MOL
REMARK 923 INTER-LIGAND FREE ENERGY PREDICTED BY IDOCK:   -5.92 KCAL/MOL
REMARK 924 INTRA-LIGAND FREE ENERGY PREDICTED BY IDOCK:   -0.38 KCAL/MOL
REMARK 927      BINDING AFFINITY PREDICTED BY RF-SCORE:    0.00 PKD
ROOT
HETATM    1  N   UNL     1      -8.897  18.342  66.798  1.00  0.00    -0.270 NA 
HETATM    2  H1  UNL     1      -9.099  19.112  67.436  1.00  0.00     0.000 HD 
HETATM    3  C   UNL     1      -9.659  17.169  66.849  1.00  0.00    -0.262 A  
HETATM    4  H2  UNL     1      -8.922  18.701  65.843  1.00  0.00     0.000 HD 
HETATM    5  C   UNL     1      -9.383  16.115  65.976  1.00  0.00    -0.368 A  
HETATM    6  C   UNL     1     -10.097  14.914  66.056  1.00  0.00    -0.311 A  
HETATM    7  C   UNL     1     -11.058  14.724  67.058  1.00  0.00    -0.333 A  
HETATM    8  O   UNL     1      -9.858  13.954  65.113  1.00  0.00    -0.566 OA 
HETATM    9  C   UNL     1     -10.552  16.952  67.898  1.00  0.00    -0.361 A  
HETATM   10  C   UNL     1     -11.264  15.751  67.992  1.00  0.00    -0.338 A  
HETATM   11  H   UNL     1     -10.343  13.139  65.167  1.00  0.00     0.000 HD 
ENDROOT
BRANCH   7  12
HETATM   12  C   UNL     1     -11.953  13.538  67.147  1.00  0.00    -0.381 C  
HETATM   13  O   UNL     1     -12.352  12.940  66.157  1.00  0.00    -0.495 OA 
BRANCH  12  14
HETATM   14  O   UNL     1     -12.253  13.236  68.464  1.00  0.00    -0.272 OA 
BRANCH  14  15
HETATM   15  C   UNL     1     -11.699  12.073  69.028  1.00  0.00    -0.325 A  
HETATM   16  C   UNL     1     -12.082  11.614  70.289  1.00  0.00    -0.443 A  
HETATM   17  C   UNL     1     -11.596  10.391  70.750  1.00  0.00    -0.450 A  
HETATM   18  C   UNL     1     -10.748   9.628  69.948  1.00  0.00    -0.283 A  
HETATM   19  C   UNL     1     -10.385  10.085  68.678  1.00  0.00    -0.211 A  
HETATM   20  C   UNL     1     -10.867  11.309  68.212  1.00  0.00    -0.249 A  
ENDBRANCH  14  15
ENDBRANCH  12  14
ENDBRANCH   7  12
TORSDOF 3
ENDMDL
MODEL       88
REMARK 921   NORMALIZED FREE ENERGY PREDICTED BY IDOCK:   -4.83 KCAL/MOL
REMARK 922        TOTAL FREE ENERGY PREDICTED BY IDOCK:   -6.28 KCAL/MOL
REMARK 923 INTER-LIGAND FREE ENERGY PREDICTED BY IDOCK:   -5.99 KCAL/MOL
REMARK 924 INTRA-LIGAND FREE ENERGY PREDICTED BY IDOCK:   -0.29 KCAL/MOL
REMARK 927      BINDING AFFINITY PREDICTED BY RF-SCORE:    0.00 PKD
ROOT
HETATM    1  N   UNL     1     -11.611   7.687  73.182  1.00  0.00    -0.636 NA 
HETATM    2  H1  UNL     1     -12.415   7.458  73.768  1.00  0.00     0.000 HD 
HETATM    3  C   UNL     1     -11.686   8.743  72.268  1.00  0.00    -0.328 A  
HETATM    4  H2  UNL     1     -10.805   7.842  73.789  1.00  0.00     0.000 HD 
HETATM    5  C   UNL     1     -10.586   9.056  71.466  1.00  0.00    -0.415 A  
HETATM    6  C   UNL     1     -10.666  10.071  70.505  1.00  0.00    -0.285 A  
HETATM    7  C   UNL     1     -11.874  10.748  70.286  1.00  0.00    -0.438 A  
HETATM    8  O   UNL     1      -9.532  10.405  69.820  1.00  0.00    -0.389 OA 
HETATM    9  C   UNL     1     -12.909   9.355  71.993  1.00  0.00    -0.496 A  
HETATM   10  C   UNL     1     -13.001  10.364  71.028  1.00  0.00    -0.490 A  
HETATM   11  H   UNL     1      -9.587  11.094  69.168  1.00  0.00     0.000 HD 
ENDROOT
BRANCH   7  12
HETATM   12  C   UNL     1     -12.025  11.920  69.381  1.00  0.00    -0.289 C  
HETATM   13  O   UNL     1     -12.199  11.801  68.176  1.00  0.00    -0.507 OA 
BRANCH  12  14
HETATM   14  O   UNL     1     -11.938  13.108  70.084  1.00  0.00    -0.334 OA 
BRANCH  14  15
HETATM   15  C   UNL     1     -11.134  14.138  69.565  1.00  0.00    -0.178 A  
HETATM   16  C   UNL     1      -9.985  13.869  68.820  1.00  0.00    -0.139 A  
HETATM   17  C   UNL     1      -9.292  14.922  68.223  1.00  0.00    -0.195 A  
HETATM   18  C   UNL     1      -9.758  16.230  68.358  1.00  0.00    -0.222 A  
HETATM   19  C   UNL     1     -10.921  16.490  69.087  1.00  0.00    -0.303 A  
HETATM   20  C   UNL     1     -11.617  15.440  69.688  1.00  0.00    -0.344 A  
ENDBRANCH  14  15
ENDBRANCH  12  14
ENDBRANCH   7  12
TORSDOF 3
ENDMDL
MODEL       89
REMARK 921   NORMALIZED FREE ENERGY PREDICTED BY IDOCK:   -4.82 KCAL/MOL
REMARK 922        TOTAL FREE ENERGY PREDICTED BY IDOCK:   -6.26 KCAL/MOL
REMARK 923 INTER-LIGAND FREE ENERGY PREDICTED BY IDOCK:   -5.75 KCAL/MOL
REMARK 924 INTRA-LIGAND FREE ENERGY PREDICTED BY IDOCK:   -0.51 KCAL/MOL
REMARK 927      BINDING AFFINITY PREDICTED BY RF-SCORE:    0.00 PKD
ROOT
HETATM    1  N   UNL     1     -10.173  12.928  63.570  1.00  0.00    -0.638 NA 
HETATM    2  H1  UNL     1     -10.574  13.865  63.599  1.00  0.00     0.000 HD 
HETATM    3  C   UNL     1     -10.330  12.062  64.657  1.00  0.00    -0.287 A  
HETATM    4  H2  UNL     1     -10.516  12.458  62.731  1.00  0.00     0.000 HD 
HETATM    5  C   UNL     1      -9.780  10.779  64.616  1.00  0.00    -0.344 A  
HETATM    6  C   UNL     1      -9.878   9.923  65.720  1.00  0.00    -0.287 A  
HETATM    7  C   UNL     1     -10.472  10.363  66.911  1.00  0.00    -0.300 A  
HETATM    8  O   UNL     1      -9.414   8.643  65.591  1.00  0.00    -0.410 OA 
HETATM    9  C   UNL     1     -10.844  12.531  65.866  1.00  0.00    -0.302 A  
HETATM   10  C   UNL     1     -10.937  11.685  66.978  1.00  0.00    -0.338 A  
HETATM   11  H   UNL     1      -9.480   8.063  66.341  1.00  0.00     0.000 HD 
ENDROOT
BRANCH   7  12
HETATM   12  C   UNL     1     -10.734   9.493  68.089  1.00  0.00    -0.197 C  
HETATM   13  O   UNL     1     -10.707   8.271  68.022  1.00  0.00    -0.162 OA 
BRANCH  12  14
HETATM   14  O   UNL     1     -11.006  10.247  69.217  1.00  0.00    -0.217 OA 
BRANCH  14  15
HETATM   15  C   UNL     1     -10.981   9.611  70.471  1.00  0.00    -0.313 A  
HETATM   16  C   UNL     1     -12.154   9.223  71.121  1.00  0.00    -0.389 A  
HETATM   17  C   UNL     1     -12.072   8.487  72.302  1.00  0.00    -0.455 A  
HETATM   18  C   UNL     1     -10.826   8.128  72.817  1.00  0.00    -0.390 A  
HETATM   19  C   UNL     1      -9.657   8.501  72.149  1.00  0.00    -0.382 A  
HETATM   20  C   UNL     1      -9.733   9.240  70.967  1.00  0.00    -0.341 A  
ENDBRANCH  14  15
ENDBRANCH  12  14
ENDBRANCH   7  12
TORSDOF 3
ENDMDL
MODEL       90
REMARK 921   NORMALIZED FREE ENERGY PREDICTED BY IDOCK:   -4.81 KCAL/MOL
REMARK 922        TOTAL FREE ENERGY PREDICTED BY IDOCK:   -6.25 KCAL/MOL
REMARK 923 INTER-LIGAND FREE ENERGY PREDICTED BY IDOCK:   -5.71 KCAL/MOL
REMARK 924 INTRA-LIGAND FREE ENERGY PREDICTED BY IDOCK:   -0.55 KCAL/MOL
REMARK 927      BINDING AFFINITY PREDICTED BY RF-SCORE:    0.00 PKD
ROOT
HETATM    1  N   UNL     1     -13.475   9.957  72.395  1.00  0.00    -0.625 NA 
HETATM    2  H1  UNL     1     -13.386   8.981  72.114  1.00  0.00     0.000 HD 
HETATM    3  C   UNL     1     -13.011  10.976  71.556  1.00  0.00    -0.448 A  
HETATM    4  H2  UNL     1     -14.456  10.141  72.612  1.00  0.00     0.000 HD 
HETATM    5  C   UNL     1     -13.133  12.312  71.941  1.00  0.00    -0.469 A  
HETATM    6  C   UNL     1     -12.619  13.338  71.139  1.00  0.00    -0.325 A  
HETATM    7  C   UNL     1     -11.913  13.038  69.966  1.00  0.00    -0.383 A  
HETATM    8  O   UNL     1     -12.856  14.632  71.511  1.00  0.00    -0.300 OA 
HETATM    9  C   UNL     1     -12.237  10.671  70.436  1.00  0.00    -0.432 A  
HETATM   10  C   UNL     1     -11.711  11.690  69.633  1.00  0.00    -0.418 A  
HETATM   11  H   UNL     1     -12.507  15.328  70.967  1.00  0.00     0.000 HD 
ENDROOT
BRANCH   7  12
HETATM   12  C   UNL     1     -11.441  14.054  68.988  1.00  0.00    -0.296 C  
HETATM   13  O   UNL     1     -12.146  14.982  68.612  1.00  0.00    -0.265 OA 
BRANCH  12  14
HETATM   14  O   UNL     1     -10.143  13.796  68.585  1.00  0.00    -0.231 OA 
BRANCH  14  15
HETATM   15  C   UNL     1      -9.385  14.851  68.047  1.00  0.00    -0.193 A  
HETATM   16  C   UNL     1      -9.225  15.013  66.670  1.00  0.00    -0.302 A  
HETATM   17  C   UNL     1      -8.568  16.143  66.184  1.00  0.00    -0.331 A  
HETATM   18  C   UNL     1      -8.092  17.110  67.070  1.00  0.00    -0.228 A  
HETATM   19  C   UNL     1      -8.274  16.951  68.446  1.00  0.00    -0.232 A  
HETATM   20  C   UNL     1      -8.929  15.821  68.938  1.00  0.00    -0.226 A  
ENDBRANCH  14  15
ENDBRANCH  12  14
ENDBRANCH   7  12
TORSDOF 3
ENDMDL
MODEL       91
REMARK 921   NORMALIZED FREE ENERGY PREDICTED BY IDOCK:   -4.81 KCAL/MOL
REMARK 922        TOTAL FREE ENERGY PREDICTED BY IDOCK:   -6.25 KCAL/MOL
REMARK 923 INTER-LIGAND FREE ENERGY PREDICTED BY IDOCK:   -5.57 KCAL/MOL
REMARK 924 INTRA-LIGAND FREE ENERGY PREDICTED BY IDOCK:   -0.68 KCAL/MOL
REMARK 927      BINDING AFFINITY PREDICTED BY RF-SCORE:    0.00 PKD
ROOT
HETATM    1  N   UNL     1     -12.026   6.189  72.745  1.00  0.00    -0.513 NA 
HETATM    2  H1  UNL     1     -12.502   6.303  73.641  1.00  0.00     0.000 HD 
HETATM    3  C   UNL     1     -11.730   7.309  71.960  1.00  0.00    -0.292 A  
HETATM    4  H2  UNL     1     -11.162   5.670  72.904  1.00  0.00     0.000 HD 
HETATM    5  C   UNL     1     -11.079   7.154  70.735  1.00  0.00    -0.296 A  
HETATM    6  C   UNL     1     -10.830   8.258  69.911  1.00  0.00    -0.213 A  
HETATM    7  C   UNL     1     -11.289   9.532  70.273  1.00  0.00    -0.284 A  
HETATM    8  O   UNL     1     -10.099   8.066  68.772  1.00  0.00    -0.185 OA 
HETATM    9  C   UNL     1     -12.262   8.558  72.281  1.00  0.00    -0.454 A  
HETATM   10  C   UNL     1     -12.026   9.666  71.459  1.00  0.00    -0.485 A  
HETATM   11  H   UNL     1      -9.931   8.816  68.214  1.00  0.00     0.000 HD 
ENDROOT
BRANCH   7  12
HETATM   12  C   UNL     1     -10.967  10.781  69.531  1.00  0.00    -0.266 C  
HETATM   13  O   UNL     1      -9.819  11.110  69.265  1.00  0.00    -0.119 OA 
BRANCH  12  14
HETATM   14  O   UNL     1     -12.116  11.482  69.209  1.00  0.00    -0.321 OA 
BRANCH  14  15
HETATM   15  C   UNL     1     -12.135  12.872  69.417  1.00  0.00    -0.198 A  
HETATM   16  C   UNL     1     -12.235  13.422  70.696  1.00  0.00    -0.427 A  
HETATM   17  C   UNL     1     -12.125  14.803  70.859  1.00  0.00    -0.387 A  
HETATM   18  C   UNL     1     -11.900  15.622  69.753  1.00  0.00    -0.376 A  
HETATM   19  C   UNL     1     -11.780  15.062  68.478  1.00  0.00    -0.345 A  
HETATM   20  C   UNL     1     -11.891  13.681  68.309  1.00  0.00    -0.404 A  
ENDBRANCH  14  15
ENDBRANCH  12  14
ENDBRANCH   7  12
TORSDOF 3
ENDMDL
MODEL       92
REMARK 921   NORMALIZED FREE ENERGY PREDICTED BY IDOCK:   -4.81 KCAL/MOL
REMARK 922        TOTAL FREE ENERGY PREDICTED BY IDOCK:   -6.25 KCAL/MOL
REMARK 923 INTER-LIGAND FREE ENERGY PREDICTED BY IDOCK:   -5.55 KCAL/MOL
REMARK 924 INTRA-LIGAND FREE ENERGY PREDICTED BY IDOCK:   -0.70 KCAL/MOL
REMARK 927      BINDING AFFINITY PREDICTED BY RF-SCORE:    0.00 PKD
ROOT
HETATM    1  N   UNL     1     -12.093  11.462  71.291  1.00  0.00    -0.190 NA 
HETATM    2  H1  UNL     1     -12.063  10.447  71.384  1.00  0.00     0.000 HD 
HETATM    3  C   UNL     1     -12.107  12.052  70.022  1.00  0.00    -0.280 A  
HETATM    4  H2  UNL     1     -12.897  11.809  71.816  1.00  0.00     0.000 HD 
HETATM    5  C   UNL     1     -12.149  13.442  69.896  1.00  0.00    -0.389 A  
HETATM    6  C   UNL     1     -12.102  14.047  68.634  1.00  0.00    -0.297 A  
HETATM    7  C   UNL     1     -11.946  13.270  67.478  1.00  0.00    -0.371 A  
HETATM    8  O   UNL     1     -12.250  15.404  68.561  1.00  0.00    -0.563 OA 
HETATM    9  C   UNL     1     -11.866  11.284  68.884  1.00  0.00    -0.413 A  
HETATM   10  C   UNL     1     -11.808  11.881  67.619  1.00  0.00    -0.265 A  
HETATM   11  H   UNL     1     -12.218  15.815  67.704  1.00  0.00     0.000 HD 
ENDROOT
BRANCH   7  12
HETATM   12  C   UNL     1     -12.012  13.807  66.092  1.00  0.00    -0.418 C  
HETATM   13  O   UNL     1     -13.065  14.145  65.568  1.00  0.00    -0.691 OA 
BRANCH  12  14
HETATM   14  O   UNL     1     -10.755  13.858  65.515  1.00  0.00    -0.284 OA 
BRANCH  14  15
HETATM   15  C   UNL     1      -9.806  14.745  66.051  1.00  0.00    -0.324 A  
HETATM   16  C   UNL     1      -8.619  14.291  66.629  1.00  0.00    -0.017 A  
HETATM   17  C   UNL     1      -7.656  15.214  67.034  1.00  0.00    -0.121 A  
HETATM   18  C   UNL     1      -7.873  16.578  66.845  1.00  0.00    -0.263 A  
HETATM   19  C   UNL     1      -9.054  17.025  66.246  1.00  0.00    -0.279 A  
HETATM   20  C   UNL     1     -10.022  16.105  65.841  1.00  0.00    -0.384 A  
ENDBRANCH  14  15
ENDBRANCH  12  14
ENDBRANCH   7  12
TORSDOF 3
ENDMDL
MODEL       93
REMARK 921   NORMALIZED FREE ENERGY PREDICTED BY IDOCK:   -4.80 KCAL/MOL
REMARK 922        TOTAL FREE ENERGY PREDICTED BY IDOCK:   -6.24 KCAL/MOL
REMARK 923 INTER-LIGAND FREE ENERGY PREDICTED BY IDOCK:   -5.46 KCAL/MOL
REMARK 924 INTRA-LIGAND FREE ENERGY PREDICTED BY IDOCK:   -0.78 KCAL/MOL
REMARK 927      BINDING AFFINITY PREDICTED BY RF-SCORE:    0.00 PKD
ROOT
HETATM    1  N   UNL     1      -7.694  18.385  66.233  1.00  0.00    -0.309 NA 
HETATM    2  H1  UNL     1      -8.053  19.151  65.663  1.00  0.00     0.000 HD 
HETATM    3  C   UNL     1      -8.537  17.722  67.132  1.00  0.00    -0.233 A  
HETATM    4  H2  UNL     1      -7.275  17.691  65.612  1.00  0.00     0.000 HD 
HETATM    5  C   UNL     1      -8.045  16.673  67.912  1.00  0.00    -0.177 A  
HETATM    6  C   UNL     1      -8.861  16.041  68.858  1.00  0.00    -0.233 A  
HETATM    7  C   UNL     1     -10.168  16.494  69.085  1.00  0.00    -0.298 A  
HETATM    8  O   UNL     1      -8.362  14.955  69.521  1.00  0.00    -0.385 OA 
HETATM    9  C   UNL     1      -9.805  18.228  67.416  1.00  0.00    -0.323 A  
HETATM   10  C   UNL     1     -10.625  17.608  68.366  1.00  0.00    -0.318 A  
HETATM   11  H   UNL     1      -8.916  14.526  70.163  1.00  0.00     0.000 HD 
ENDROOT
BRANCH   7  12
HETATM   12  C   UNL     1     -11.148  15.812  69.973  1.00  0.00    -0.344 C  
HETATM   13  O   UNL     1     -10.980  15.710  71.181  1.00  0.00    -0.326 OA 
BRANCH  12  14
HETATM   14  O   UNL     1     -12.226  15.331  69.251  1.00  0.00    -0.272 OA 
BRANCH  14  15
HETATM   15  C   UNL     1     -12.104  14.085  68.613  1.00  0.00    -0.297 A  
HETATM   16  C   UNL     1     -12.049  13.973  67.223  1.00  0.00    -0.405 A  
HETATM   17  C   UNL     1     -11.804  12.729  66.643  1.00  0.00    -0.462 A  
HETATM   18  C   UNL     1     -11.599  11.610  67.451  1.00  0.00    -0.330 A  
HETATM   19  C   UNL     1     -11.635  11.733  68.842  1.00  0.00    -0.370 A  
HETATM   20  C   UNL     1     -11.882  12.976  69.427  1.00  0.00    -0.380 A  
ENDBRANCH  14  15
ENDBRANCH  12  14
ENDBRANCH   7  12
TORSDOF 3
ENDMDL
MODEL       94
REMARK 921   NORMALIZED FREE ENERGY PREDICTED BY IDOCK:   -4.80 KCAL/MOL
REMARK 922        TOTAL FREE ENERGY PREDICTED BY IDOCK:   -6.23 KCAL/MOL
REMARK 923 INTER-LIGAND FREE ENERGY PREDICTED BY IDOCK:   -5.54 KCAL/MOL
REMARK 924 INTRA-LIGAND FREE ENERGY PREDICTED BY IDOCK:   -0.69 KCAL/MOL
REMARK 927      BINDING AFFINITY PREDICTED BY RF-SCORE:    0.00 PKD
ROOT
HETATM    1  N   UNL     1     -12.440  15.108  63.663  1.00  0.00    -0.879 NA 
HETATM    2  H1  UNL     1     -12.909  15.948  64.004  1.00  0.00     0.000 HD 
HETATM    3  C   UNL     1     -12.133  14.067  64.547  1.00  0.00    -0.459 A  
HETATM    4  H2  UNL     1     -12.987  14.725  62.892  1.00  0.00     0.000 HD 
HETATM    5  C   UNL     1     -11.491  12.918  64.080  1.00  0.00    -0.478 A  
HETATM    6  C   UNL     1     -11.124  11.895  64.962  1.00  0.00    -0.305 A  
HETATM    7  C   UNL     1     -11.336  12.035  66.341  1.00  0.00    -0.411 A  
HETATM    8  O   UNL     1     -10.592  10.749  64.440  1.00  0.00    -0.347 OA 
HETATM    9  C   UNL     1     -12.267  14.246  65.923  1.00  0.00    -0.422 A  
HETATM   10  C   UNL     1     -11.894  13.232  66.814  1.00  0.00    -0.448 A  
HETATM   11  H   UNL     1     -10.343  10.055  65.040  1.00  0.00     0.000 HD 
ENDROOT
BRANCH   7  12
HETATM   12  C   UNL     1     -11.098  10.958  67.339  1.00  0.00    -0.307 C  
HETATM   13  O   UNL     1     -11.867  10.739  68.265  1.00  0.00    -0.504 OA 
BRANCH  12  14
HETATM   14  O   UNL     1      -9.923  10.279  67.071  1.00  0.00    -0.185 OA 
BRANCH  14  15
HETATM   15  C   UNL     1      -8.802  10.530  67.882  1.00  0.00    -0.133 A  
HETATM   16  C   UNL     1      -7.920  11.577  67.613  1.00  0.00    -0.126 A  
HETATM   17  C   UNL     1      -6.895  11.860  68.515  1.00  0.00    -0.076 A  
HETATM   18  C   UNL     1      -6.768  11.111  69.685  1.00  0.00    -0.134 A  
HETATM   19  C   UNL     1      -7.667  10.078  69.958  1.00  0.00    -0.181 A  
HETATM   20  C   UNL     1      -8.694   9.789  69.057  1.00  0.00    -0.148 A  
ENDBRANCH  14  15
ENDBRANCH  12  14
ENDBRANCH   7  12
TORSDOF 3
ENDMDL
MODEL       95
REMARK 921   NORMALIZED FREE ENERGY PREDICTED BY IDOCK:   -4.79 KCAL/MOL
REMARK 922        TOTAL FREE ENERGY PREDICTED BY IDOCK:   -6.23 KCAL/MOL
REMARK 923 INTER-LIGAND FREE ENERGY PREDICTED BY IDOCK:   -5.66 KCAL/MOL
REMARK 924 INTRA-LIGAND FREE ENERGY PREDICTED BY IDOCK:   -0.57 KCAL/MOL
REMARK 927      BINDING AFFINITY PREDICTED BY RF-SCORE:    0.00 PKD
ROOT
HETATM    1  N   UNL     1     -12.301  16.088  63.841  1.00  0.00    -1.044 NA 
HETATM    2  H1  UNL     1     -12.085  16.919  64.391  1.00  0.00     0.000 HD 
HETATM    3  C   UNL     1     -11.811  14.837  64.233  1.00  0.00    -0.319 A  
HETATM    4  H2  UNL     1     -13.315  16.021  63.745  1.00  0.00     0.000 HD 
HETATM    5  C   UNL     1     -12.108  13.700  63.480  1.00  0.00    -0.341 A  
HETATM    6  C   UNL     1     -11.575  12.453  63.827  1.00  0.00    -0.473 A  
HETATM    7  C   UNL     1     -10.681  12.335  64.900  1.00  0.00    -0.335 A  
HETATM    8  O   UNL     1     -11.979  11.356  63.119  1.00  0.00    -0.896 OA 
HETATM    9  C   UNL     1     -10.857  14.739  65.246  1.00  0.00    -0.395 A  
HETATM   10  C   UNL     1     -10.312  13.497  65.594  1.00  0.00    -0.303 A  
HETATM   11  H   UNL     1     -11.617  10.509  63.354  1.00  0.00     0.000 HD 
ENDROOT
BRANCH   7  12
HETATM   12  C   UNL     1     -10.163  11.042  65.422  1.00  0.00    -0.274 C  
HETATM   13  O   UNL     1      -9.947  10.852  66.611  1.00  0.00    -0.195 OA 
BRANCH  12  14
HETATM   14  O   UNL     1      -9.968  10.132  64.398  1.00  0.00    -0.314 OA 
BRANCH  14  15
HETATM   15  C   UNL     1      -8.680   9.602  64.206  1.00  0.00    -0.206 A  
HETATM   16  C   UNL     1      -8.229   8.490  64.918  1.00  0.00    -0.166 A  
HETATM   17  C   UNL     1      -6.991   7.930  64.603  1.00  0.00    -0.067 A  
HETATM   18  C   UNL     1      -6.222   8.468  63.572  1.00  0.00    -0.081 A  
HETATM   19  C   UNL     1      -6.690   9.569  62.849  1.00  0.00    -0.100 A  
HETATM   20  C   UNL     1      -7.927  10.135  63.162  1.00  0.00    -0.154 A  
ENDBRANCH  14  15
ENDBRANCH  12  14
ENDBRANCH   7  12
TORSDOF 3
ENDMDL
MODEL       96
REMARK 921   NORMALIZED FREE ENERGY PREDICTED BY IDOCK:   -4.79 KCAL/MOL
REMARK 922        TOTAL FREE ENERGY PREDICTED BY IDOCK:   -6.23 KCAL/MOL
REMARK 923 INTER-LIGAND FREE ENERGY PREDICTED BY IDOCK:   -5.62 KCAL/MOL
REMARK 924 INTRA-LIGAND FREE ENERGY PREDICTED BY IDOCK:   -0.61 KCAL/MOL
REMARK 927      BINDING AFFINITY PREDICTED BY RF-SCORE:    0.00 PKD
ROOT
HETATM    1  N   UNL     1     -12.028  15.032  63.853  1.00  0.00    -0.905 NA 
HETATM    2  H1  UNL     1     -12.614  14.960  63.021  1.00  0.00     0.000 HD 
HETATM    3  C   UNL     1     -11.346  13.908  64.331  1.00  0.00    -0.341 A  
HETATM    4  H2  UNL     1     -11.351  15.781  63.705  1.00  0.00     0.000 HD 
HETATM    5  C   UNL     1     -10.544  14.007  65.470  1.00  0.00    -0.327 A  
HETATM    6  C   UNL     1      -9.904  12.878  65.995  1.00  0.00    -0.255 A  
HETATM    7  C   UNL     1     -10.110  11.614  65.424  1.00  0.00    -0.299 A  
HETATM    8  O   UNL     1      -9.049  13.049  67.048  1.00  0.00    -0.216 OA 
HETATM    9  C   UNL     1     -11.620  12.641  63.815  1.00  0.00    -0.550 A  
HETATM   10  C   UNL     1     -10.992  11.506  64.339  1.00  0.00    -0.390 A  
HETATM   11  H   UNL     1      -8.615  12.282  67.404  1.00  0.00     0.000 HD 
ENDROOT
BRANCH   7  12
HETATM   12  C   UNL     1      -9.380  10.383  65.829  1.00  0.00    -0.186 C  
HETATM   13  O   UNL     1      -8.187  10.385  66.102  1.00  0.00    -0.132 OA 
BRANCH  12  14
HETATM   14  O   UNL     1     -10.222   9.285  65.846  1.00  0.00    -0.245 OA 
BRANCH  14  15
HETATM   15  C   UNL     1     -10.361   8.563  67.044  1.00  0.00    -0.309 A  
HETATM   16  C   UNL     1     -10.383   9.198  68.286  1.00  0.00    -0.256 A  
HETATM   17  C   UNL     1     -10.646   8.451  69.434  1.00  0.00    -0.204 A  
HETATM   18  C   UNL     1     -10.903   7.084  69.334  1.00  0.00    -0.253 A  
HETATM   19  C   UNL     1     -10.900   6.458  68.085  1.00  0.00    -0.386 A  
HETATM   20  C   UNL     1     -10.635   7.201  66.933  1.00  0.00    -0.371 A  
ENDBRANCH  14  15
ENDBRANCH  12  14
ENDBRANCH   7  12
TORSDOF 3
ENDMDL
MODEL       97
REMARK 921   NORMALIZED FREE ENERGY PREDICTED BY IDOCK:   -4.79 KCAL/MOL
REMARK 922        TOTAL FREE ENERGY PREDICTED BY IDOCK:   -6.22 KCAL/MOL
REMARK 923 INTER-LIGAND FREE ENERGY PREDICTED BY IDOCK:   -5.60 KCAL/MOL
REMARK 924 INTRA-LIGAND FREE ENERGY PREDICTED BY IDOCK:   -0.62 KCAL/MOL
REMARK 927      BINDING AFFINITY PREDICTED BY RF-SCORE:    0.00 PKD
ROOT
HETATM    1  N   UNL     1     -11.850   5.836  72.866  1.00  0.00    -0.538 NA 
HETATM    2  H1  UNL     1     -11.792   6.000  73.871  1.00  0.00     0.000 HD 
HETATM    3  C   UNL     1     -11.436   6.825  71.967  1.00  0.00    -0.282 A  
HETATM    4  H2  UNL     1     -11.345   4.975  72.652  1.00  0.00     0.000 HD 
HETATM    5  C   UNL     1     -11.514   6.600  70.591  1.00  0.00    -0.420 A  
HETATM    6  C   UNL     1     -11.161   7.602  69.680  1.00  0.00    -0.062 A  
HETATM    7  C   UNL     1     -10.784   8.874  70.133  1.00  0.00    -0.245 A  
HETATM    8  O   UNL     1     -11.157   7.295  68.348  1.00  0.00    -0.444 OA 
HETATM    9  C   UNL     1     -11.145   8.112  72.418  1.00  0.00    -0.437 A  
HETATM   10  C   UNL     1     -10.799   9.124  71.514  1.00  0.00    -0.436 A  
HETATM   11  H   UNL     1     -10.918   7.976  67.730  1.00  0.00     0.000 HD 
ENDROOT
BRANCH   7  12
HETATM   12  C   UNL     1     -10.272   9.959  69.254  1.00  0.00    -0.209 C  
HETATM   13  O   UNL     1      -9.164  10.458  69.403  1.00  0.00    -0.201 OA 
BRANCH  12  14
HETATM   14  O   UNL     1     -11.203  10.303  68.290  1.00  0.00    -0.276 OA 
BRANCH  14  15
HETATM   15  C   UNL     1     -10.744  10.647  67.006  1.00  0.00    -0.259 A  
HETATM   16  C   UNL     1     -10.035   9.744  66.213  1.00  0.00    -0.331 A  
HETATM   17  C   UNL     1      -9.710  10.091  64.902  1.00  0.00    -0.377 A  
HETATM   18  C   UNL     1     -10.109  11.324  64.386  1.00  0.00    -0.357 A  
HETATM   19  C   UNL     1     -10.837  12.215  65.180  1.00  0.00    -0.343 A  
HETATM   20  C   UNL     1     -11.162  11.873  66.493  1.00  0.00    -0.383 A  
ENDBRANCH  14  15
ENDBRANCH  12  14
ENDBRANCH   7  12
TORSDOF 3
ENDMDL
MODEL       98
REMARK 921   NORMALIZED FREE ENERGY PREDICTED BY IDOCK:   -4.78 KCAL/MOL
REMARK 922        TOTAL FREE ENERGY PREDICTED BY IDOCK:   -6.21 KCAL/MOL
REMARK 923 INTER-LIGAND FREE ENERGY PREDICTED BY IDOCK:   -5.56 KCAL/MOL
REMARK 924 INTRA-LIGAND FREE ENERGY PREDICTED BY IDOCK:   -0.65 KCAL/MOL
REMARK 927      BINDING AFFINITY PREDICTED BY RF-SCORE:    0.00 PKD
ROOT
HETATM    1  N   UNL     1     -13.691  13.456  72.641  1.00  0.00    -0.722 NA 
HETATM    2  H1  UNL     1     -14.169  14.054  73.315  1.00  0.00     0.000 HD 
HETATM    3  C   UNL     1     -13.044  14.020  71.536  1.00  0.00    -0.363 A  
HETATM    4  H2  UNL     1     -13.020  12.877  73.146  1.00  0.00     0.000 HD 
HETATM    5  C   UNL     1     -12.388  13.201  70.614  1.00  0.00    -0.405 A  
HETATM    6  C   UNL     1     -11.788  13.746  69.473  1.00  0.00    -0.339 A  
HETATM    7  C   UNL     1     -11.892  15.117  69.201  1.00  0.00    -0.340 A  
HETATM    8  O   UNL     1     -11.072  12.915  68.657  1.00  0.00    -0.244 OA 
HETATM    9  C   UNL     1     -13.221  15.368  71.225  1.00  0.00    -0.585 A  
HETATM   10  C   UNL     1     -12.633  15.920  70.081  1.00  0.00     0.007 A  
HETATM   11  H   UNL     1     -10.666  13.285  67.882  1.00  0.00     0.000 HD 
ENDROOT
BRANCH   7  12
HETATM   12  C   UNL     1     -11.186  15.807  68.087  1.00  0.00    -0.344 C  
HETATM   13  O   UNL     1     -10.972  15.266  67.010  1.00  0.00    -0.322 OA 
BRANCH  12  14
HETATM   14  O   UNL     1     -10.824  17.093  68.445  1.00  0.00    -0.367 OA 
BRANCH  14  15
HETATM   15  C   UNL     1      -9.457  17.423  68.470  1.00  0.00    -0.297 A  
HETATM   16  C   UNL     1      -8.490  16.517  68.904  1.00  0.00    -0.235 A  
HETATM   17  C   UNL     1      -7.140  16.848  68.793  1.00  0.00    -0.216 A  
HETATM   18  C   UNL     1      -6.764  18.070  68.235  1.00  0.00    -0.207 A  
HETATM   19  C   UNL     1      -7.738  18.964  67.782  1.00  0.00    -0.265 A  
HETATM   20  C   UNL     1      -9.090  18.638  67.893  1.00  0.00    -0.314 A  
ENDBRANCH  14  15
ENDBRANCH  12  14
ENDBRANCH   7  12
TORSDOF 3
ENDMDL
MODEL       99
REMARK 921   NORMALIZED FREE ENERGY PREDICTED BY IDOCK:   -4.73 KCAL/MOL
REMARK 922        TOTAL FREE ENERGY PREDICTED BY IDOCK:   -6.16 KCAL/MOL
REMARK 923 INTER-LIGAND FREE ENERGY PREDICTED BY IDOCK:   -6.05 KCAL/MOL
REMARK 924 INTRA-LIGAND FREE ENERGY PREDICTED BY IDOCK:   -0.11 KCAL/MOL
REMARK 927      BINDING AFFINITY PREDICTED BY RF-SCORE:    0.00 PKD
ROOT
HETATM    1  N   UNL     1      -6.652  17.954  66.769  1.00  0.00    -0.170 NA 
HETATM    2  H1  UNL     1      -6.037  17.496  66.096  1.00  0.00     0.000 HD 
HETATM    3  C   UNL     1      -7.866  17.359  67.129  1.00  0.00    -0.202 A  
HETATM    4  H2  UNL     1      -6.118  18.138  67.619  1.00  0.00     0.000 HD 
HETATM    5  C   UNL     1      -8.708  17.986  68.050  1.00  0.00    -0.264 A  
HETATM    6  C   UNL     1      -9.952  17.433  68.375  1.00  0.00    -0.329 A  
HETATM    7  C   UNL     1     -10.404  16.273  67.731  1.00  0.00    -0.287 A  
HETATM    8  O   UNL     1     -10.691  18.031  69.357  1.00  0.00    -0.282 OA 
HETATM    9  C   UNL     1      -8.348  16.255  66.426  1.00  0.00    -0.365 A  
HETATM   10  C   UNL     1      -9.595  15.700  66.738  1.00  0.00    -0.257 A  
HETATM   11  H   UNL     1     -11.536  17.655  69.577  1.00  0.00     0.000 HD 
ENDROOT
BRANCH   7  12
HETATM   12  C   UNL     1     -11.648  15.542  68.095  1.00  0.00    -0.304 C  
HETATM   13  O   UNL     1     -12.145  14.689  67.372  1.00  0.00    -0.352 OA 
BRANCH  12  14
HETATM   14  O   UNL     1     -12.134  15.962  69.320  1.00  0.00    -0.329 OA 
BRANCH  14  15
HETATM   15  C   UNL     1     -12.621  14.995  70.217  1.00  0.00    -0.317 A  
HETATM   16  C   UNL     1     -12.109  13.697  70.247  1.00  0.00    -0.427 A  
HETATM   17  C   UNL     1     -12.539  12.813  71.236  1.00  0.00    -0.347 A  
HETATM   18  C   UNL     1     -13.460  13.232  72.196  1.00  0.00    -0.655 A  
HETATM   19  C   UNL     1     -13.953  14.540  72.172  1.00  0.00    -0.597 A  
HETATM   20  C   UNL     1     -13.527  15.428  71.183  1.00  0.00    -0.565 A  
ENDBRANCH  14  15
ENDBRANCH  12  14
ENDBRANCH   7  12
TORSDOF 3
ENDMDL
MODEL      100
REMARK 921   NORMALIZED FREE ENERGY PREDICTED BY IDOCK:   -4.72 KCAL/MOL
REMARK 922        TOTAL FREE ENERGY PREDICTED BY IDOCK:   -6.14 KCAL/MOL
REMARK 923 INTER-LIGAND FREE ENERGY PREDICTED BY IDOCK:   -5.60 KCAL/MOL
REMARK 924 INTRA-LIGAND FREE ENERGY PREDICTED BY IDOCK:   -0.55 KCAL/MOL
REMARK 927      BINDING AFFINITY PREDICTED BY RF-SCORE:    0.00 PKD
ROOT
HETATM    1  N   UNL     1     -12.263  11.955  71.432  1.00  0.00    -0.118 NA 
HETATM    2  H1  UNL     1     -12.268  11.022  71.846  1.00  0.00     0.000 HD 
HETATM    3  C   UNL     1     -12.155  12.108  70.045  1.00  0.00    -0.277 A  
HETATM    4  H2  UNL     1     -13.098  12.450  71.746  1.00  0.00     0.000 HD 
HETATM    5  C   UNL     1     -12.149  13.384  69.478  1.00  0.00    -0.334 A  
HETATM    6  C   UNL     1     -11.980  13.554  68.099  1.00  0.00    -0.341 A  
HETATM    7  C   UNL     1     -11.750  12.448  67.269  1.00  0.00    -0.419 A  
HETATM    8  O   UNL     1     -12.085  14.816  67.584  1.00  0.00    -0.545 OA 
HETATM    9  C   UNL     1     -11.841  11.016  69.236  1.00  0.00    -0.411 A  
HETATM   10  C   UNL     1     -11.662  11.177  67.857  1.00  0.00    -0.260 A  
HETATM   11  H   UNL     1     -11.971  14.931  66.648  1.00  0.00     0.000 HD 
ENDROOT
BRANCH   7  12
HETATM   12  C   UNL     1     -11.686  12.513  65.784  1.00  0.00    -0.426 C  
HETATM   13  O   UNL     1     -12.685  12.451  65.080  1.00  0.00    -0.631 OA 
BRANCH  12  14
HETATM   14  O   UNL     1     -10.380  12.645  65.345  1.00  0.00    -0.282 OA 
BRANCH  14  15
HETATM   15  C   UNL     1      -9.815  11.598  64.597  1.00  0.00    -0.227 A  
HETATM   16  C   UNL     1      -9.918  11.549  63.206  1.00  0.00    -0.435 A  
HETATM   17  C   UNL     1      -9.235  10.558  62.502  1.00  0.00    -0.321 A  
HETATM   18  C   UNL     1      -8.442   9.636  63.184  1.00  0.00    -0.189 A  
HETATM   19  C   UNL     1      -8.327   9.703  64.575  1.00  0.00    -0.172 A  
HETATM   20  C   UNL     1      -9.010  10.692  65.285  1.00  0.00    -0.209 A  
ENDBRANCH  14  15
ENDBRANCH  12  14
ENDBRANCH   7  12
TORSDOF 3
ENDMDL
MODEL      101
REMARK 921   NORMALIZED FREE ENERGY PREDICTED BY IDOCK:   -4.71 KCAL/MOL
REMARK 922        TOTAL FREE ENERGY PREDICTED BY IDOCK:   -6.13 KCAL/MOL
REMARK 923 INTER-LIGAND FREE ENERGY PREDICTED BY IDOCK:   -5.60 KCAL/MOL
REMARK 924 INTRA-LIGAND FREE ENERGY PREDICTED BY IDOCK:   -0.53 KCAL/MOL
REMARK 927      BINDING AFFINITY PREDICTED BY RF-SCORE:    0.00 PKD
ROOT
HETATM    1  N   UNL     1     -13.959  13.537  72.678  1.00  0.00    -0.754 NA 
HETATM    2  H1  UNL     1     -14.085  14.526  72.897  1.00  0.00     0.000 HD 
HETATM    3  C   UNL     1     -13.116  13.151  71.630  1.00  0.00    -0.353 A  
HETATM    4  H2  UNL     1     -13.658  13.057  73.527  1.00  0.00     0.000 HD 
HETATM    5  C   UNL     1     -12.942  11.798  71.331  1.00  0.00    -0.408 A  
HETATM    6  C   UNL     1     -12.150  11.401  70.248  1.00  0.00    -0.374 A  
HETATM    7  C   UNL     1     -11.569  12.357  69.403  1.00  0.00    -0.371 A  
HETATM    8  O   UNL     1     -11.930  10.064  70.062  1.00  0.00    -0.422 OA 
HETATM    9  C   UNL     1     -12.611  14.102  70.743  1.00  0.00    -0.432 A  
HETATM   10  C   UNL     1     -11.825  13.713  69.652  1.00  0.00    -0.396 A  
HETATM   11  H   UNL     1     -11.393   9.795  69.326  1.00  0.00     0.000 HD 
ENDROOT
BRANCH   7  12
HETATM   12  C   UNL     1     -10.614  12.037  68.308  1.00  0.00    -0.212 C  
HETATM   13  O   UNL     1      -9.453  12.427  68.314  1.00  0.00    -0.209 OA 
BRANCH  12  14
HETATM   14  O   UNL     1     -11.216  11.270  67.327  1.00  0.00    -0.292 OA 
BRANCH  14  15
HETATM   15  C   UNL     1     -10.399  10.488  66.491  1.00  0.00    -0.233 A  
HETATM   16  C   UNL     1     -10.196   9.127  66.727  1.00  0.00    -0.331 A  
HETATM   17  C   UNL     1      -9.479   8.371  65.800  1.00  0.00    -0.088 A  
HETATM   18  C   UNL     1      -8.987   8.969  64.641  1.00  0.00    -0.112 A  
HETATM   19  C   UNL     1      -9.212  10.327  64.401  1.00  0.00    -0.296 A  
HETATM   20  C   UNL     1      -9.927  11.089  65.326  1.00  0.00    -0.320 A  
ENDBRANCH  14  15
ENDBRANCH  12  14
ENDBRANCH   7  12
TORSDOF 3
ENDMDL
MODEL      102
REMARK 921   NORMALIZED FREE ENERGY PREDICTED BY IDOCK:   -4.71 KCAL/MOL
REMARK 922        TOTAL FREE ENERGY PREDICTED BY IDOCK:   -6.13 KCAL/MOL
REMARK 923 INTER-LIGAND FREE ENERGY PREDICTED BY IDOCK:   -5.55 KCAL/MOL
REMARK 924 INTRA-LIGAND FREE ENERGY PREDICTED BY IDOCK:   -0.57 KCAL/MOL
REMARK 927      BINDING AFFINITY PREDICTED BY RF-SCORE:    0.00 PKD
ROOT
HETATM    1  N   UNL     1     -13.745  12.615  72.751  1.00  0.00    -0.654 NA 
HETATM    2  H1  UNL     1     -14.035  11.661  72.536  1.00  0.00     0.000 HD 
HETATM    3  C   UNL     1     -13.094  13.388  71.782  1.00  0.00    -0.388 A  
HETATM    4  H2  UNL     1     -14.561  13.132  73.080  1.00  0.00     0.000 HD 
HETATM    5  C   UNL     1     -12.698  14.694  72.077  1.00  0.00    -0.405 A  
HETATM    6  C   UNL     1     -11.993  15.457  71.139  1.00  0.00    -0.362 A  
HETATM    7  C   UNL     1     -11.615  14.900  69.909  1.00  0.00    -0.328 A  
HETATM    8  O   UNL     1     -11.720  16.762  71.439  1.00  0.00    -0.555 OA 
HETATM    9  C   UNL     1     -12.646  12.804  70.597  1.00  0.00    -0.248 A  
HETATM   10  C   UNL     1     -11.933  13.557  69.657  1.00  0.00    -0.397 A  
HETATM   11  H   UNL     1     -11.242  17.280  70.802  1.00  0.00     0.000 HD 
ENDROOT
BRANCH   7  12
HETATM   12  C   UNL     1     -10.979  15.665  68.803  1.00  0.00    -0.281 C  
HETATM   13  O   UNL     1     -11.376  15.601  67.647  1.00  0.00    -0.313 OA 
BRANCH  12  14
HETATM   14  O   UNL     1      -9.916  16.420  69.264  1.00  0.00    -0.260 OA 
BRANCH  14  15
HETATM   15  C   UNL     1      -8.917  16.802  68.351  1.00  0.00    -0.233 A  
HETATM   16  C   UNL     1      -8.751  18.130  67.956  1.00  0.00    -0.276 A  
HETATM   17  C   UNL     1      -7.670  18.474  67.145  1.00  0.00    -0.232 A  
HETATM   18  C   UNL     1      -6.754  17.499  66.750  1.00  0.00    -0.237 A  
HETATM   19  C   UNL     1      -6.915  16.176  67.167  1.00  0.00    -0.244 A  
HETATM   20  C   UNL     1      -7.997  15.825  67.976  1.00  0.00    -0.141 A  
ENDBRANCH  14  15
ENDBRANCH  12  14
ENDBRANCH   7  12
TORSDOF 3
ENDMDL
MODEL      103
REMARK 921   NORMALIZED FREE ENERGY PREDICTED BY IDOCK:   -4.70 KCAL/MOL
REMARK 922        TOTAL FREE ENERGY PREDICTED BY IDOCK:   -6.12 KCAL/MOL
REMARK 923 INTER-LIGAND FREE ENERGY PREDICTED BY IDOCK:   -5.39 KCAL/MOL
REMARK 924 INTRA-LIGAND FREE ENERGY PREDICTED BY IDOCK:   -0.73 KCAL/MOL
REMARK 927      BINDING AFFINITY PREDICTED BY RF-SCORE:    0.00 PKD
ROOT
HETATM    1  N   UNL     1     -10.106  13.491  64.703  1.00  0.00    -0.630 NA 
HETATM    2  H1  UNL     1     -10.869  13.635  64.042  1.00  0.00     0.000 HD 
HETATM    3  C   UNL     1     -10.345  12.854  65.926  1.00  0.00    -0.285 A  
HETATM    4  H2  UNL     1      -9.354  12.995  64.223  1.00  0.00     0.000 HD 
HETATM    5  C   UNL     1      -9.299  12.658  66.830  1.00  0.00    -0.228 A  
HETATM    6  C   UNL     1      -9.535  12.076  68.082  1.00  0.00    -0.200 A  
HETATM    7  C   UNL     1     -10.838  11.740  68.475  1.00  0.00    -0.261 A  
HETATM    8  O   UNL     1      -8.462  11.813  68.887  1.00  0.00    -0.350 OA 
HETATM    9  C   UNL     1     -11.650  12.601  66.347  1.00  0.00    -0.441 A  
HETATM   10  C   UNL     1     -11.897  12.028  67.600  1.00  0.00    -0.294 A  
HETATM   11  H   UNL     1      -8.623  11.418  69.736  1.00  0.00     0.000 HD 
ENDROOT
BRANCH   7  12
HETATM   12  C   UNL     1     -11.173  11.007  69.726  1.00  0.00    -0.268 C  
HETATM   13  O   UNL     1     -12.193  11.230  70.365  1.00  0.00    -0.325 OA 
BRANCH  12  14
HETATM   14  O   UNL     1     -10.195  10.080  70.039  1.00  0.00    -0.249 OA 
BRANCH  14  15
HETATM   15  C   UNL     1     -10.483   8.715  69.865  1.00  0.00    -0.218 A  
HETATM   16  C   UNL     1     -11.073   7.953  70.874  1.00  0.00    -0.268 A  
HETATM   17  C   UNL     1     -11.451   6.638  70.609  1.00  0.00    -0.420 A  
HETATM   18  C   UNL     1     -11.255   6.097  69.338  1.00  0.00    -0.466 A  
HETATM   19  C   UNL     1     -10.683   6.872  68.326  1.00  0.00    -0.265 A  
HETATM   20  C   UNL     1     -10.301   8.189  68.587  1.00  0.00    -0.224 A  
ENDBRANCH  14  15
ENDBRANCH  12  14
ENDBRANCH   7  12
TORSDOF 3
ENDMDL
MODEL      104
REMARK 921   NORMALIZED FREE ENERGY PREDICTED BY IDOCK:   -4.69 KCAL/MOL
REMARK 922        TOTAL FREE ENERGY PREDICTED BY IDOCK:   -6.10 KCAL/MOL
REMARK 923 INTER-LIGAND FREE ENERGY PREDICTED BY IDOCK:   -5.53 KCAL/MOL
REMARK 924 INTRA-LIGAND FREE ENERGY PREDICTED BY IDOCK:   -0.58 KCAL/MOL
REMARK 927      BINDING AFFINITY PREDICTED BY RF-SCORE:    0.00 PKD
ROOT
HETATM    1  N   UNL     1     -12.078  11.665  62.982  1.00  0.00    -0.927 NA 
HETATM    2  H1  UNL     1     -12.902  12.095  62.562  1.00  0.00     0.000 HD 
HETATM    3  C   UNL     1     -11.712  11.980  64.295  1.00  0.00    -0.344 A  
HETATM    4  H2  UNL     1     -12.171  10.651  62.908  1.00  0.00     0.000 HD 
HETATM    5  C   UNL     1     -10.584  11.391  64.869  1.00  0.00    -0.368 A  
HETATM    6  C   UNL     1     -10.171  11.743  66.160  1.00  0.00    -0.220 A  
HETATM    7  C   UNL     1     -10.847  12.741  66.875  1.00  0.00    -0.278 A  
HETATM    8  O   UNL     1      -9.123  11.062  66.714  1.00  0.00    -0.157 OA 
HETATM    9  C   UNL     1     -12.333  13.032  64.968  1.00  0.00    -0.526 A  
HETATM   10  C   UNL     1     -11.922  13.397  66.256  1.00  0.00    -0.460 A  
HETATM   11  H   UNL     1      -8.843  11.301  67.590  1.00  0.00     0.000 HD 
ENDROOT
BRANCH   7  12
HETATM   12  C   UNL     1     -10.565  13.094  68.293  1.00  0.00    -0.248 C  
HETATM   13  O   UNL     1     -11.251  12.686  69.221  1.00  0.00    -0.243 OA 
BRANCH  12  14
HETATM   14  O   UNL     1      -9.460  13.921  68.392  1.00  0.00    -0.213 OA 
BRANCH  14  15
HETATM   15  C   UNL     1      -9.633  15.300  68.183  1.00  0.00    -0.204 A  
HETATM   16  C   UNL     1     -10.059  16.151  69.203  1.00  0.00    -0.252 A  
HETATM   17  C   UNL     1     -10.096  17.527  68.979  1.00  0.00    -0.291 A  
HETATM   18  C   UNL     1      -9.691  18.045  67.749  1.00  0.00    -0.292 A  
HETATM   19  C   UNL     1      -9.245  17.189  66.739  1.00  0.00    -0.270 A  
HETATM   20  C   UNL     1      -9.209  15.811  66.957  1.00  0.00    -0.233 A  
ENDBRANCH  14  15
ENDBRANCH  12  14
ENDBRANCH   7  12
TORSDOF 3
ENDMDL
MODEL      105
REMARK 921   NORMALIZED FREE ENERGY PREDICTED BY IDOCK:   -4.68 KCAL/MOL
REMARK 922        TOTAL FREE ENERGY PREDICTED BY IDOCK:   -6.10 KCAL/MOL
REMARK 923 INTER-LIGAND FREE ENERGY PREDICTED BY IDOCK:   -5.63 KCAL/MOL
REMARK 924 INTRA-LIGAND FREE ENERGY PREDICTED BY IDOCK:   -0.47 KCAL/MOL
REMARK 927      BINDING AFFINITY PREDICTED BY RF-SCORE:    0.00 PKD
ROOT
HETATM    1  N   UNL     1     -13.548  10.417  72.099  1.00  0.00    -0.477 NA 
HETATM    2  H1  UNL     1     -14.266  10.365  72.822  1.00  0.00     0.000 HD 
HETATM    3  C   UNL     1     -13.083  11.662  71.658  1.00  0.00    -0.351 A  
HETATM    4  H2  UNL     1     -12.746   9.863  72.403  1.00  0.00     0.000 HD 
HETATM    5  C   UNL     1     -12.100  11.732  70.670  1.00  0.00    -0.407 A  
HETATM    6  C   UNL     1     -11.669  12.970  70.176  1.00  0.00    -0.170 A  
HETATM    7  C   UNL     1     -12.264  14.158  70.620  1.00  0.00    -0.432 A  
HETATM    8  O   UNL     1     -10.632  12.986  69.285  1.00  0.00    -0.441 OA 
HETATM    9  C   UNL     1     -13.736  12.834  72.038  1.00  0.00    -0.348 A  
HETATM   10  C   UNL     1     -13.318  14.075  71.543  1.00  0.00    -0.422 A  
HETATM   11  H   UNL     1     -10.340  13.826  68.950  1.00  0.00     0.000 HD 
ENDROOT
BRANCH   7  12
HETATM   12  C   UNL     1     -11.793  15.520  70.252  1.00  0.00    -0.357 C  
HETATM   13  O   UNL     1     -11.729  16.435  71.062  1.00  0.00    -0.345 OA 
BRANCH  12  14
HETATM   14  O   UNL     1     -11.457  15.588  68.911  1.00  0.00    -0.309 OA 
BRANCH  14  15
HETATM   15  C   UNL     1     -10.634  16.642  68.478  1.00  0.00    -0.338 A  
HETATM   16  C   UNL     1     -11.128  17.686  67.694  1.00  0.00     0.054 A  
HETATM   17  C   UNL     1     -10.302  18.769  67.394  1.00  0.00    -0.472 A  
HETATM   18  C   UNL     1      -9.000  18.813  67.890  1.00  0.00    -0.320 A  
HETATM   19  C   UNL     1      -8.518  17.775  68.692  1.00  0.00    -0.271 A  
HETATM   20  C   UNL     1      -9.340  16.687  68.993  1.00  0.00    -0.227 A  
ENDBRANCH  14  15
ENDBRANCH  12  14
ENDBRANCH   7  12
TORSDOF 3
ENDMDL
MODEL      106
REMARK 921   NORMALIZED FREE ENERGY PREDICTED BY IDOCK:   -4.68 KCAL/MOL
REMARK 922        TOTAL FREE ENERGY PREDICTED BY IDOCK:   -6.10 KCAL/MOL
REMARK 923 INTER-LIGAND FREE ENERGY PREDICTED BY IDOCK:   -6.02 KCAL/MOL
REMARK 924 INTRA-LIGAND FREE ENERGY PREDICTED BY IDOCK:   -0.08 KCAL/MOL
REMARK 927      BINDING AFFINITY PREDICTED BY RF-SCORE:    0.00 PKD
ROOT
HETATM    1  N   UNL     1      -8.088  21.204  67.207  1.00  0.00    -0.580 NA 
HETATM    2  H1  UNL     1      -8.639  22.062  67.197  1.00  0.00     0.000 HD 
HETATM    3  C   UNL     1      -8.645  20.006  66.744  1.00  0.00    -0.331 A  
HETATM    4  H2  UNL     1      -7.220  21.373  66.698  1.00  0.00     0.000 HD 
HETATM    5  C   UNL     1      -7.890  18.831  66.758  1.00  0.00    -0.255 A  
HETATM    6  C   UNL     1      -8.453  17.614  66.355  1.00  0.00    -0.246 A  
HETATM    7  C   UNL     1      -9.805  17.542  65.992  1.00  0.00    -0.195 A  
HETATM    8  O   UNL     1      -7.643  16.515  66.289  1.00  0.00    -0.268 OA 
HETATM    9  C   UNL     1     -10.009  19.921  66.467  1.00  0.00    -0.591 A  
HETATM   10  C   UNL     1     -10.583  18.707  66.072  1.00  0.00    -0.410 A  
HETATM   11  H   UNL     1      -8.025  15.690  66.015  1.00  0.00     0.000 HD 
ENDROOT
BRANCH   7  12
HETATM   12  C   UNL     1     -10.459  16.329  65.432  1.00  0.00    -0.343 C  
HETATM   13  O   UNL     1     -11.183  16.368  64.446  1.00  0.00    -0.807 OA 
BRANCH  12  14
HETATM   14  O   UNL     1     -10.139  15.203  66.169  1.00  0.00    -0.263 OA 
BRANCH  14  15
HETATM   15  C   UNL     1     -10.586  13.951  65.711  1.00  0.00    -0.297 A  
HETATM   16  C   UNL     1     -11.888  13.760  65.247  1.00  0.00    -0.365 A  
HETATM   17  C   UNL     1     -12.244  12.532  64.689  1.00  0.00    -0.524 A  
HETATM   18  C   UNL     1     -11.298  11.513  64.580  1.00  0.00    -0.226 A  
HETATM   19  C   UNL     1      -9.991  11.719  65.027  1.00  0.00    -0.287 A  
HETATM   20  C   UNL     1      -9.629  12.945  65.589  1.00  0.00    -0.036 A  
ENDBRANCH  14  15
ENDBRANCH  12  14
ENDBRANCH   7  12
TORSDOF 3
ENDMDL
MODEL      107
REMARK 921   NORMALIZED FREE ENERGY PREDICTED BY IDOCK:   -4.68 KCAL/MOL
REMARK 922        TOTAL FREE ENERGY PREDICTED BY IDOCK:   -6.10 KCAL/MOL
REMARK 923 INTER-LIGAND FREE ENERGY PREDICTED BY IDOCK:   -5.76 KCAL/MOL
REMARK 924 INTRA-LIGAND FREE ENERGY PREDICTED BY IDOCK:   -0.34 KCAL/MOL
REMARK 927      BINDING AFFINITY PREDICTED BY RF-SCORE:    0.00 PKD
ROOT
HETATM    1  N   UNL     1      -9.650  17.653  67.307  1.00  0.00    -0.266 NA 
HETATM    2  H1  UNL     1      -8.869  17.932  66.713  1.00  0.00     0.000 HD 
HETATM    3  C   UNL     1     -10.010  16.304  67.406  1.00  0.00    -0.249 A  
HETATM    4  H2  UNL     1      -9.483  18.012  68.248  1.00  0.00     0.000 HD 
HETATM    5  C   UNL     1     -11.079  15.922  68.219  1.00  0.00    -0.345 A  
HETATM    6  C   UNL     1     -11.489  14.585  68.281  1.00  0.00    -0.311 A  
HETATM    7  C   UNL     1     -10.874  13.615  67.477  1.00  0.00    -0.275 A  
HETATM    8  O   UNL     1     -12.472  14.248  69.169  1.00  0.00    -0.539 OA 
HETATM    9  C   UNL     1      -9.455  15.359  66.543  1.00  0.00    -0.298 A  
HETATM   10  C   UNL     1      -9.864  14.022  66.591  1.00  0.00    -0.288 A  
HETATM   11  H   UNL     1     -12.750  13.341  69.211  1.00  0.00     0.000 HD 
ENDROOT
BRANCH   7  12
HETATM   12  C   UNL     1     -11.151  12.156  67.563  1.00  0.00    -0.275 C  
HETATM   13  O   UNL     1     -12.149  11.646  67.071  1.00  0.00    -0.547 OA 
BRANCH  12  14
HETATM   14  O   UNL     1     -10.152  11.497  68.258  1.00  0.00    -0.186 OA 
BRANCH  14  15
HETATM   15  C   UNL     1     -10.496  10.805  69.433  1.00  0.00    -0.200 A  
HETATM   16  C   UNL     1     -11.708  11.025  70.088  1.00  0.00    -0.442 A  
HETATM   17  C   UNL     1     -12.054  10.227  71.177  1.00  0.00    -0.494 A  
HETATM   18  C   UNL     1     -11.200   9.206  71.594  1.00  0.00    -0.447 A  
HETATM   19  C   UNL     1      -9.998   8.977  70.921  1.00  0.00    -0.326 A  
HETATM   20  C   UNL     1      -9.646   9.776  69.831  1.00  0.00    -0.269 A  
ENDBRANCH  14  15
ENDBRANCH  12  14
ENDBRANCH   7  12
TORSDOF 3
ENDMDL
MODEL      108
REMARK 921   NORMALIZED FREE ENERGY PREDICTED BY IDOCK:   -4.67 KCAL/MOL
REMARK 922        TOTAL FREE ENERGY PREDICTED BY IDOCK:   -6.09 KCAL/MOL
REMARK 923 INTER-LIGAND FREE ENERGY PREDICTED BY IDOCK:   -5.85 KCAL/MOL
REMARK 924 INTRA-LIGAND FREE ENERGY PREDICTED BY IDOCK:   -0.24 KCAL/MOL
REMARK 927      BINDING AFFINITY PREDICTED BY RF-SCORE:    0.00 PKD
ROOT
HETATM    1  N   UNL     1      -8.959   9.125  63.286  1.00  0.00    -0.422 NA 
HETATM    2  H1  UNL     1      -9.020   8.956  62.282  1.00  0.00     0.000 HD 
HETATM    3  C   UNL     1      -9.691  10.165  63.870  1.00  0.00    -0.169 A  
HETATM    4  H2  UNL     1      -9.187   8.258  63.772  1.00  0.00     0.000 HD 
HETATM    5  C   UNL     1      -9.608  10.395  65.245  1.00  0.00    -0.316 A  
HETATM    6  C   UNL     1     -10.287  11.468  65.833  1.00  0.00    -0.247 A  
HETATM    7  C   UNL     1     -11.012  12.370  65.042  1.00  0.00    -0.336 A  
HETATM    8  O   UNL     1     -10.255  11.588  67.195  1.00  0.00    -0.198 OA 
HETATM    9  C   UNL     1     -10.340  11.107  63.072  1.00  0.00    -0.217 A  
HETATM   10  C   UNL     1     -11.015  12.189  63.651  1.00  0.00    -0.527 A  
HETATM   11  H   UNL     1     -10.716  12.316  67.594  1.00  0.00     0.000 HD 
ENDROOT
BRANCH   7  12
HETATM   12  C   UNL     1     -11.867  13.461  65.584  1.00  0.00    -0.370 C  
HETATM   13  O   UNL     1     -13.073  13.512  65.385  1.00  0.00    -0.663 OA 
BRANCH  12  14
HETATM   14  O   UNL     1     -11.117  14.369  66.311  1.00  0.00    -0.319 OA 
BRANCH  14  15
HETATM   15  C   UNL     1     -11.499  14.649  67.634  1.00  0.00    -0.346 A  
HETATM   16  C   UNL     1     -11.990  13.655  68.483  1.00  0.00    -0.396 A  
HETATM   17  C   UNL     1     -12.238  13.958  69.821  1.00  0.00    -0.388 A  
HETATM   18  C   UNL     1     -11.980  15.239  70.308  1.00  0.00    -0.367 A  
HETATM   19  C   UNL     1     -11.469  16.223  69.458  1.00  0.00    -0.231 A  
HETATM   20  C   UNL     1     -11.221  15.926  68.116  1.00  0.00    -0.339 A  
ENDBRANCH  14  15
ENDBRANCH  12  14
ENDBRANCH   7  12
TORSDOF 3
ENDMDL
MODEL      109
REMARK 921   NORMALIZED FREE ENERGY PREDICTED BY IDOCK:   -4.65 KCAL/MOL
REMARK 922        TOTAL FREE ENERGY PREDICTED BY IDOCK:   -6.06 KCAL/MOL
REMARK 923 INTER-LIGAND FREE ENERGY PREDICTED BY IDOCK:   -5.60 KCAL/MOL
REMARK 924 INTRA-LIGAND FREE ENERGY PREDICTED BY IDOCK:   -0.46 KCAL/MOL
REMARK 927      BINDING AFFINITY PREDICTED BY RF-SCORE:    0.00 PKD
ROOT
HETATM    1  N   UNL     1      -9.505   3.067  65.419  1.00  0.00    -0.306 NA 
HETATM    2  H1  UNL     1      -8.935   2.223  65.483  1.00  0.00     0.000 HD 
HETATM    3  C   UNL     1      -9.721   3.856  66.554  1.00  0.00    -0.164 A  
HETATM    4  H2  UNL     1      -9.119   3.659  64.683  1.00  0.00     0.000 HD 
HETATM    5  C   UNL     1     -10.499   5.012  66.466  1.00  0.00    -0.325 A  
HETATM    6  C   UNL     1     -10.774   5.778  67.606  1.00  0.00    -0.229 A  
HETATM    7  C   UNL     1     -10.326   5.362  68.867  1.00  0.00    -0.260 A  
HETATM    8  O   UNL     1     -11.453   6.954  67.447  1.00  0.00    -0.666 OA 
HETATM    9  C   UNL     1      -9.348   3.396  67.817  1.00  0.00    -0.243 A  
HETATM   10  C   UNL     1      -9.625   4.150  68.962  1.00  0.00    -0.232 A  
HETATM   11  H   UNL     1     -11.640   7.473  68.221  1.00  0.00     0.000 HD 
ENDROOT
BRANCH   7  12
HETATM   12  C   UNL     1     -10.457   6.168  70.111  1.00  0.00    -0.231 C  
HETATM   13  O   UNL     1      -9.496   6.461  70.809  1.00  0.00    -0.167 OA 
BRANCH  12  14
HETATM   14  O   UNL     1     -11.776   6.514  70.345  1.00  0.00    -0.393 OA 
BRANCH  14  15
HETATM   15  C   UNL     1     -12.051   7.781  70.889  1.00  0.00    -0.179 A  
HETATM   16  C   UNL     1     -11.354   8.921  70.486  1.00  0.00    -0.268 A  
HETATM   17  C   UNL     1     -11.747  10.171  70.964  1.00  0.00    -0.470 A  
HETATM   18  C   UNL     1     -12.840  10.278  71.823  1.00  0.00    -0.565 A  
HETATM   19  C   UNL     1     -13.547   9.135  72.205  1.00  0.00    -0.548 A  
HETATM   20  C   UNL     1     -13.156   7.881  71.732  1.00  0.00    -0.352 A  
ENDBRANCH  14  15
ENDBRANCH  12  14
ENDBRANCH   7  12
TORSDOF 3
ENDMDL
MODEL      110
REMARK 921   NORMALIZED FREE ENERGY PREDICTED BY IDOCK:   -4.64 KCAL/MOL
REMARK 922        TOTAL FREE ENERGY PREDICTED BY IDOCK:   -6.05 KCAL/MOL
REMARK 923 INTER-LIGAND FREE ENERGY PREDICTED BY IDOCK:   -5.55 KCAL/MOL
REMARK 924 INTRA-LIGAND FREE ENERGY PREDICTED BY IDOCK:   -0.50 KCAL/MOL
REMARK 927      BINDING AFFINITY PREDICTED BY RF-SCORE:    0.00 PKD
ROOT
HETATM    1  N   UNL     1     -11.997  16.351  72.106  1.00  0.00    -0.634 NA 
HETATM    2  H1  UNL     1     -11.546  17.180  72.494  1.00  0.00     0.000 HD 
HETATM    3  C   UNL     1     -11.655  15.898  70.827  1.00  0.00    -0.410 A  
HETATM    4  H2  UNL     1     -11.875  15.581  72.764  1.00  0.00     0.000 HD 
HETATM    5  C   UNL     1     -12.272  14.763  70.297  1.00  0.00    -0.394 A  
HETATM    6  C   UNL     1     -11.983  14.333  68.996  1.00  0.00    -0.325 A  
HETATM    7  C   UNL     1     -11.117  15.072  68.179  1.00  0.00    -0.296 A  
HETATM    8  O   UNL     1     -12.536  13.160  68.564  1.00  0.00     0.033 OA 
HETATM    9  C   UNL     1     -10.861  16.681  69.989  1.00  0.00    -0.173 A  
HETATM   10  C   UNL     1     -10.574  16.263  68.684  1.00  0.00    -0.297 A  
HETATM   11  H   UNL     1     -12.340  12.868  67.681  1.00  0.00     0.000 HD 
ENDROOT
BRANCH   7  12
HETATM   12  C   UNL     1     -10.652  14.632  66.836  1.00  0.00    -0.281 C  
HETATM   13  O   UNL     1     -10.353  15.424  65.952  1.00  0.00    -0.297 OA 
BRANCH  12  14
HETATM   14  O   UNL     1     -10.617  13.252  66.747  1.00  0.00    -0.272 OA 
BRANCH  14  15
HETATM   15  C   UNL     1     -11.077  12.644  65.565  1.00  0.00    -0.294 A  
HETATM   16  C   UNL     1     -12.374  12.845  65.092  1.00  0.00    -0.547 A  
HETATM   17  C   UNL     1     -12.741  12.320  63.854  1.00  0.00    -0.490 A  
HETATM   18  C   UNL     1     -11.812  11.615  63.090  1.00  0.00    -0.098 A  
HETATM   19  C   UNL     1     -10.508  11.435  63.560  1.00  0.00    -0.477 A  
HETATM   20  C   UNL     1     -10.136  11.957  64.800  1.00  0.00    -0.295 A  
ENDBRANCH  14  15
ENDBRANCH  12  14
ENDBRANCH   7  12
TORSDOF 3
ENDMDL
MODEL      111
REMARK 921   NORMALIZED FREE ENERGY PREDICTED BY IDOCK:   -4.63 KCAL/MOL
REMARK 922        TOTAL FREE ENERGY PREDICTED BY IDOCK:   -6.04 KCAL/MOL
REMARK 923 INTER-LIGAND FREE ENERGY PREDICTED BY IDOCK:   -5.33 KCAL/MOL
REMARK 924 INTRA-LIGAND FREE ENERGY PREDICTED BY IDOCK:   -0.71 KCAL/MOL
REMARK 927      BINDING AFFINITY PREDICTED BY RF-SCORE:    0.00 PKD
ROOT
HETATM    1  N   UNL     1     -11.365  14.732  71.190  1.00  0.00    -0.530 NA 
HETATM    2  H1  UNL     1     -11.033  15.694  71.257  1.00  0.00     0.000 HD 
HETATM    3  C   UNL     1     -11.442  14.100  69.944  1.00  0.00    -0.226 A  
HETATM    4  H2  UNL     1     -10.798  14.152  71.810  1.00  0.00     0.000 HD 
HETATM    5  C   UNL     1     -11.896  12.782  69.852  1.00  0.00    -0.371 A  
HETATM    6  C   UNL     1     -12.036  12.158  68.607  1.00  0.00    -0.237 A  
HETATM    7  C   UNL     1     -11.784  12.867  67.424  1.00  0.00    -0.428 A  
HETATM    8  O   UNL     1     -12.385  10.837  68.580  1.00  0.00    -0.825 OA 
HETATM    9  C   UNL     1     -11.274  14.832  68.769  1.00  0.00    -0.286 A  
HETATM   10  C   UNL     1     -11.420  14.219  67.519  1.00  0.00    -0.368 A  
HETATM   11  H   UNL     1     -12.479  10.414  67.734  1.00  0.00     0.000 HD 
ENDROOT
BRANCH   7  12
HETATM   12  C   UNL     1     -11.782  12.259  66.066  1.00  0.00    -0.388 C  
HETATM   13  O   UNL     1     -12.123  12.879  65.068  1.00  0.00    -0.380 OA 
BRANCH  12  14
HETATM   14  O   UNL     1     -11.357  10.943  66.109  1.00  0.00    -0.023 OA 
BRANCH  14  15
HETATM   15  C   UNL     1     -10.054  10.644  65.674  1.00  0.00    -0.272 A  
HETATM   16  C   UNL     1      -9.774  10.345  64.340  1.00  0.00    -0.396 A  
HETATM   17  C   UNL     1      -8.449  10.177  63.938  1.00  0.00    -0.181 A  
HETATM   18  C   UNL     1      -7.414  10.325  64.861  1.00  0.00    -0.114 A  
HETATM   19  C   UNL     1      -7.701  10.645  66.191  1.00  0.00    -0.145 A  
HETATM   20  C   UNL     1      -9.025  10.812  66.599  1.00  0.00    -0.164 A  
ENDBRANCH  14  15
ENDBRANCH  12  14
ENDBRANCH   7  12
TORSDOF 3
ENDMDL
MODEL      112
REMARK 921   NORMALIZED FREE ENERGY PREDICTED BY IDOCK:   -4.62 KCAL/MOL
REMARK 922        TOTAL FREE ENERGY PREDICTED BY IDOCK:   -6.03 KCAL/MOL
REMARK 923 INTER-LIGAND FREE ENERGY PREDICTED BY IDOCK:   -5.49 KCAL/MOL
REMARK 924 INTRA-LIGAND FREE ENERGY PREDICTED BY IDOCK:   -0.54 KCAL/MOL
REMARK 927      BINDING AFFINITY PREDICTED BY RF-SCORE:    0.00 PKD
ROOT
HETATM    1  N   UNL     1     -13.872  15.604  72.386  1.00  0.00    -0.538 NA 
HETATM    2  H1  UNL     1     -13.626  16.528  72.028  1.00  0.00     0.000 HD 
HETATM    3  C   UNL     1     -13.293  14.458  71.829  1.00  0.00    -0.366 A  
HETATM    4  H2  UNL     1     -13.703  15.594  73.392  1.00  0.00     0.000 HD 
HETATM    5  C   UNL     1     -13.629  13.195  72.319  1.00  0.00    -0.677 A  
HETATM    6  C   UNL     1     -13.104  12.037  71.732  1.00  0.00    -0.355 A  
HETATM    7  C   UNL     1     -12.282  12.124  70.600  1.00  0.00    -0.392 A  
HETATM    8  O   UNL     1     -13.384  10.832  72.314  1.00  0.00    -0.623 OA 
HETATM    9  C   UNL     1     -12.546  14.543  70.654  1.00  0.00    -0.416 A  
HETATM   10  C   UNL     1     -12.025  13.391  70.055  1.00  0.00    -0.407 A  
HETATM   11  H   UNL     1     -13.027  10.046  71.915  1.00  0.00     0.000 HD 
ENDROOT
BRANCH   7  12
HETATM   12  C   UNL     1     -11.578  10.966  69.985  1.00  0.00    -0.341 C  
HETATM   13  O   UNL     1     -11.875   9.806  70.238  1.00  0.00    -0.234 OA 
BRANCH  12  14
HETATM   14  O   UNL     1     -10.579  11.388  69.126  1.00  0.00    -0.211 OA 
BRANCH  14  15
HETATM   15  C   UNL     1      -9.627  10.449  68.690  1.00  0.00    -0.166 A  
HETATM   16  C   UNL     1      -8.635   9.959  69.541  1.00  0.00    -0.194 A  
HETATM   17  C   UNL     1      -7.794   8.939  69.098  1.00  0.00    -0.093 A  
HETATM   18  C   UNL     1      -7.957   8.404  67.821  1.00  0.00    -0.111 A  
HETATM   19  C   UNL     1      -8.966   8.884  66.982  1.00  0.00    -0.145 A  
HETATM   20  C   UNL     1      -9.809   9.907  67.420  1.00  0.00    -0.223 A  
ENDBRANCH  14  15
ENDBRANCH  12  14
ENDBRANCH   7  12
TORSDOF 3
ENDMDL
MODEL      113
REMARK 921   NORMALIZED FREE ENERGY PREDICTED BY IDOCK:   -4.59 KCAL/MOL
REMARK 922        TOTAL FREE ENERGY PREDICTED BY IDOCK:   -5.99 KCAL/MOL
REMARK 923 INTER-LIGAND FREE ENERGY PREDICTED BY IDOCK:   -5.38 KCAL/MOL
REMARK 924 INTRA-LIGAND FREE ENERGY PREDICTED BY IDOCK:   -0.61 KCAL/MOL
REMARK 927      BINDING AFFINITY PREDICTED BY RF-SCORE:    0.00 PKD
ROOT
HETATM    1  N   UNL     1     -11.037   7.967  72.730  1.00  0.00    -0.392 NA 
HETATM    2  H1  UNL     1     -10.389   7.236  73.023  1.00  0.00     0.000 HD 
HETATM    3  C   UNL     1     -10.742   8.764  71.619  1.00  0.00    -0.327 A  
HETATM    4  H2  UNL     1     -11.955   7.545  72.589  1.00  0.00     0.000 HD 
HETATM    5  C   UNL     1     -11.629   9.765  71.218  1.00  0.00    -0.465 A  
HETATM    6  C   UNL     1     -11.319  10.609  70.145  1.00  0.00    -0.323 A  
HETATM    7  C   UNL     1     -10.081  10.506  69.494  1.00  0.00    -0.208 A  
HETATM    8  O   UNL     1     -12.265  11.503  69.728  1.00  0.00    -0.288 OA 
HETATM    9  C   UNL     1      -9.478   8.717  71.031  1.00  0.00    -0.261 A  
HETATM   10  C   UNL     1      -9.155   9.562  69.963  1.00  0.00    -0.255 A  
HETATM   11  H   UNL     1     -12.054  12.075  69.000  1.00  0.00     0.000 HD 
ENDROOT
BRANCH   7  12
HETATM   12  C   UNL     1      -9.711  11.268  68.271  1.00  0.00    -0.198 C  
HETATM   13  O   UNL     1      -9.037  10.782  67.373  1.00  0.00    -0.143 OA 
BRANCH  12  14
HETATM   14  O   UNL     1     -10.223  12.553  68.308  1.00  0.00    -0.224 OA 
BRANCH  14  15
HETATM   15  C   UNL     1     -10.700  13.120  67.114  1.00  0.00    -0.255 A  
HETATM   16  C   UNL     1     -11.856  12.651  66.487  1.00  0.00    -0.463 A  
HETATM   17  C   UNL     1     -12.355  13.327  65.374  1.00  0.00    -0.528 A  
HETATM   18  C   UNL     1     -11.712  14.472  64.905  1.00  0.00    -0.402 A  
HETATM   19  C   UNL     1     -10.567  14.948  65.550  1.00  0.00    -0.373 A  
HETATM   20  C   UNL     1     -10.062  14.274  66.663  1.00  0.00    -0.274 A  
ENDBRANCH  14  15
ENDBRANCH  12  14
ENDBRANCH   7  12
TORSDOF 3
ENDMDL
MODEL      114
REMARK 921   NORMALIZED FREE ENERGY PREDICTED BY IDOCK:   -4.58 KCAL/MOL
REMARK 922        TOTAL FREE ENERGY PREDICTED BY IDOCK:   -5.98 KCAL/MOL
REMARK 923 INTER-LIGAND FREE ENERGY PREDICTED BY IDOCK:   -5.32 KCAL/MOL
REMARK 924 INTRA-LIGAND FREE ENERGY PREDICTED BY IDOCK:   -0.66 KCAL/MOL
REMARK 927      BINDING AFFINITY PREDICTED BY RF-SCORE:    0.00 PKD
ROOT
HETATM    1  N   UNL     1      -8.166   8.178  71.986  1.00  0.00    -0.136 NA 
HETATM    2  H1  UNL     1      -7.152   8.098  71.907  1.00  0.00     0.000 HD 
HETATM    3  C   UNL     1      -8.890   8.899  71.029  1.00  0.00    -0.230 A  
HETATM    4  H2  UNL     1      -8.559   7.239  72.047  1.00  0.00     0.000 HD 
HETATM    5  C   UNL     1     -10.278   9.008  71.137  1.00  0.00    -0.363 A  
HETATM    6  C   UNL     1     -11.009   9.775  70.222  1.00  0.00    -0.298 A  
HETATM    7  C   UNL     1     -10.352  10.501  69.218  1.00  0.00    -0.248 A  
HETATM    8  O   UNL     1     -12.373   9.765  70.311  1.00  0.00    -0.480 OA 
HETATM    9  C   UNL     1      -8.229   9.686  70.087  1.00  0.00    -0.206 A  
HETATM   10  C   UNL     1      -8.950  10.463  69.174  1.00  0.00    -0.188 A  
HETATM   11  H   UNL     1     -12.868  10.286  69.690  1.00  0.00     0.000 HD 
ENDROOT
BRANCH   7  12
HETATM   12  C   UNL     1     -11.045  11.239  68.128  1.00  0.00    -0.259 C  
HETATM   13  O   UNL     1     -12.263  11.257  68.018  1.00  0.00    -0.621 OA 
BRANCH  12  14
HETATM   14  O   UNL     1     -10.137  11.869  67.295  1.00  0.00    -0.195 OA 
BRANCH  14  15
HETATM   15  C   UNL     1     -10.373  11.851  65.909  1.00  0.00    -0.242 A  
HETATM   16  C   UNL     1     -10.975  12.926  65.253  1.00  0.00    -0.310 A  
HETATM   17  C   UNL     1     -11.074  12.911  63.862  1.00  0.00    -0.454 A  
HETATM   18  C   UNL     1     -10.559  11.838  63.136  1.00  0.00    -0.341 A  
HETATM   19  C   UNL     1      -9.939  10.775  63.798  1.00  0.00    -0.411 A  
HETATM   20  C   UNL     1      -9.839  10.784  65.191  1.00  0.00    -0.333 A  
ENDBRANCH  14  15
ENDBRANCH  12  14
ENDBRANCH   7  12
TORSDOF 3
ENDMDL
MODEL      115
REMARK 921   NORMALIZED FREE ENERGY PREDICTED BY IDOCK:   -4.57 KCAL/MOL
REMARK 922        TOTAL FREE ENERGY PREDICTED BY IDOCK:   -5.97 KCAL/MOL
REMARK 923 INTER-LIGAND FREE ENERGY PREDICTED BY IDOCK:   -5.31 KCAL/MOL
REMARK 924 INTRA-LIGAND FREE ENERGY PREDICTED BY IDOCK:   -0.66 KCAL/MOL
REMARK 927      BINDING AFFINITY PREDICTED BY RF-SCORE:    0.00 PKD
ROOT
HETATM    1  N   UNL     1     -14.341   8.844  73.001  1.00  0.00    -1.154 NA 
HETATM    2  H1  UNL     1     -14.580   7.884  73.253  1.00  0.00     0.000 HD 
HETATM    3  C   UNL     1     -13.252   9.100  72.161  1.00  0.00    -0.458 A  
HETATM    4  H2  UNL     1     -15.169   9.285  72.600  1.00  0.00     0.000 HD 
HETATM    5  C   UNL     1     -12.926  10.413  71.816  1.00  0.00    -0.580 A  
HETATM    6  C   UNL     1     -11.804  10.688  71.026  1.00  0.00    -0.296 A  
HETATM    7  C   UNL     1     -10.950   9.654  70.620  1.00  0.00    -0.386 A  
HETATM    8  O   UNL     1     -11.589  11.980  70.633  1.00  0.00    -0.423 OA 
HETATM    9  C   UNL     1     -12.359   8.081  71.831  1.00  0.00    -0.360 A  
HETATM   10  C   UNL     1     -11.229   8.348  71.048  1.00  0.00    -0.304 A  
HETATM   11  H   UNL     1     -10.828  12.166  70.096  1.00  0.00     0.000 HD 
ENDROOT
BRANCH   7  12
HETATM   12  C   UNL     1      -9.811   9.829  69.679  1.00  0.00    -0.221 C  
HETATM   13  O   UNL     1      -9.672  10.833  68.993  1.00  0.00    -0.197 OA 
BRANCH  12  14
HETATM   14  O   UNL     1      -8.974   8.727  69.697  1.00  0.00    -0.140 OA 
BRANCH  14  15
HETATM   15  C   UNL     1      -8.599   8.149  68.472  1.00  0.00    -0.130 A  
HETATM   16  C   UNL     1      -7.266   7.862  68.171  1.00  0.00    -0.090 A  
HETATM   17  C   UNL     1      -6.960   7.177  66.996  1.00  0.00    -0.077 A  
HETATM   18  C   UNL     1      -7.982   6.767  66.140  1.00  0.00    -0.110 A  
HETATM   19  C   UNL     1      -9.315   7.039  66.457  1.00  0.00    -0.201 A  
HETATM   20  C   UNL     1      -9.627   7.727  67.631  1.00  0.00    -0.177 A  
ENDBRANCH  14  15
ENDBRANCH  12  14
ENDBRANCH   7  12
TORSDOF 3
ENDMDL
MODEL      116
REMARK 921   NORMALIZED FREE ENERGY PREDICTED BY IDOCK:   -4.54 KCAL/MOL
REMARK 922        TOTAL FREE ENERGY PREDICTED BY IDOCK:   -5.93 KCAL/MOL
REMARK 923 INTER-LIGAND FREE ENERGY PREDICTED BY IDOCK:   -5.21 KCAL/MOL
REMARK 924 INTRA-LIGAND FREE ENERGY PREDICTED BY IDOCK:   -0.72 KCAL/MOL
REMARK 927      BINDING AFFINITY PREDICTED BY RF-SCORE:    0.00 PKD
ROOT
HETATM    1  N   UNL     1      -7.306  10.418  66.966  1.00  0.00    -0.094 NA 
HETATM    2  H1  UNL     1      -7.535   9.428  66.873  1.00  0.00     0.000 HD 
HETATM    3  C   UNL     1      -8.311  11.349  67.250  1.00  0.00    -0.149 A  
HETATM    4  H2  UNL     1      -6.571  10.512  67.668  1.00  0.00     0.000 HD 
HETATM    5  C   UNL     1      -7.996  12.703  67.377  1.00  0.00    -0.177 A  
HETATM    6  C   UNL     1      -9.000  13.653  67.600  1.00  0.00    -0.202 A  
HETATM    7  C   UNL     1     -10.347  13.269  67.635  1.00  0.00    -0.230 A  
HETATM    8  O   UNL     1      -8.627  14.950  67.820  1.00  0.00    -0.156 OA 
HETATM    9  C   UNL     1      -9.654  10.976  67.198  1.00  0.00    -0.189 A  
HETATM   10  C   UNL     1     -10.665  11.921  67.412  1.00  0.00    -0.271 A  
HETATM   11  H   UNL     1      -9.309  15.595  67.972  1.00  0.00     0.000 HD 
ENDROOT
BRANCH   7  12
HETATM   12  C   UNL     1     -11.470  14.179  67.990  1.00  0.00    -0.312 C  
HETATM   13  O   UNL     1     -12.445  14.333  67.267  1.00  0.00    -0.235 OA 
BRANCH  12  14
HETATM   14  O   UNL     1     -11.246  14.797  69.208  1.00  0.00    -0.256 OA 
BRANCH  14  15
HETATM   15  C   UNL     1     -12.097  14.488  70.284  1.00  0.00    -0.323 A  
HETATM   16  C   UNL     1     -12.919  15.451  70.871  1.00  0.00    -0.539 A  
HETATM   17  C   UNL     1     -13.832  15.067  71.852  1.00  0.00    -0.575 A  
HETATM   18  C   UNL     1     -13.933  13.727  72.227  1.00  0.00    -0.672 A  
HETATM   19  C   UNL     1     -13.122  12.765  71.620  1.00  0.00    -0.428 A  
HETATM   20  C   UNL     1     -12.204  13.145  70.639  1.00  0.00    -0.402 A  
ENDBRANCH  14  15
ENDBRANCH  12  14
ENDBRANCH   7  12
TORSDOF 3
ENDMDL
MODEL      117
REMARK 921   NORMALIZED FREE ENERGY PREDICTED BY IDOCK:   -4.53 KCAL/MOL
REMARK 922        TOTAL FREE ENERGY PREDICTED BY IDOCK:   -5.92 KCAL/MOL
REMARK 923 INTER-LIGAND FREE ENERGY PREDICTED BY IDOCK:   -5.40 KCAL/MOL
REMARK 924 INTRA-LIGAND FREE ENERGY PREDICTED BY IDOCK:   -0.52 KCAL/MOL
REMARK 927      BINDING AFFINITY PREDICTED BY RF-SCORE:    0.00 PKD
ROOT
HETATM    1  N   UNL     1      -8.878   8.466  64.691  1.00  0.00    -0.408 NA 
HETATM    2  H1  UNL     1      -8.649   8.925  63.809  1.00  0.00     0.000 HD 
HETATM    3  C   UNL     1      -9.636   9.138  65.656  1.00  0.00    -0.217 A  
HETATM    4  H2  UNL     1      -9.337   7.579  64.482  1.00  0.00     0.000 HD 
HETATM    5  C   UNL     1      -9.949   8.510  66.863  1.00  0.00    -0.335 A  
HETATM    6  C   UNL     1     -10.655   9.191  67.863  1.00  0.00    -0.214 A  
HETATM    7  C   UNL     1     -11.002  10.539  67.695  1.00  0.00    -0.375 A  
HETATM    8  O   UNL     1     -11.025   8.499  68.981  1.00  0.00    -0.426 OA 
HETATM    9  C   UNL     1      -9.904  10.500  65.522  1.00  0.00    -0.324 A  
HETATM   10  C   UNL     1     -10.601  11.192  66.520  1.00  0.00    -0.314 A  
HETATM   11  H   UNL     1     -11.503   8.961  69.659  1.00  0.00     0.000 HD 
ENDROOT
BRANCH   7  12
HETATM   12  C   UNL     1     -11.856  11.308  68.639  1.00  0.00    -0.300 C  
HETATM   13  O   UNL     1     -12.265  10.834  69.691  1.00  0.00    -0.318 OA 
BRANCH  12  14
HETATM   14  O   UNL     1     -12.107  12.582  68.162  1.00  0.00    -0.307 OA 
BRANCH  14  15
HETATM   15  C   UNL     1     -11.673  13.682  68.923  1.00  0.00    -0.338 A  
HETATM   16  C   UNL     1     -12.213  13.967  70.178  1.00  0.00    -0.425 A  
HETATM   17  C   UNL     1     -11.663  14.994  70.944  1.00  0.00    -0.376 A  
HETATM   18  C   UNL     1     -10.571  15.716  70.464  1.00  0.00    -0.217 A  
HETATM   19  C   UNL     1     -10.022  15.412  69.216  1.00  0.00    -0.256 A  
HETATM   20  C   UNL     1     -10.570  14.386  68.444  1.00  0.00    -0.248 A  
ENDBRANCH  14  15
ENDBRANCH  12  14
ENDBRANCH   7  12
TORSDOF 3
ENDMDL
MODEL      118
REMARK 921   NORMALIZED FREE ENERGY PREDICTED BY IDOCK:   -4.50 KCAL/MOL
REMARK 922        TOTAL FREE ENERGY PREDICTED BY IDOCK:   -5.89 KCAL/MOL
REMARK 923 INTER-LIGAND FREE ENERGY PREDICTED BY IDOCK:   -5.24 KCAL/MOL
REMARK 924 INTRA-LIGAND FREE ENERGY PREDICTED BY IDOCK:   -0.64 KCAL/MOL
REMARK 927      BINDING AFFINITY PREDICTED BY RF-SCORE:    0.00 PKD
ROOT
HETATM    1  N   UNL     1     -10.706   8.639  72.626  1.00  0.00    -0.146 NA 
HETATM    2  H1  UNL     1     -11.390   8.884  73.342  1.00  0.00     0.000 HD 
HETATM    3  C   UNL     1     -10.778   9.222  71.356  1.00  0.00    -0.362 A  
HETATM    4  H2  UNL     1      -9.772   8.804  73.004  1.00  0.00     0.000 HD 
HETATM    5  C   UNL     1      -9.841   8.886  70.376  1.00  0.00    -0.224 A  
HETATM    6  C   UNL     1      -9.936   9.416  69.084  1.00  0.00    -0.182 A  
HETATM    7  C   UNL     1     -11.013  10.242  68.732  1.00  0.00    -0.285 A  
HETATM    8  O   UNL     1      -8.937   9.137  68.194  1.00  0.00    -0.129 OA 
HETATM    9  C   UNL     1     -11.893   9.972  70.985  1.00  0.00    -0.476 A  
HETATM   10  C   UNL     1     -12.002  10.498  69.692  1.00  0.00    -0.279 A  
HETATM   11  H   UNL     1      -9.002   9.496  67.317  1.00  0.00     0.000 HD 
ENDROOT
BRANCH   7  12
HETATM   12  C   UNL     1     -11.134  10.950  67.429  1.00  0.00    -0.307 C  
HETATM   13  O   UNL     1     -10.677  10.496  66.388  1.00  0.00    -0.191 OA 
BRANCH  12  14
HETATM   14  O   UNL     1     -11.810  12.149  67.573  1.00  0.00    -0.499 OA 
BRANCH  14  15
HETATM   15  C   UNL     1     -11.418  13.240  66.778  1.00  0.00    -0.350 A  
HETATM   16  C   UNL     1     -12.104  13.585  65.612  1.00  0.00    -0.467 A  
HETATM   17  C   UNL     1     -11.752  14.747  64.927  1.00  0.00    -0.390 A  
HETATM   18  C   UNL     1     -10.733  15.565  65.416  1.00  0.00    -0.422 A  
HETATM   19  C   UNL     1     -10.065  15.225  66.594  1.00  0.00    -0.268 A  
HETATM   20  C   UNL     1     -10.412  14.061  67.283  1.00  0.00    -0.268 A  
ENDBRANCH  14  15
ENDBRANCH  12  14
ENDBRANCH   7  12
TORSDOF 3
ENDMDL
MODEL      119
REMARK 921   NORMALIZED FREE ENERGY PREDICTED BY IDOCK:   -4.49 KCAL/MOL
REMARK 922        TOTAL FREE ENERGY PREDICTED BY IDOCK:   -5.87 KCAL/MOL
REMARK 923 INTER-LIGAND FREE ENERGY PREDICTED BY IDOCK:   -5.61 KCAL/MOL
REMARK 924 INTRA-LIGAND FREE ENERGY PREDICTED BY IDOCK:   -0.27 KCAL/MOL
REMARK 927      BINDING AFFINITY PREDICTED BY RF-SCORE:    0.00 PKD
ROOT
HETATM    1  N   UNL     1      -9.676   5.716  72.121  1.00  0.00    -0.153 NA 
HETATM    2  H1  UNL     1      -8.712   5.644  71.794  1.00  0.00     0.000 HD 
HETATM    3  C   UNL     1     -10.406   6.890  71.905  1.00  0.00    -0.189 A  
HETATM    4  H2  UNL     1     -10.205   4.933  71.737  1.00  0.00     0.000 HD 
HETATM    5  C   UNL     1     -11.725   6.989  72.352  1.00  0.00    -0.252 A  
HETATM    6  C   UNL     1     -12.447   8.178  72.196  1.00  0.00    -0.322 A  
HETATM    7  C   UNL     1     -11.836   9.313  71.646  1.00  0.00    -0.453 A  
HETATM    8  O   UNL     1     -13.765   8.188  72.558  1.00  0.00    -0.550 OA 
HETATM    9  C   UNL     1      -9.771   8.041  71.437  1.00  0.00    -0.205 A  
HETATM   10  C   UNL     1     -10.482   9.237  71.286  1.00  0.00    -0.408 A  
HETATM   11  H   UNL     1     -14.255   8.995  72.452  1.00  0.00     0.000 HD 
ENDROOT
BRANCH   7  12
HETATM   12  C   UNL     1     -12.552  10.577  71.325  1.00  0.00    -0.426 C  
HETATM   13  O   UNL     1     -13.170  11.215  72.167  1.00  0.00    -0.481 OA 
BRANCH  12  14
HETATM   14  O   UNL     1     -12.419  10.901  69.987  1.00  0.00    -0.323 OA 
BRANCH  14  15
HETATM   15  C   UNL     1     -11.896  12.163  69.650  1.00  0.00    -0.322 A  
HETATM   16  C   UNL     1     -12.178  13.301  70.407  1.00  0.00    -0.404 A  
HETATM   17  C   UNL     1     -11.538  14.502  70.104  1.00  0.00    -0.334 A  
HETATM   18  C   UNL     1     -10.610  14.556  69.064  1.00  0.00    -0.250 A  
HETATM   19  C   UNL     1     -10.317  13.408  68.324  1.00  0.00    -0.251 A  
HETATM   20  C   UNL     1     -10.957  12.204  68.621  1.00  0.00    -0.284 A  
ENDBRANCH  14  15
ENDBRANCH  12  14
ENDBRANCH   7  12
TORSDOF 3
ENDMDL
MODEL      120
REMARK 921   NORMALIZED FREE ENERGY PREDICTED BY IDOCK:   -4.47 KCAL/MOL
REMARK 922        TOTAL FREE ENERGY PREDICTED BY IDOCK:   -5.84 KCAL/MOL
REMARK 923 INTER-LIGAND FREE ENERGY PREDICTED BY IDOCK:   -5.28 KCAL/MOL
REMARK 924 INTRA-LIGAND FREE ENERGY PREDICTED BY IDOCK:   -0.56 KCAL/MOL
REMARK 927      BINDING AFFINITY PREDICTED BY RF-SCORE:    0.00 PKD
ROOT
HETATM    1  N   UNL     1     -12.517   8.464  72.549  1.00  0.00    -0.555 NA 
HETATM    2  H1  UNL     1     -12.227   7.487  72.512  1.00  0.00     0.000 HD 
HETATM    3  C   UNL     1     -12.174   9.339  71.512  1.00  0.00    -0.362 A  
HETATM    4  H2  UNL     1     -13.530   8.495  72.674  1.00  0.00     0.000 HD 
HETATM    5  C   UNL     1     -12.571  10.677  71.563  1.00  0.00    -0.517 A  
HETATM    6  C   UNL     1     -12.183  11.577  70.563  1.00  0.00    -0.377 A  
HETATM    7  C   UNL     1     -11.334  11.165  69.527  1.00  0.00    -0.359 A  
HETATM    8  O   UNL     1     -12.684  12.848  70.606  1.00  0.00    -0.201 OA 
HETATM    9  C   UNL     1     -11.261   8.949  70.532  1.00  0.00    -0.287 A  
HETATM   10  C   UNL     1     -10.861   9.845  69.533  1.00  0.00    -0.274 A  
HETATM   11  H   UNL     1     -12.421  13.459  69.927  1.00  0.00     0.000 HD 
ENDROOT
BRANCH   7  12
HETATM   12  C   UNL     1     -10.971  12.009  68.356  1.00  0.00    -0.237 C  
HETATM   13  O   UNL     1     -10.882  11.556  67.222  1.00  0.00    -0.227 OA 
BRANCH  12  14
HETATM   14  O   UNL     1     -10.756  13.322  68.734  1.00  0.00    -0.247 OA 
BRANCH  14  15
HETATM   15  C   UNL     1     -10.049  14.165  67.858  1.00  0.00    -0.235 A  
HETATM   16  C   UNL     1     -10.704  15.049  66.999  1.00  0.00    -0.304 A  
HETATM   17  C   UNL     1      -9.957  15.949  66.241  1.00  0.00    -0.318 A  
HETATM   18  C   UNL     1      -8.567  15.976  66.357  1.00  0.00    -0.369 A  
HETATM   19  C   UNL     1      -7.919  15.103  67.234  1.00  0.00    -0.234 A  
HETATM   20  C   UNL     1      -8.662  14.197  67.994  1.00  0.00    -0.177 A  
ENDBRANCH  14  15
ENDBRANCH  12  14
ENDBRANCH   7  12
TORSDOF 3
ENDMDL
MODEL      121
REMARK 921   NORMALIZED FREE ENERGY PREDICTED BY IDOCK:   -4.46 KCAL/MOL
REMARK 922        TOTAL FREE ENERGY PREDICTED BY IDOCK:   -5.84 KCAL/MOL
REMARK 923 INTER-LIGAND FREE ENERGY PREDICTED BY IDOCK:   -5.11 KCAL/MOL
REMARK 924 INTRA-LIGAND FREE ENERGY PREDICTED BY IDOCK:   -0.73 KCAL/MOL
REMARK 927      BINDING AFFINITY PREDICTED BY RF-SCORE:    0.00 PKD
ROOT
HETATM    1  N   UNL     1     -10.751  12.916  67.438  1.00  0.00    -0.235 NA 
HETATM    2  H1  UNL     1      -9.860  13.218  67.044  1.00  0.00     0.000 HD 
HETATM    3  C   UNL     1     -10.784  11.919  68.419  1.00  0.00    -0.220 A  
HETATM    4  H2  UNL     1     -11.239  13.738  67.796  1.00  0.00     0.000 HD 
HETATM    5  C   UNL     1     -12.005  11.506  68.958  1.00  0.00    -0.377 A  
HETATM    6  C   UNL     1     -12.058  10.469  69.897  1.00  0.00    -0.245 A  
HETATM    7  C   UNL     1     -10.893   9.782  70.264  1.00  0.00    -0.356 A  
HETATM    8  O   UNL     1     -13.264  10.174  70.468  1.00  0.00    -0.585 OA 
HETATM    9  C   UNL     1      -9.638  11.183  68.717  1.00  0.00    -0.180 A  
HETATM   10  C   UNL     1      -9.683  10.138  69.648  1.00  0.00    -0.250 A  
HETATM   11  H   UNL     1     -13.300   9.469  71.105  1.00  0.00     0.000 HD 
ENDROOT
BRANCH   7  12
HETATM   12  C   UNL     1     -10.828   8.756  71.340  1.00  0.00    -0.289 C  
HETATM   13  O   UNL     1     -10.120   8.886  72.330  1.00  0.00    -0.294 OA 
BRANCH  12  14
HETATM   14  O   UNL     1     -11.653   7.682  71.057  1.00  0.00    -0.277 OA 
BRANCH  14  15
HETATM   15  C   UNL     1     -11.072   6.505  70.552  1.00  0.00    -0.319 A  
HETATM   16  C   UNL     1     -10.835   6.328  69.189  1.00  0.00    -0.403 A  
HETATM   17  C   UNL     1     -10.146   5.197  68.753  1.00  0.00    -0.231 A  
HETATM   18  C   UNL     1      -9.683   4.261  69.678  1.00  0.00    -0.284 A  
HETATM   19  C   UNL     1      -9.905   4.455  71.044  1.00  0.00    -0.260 A  
HETATM   20  C   UNL     1     -10.597   5.585  71.485  1.00  0.00    -0.302 A  
ENDBRANCH  14  15
ENDBRANCH  12  14
ENDBRANCH   7  12
TORSDOF 3
ENDMDL
MODEL      122
REMARK 921   NORMALIZED FREE ENERGY PREDICTED BY IDOCK:   -4.46 KCAL/MOL
REMARK 922        TOTAL FREE ENERGY PREDICTED BY IDOCK:   -5.84 KCAL/MOL
REMARK 923 INTER-LIGAND FREE ENERGY PREDICTED BY IDOCK:   -5.48 KCAL/MOL
REMARK 924 INTRA-LIGAND FREE ENERGY PREDICTED BY IDOCK:   -0.36 KCAL/MOL
REMARK 927      BINDING AFFINITY PREDICTED BY RF-SCORE:    0.00 PKD
ROOT
HETATM    1  N   UNL     1     -13.640  12.970  72.724  1.00  0.00    -0.707 NA 
HETATM    2  H1  UNL     1     -13.961  12.226  73.344  1.00  0.00     0.000 HD 
HETATM    3  C   UNL     1     -13.050  12.654  71.495  1.00  0.00    -0.278 A  
HETATM    4  H2  UNL     1     -14.420  13.605  72.554  1.00  0.00     0.000 HD 
HETATM    5  C   UNL     1     -12.611  13.672  70.646  1.00  0.00    -0.366 A  
HETATM    6  C   UNL     1     -11.965  13.371  69.441  1.00  0.00    -0.315 A  
HETATM    7  C   UNL     1     -11.689  12.041  69.096  1.00  0.00    -0.389 A  
HETATM    8  O   UNL     1     -11.648  14.401  68.601  1.00  0.00    -0.280 OA 
HETATM    9  C   UNL     1     -12.701  11.337  71.196  1.00  0.00    -0.492 A  
HETATM   10  C   UNL     1     -12.048  11.027  69.997  1.00  0.00    -0.441 A  
HETATM   11  H   UNL     1     -11.210  14.196  67.783  1.00  0.00     0.000 HD 
ENDROOT
BRANCH   7  12
HETATM   12  C   UNL     1     -11.125  11.614  67.787  1.00  0.00    -0.249 C  
HETATM   13  O   UNL     1     -11.744  11.722  66.738  1.00  0.00    -0.555 OA 
BRANCH  12  14
HETATM   14  O   UNL     1      -9.850  11.097  67.937  1.00  0.00    -0.168 OA 
BRANCH  14  15
HETATM   15  C   UNL     1      -9.694   9.701  67.987  1.00  0.00    -0.146 A  
HETATM   16  C   UNL     1      -8.836   9.089  68.903  1.00  0.00    -0.139 A  
HETATM   17  C   UNL     1      -8.810   7.698  68.995  1.00  0.00    -0.135 A  
HETATM   18  C   UNL     1      -9.649   6.928  68.190  1.00  0.00    -0.124 A  
HETATM   19  C   UNL     1     -10.521   7.548  67.290  1.00  0.00    -0.391 A  
HETATM   20  C   UNL     1     -10.549   8.940  67.192  1.00  0.00    -0.301 A  
ENDBRANCH  14  15
ENDBRANCH  12  14
ENDBRANCH   7  12
TORSDOF 3
ENDMDL
MODEL      123
REMARK 921   NORMALIZED FREE ENERGY PREDICTED BY IDOCK:   -4.44 KCAL/MOL
REMARK 922        TOTAL FREE ENERGY PREDICTED BY IDOCK:   -5.81 KCAL/MOL
REMARK 923 INTER-LIGAND FREE ENERGY PREDICTED BY IDOCK:   -5.17 KCAL/MOL
REMARK 924 INTRA-LIGAND FREE ENERGY PREDICTED BY IDOCK:   -0.64 KCAL/MOL
REMARK 927      BINDING AFFINITY PREDICTED BY RF-SCORE:    0.00 PKD
ROOT
HETATM    1  N   UNL     1      -6.048  17.543  68.814  1.00  0.00    -0.177 NA 
HETATM    2  H1  UNL     1      -5.500  18.191  68.247  1.00  0.00     0.000 HD 
HETATM    3  C   UNL     1      -7.213  16.967  68.294  1.00  0.00    -0.186 A  
HETATM    4  H2  UNL     1      -5.432  16.794  69.131  1.00  0.00     0.000 HD 
HETATM    5  C   UNL     1      -7.962  16.080  69.069  1.00  0.00    -0.224 A  
HETATM    6  C   UNL     1      -9.161  15.543  68.585  1.00  0.00    -0.202 A  
HETATM    7  C   UNL     1      -9.664  15.938  67.337  1.00  0.00    -0.227 A  
HETATM    8  O   UNL     1      -9.802  14.602  69.341  1.00  0.00    -0.397 OA 
HETATM    9  C   UNL     1      -7.752  17.426  67.092  1.00  0.00    -0.229 A  
HETATM   10  C   UNL     1      -8.955  16.901  66.604  1.00  0.00    -0.279 A  
HETATM   11  H   UNL     1     -10.616  14.238  69.012  1.00  0.00     0.000 HD 
ENDROOT
BRANCH   7  12
HETATM   12  C   UNL     1     -10.856  15.333  66.685  1.00  0.00    -0.310 C  
HETATM   13  O   UNL     1     -11.807  14.901  67.323  1.00  0.00    -0.345 OA 
BRANCH  12  14
HETATM   14  O   UNL     1     -10.726  15.332  65.307  1.00  0.00    -0.356 OA 
BRANCH  14  15
HETATM   15  C   UNL     1     -10.892  14.118  64.618  1.00  0.00    -0.386 A  
HETATM   16  C   UNL     1      -9.858  13.186  64.513  1.00  0.00     0.006 A  
HETATM   17  C   UNL     1     -10.110  11.946  63.926  1.00  0.00    -0.396 A  
HETATM   18  C   UNL     1     -11.390  11.637  63.467  1.00  0.00    -0.447 A  
HETATM   19  C   UNL     1     -12.425  12.567  63.595  1.00  0.00    -0.570 A  
HETATM   20  C   UNL     1     -12.178  13.811  64.179  1.00  0.00    -0.443 A  
ENDBRANCH  14  15
ENDBRANCH  12  14
ENDBRANCH   7  12
TORSDOF 3
ENDMDL
MODEL      124
REMARK 921   NORMALIZED FREE ENERGY PREDICTED BY IDOCK:   -4.43 KCAL/MOL
REMARK 922        TOTAL FREE ENERGY PREDICTED BY IDOCK:   -5.80 KCAL/MOL
REMARK 923 INTER-LIGAND FREE ENERGY PREDICTED BY IDOCK:   -5.25 KCAL/MOL
REMARK 924 INTRA-LIGAND FREE ENERGY PREDICTED BY IDOCK:   -0.55 KCAL/MOL
REMARK 927      BINDING AFFINITY PREDICTED BY RF-SCORE:    0.00 PKD
ROOT
HETATM    1  N   UNL     1      -8.101   7.563  64.500  1.00  0.00    -0.252 NA 
HETATM    2  H1  UNL     1      -7.809   6.989  65.291  1.00  0.00     0.000 HD 
HETATM    3  C   UNL     1      -8.846   8.728  64.715  1.00  0.00    -0.045 A  
HETATM    4  H2  UNL     1      -7.273   7.806  63.956  1.00  0.00     0.000 HD 
HETATM    5  C   UNL     1      -9.246   9.514  63.632  1.00  0.00    -0.060 A  
HETATM    6  C   UNL     1     -10.042  10.649  63.827  1.00  0.00    -0.270 A  
HETATM    7  C   UNL     1     -10.506  10.980  65.108  1.00  0.00    -0.329 A  
HETATM    8  O   UNL     1     -10.318  11.440  62.747  1.00  0.00    -0.618 OA 
HETATM    9  C   UNL     1      -9.376   9.006  65.975  1.00  0.00    -0.305 A  
HETATM   10  C   UNL     1     -10.181  10.133  66.178  1.00  0.00    -0.285 A  
HETATM   11  H   UNL     1     -10.859  12.210  62.880  1.00  0.00     0.000 HD 
ENDROOT
BRANCH   7  12
HETATM   12  C   UNL     1     -11.248  12.228  65.434  1.00  0.00    -0.328 C  
HETATM   13  O   UNL     1     -12.431  12.381  65.159  1.00  0.00    -0.583 OA 
BRANCH  12  14
HETATM   14  O   UNL     1     -10.427  13.147  66.063  1.00  0.00    -0.274 OA 
BRANCH  14  15
HETATM   15  C   UNL     1     -10.830  13.665  67.307  1.00  0.00    -0.284 A  
HETATM   16  C   UNL     1     -11.250  14.988  67.451  1.00  0.00    -0.337 A  
HETATM   17  C   UNL     1     -11.755  15.418  68.678  1.00  0.00    -0.371 A  
HETATM   18  C   UNL     1     -11.854  14.525  69.744  1.00  0.00    -0.367 A  
HETATM   19  C   UNL     1     -11.452  13.196  69.586  1.00  0.00    -0.261 A  
HETATM   20  C   UNL     1     -10.943  12.761  68.361  1.00  0.00    -0.281 A  
ENDBRANCH  14  15
ENDBRANCH  12  14
ENDBRANCH   7  12
TORSDOF 3
ENDMDL
MODEL      125
REMARK 921   NORMALIZED FREE ENERGY PREDICTED BY IDOCK:   -4.42 KCAL/MOL
REMARK 922        TOTAL FREE ENERGY PREDICTED BY IDOCK:   -5.79 KCAL/MOL
REMARK 923 INTER-LIGAND FREE ENERGY PREDICTED BY IDOCK:   -5.19 KCAL/MOL
REMARK 924 INTRA-LIGAND FREE ENERGY PREDICTED BY IDOCK:   -0.59 KCAL/MOL
REMARK 927      BINDING AFFINITY PREDICTED BY RF-SCORE:    0.00 PKD
ROOT
HETATM    1  N   UNL     1      -8.616   7.366  64.774  1.00  0.00    -0.357 NA 
HETATM    2  H1  UNL     1      -8.610   6.432  65.183  1.00  0.00     0.000 HD 
HETATM    3  C   UNL     1      -9.170   8.439  65.481  1.00  0.00     0.011 A  
HETATM    4  H2  UNL     1      -7.659   7.610  64.516  1.00  0.00     0.000 HD 
HETATM    5  C   UNL     1      -9.178   9.718  64.921  1.00  0.00    -0.314 A  
HETATM    6  C   UNL     1      -9.782  10.789  65.591  1.00  0.00    -0.237 A  
HETATM    7  C   UNL     1     -10.448  10.582  66.807  1.00  0.00    -0.302 A  
HETATM    8  O   UNL     1      -9.671  12.039  65.048  1.00  0.00    -0.361 OA 
HETATM    9  C   UNL     1      -9.904   8.214  66.645  1.00  0.00    -0.331 A  
HETATM   10  C   UNL     1     -10.520   9.277  67.317  1.00  0.00    -0.334 A  
HETATM   11  H   UNL     1     -10.082  12.765  65.502  1.00  0.00     0.000 HD 
ENDROOT
BRANCH   7  12
HETATM   12  C   UNL     1     -11.009  11.671  67.651  1.00  0.00    -0.239 C  
HETATM   13  O   UNL     1     -11.831  12.473  67.229  1.00  0.00    -0.402 OA 
BRANCH  12  14
HETATM   14  O   UNL     1     -10.476  11.639  68.928  1.00  0.00    -0.212 OA 
BRANCH  14  15
HETATM   15  C   UNL     1     -11.357  11.601  70.022  1.00  0.00    -0.091 A  
HETATM   16  C   UNL     1     -11.923  12.761  70.551  1.00  0.00    -0.277 A  
HETATM   17  C   UNL     1     -12.885  12.659  71.556  1.00  0.00    -0.368 A  
HETATM   18  C   UNL     1     -13.288  11.405  72.012  1.00  0.00    -0.388 A  
HETATM   19  C   UNL     1     -12.733  10.246  71.464  1.00  0.00    -0.557 A  
HETATM   20  C   UNL     1     -11.768  10.343  70.459  1.00  0.00    -0.434 A  
ENDBRANCH  14  15
ENDBRANCH  12  14
ENDBRANCH   7  12
TORSDOF 3
ENDMDL
MODEL      126
REMARK 921   NORMALIZED FREE ENERGY PREDICTED BY IDOCK:   -4.41 KCAL/MOL
REMARK 922        TOTAL FREE ENERGY PREDICTED BY IDOCK:   -5.78 KCAL/MOL
REMARK 923 INTER-LIGAND FREE ENERGY PREDICTED BY IDOCK:   -5.50 KCAL/MOL
REMARK 924 INTRA-LIGAND FREE ENERGY PREDICTED BY IDOCK:   -0.27 KCAL/MOL
REMARK 927      BINDING AFFINITY PREDICTED BY RF-SCORE:    0.00 PKD
ROOT
HETATM    1  N   UNL     1      -8.053   7.996  64.365  1.00  0.00    -0.225 NA 
HETATM    2  H1  UNL     1      -7.479   8.453  63.657  1.00  0.00     0.000 HD 
HETATM    3  C   UNL     1      -8.814   8.762  65.255  1.00  0.00    -0.162 A  
HETATM    4  H2  UNL     1      -8.674   7.335  63.898  1.00  0.00     0.000 HD 
HETATM    5  C   UNL     1      -9.600   8.136  66.225  1.00  0.00    -0.248 A  
HETATM    6  C   UNL     1     -10.319   8.891  67.160  1.00  0.00    -0.281 A  
HETATM    7  C   UNL     1     -10.210  10.288  67.181  1.00  0.00    -0.277 A  
HETATM    8  O   UNL     1     -11.152   8.232  68.020  1.00  0.00    -0.453 OA 
HETATM    9  C   UNL     1      -8.637  10.144  65.328  1.00  0.00    -0.169 A  
HETATM   10  C   UNL     1      -9.344  10.906  66.266  1.00  0.00    -0.203 A  
HETATM   11  H   UNL     1     -11.640   8.744  68.655  1.00  0.00     0.000 HD 
ENDROOT
BRANCH   7  12
HETATM   12  C   UNL     1     -11.026  11.179  68.048  1.00  0.00    -0.252 C  
HETATM   13  O   UNL     1     -10.728  11.418  69.211  1.00  0.00    -0.212 OA 
BRANCH  12  14
HETATM   14  O   UNL     1     -12.126  11.670  67.367  1.00  0.00    -0.605 OA 
BRANCH  14  15
HETATM   15  C   UNL     1     -11.919  12.626  66.358  1.00  0.00    -0.357 A  
HETATM   16  C   UNL     1     -12.210  12.358  65.020  1.00  0.00    -0.465 A  
HETATM   17  C   UNL     1     -12.104  13.379  64.076  1.00  0.00    -0.506 A  
HETATM   18  C   UNL     1     -11.728  14.662  64.474  1.00  0.00    -0.410 A  
HETATM   19  C   UNL     1     -11.459  14.929  65.819  1.00  0.00    -0.281 A  
HETATM   20  C   UNL     1     -11.561  13.909  66.767  1.00  0.00    -0.398 A  
ENDBRANCH  14  15
ENDBRANCH  12  14
ENDBRANCH   7  12
TORSDOF 3
ENDMDL
MODEL      127
REMARK 921   NORMALIZED FREE ENERGY PREDICTED BY IDOCK:   -4.40 KCAL/MOL
REMARK 922        TOTAL FREE ENERGY PREDICTED BY IDOCK:   -5.77 KCAL/MOL
REMARK 923 INTER-LIGAND FREE ENERGY PREDICTED BY IDOCK:   -5.21 KCAL/MOL
REMARK 924 INTRA-LIGAND FREE ENERGY PREDICTED BY IDOCK:   -0.56 KCAL/MOL
REMARK 927      BINDING AFFINITY PREDICTED BY RF-SCORE:    0.00 PKD
ROOT
HETATM    1  N   UNL     1      -9.655  19.522  68.487  1.00  0.00    -0.379 NA 
HETATM    2  H1  UNL     1      -8.920  20.174  68.214  1.00  0.00     0.000 HD 
HETATM    3  C   UNL     1      -9.728  18.257  67.893  1.00  0.00    -0.303 A  
HETATM    4  H2  UNL     1      -9.616  19.400  69.499  1.00  0.00     0.000 HD 
HETATM    5  C   UNL     1     -10.734  17.363  68.268  1.00  0.00    -0.327 A  
HETATM    6  C   UNL     1     -10.856  16.118  67.639  1.00  0.00    -0.297 A  
HETATM    7  C   UNL     1     -10.010  15.773  66.576  1.00  0.00    -0.283 A  
HETATM    8  O   UNL     1     -11.791  15.242  68.114  1.00  0.00    -0.443 OA 
HETATM    9  C   UNL     1      -8.942  17.951  66.782  1.00  0.00    -0.272 A  
HETATM   10  C   UNL     1      -9.063  16.712  66.141  1.00  0.00    -0.318 A  
HETATM   11  H   UNL     1     -11.874  14.397  67.687  1.00  0.00     0.000 HD 
ENDROOT
BRANCH   7  12
HETATM   12  C   UNL     1      -9.978  14.432  65.932  1.00  0.00    -0.328 C  
HETATM   13  O   UNL     1     -10.460  14.222  64.827  1.00  0.00    -0.431 OA 
BRANCH  12  14
HETATM   14  O   UNL     1      -9.351  13.502  66.743  1.00  0.00    -0.247 OA 
BRANCH  14  15
HETATM   15  C   UNL     1      -9.861  12.192  66.780  1.00  0.00    -0.206 A  
HETATM   16  C   UNL     1      -9.299  11.163  66.023  1.00  0.00    -0.228 A  
HETATM   17  C   UNL     1      -9.762   9.859  66.188  1.00  0.00    -0.297 A  
HETATM   18  C   UNL     1     -10.765   9.585  67.117  1.00  0.00    -0.252 A  
HETATM   19  C   UNL     1     -11.309  10.617  67.887  1.00  0.00    -0.342 A  
HETATM   20  C   UNL     1     -10.851  11.926  67.723  1.00  0.00    -0.254 A  
ENDBRANCH  14  15
ENDBRANCH  12  14
ENDBRANCH   7  12
TORSDOF 3
ENDMDL
MODEL      128
REMARK 921   NORMALIZED FREE ENERGY PREDICTED BY IDOCK:   -4.40 KCAL/MOL
REMARK 922        TOTAL FREE ENERGY PREDICTED BY IDOCK:   -5.76 KCAL/MOL
REMARK 923 INTER-LIGAND FREE ENERGY PREDICTED BY IDOCK:   -5.02 KCAL/MOL
REMARK 924 INTRA-LIGAND FREE ENERGY PREDICTED BY IDOCK:   -0.74 KCAL/MOL
REMARK 927      BINDING AFFINITY PREDICTED BY RF-SCORE:    0.00 PKD
ROOT
HETATM    1  N   UNL     1      -9.681   3.339  66.944  1.00  0.00    -0.395 NA 
HETATM    2  H1  UNL     1     -10.322   2.896  66.285  1.00  0.00     0.000 HD 
HETATM    3  C   UNL     1      -9.860   4.679  67.305  1.00  0.00    -0.180 A  
HETATM    4  H2  UNL     1      -9.656   2.777  67.795  1.00  0.00     0.000 HD 
HETATM    5  C   UNL     1      -8.984   5.286  68.208  1.00  0.00    -0.116 A  
HETATM    6  C   UNL     1      -9.115   6.641  68.532  1.00  0.00    -0.128 A  
HETATM    7  C   UNL     1     -10.089   7.431  67.905  1.00  0.00    -0.220 A  
HETATM    8  O   UNL     1      -8.297   7.159  69.497  1.00  0.00    -0.130 OA 
HETATM    9  C   UNL     1     -10.773   5.480  66.619  1.00  0.00    -0.332 A  
HETATM   10  C   UNL     1     -10.905   6.839  66.930  1.00  0.00    -0.402 A  
HETATM   11  H   UNL     1      -8.386   8.079  69.716  1.00  0.00     0.000 HD 
ENDROOT
BRANCH   7  12
HETATM   12  C   UNL     1     -10.388   8.841  68.272  1.00  0.00    -0.207 C  
HETATM   13  O   UNL     1     -10.725   9.678  67.446  1.00  0.00    -0.275 OA 
BRANCH  12  14
HETATM   14  O   UNL     1     -10.227   9.049  69.631  1.00  0.00    -0.193 OA 
BRANCH  14  15
HETATM   15  C   UNL     1     -11.375   9.116  70.440  1.00  0.00    -0.224 A  
HETATM   16  C   UNL     1     -11.905   7.983  71.059  1.00  0.00    -0.280 A  
HETATM   17  C   UNL     1     -12.969   8.121  71.949  1.00  0.00    -0.356 A  
HETATM   18  C   UNL     1     -13.485   9.386  72.229  1.00  0.00    -0.539 A  
HETATM   19  C   UNL     1     -12.936  10.519  71.622  1.00  0.00    -0.581 A  
HETATM   20  C   UNL     1     -11.872  10.385  70.729  1.00  0.00    -0.466 A  
ENDBRANCH  14  15
ENDBRANCH  12  14
ENDBRANCH   7  12
TORSDOF 3
ENDMDL
MODEL      129
REMARK 921   NORMALIZED FREE ENERGY PREDICTED BY IDOCK:   -4.39 KCAL/MOL
REMARK 922        TOTAL FREE ENERGY PREDICTED BY IDOCK:   -5.75 KCAL/MOL
REMARK 923 INTER-LIGAND FREE ENERGY PREDICTED BY IDOCK:   -5.10 KCAL/MOL
REMARK 924 INTRA-LIGAND FREE ENERGY PREDICTED BY IDOCK:   -0.65 KCAL/MOL
REMARK 927      BINDING AFFINITY PREDICTED BY RF-SCORE:    0.00 PKD
ROOT
HETATM    1  N   UNL     1      -8.222   6.286  69.765  1.00  0.00    -0.123 NA 
HETATM    2  H1  UNL     1      -7.965   6.271  70.752  1.00  0.00     0.000 HD 
HETATM    3  C   UNL     1      -8.868   7.402  69.222  1.00  0.00    -0.136 A  
HETATM    4  H2  UNL     1      -7.384   6.099  69.213  1.00  0.00     0.000 HD 
HETATM    5  C   UNL     1      -9.218   7.421  67.871  1.00  0.00    -0.132 A  
HETATM    6  C   UNL     1      -9.919   8.505  67.328  1.00  0.00    -0.225 A  
HETATM    7  C   UNL     1     -10.338   9.562  68.148  1.00  0.00    -0.251 A  
HETATM    8  O   UNL     1     -10.146   8.521  65.981  1.00  0.00    -0.473 OA 
HETATM    9  C   UNL     1      -9.358   8.409  70.054  1.00  0.00    -0.159 A  
HETATM   10  C   UNL     1     -10.066   9.492  69.523  1.00  0.00    -0.218 A  
HETATM   11  H   UNL     1     -10.622   9.257  65.613  1.00  0.00     0.000 HD 
ENDROOT
BRANCH   7  12
HETATM   12  C   UNL     1     -10.973  10.811  67.646  1.00  0.00    -0.306 C  
HETATM   13  O   UNL     1     -12.089  11.168  67.999  1.00  0.00    -0.635 OA 
BRANCH  12  14
HETATM   14  O   UNL     1     -10.144  11.471  66.757  1.00  0.00    -0.207 OA 
BRANCH  14  15
HETATM   15  C   UNL     1     -10.728  12.161  65.680  1.00  0.00    -0.275 A  
HETATM   16  C   UNL     1     -11.324  11.488  64.613  1.00  0.00    -0.226 A  
HETATM   17  C   UNL     1     -11.997  12.216  63.633  1.00  0.00    -0.628 A  
HETATM   18  C   UNL     1     -12.086  13.605  63.731  1.00  0.00    -0.435 A  
HETATM   19  C   UNL     1     -11.505  14.270  64.813  1.00  0.00    -0.394 A  
HETATM   20  C   UNL     1     -10.828  13.546  65.797  1.00  0.00    -0.280 A  
ENDBRANCH  14  15
ENDBRANCH  12  14
ENDBRANCH   7  12
TORSDOF 3
ENDMDL
MODEL      130
REMARK 921   NORMALIZED FREE ENERGY PREDICTED BY IDOCK:   -4.39 KCAL/MOL
REMARK 922        TOTAL FREE ENERGY PREDICTED BY IDOCK:   -5.75 KCAL/MOL
REMARK 923 INTER-LIGAND FREE ENERGY PREDICTED BY IDOCK:   -5.04 KCAL/MOL
REMARK 924 INTRA-LIGAND FREE ENERGY PREDICTED BY IDOCK:   -0.71 KCAL/MOL
REMARK 927      BINDING AFFINITY PREDICTED BY RF-SCORE:    0.00 PKD
ROOT
HETATM    1  N   UNL     1     -13.375  11.814  72.090  1.00  0.00    -0.551 NA 
HETATM    2  H1  UNL     1     -14.183  11.915  72.704  1.00  0.00     0.000 HD 
HETATM    3  C   UNL     1     -12.951  10.541  71.690  1.00  0.00    -0.476 A  
HETATM    4  H2  UNL     1     -13.533  12.378  71.254  1.00  0.00     0.000 HD 
HETATM    5  C   UNL     1     -11.846  10.402  70.849  1.00  0.00    -0.475 A  
HETATM    6  C   UNL     1     -11.375   9.133  70.490  1.00  0.00    -0.257 A  
HETATM    7  C   UNL     1     -11.966   7.979  71.021  1.00  0.00    -0.260 A  
HETATM    8  O   UNL     1     -10.355   9.054  69.583  1.00  0.00    -0.199 OA 
HETATM    9  C   UNL     1     -13.486   9.399  72.286  1.00  0.00    -0.539 A  
HETATM   10  C   UNL     1     -13.016   8.127  71.940  1.00  0.00    -0.356 A  
HETATM   11  H   UNL     1     -10.035   8.193  69.340  1.00  0.00     0.000 HD 
ENDROOT
BRANCH   7  12
HETATM   12  C   UNL     1     -11.621   6.593  70.605  1.00  0.00    -0.382 C  
HETATM   13  O   UNL     1     -11.455   6.281  69.433  1.00  0.00    -0.427 OA 
BRANCH  12  14
HETATM   14  O   UNL     1     -11.526   5.751  71.698  1.00  0.00    -0.219 OA 
BRANCH  14  15
HETATM   15  C   UNL     1     -10.253   5.488  72.234  1.00  0.00    -0.199 A  
HETATM   16  C   UNL     1      -9.653   6.345  73.158  1.00  0.00    -0.159 A  
HETATM   17  C   UNL     1      -8.446   5.977  73.752  1.00  0.00    -0.117 A  
HETATM   18  C   UNL     1      -7.856   4.753  73.436  1.00  0.00    -0.096 A  
HETATM   19  C   UNL     1      -8.473   3.891  72.526  1.00  0.00    -0.100 A  
HETATM   20  C   UNL     1      -9.680   4.255  71.927  1.00  0.00    -0.231 A  
ENDBRANCH  14  15
ENDBRANCH  12  14
ENDBRANCH   7  12
TORSDOF 3
ENDMDL
MODEL      131
REMARK 921   NORMALIZED FREE ENERGY PREDICTED BY IDOCK:   -4.37 KCAL/MOL
REMARK 922        TOTAL FREE ENERGY PREDICTED BY IDOCK:   -5.73 KCAL/MOL
REMARK 923 INTER-LIGAND FREE ENERGY PREDICTED BY IDOCK:   -5.13 KCAL/MOL
REMARK 924 INTRA-LIGAND FREE ENERGY PREDICTED BY IDOCK:   -0.59 KCAL/MOL
REMARK 927      BINDING AFFINITY PREDICTED BY RF-SCORE:    0.00 PKD
ROOT
HETATM    1  N   UNL     1      -9.743  12.807  64.582  1.00  0.00    -0.528 NA 
HETATM    2  H1  UNL     1     -10.367  12.471  63.848  1.00  0.00     0.000 HD 
HETATM    3  C   UNL     1      -9.579  12.067  65.759  1.00  0.00    -0.213 A  
HETATM    4  H2  UNL     1      -8.823  12.967  64.172  1.00  0.00     0.000 HD 
HETATM    5  C   UNL     1      -8.724  12.527  66.762  1.00  0.00    -0.147 A  
HETATM    6  C   UNL     1      -8.596  11.829  67.969  1.00  0.00    -0.158 A  
HETATM    7  C   UNL     1      -9.375  10.690  68.217  1.00  0.00    -0.156 A  
HETATM    8  O   UNL     1      -7.670  12.264  68.875  1.00  0.00    -0.281 OA 
HETATM    9  C   UNL     1     -10.416  10.986  66.036  1.00  0.00    -0.304 A  
HETATM   10  C   UNL     1     -10.302  10.287  67.244  1.00  0.00    -0.284 A  
HETATM   11  H   UNL     1      -7.584  11.790  69.694  1.00  0.00     0.000 HD 
ENDROOT
BRANCH   7  12
HETATM   12  C   UNL     1      -9.221   9.813  69.409  1.00  0.00    -0.205 C  
HETATM   13  O   UNL     1      -8.267   9.900  70.171  1.00  0.00    -0.186 OA 
BRANCH  12  14
HETATM   14  O   UNL     1     -10.275   8.922  69.514  1.00  0.00    -0.193 OA 
BRANCH  14  15
HETATM   15  C   UNL     1     -11.265   9.165  70.482  1.00  0.00    -0.264 A  
HETATM   16  C   UNL     1     -11.901  10.403  70.590  1.00  0.00    -0.445 A  
HETATM   17  C   UNL     1     -12.960  10.555  71.483  1.00  0.00    -0.565 A  
HETATM   18  C   UNL     1     -13.390   9.471  72.248  1.00  0.00    -0.526 A  
HETATM   19  C   UNL     1     -12.763   8.229  72.120  1.00  0.00    -0.366 A  
HETATM   20  C   UNL     1     -11.700   8.072  71.229  1.00  0.00    -0.311 A  
ENDBRANCH  14  15
ENDBRANCH  12  14
ENDBRANCH   7  12
TORSDOF 3
ENDMDL
MODEL      132
REMARK 921   NORMALIZED FREE ENERGY PREDICTED BY IDOCK:   -4.37 KCAL/MOL
REMARK 922        TOTAL FREE ENERGY PREDICTED BY IDOCK:   -5.73 KCAL/MOL
REMARK 923 INTER-LIGAND FREE ENERGY PREDICTED BY IDOCK:   -5.09 KCAL/MOL
REMARK 924 INTRA-LIGAND FREE ENERGY PREDICTED BY IDOCK:   -0.64 KCAL/MOL
REMARK 927      BINDING AFFINITY PREDICTED BY RF-SCORE:    0.00 PKD
ROOT
HETATM    1  N   UNL     1     -12.700  12.307  63.643  1.00  0.00    -0.781 NA 
HETATM    2  H1  UNL     1     -12.288  11.721  62.916  1.00  0.00     0.000 HD 
HETATM    3  C   UNL     1     -11.936  12.696  64.748  1.00  0.00    -0.402 A  
HETATM    4  H2  UNL     1     -13.080  13.145  63.202  1.00  0.00     0.000 HD 
HETATM    5  C   UNL     1     -12.500  13.498  65.743  1.00  0.00    -0.514 A  
HETATM    6  C   UNL     1     -11.767  13.846  66.884  1.00  0.00    -0.399 A  
HETATM    7  C   UNL     1     -10.474  13.340  67.079  1.00  0.00    -0.249 A  
HETATM    8  O   UNL     1     -12.330  14.716  67.775  1.00  0.00    -0.602 OA 
HETATM    9  C   UNL     1     -10.686  12.124  64.981  1.00  0.00    -0.338 A  
HETATM   10  C   UNL     1      -9.949  12.458  66.123  1.00  0.00    -0.267 A  
HETATM   11  H   UNL     1     -11.832  14.951  68.550  1.00  0.00     0.000 HD 
ENDROOT
BRANCH   7  12
HETATM   12  C   UNL     1      -9.573  13.749  68.190  1.00  0.00    -0.216 C  
HETATM   13  O   UNL     1      -9.977  14.351  69.176  1.00  0.00    -0.180 OA 
BRANCH  12  14
HETATM   14  O   UNL     1      -8.268  13.365  67.942  1.00  0.00    -0.137 OA 
BRANCH  14  15
HETATM   15  C   UNL     1      -7.301  14.365  67.734  1.00  0.00    -0.173 A  
HETATM   16  C   UNL     1      -7.596  15.537  67.036  1.00  0.00    -0.228 A  
HETATM   17  C   UNL     1      -6.640  16.550  66.963  1.00  0.00    -0.234 A  
HETATM   18  C   UNL     1      -5.409  16.397  67.600  1.00  0.00    -0.158 A  
HETATM   19  C   UNL     1      -5.129  15.229  68.315  1.00  0.00    -0.108 A  
HETATM   20  C   UNL     1      -6.081  14.211  68.388  1.00  0.00    -0.101 A  
ENDBRANCH  14  15
ENDBRANCH  12  14
ENDBRANCH   7  12
TORSDOF 3
ENDMDL
MODEL      133
REMARK 921   NORMALIZED FREE ENERGY PREDICTED BY IDOCK:   -4.36 KCAL/MOL
REMARK 922        TOTAL FREE ENERGY PREDICTED BY IDOCK:   -5.72 KCAL/MOL
REMARK 923 INTER-LIGAND FREE ENERGY PREDICTED BY IDOCK:   -4.85 KCAL/MOL
REMARK 924 INTRA-LIGAND FREE ENERGY PREDICTED BY IDOCK:   -0.87 KCAL/MOL
REMARK 927      BINDING AFFINITY PREDICTED BY RF-SCORE:    0.00 PKD
ROOT
HETATM    1  N   UNL     1     -13.964   8.904  73.196  1.00  0.00    -1.215 NA 
HETATM    2  H1  UNL     1     -14.623   8.187  73.502  1.00  0.00     0.000 HD 
HETATM    3  C   UNL     1     -13.055   8.629  72.168  1.00  0.00    -0.383 A  
HETATM    4  H2  UNL     1     -14.494   9.739  72.943  1.00  0.00     0.000 HD 
HETATM    5  C   UNL     1     -12.154   9.611  71.749  1.00  0.00    -0.446 A  
HETATM    6  C   UNL     1     -11.198   9.332  70.765  1.00  0.00    -0.288 A  
HETATM    7  C   UNL     1     -11.087   8.041  70.229  1.00  0.00    -0.224 A  
HETATM    8  O   UNL     1     -10.410  10.355  70.318  1.00  0.00    -0.434 OA 
HETATM    9  C   UNL     1     -12.889   7.326  71.700  1.00  0.00    -0.415 A  
HETATM   10  C   UNL     1     -11.931   7.036  70.722  1.00  0.00    -0.392 A  
HETATM   11  H   UNL     1      -9.762  10.165  69.650  1.00  0.00     0.000 HD 
ENDROOT
BRANCH   7  12
HETATM   12  C   UNL     1     -10.193   7.679  69.095  1.00  0.00    -0.203 C  
HETATM   13  O   UNL     1     -10.612   7.167  68.065  1.00  0.00    -0.200 OA 
BRANCH  12  14
HETATM   14  O   UNL     1      -8.876   7.994  69.376  1.00  0.00    -0.142 OA 
BRANCH  14  15
HETATM   15  C   UNL     1      -8.199   7.241  70.351  1.00  0.00    -0.125 A  
HETATM   16  C   UNL     1      -8.223   5.846  70.350  1.00  0.00    -0.111 A  
HETATM   17  C   UNL     1      -7.436   5.145  71.263  1.00  0.00    -0.090 A  
HETATM   18  C   UNL     1      -6.619   5.837  72.157  1.00  0.00    -0.062 A  
HETATM   19  C   UNL     1      -6.584   7.233  72.139  1.00  0.00    -0.051 A  
HETATM   20  C   UNL     1      -7.371   7.940  71.228  1.00  0.00    -0.068 A  
ENDBRANCH  14  15
ENDBRANCH  12  14
ENDBRANCH   7  12
TORSDOF 3
ENDMDL
MODEL      134
REMARK 921   NORMALIZED FREE ENERGY PREDICTED BY IDOCK:   -4.35 KCAL/MOL
REMARK 922        TOTAL FREE ENERGY PREDICTED BY IDOCK:   -5.71 KCAL/MOL
REMARK 923 INTER-LIGAND FREE ENERGY PREDICTED BY IDOCK:   -5.73 KCAL/MOL
REMARK 924 INTRA-LIGAND FREE ENERGY PREDICTED BY IDOCK:    0.02 KCAL/MOL
REMARK 927      BINDING AFFINITY PREDICTED BY RF-SCORE:    0.00 PKD
ROOT
HETATM    1  N   UNL     1     -14.407   8.903  72.877  1.00  0.00    -1.124 NA 
HETATM    2  H1  UNL     1     -14.635   7.943  73.136  1.00  0.00     0.000 HD 
HETATM    3  C   UNL     1     -13.353   9.161  71.994  1.00  0.00    -0.445 A  
HETATM    4  H2  UNL     1     -15.250   9.345  72.510  1.00  0.00     0.000 HD 
HETATM    5  C   UNL     1     -13.041  10.475  71.639  1.00  0.00    -0.551 A  
HETATM    6  C   UNL     1     -11.952  10.752  70.804  1.00  0.00    -0.362 A  
HETATM    7  C   UNL     1     -11.114   9.718  70.362  1.00  0.00    -0.367 A  
HETATM    8  O   UNL     1     -11.753  12.044  70.406  1.00  0.00    -0.506 OA 
HETATM    9  C   UNL     1     -12.473   8.143  71.626  1.00  0.00    -0.349 A  
HETATM   10  C   UNL     1     -11.376   8.411  70.799  1.00  0.00    -0.290 A  
HETATM   11  H   UNL     1     -11.013  12.232  69.839  1.00  0.00     0.000 HD 
ENDROOT
BRANCH   7  12
HETATM   12  C   UNL     1     -10.014   9.895  69.377  1.00  0.00    -0.212 C  
HETATM   13  O   UNL     1      -8.835   9.763  69.677  1.00  0.00    -0.178 OA 
BRANCH  12  14
HETATM   14  O   UNL     1     -10.509  10.221  68.127  1.00  0.00    -0.167 OA 
BRANCH  14  15
HETATM   15  C   UNL     1      -9.616  10.270  67.042  1.00  0.00    -0.171 A  
HETATM   16  C   UNL     1      -8.353  10.853  67.156  1.00  0.00    -0.125 A  
HETATM   17  C   UNL     1      -7.459  10.767  66.090  1.00  0.00    -0.129 A  
HETATM   18  C   UNL     1      -7.821  10.087  64.927  1.00  0.00    -0.141 A  
HETATM   19  C   UNL     1      -9.080   9.487  64.828  1.00  0.00    -0.271 A  
HETATM   20  C   UNL     1      -9.979   9.573  65.892  1.00  0.00    -0.342 A  
ENDBRANCH  14  15
ENDBRANCH  12  14
ENDBRANCH   7  12
TORSDOF 3
ENDMDL
MODEL      135
REMARK 921   NORMALIZED FREE ENERGY PREDICTED BY IDOCK:   -4.35 KCAL/MOL
REMARK 922        TOTAL FREE ENERGY PREDICTED BY IDOCK:   -5.71 KCAL/MOL
REMARK 923 INTER-LIGAND FREE ENERGY PREDICTED BY IDOCK:   -5.19 KCAL/MOL
REMARK 924 INTRA-LIGAND FREE ENERGY PREDICTED BY IDOCK:   -0.52 KCAL/MOL
REMARK 927      BINDING AFFINITY PREDICTED BY RF-SCORE:    0.00 PKD
ROOT
HETATM    1  N   UNL     1      -9.336   3.770  67.545  1.00  0.00    -0.184 NA 
HETATM    2  H1  UNL     1      -9.511   3.926  66.552  1.00  0.00     0.000 HD 
HETATM    3  C   UNL     1      -9.981   4.559  68.505  1.00  0.00    -0.035 A  
HETATM    4  H2  UNL     1      -9.525   2.789  67.755  1.00  0.00     0.000 HD 
HETATM    5  C   UNL     1      -9.741   4.345  69.864  1.00  0.00    -0.291 A  
HETATM    6  C   UNL     1     -10.332   5.166  70.832  1.00  0.00    -0.212 A  
HETATM    7  C   UNL     1     -11.123   6.258  70.451  1.00  0.00    -0.416 A  
HETATM    8  O   UNL     1     -10.147   4.850  72.149  1.00  0.00    -0.179 OA 
HETATM    9  C   UNL     1     -10.696   5.693  68.122  1.00  0.00    -0.231 A  
HETATM   10  C   UNL     1     -11.283   6.525  69.083  1.00  0.00    -0.367 A  
HETATM   11  H   UNL     1     -10.548   5.407  72.806  1.00  0.00     0.000 HD 
ENDROOT
BRANCH   7  12
HETATM   12  C   UNL     1     -11.892   7.107  71.401  1.00  0.00    -0.308 C  
HETATM   13  O   UNL     1     -13.051   6.863  71.711  1.00  0.00    -0.356 OA 
BRANCH  12  14
HETATM   14  O   UNL     1     -11.129   8.169  71.853  1.00  0.00    -0.253 OA 
BRANCH  14  15
HETATM   15  C   UNL     1     -11.312   9.429  71.257  1.00  0.00    -0.366 A  
HETATM   16  C   UNL     1     -10.494   9.877  70.219  1.00  0.00    -0.348 A  
HETATM   17  C   UNL     1     -10.794  11.079  69.580  1.00  0.00    -0.267 A  
HETATM   18  C   UNL     1     -11.912  11.817  69.966  1.00  0.00    -0.421 A  
HETATM   19  C   UNL     1     -12.739  11.352  70.993  1.00  0.00    -0.447 A  
HETATM   20  C   UNL     1     -12.442  10.150  71.637  1.00  0.00    -0.506 A  
ENDBRANCH  14  15
ENDBRANCH  12  14
ENDBRANCH   7  12
TORSDOF 3
ENDMDL
MODEL      136
REMARK 921   NORMALIZED FREE ENERGY PREDICTED BY IDOCK:   -4.35 KCAL/MOL
REMARK 922        TOTAL FREE ENERGY PREDICTED BY IDOCK:   -5.70 KCAL/MOL
REMARK 923 INTER-LIGAND FREE ENERGY PREDICTED BY IDOCK:   -5.27 KCAL/MOL
REMARK 924 INTRA-LIGAND FREE ENERGY PREDICTED BY IDOCK:   -0.44 KCAL/MOL
REMARK 927      BINDING AFFINITY PREDICTED BY RF-SCORE:    0.00 PKD
ROOT
HETATM    1  N   UNL     1      -8.106   7.986  64.369  1.00  0.00    -0.225 NA 
HETATM    2  H1  UNL     1      -7.573   8.524  63.685  1.00  0.00     0.000 HD 
HETATM    3  C   UNL     1      -8.895   8.643  65.320  1.00  0.00    -0.135 A  
HETATM    4  H2  UNL     1      -8.694   7.320  63.867  1.00  0.00     0.000 HD 
HETATM    5  C   UNL     1      -9.623   7.907  66.256  1.00  0.00    -0.200 A  
HETATM    6  C   UNL     1     -10.369   8.551  67.250  1.00  0.00    -0.302 A  
HETATM    7  C   UNL     1     -10.345   9.948  67.363  1.00  0.00    -0.301 A  
HETATM    8  O   UNL     1     -11.145   7.787  68.076  1.00  0.00    -0.457 OA 
HETATM    9  C   UNL     1      -8.801  10.025  65.483  1.00  0.00    -0.189 A  
HETATM   10  C   UNL     1      -9.535  10.678  66.480  1.00  0.00    -0.199 A  
HETATM   11  H   UNL     1     -11.651   8.225  68.751  1.00  0.00     0.000 HD 
ENDROOT
BRANCH   7  12
HETATM   12  C   UNL     1     -11.198  10.728  68.301  1.00  0.00    -0.297 C  
HETATM   13  O   UNL     1     -12.291  11.173  67.979  1.00  0.00    -0.393 OA 
BRANCH  12  14
HETATM   14  O   UNL     1     -10.587  10.868  69.534  1.00  0.00    -0.229 OA 
BRANCH  14  15
HETATM   15  C   UNL     1     -10.801   9.875  70.506  1.00  0.00    -0.326 A  
HETATM   16  C   UNL     1      -9.751   9.117  71.026  1.00  0.00    -0.359 A  
HETATM   17  C   UNL     1      -9.998   8.232  72.075  1.00  0.00    -0.327 A  
HETATM   18  C   UNL     1     -11.281   8.121  72.609  1.00  0.00    -0.447 A  
HETATM   19  C   UNL     1     -12.323   8.899  72.097  1.00  0.00    -0.449 A  
HETATM   20  C   UNL     1     -12.082   9.785  71.046  1.00  0.00    -0.434 A  
ENDBRANCH  14  15
ENDBRANCH  12  14
ENDBRANCH   7  12
TORSDOF 3
ENDMDL
MODEL      137
REMARK 921   NORMALIZED FREE ENERGY PREDICTED BY IDOCK:   -4.34 KCAL/MOL
REMARK 922        TOTAL FREE ENERGY PREDICTED BY IDOCK:   -5.70 KCAL/MOL
REMARK 923 INTER-LIGAND FREE ENERGY PREDICTED BY IDOCK:   -5.27 KCAL/MOL
REMARK 924 INTRA-LIGAND FREE ENERGY PREDICTED BY IDOCK:   -0.43 KCAL/MOL
REMARK 927      BINDING AFFINITY PREDICTED BY RF-SCORE:    0.00 PKD
ROOT
HETATM    1  N   UNL     1     -10.504   6.812  70.317  1.00  0.00    -0.202 NA 
HETATM    2  H1  UNL     1     -10.501   5.840  70.007  1.00  0.00     0.000 HD 
HETATM    3  C   UNL     1     -10.603   7.847  69.380  1.00  0.00    -0.205 A  
HETATM    4  H2  UNL     1     -11.249   6.928  71.004  1.00  0.00     0.000 HD 
HETATM    5  C   UNL     1     -10.609   9.178  69.804  1.00  0.00    -0.240 A  
HETATM    6  C   UNL     1     -10.647  10.225  68.875  1.00  0.00    -0.219 A  
HETATM    7  C   UNL     1     -10.614   9.956  67.499  1.00  0.00    -0.333 A  
HETATM    8  O   UNL     1     -10.755  11.504  69.344  1.00  0.00    -0.389 OA 
HETATM    9  C   UNL     1     -10.484   7.580  68.016  1.00  0.00    -0.253 A  
HETATM   10  C   UNL     1     -10.512   8.621  67.080  1.00  0.00    -0.360 A  
HETATM   11  H   UNL     1     -10.780  12.214  68.713  1.00  0.00     0.000 HD 
ENDROOT
BRANCH   7  12
HETATM   12  C   UNL     1     -10.777  10.987  66.440  1.00  0.00    -0.227 C  
HETATM   13  O   UNL     1     -10.346  10.837  65.304  1.00  0.00    -0.280 OA 
BRANCH  12  14
HETATM   14  O   UNL     1     -11.456  12.093  66.918  1.00  0.00    -0.324 OA 
BRANCH  14  15
HETATM   15  C   UNL     1     -11.256  13.331  66.283  1.00  0.00    -0.299 A  
HETATM   16  C   UNL     1     -10.110  14.095  66.505  1.00  0.00    -0.283 A  
HETATM   17  C   UNL     1      -9.903  15.254  65.758  1.00  0.00    -0.395 A  
HETATM   18  C   UNL     1     -10.827  15.633  64.785  1.00  0.00    -0.377 A  
HETATM   19  C   UNL     1     -11.962  14.852  64.552  1.00  0.00    -0.420 A  
HETATM   20  C   UNL     1     -12.175  13.692  65.299  1.00  0.00    -0.466 A  
ENDBRANCH  14  15
ENDBRANCH  12  14
ENDBRANCH   7  12
TORSDOF 3
ENDMDL
MODEL      138
REMARK 921   NORMALIZED FREE ENERGY PREDICTED BY IDOCK:   -4.33 KCAL/MOL
REMARK 922        TOTAL FREE ENERGY PREDICTED BY IDOCK:   -5.68 KCAL/MOL
REMARK 923 INTER-LIGAND FREE ENERGY PREDICTED BY IDOCK:   -5.70 KCAL/MOL
REMARK 924 INTRA-LIGAND FREE ENERGY PREDICTED BY IDOCK:    0.02 KCAL/MOL
REMARK 927      BINDING AFFINITY PREDICTED BY RF-SCORE:    0.00 PKD
ROOT
HETATM    1  N   UNL     1     -11.792  12.117  62.873  1.00  0.00    -0.521 NA 
HETATM    2  H1  UNL     1     -12.654  11.662  62.571  1.00  0.00     0.000 HD 
HETATM    3  C   UNL     1     -11.727  12.738  64.126  1.00  0.00    -0.401 A  
HETATM    4  H2  UNL     1     -11.032  11.439  62.810  1.00  0.00     0.000 HD 
HETATM    5  C   UNL     1     -10.547  13.361  64.539  1.00  0.00    -0.441 A  
HETATM    6  C   UNL     1     -10.486  14.038  65.763  1.00  0.00    -0.309 A  
HETATM    7  C   UNL     1     -11.628  14.159  66.566  1.00  0.00    -0.389 A  
HETATM    8  O   UNL     1      -9.280  14.540  66.166  1.00  0.00    -0.455 OA 
HETATM    9  C   UNL     1     -12.884  12.930  64.880  1.00  0.00    -0.370 A  
HETATM   10  C   UNL     1     -12.834  13.614  66.101  1.00  0.00    -0.143 A  
HETATM   11  H   UNL     1      -9.239  15.000  66.996  1.00  0.00     0.000 HD 
ENDROOT
BRANCH   7  12
HETATM   12  C   UNL     1     -11.633  14.746  67.933  1.00  0.00    -0.351 C  
HETATM   13  O   UNL     1     -11.151  15.844  68.178  1.00  0.00    -0.317 OA 
BRANCH  12  14
HETATM   14  O   UNL     1     -12.237  13.895  68.841  1.00  0.00    -0.354 OA 
BRANCH  14  15
HETATM   15  C   UNL     1     -11.686  12.616  69.030  1.00  0.00    -0.318 A  
HETATM   16  C   UNL     1     -10.423  12.280  68.542  1.00  0.00    -0.248 A  
HETATM   17  C   UNL     1      -9.871  11.040  68.863  1.00  0.00    -0.189 A  
HETATM   18  C   UNL     1     -10.571  10.153  69.680  1.00  0.00    -0.286 A  
HETATM   19  C   UNL     1     -11.827  10.505  70.183  1.00  0.00    -0.404 A  
HETATM   20  C   UNL     1     -12.385  11.744  69.863  1.00  0.00    -0.200 A  
ENDBRANCH  14  15
ENDBRANCH  12  14
ENDBRANCH   7  12
TORSDOF 3
ENDMDL
MODEL      139
REMARK 921   NORMALIZED FREE ENERGY PREDICTED BY IDOCK:   -4.29 KCAL/MOL
REMARK 922        TOTAL FREE ENERGY PREDICTED BY IDOCK:   -5.64 KCAL/MOL
REMARK 923 INTER-LIGAND FREE ENERGY PREDICTED BY IDOCK:   -4.92 KCAL/MOL
REMARK 924 INTRA-LIGAND FREE ENERGY PREDICTED BY IDOCK:   -0.72 KCAL/MOL
REMARK 927      BINDING AFFINITY PREDICTED BY RF-SCORE:    0.00 PKD
ROOT
HETATM    1  N   UNL     1      -7.864   7.441  66.041  1.00  0.00    -0.097 NA 
HETATM    2  H1  UNL     1      -7.017   6.931  66.294  1.00  0.00     0.000 HD 
HETATM    3  C   UNL     1      -8.562   8.170  67.011  1.00  0.00    -0.123 A  
HETATM    4  H2  UNL     1      -7.641   8.067  65.266  1.00  0.00     0.000 HD 
HETATM    5  C   UNL     1      -9.720   8.869  66.663  1.00  0.00    -0.303 A  
HETATM    6  C   UNL     1     -10.461   9.552  67.634  1.00  0.00    -0.263 A  
HETATM    7  C   UNL     1     -10.090   9.493  68.985  1.00  0.00    -0.201 A  
HETATM    8  O   UNL     1     -11.527  10.305  67.225  1.00  0.00    -0.400 OA 
HETATM    9  C   UNL     1      -8.240   8.039  68.361  1.00  0.00    -0.123 A  
HETATM   10  C   UNL     1      -8.981   8.711  69.340  1.00  0.00    -0.145 A  
HETATM   11  H   UNL     1     -12.030  10.768  67.885  1.00  0.00     0.000 HD 
ENDROOT
BRANCH   7  12
HETATM   12  C   UNL     1     -10.736  10.283  70.067  1.00  0.00    -0.292 C  
HETATM   13  O   UNL     1     -11.138  11.426  69.896  1.00  0.00    -0.193 OA 
BRANCH  12  14
HETATM   14  O   UNL     1     -10.805   9.558  71.243  1.00  0.00    -0.332 OA 
BRANCH  14  15
HETATM   15  C   UNL     1     -11.983   8.844  71.524  1.00  0.00    -0.333 A  
HETATM   16  C   UNL     1     -13.157   9.489  71.916  1.00  0.00    -0.517 A  
HETATM   17  C   UNL     1     -14.330   8.750  72.063  1.00  0.00    -0.466 A  
HETATM   18  C   UNL     1     -14.329   7.379  71.803  1.00  0.00    -0.586 A  
HETATM   19  C   UNL     1     -13.155   6.744  71.390  1.00  0.00    -0.214 A  
HETATM   20  C   UNL     1     -11.978   7.480  71.244  1.00  0.00    -0.333 A  
ENDBRANCH  14  15
ENDBRANCH  12  14
ENDBRANCH   7  12
TORSDOF 3
ENDMDL
MODEL      140
REMARK 921   NORMALIZED FREE ENERGY PREDICTED BY IDOCK:   -4.25 KCAL/MOL
REMARK 922        TOTAL FREE ENERGY PREDICTED BY IDOCK:   -5.59 KCAL/MOL
REMARK 923 INTER-LIGAND FREE ENERGY PREDICTED BY IDOCK:   -4.87 KCAL/MOL
REMARK 924 INTRA-LIGAND FREE ENERGY PREDICTED BY IDOCK:   -0.71 KCAL/MOL
REMARK 927      BINDING AFFINITY PREDICTED BY RF-SCORE:    0.00 PKD
ROOT
HETATM    1  N   UNL     1      -8.122   9.883  64.104  1.00  0.00    -0.144 NA 
HETATM    2  H1  UNL     1      -8.617   9.454  63.322  1.00  0.00     0.000 HD 
HETATM    3  C   UNL     1      -8.840  10.440  65.169  1.00  0.00    -0.189 A  
HETATM    4  H2  UNL     1      -7.464   9.200  64.482  1.00  0.00     0.000 HD 
HETATM    5  C   UNL     1      -8.162  11.027  66.240  1.00  0.00    -0.164 A  
HETATM    6  C   UNL     1      -8.867  11.641  67.282  1.00  0.00    -0.164 A  
HETATM    7  C   UNL     1     -10.265  11.735  67.236  1.00  0.00    -0.226 A  
HETATM    8  O   UNL     1      -8.161  12.108  68.355  1.00  0.00    -0.151 OA 
HETATM    9  C   UNL     1     -10.221  10.608  65.079  1.00  0.00    -0.380 A  
HETATM   10  C   UNL     1     -10.934  11.228  66.112  1.00  0.00    -0.252 A  
HETATM   11  H   UNL     1      -8.639  12.525  69.062  1.00  0.00     0.000 HD 
ENDROOT
BRANCH   7  12
HETATM   12  C   UNL     1     -11.107  12.253  68.348  1.00  0.00    -0.243 C  
HETATM   13  O   UNL     1     -10.890  13.328  68.891  1.00  0.00    -0.243 OA 
BRANCH  12  14
HETATM   14  O   UNL     1     -12.124  11.369  68.659  1.00  0.00    -0.518 OA 
BRANCH  14  15
HETATM   15  C   UNL     1     -12.018  10.612  69.840  1.00  0.00    -0.310 A  
HETATM   16  C   UNL     1     -12.856  10.834  70.933  1.00  0.00    -0.443 A  
HETATM   17  C   UNL     1     -12.793   9.977  72.031  1.00  0.00    -0.484 A  
HETATM   18  C   UNL     1     -11.910   8.898  72.025  1.00  0.00    -0.438 A  
HETATM   19  C   UNL     1     -11.088   8.669  70.919  1.00  0.00    -0.310 A  
HETATM   20  C   UNL     1     -11.146   9.525  69.818  1.00  0.00    -0.216 A  
ENDBRANCH  14  15
ENDBRANCH  12  14
ENDBRANCH   7  12
TORSDOF 3
ENDMDL
MODEL      141
REMARK 921   NORMALIZED FREE ENERGY PREDICTED BY IDOCK:   -4.24 KCAL/MOL
REMARK 922        TOTAL FREE ENERGY PREDICTED BY IDOCK:   -5.58 KCAL/MOL
REMARK 923 INTER-LIGAND FREE ENERGY PREDICTED BY IDOCK:   -4.90 KCAL/MOL
REMARK 924 INTRA-LIGAND FREE ENERGY PREDICTED BY IDOCK:   -0.68 KCAL/MOL
REMARK 927      BINDING AFFINITY PREDICTED BY RF-SCORE:    0.00 PKD
ROOT
HETATM    1  N   UNL     1      -8.166   4.839  67.626  1.00  0.00    -0.104 NA 
HETATM    2  H1  UNL     1      -8.712   4.608  66.796  1.00  0.00     0.000 HD 
HETATM    3  C   UNL     1      -8.812   5.156  68.826  1.00  0.00    -0.093 A  
HETATM    4  H2  UNL     1      -7.512   4.076  67.803  1.00  0.00     0.000 HD 
HETATM    5  C   UNL     1      -8.065   5.472  69.962  1.00  0.00    -0.090 A  
HETATM    6  C   UNL     1      -8.697   5.849  71.153  1.00  0.00    -0.132 A  
HETATM    7  C   UNL     1     -10.092   5.979  71.206  1.00  0.00    -0.237 A  
HETATM    8  O   UNL     1      -7.924   6.048  72.263  1.00  0.00    -0.102 OA 
HETATM    9  C   UNL     1     -10.190   5.367  68.852  1.00  0.00    -0.266 A  
HETATM   10  C   UNL     1     -10.831   5.753  70.036  1.00  0.00    -0.403 A  
HETATM   11  H   UNL     1      -8.354   6.304  73.070  1.00  0.00     0.000 HD 
ENDROOT
BRANCH   7  12
HETATM   12  C   UNL     1     -10.861   6.250  72.451  1.00  0.00    -0.243 C  
HETATM   13  O   UNL     1     -11.512   5.386  73.022  1.00  0.00    -0.308 OA 
BRANCH  12  14
HETATM   14  O   UNL     1     -10.733   7.571  72.840  1.00  0.00    -0.290 OA 
BRANCH  14  15
HETATM   15  C   UNL     1     -11.472   8.549  72.151  1.00  0.00    -0.376 A  
HETATM   16  C   UNL     1     -12.825   8.770  72.415  1.00  0.00    -0.434 A  
HETATM   17  C   UNL     1     -13.480   9.832  71.793  1.00  0.00    -0.463 A  
HETATM   18  C   UNL     1     -12.782  10.675  70.929  1.00  0.00    -0.498 A  
HETATM   19  C   UNL     1     -11.423  10.461  70.686  1.00  0.00    -0.438 A  
HETATM   20  C   UNL     1     -10.762   9.397  71.304  1.00  0.00    -0.421 A  
ENDBRANCH  14  15
ENDBRANCH  12  14
ENDBRANCH   7  12
TORSDOF 3
ENDMDL
MODEL      142
REMARK 921   NORMALIZED FREE ENERGY PREDICTED BY IDOCK:   -4.23 KCAL/MOL
REMARK 922        TOTAL FREE ENERGY PREDICTED BY IDOCK:   -5.57 KCAL/MOL
REMARK 923 INTER-LIGAND FREE ENERGY PREDICTED BY IDOCK:   -5.01 KCAL/MOL
REMARK 924 INTRA-LIGAND FREE ENERGY PREDICTED BY IDOCK:   -0.56 KCAL/MOL
REMARK 927      BINDING AFFINITY PREDICTED BY RF-SCORE:    0.00 PKD
ROOT
HETATM    1  N   UNL     1      -9.129  14.967  65.939  1.00  0.00    -0.477 NA 
HETATM    2  H1  UNL     1      -8.965  15.809  66.491  1.00  0.00     0.000 HD 
HETATM    3  C   UNL     1      -9.578  13.796  66.560  1.00  0.00    -0.285 A  
HETATM    4  H2  UNL     1      -9.774  15.199  65.183  1.00  0.00     0.000 HD 
HETATM    5  C   UNL     1      -9.803  12.644  65.804  1.00  0.00    -0.236 A  
HETATM    6  C   UNL     1     -10.194  11.449  66.419  1.00  0.00    -0.230 A  
HETATM    7  C   UNL     1     -10.304  11.371  67.815  1.00  0.00    -0.206 A  
HETATM    8  O   UNL     1     -10.501  10.380  65.624  1.00  0.00    -0.214 OA 
HETATM    9  C   UNL     1      -9.602  13.698  67.951  1.00  0.00    -0.223 A  
HETATM   10  C   UNL     1      -9.984  12.505  68.576  1.00  0.00    -0.170 A  
HETATM   11  H   UNL     1     -10.766   9.569  66.043  1.00  0.00     0.000 HD 
ENDROOT
BRANCH   7  12
HETATM   12  C   UNL     1     -10.831  10.190  68.549  1.00  0.00    -0.237 C  
HETATM   13  O   UNL     1     -10.753   9.051  68.107  1.00  0.00    -0.195 OA 
BRANCH  12  14
HETATM   14  O   UNL     1     -11.402  10.563  69.753  1.00  0.00    -0.257 OA 
BRANCH  14  15
HETATM   15  C   UNL     1     -11.301   9.684  70.845  1.00  0.00    -0.360 A  
HETATM   16  C   UNL     1     -12.428   9.111  71.435  1.00  0.00    -0.396 A  
HETATM   17  C   UNL     1     -12.268   8.152  72.434  1.00  0.00    -0.374 A  
HETATM   18  C   UNL     1     -10.989   7.757  72.825  1.00  0.00    -0.447 A  
HETATM   19  C   UNL     1      -9.864   8.319  72.215  1.00  0.00    -0.364 A  
HETATM   20  C   UNL     1     -10.019   9.282  71.217  1.00  0.00    -0.341 A  
ENDBRANCH  14  15
ENDBRANCH  12  14
ENDBRANCH   7  12
TORSDOF 3
ENDMDL
MODEL      143
REMARK 921   NORMALIZED FREE ENERGY PREDICTED BY IDOCK:   -4.23 KCAL/MOL
REMARK 922        TOTAL FREE ENERGY PREDICTED BY IDOCK:   -5.57 KCAL/MOL
REMARK 923 INTER-LIGAND FREE ENERGY PREDICTED BY IDOCK:   -4.93 KCAL/MOL
REMARK 924 INTRA-LIGAND FREE ENERGY PREDICTED BY IDOCK:   -0.64 KCAL/MOL
REMARK 927      BINDING AFFINITY PREDICTED BY RF-SCORE:    0.00 PKD
ROOT
HETATM    1  N   UNL     1     -11.645   5.651  72.953  1.00  0.00    -0.503 NA 
HETATM    2  H1  UNL     1     -11.443   5.855  73.932  1.00  0.00     0.000 HD 
HETATM    3  C   UNL     1     -11.207   6.523  71.950  1.00  0.00    -0.272 A  
HETATM    4  H2  UNL     1     -11.298   4.715  72.741  1.00  0.00     0.000 HD 
HETATM    5  C   UNL     1     -11.484   6.244  70.610  1.00  0.00    -0.397 A  
HETATM    6  C   UNL     1     -11.105   7.137  69.600  1.00  0.00    -0.179 A  
HETATM    7  C   UNL     1     -10.498   8.358  69.923  1.00  0.00    -0.222 A  
HETATM    8  O   UNL     1     -11.307   6.768  68.299  1.00  0.00    -0.543 OA 
HETATM    9  C   UNL     1     -10.682   7.773  72.278  1.00  0.00    -0.325 A  
HETATM   10  C   UNL     1     -10.309   8.675  71.276  1.00  0.00    -0.308 A  
HETATM   11  H   UNL     1     -11.050   7.374  67.615  1.00  0.00     0.000 HD 
ENDROOT
BRANCH   7  12
HETATM   12  C   UNL     1      -9.947   9.311  68.921  1.00  0.00    -0.181 C  
HETATM   13  O   UNL     1      -9.615   8.963  67.796  1.00  0.00    -0.142 OA 
BRANCH  12  14
HETATM   14  O   UNL     1      -9.870  10.592  69.438  1.00  0.00    -0.221 OA 
BRANCH  14  15
HETATM   15  C   UNL     1     -10.272  11.669  68.628  1.00  0.00    -0.206 A  
HETATM   16  C   UNL     1     -11.578  11.783  68.152  1.00  0.00    -0.391 A  
HETATM   17  C   UNL     1     -11.957  12.931  67.456  1.00  0.00    -0.354 A  
HETATM   18  C   UNL     1     -11.039  13.962  67.257  1.00  0.00    -0.312 A  
HETATM   19  C   UNL     1      -9.738  13.850  67.755  1.00  0.00    -0.225 A  
HETATM   20  C   UNL     1      -9.353  12.702  68.450  1.00  0.00    -0.148 A  
ENDBRANCH  14  15
ENDBRANCH  12  14
ENDBRANCH   7  12
TORSDOF 3
ENDMDL
MODEL      144
REMARK 921   NORMALIZED FREE ENERGY PREDICTED BY IDOCK:   -4.20 KCAL/MOL
REMARK 922        TOTAL FREE ENERGY PREDICTED BY IDOCK:   -5.53 KCAL/MOL
REMARK 923 INTER-LIGAND FREE ENERGY PREDICTED BY IDOCK:   -4.87 KCAL/MOL
REMARK 924 INTRA-LIGAND FREE ENERGY PREDICTED BY IDOCK:   -0.65 KCAL/MOL
REMARK 927      BINDING AFFINITY PREDICTED BY RF-SCORE:    0.00 PKD
ROOT
HETATM    1  N   UNL     1     -12.797  15.589  70.238  1.00  0.00    -0.629 NA 
HETATM    2  H1  UNL     1     -13.581  15.289  70.818  1.00  0.00     0.000 HD 
HETATM    3  C   UNL     1     -12.035  14.644  69.543  1.00  0.00    -0.319 A  
HETATM    4  H2  UNL     1     -13.138  16.282  69.571  1.00  0.00     0.000 HD 
HETATM    5  C   UNL     1     -10.962  15.055  68.749  1.00  0.00    -0.259 A  
HETATM    6  C   UNL     1     -10.154  14.116  68.096  1.00  0.00    -0.239 A  
HETATM    7  C   UNL     1     -10.368  12.744  68.281  1.00  0.00    -0.248 A  
HETATM    8  O   UNL     1      -9.182  14.575  67.251  1.00  0.00    -0.192 OA 
HETATM    9  C   UNL     1     -12.196  13.282  69.796  1.00  0.00    -0.285 A  
HETATM   10  C   UNL     1     -11.387  12.336  69.155  1.00  0.00    -0.330 A  
HETATM   11  H   UNL     1      -8.634  13.937  66.808  1.00  0.00     0.000 HD 
ENDROOT
BRANCH   7  12
HETATM   12  C   UNL     1      -9.648  11.676  67.536  1.00  0.00    -0.171 C  
HETATM   13  O   UNL     1      -8.431  11.549  67.581  1.00  0.00    -0.128 OA 
BRANCH  12  14
HETATM   14  O   UNL     1     -10.528  10.888  66.816  1.00  0.00    -0.231 OA 
BRANCH  14  15
HETATM   15  C   UNL     1     -10.926  11.322  65.539  1.00  0.00    -0.131 A  
HETATM   16  C   UNL     1     -11.879  12.327  65.369  1.00  0.00    -0.418 A  
HETATM   17  C   UNL     1     -12.149  12.806  64.088  1.00  0.00    -0.513 A  
HETATM   18  C   UNL     1     -11.457  12.295  62.990  1.00  0.00    -0.056 A  
HETATM   19  C   UNL     1     -10.490  11.303  63.170  1.00  0.00    -0.293 A  
HETATM   20  C   UNL     1     -10.217  10.818  64.450  1.00  0.00    -0.432 A  
ENDBRANCH  14  15
ENDBRANCH  12  14
ENDBRANCH   7  12
TORSDOF 3
ENDMDL
MODEL      145
REMARK 921   NORMALIZED FREE ENERGY PREDICTED BY IDOCK:   -4.16 KCAL/MOL
REMARK 922        TOTAL FREE ENERGY PREDICTED BY IDOCK:   -5.49 KCAL/MOL
REMARK 923 INTER-LIGAND FREE ENERGY PREDICTED BY IDOCK:   -5.19 KCAL/MOL
REMARK 924 INTRA-LIGAND FREE ENERGY PREDICTED BY IDOCK:   -0.30 KCAL/MOL
REMARK 927      BINDING AFFINITY PREDICTED BY RF-SCORE:    0.00 PKD
ROOT
HETATM    1  N   UNL     1     -10.901  12.670  67.216  1.00  0.00    -0.243 NA 
HETATM    2  H1  UNL     1     -10.318  12.308  66.461  1.00  0.00     0.000 HD 
HETATM    3  C   UNL     1     -11.105  11.910  68.373  1.00  0.00    -0.244 A  
HETATM    4  H2  UNL     1     -10.539  13.584  67.491  1.00  0.00     0.000 HD 
HETATM    5  C   UNL     1     -11.902  12.407  69.407  1.00  0.00    -0.365 A  
HETATM    6  C   UNL     1     -12.164  11.633  70.544  1.00  0.00    -0.361 A  
HETATM    7  C   UNL     1     -11.683  10.320  70.635  1.00  0.00    -0.438 A  
HETATM    8  O   UNL     1     -12.863  12.205  71.570  1.00  0.00    -0.374 OA 
HETATM    9  C   UNL     1     -10.699  10.577  68.424  1.00  0.00    -0.262 A  
HETATM   10  C   UNL     1     -10.964   9.793  69.553  1.00  0.00    -0.256 A  
HETATM   11  H   UNL     1     -13.041  11.679  72.341  1.00  0.00     0.000 HD 
ENDROOT
BRANCH   7  12
HETATM   12  C   UNL     1     -11.801   9.467  71.849  1.00  0.00    -0.279 C  
HETATM   13  O   UNL     1     -12.835   9.386  72.498  1.00  0.00    -0.349 OA 
BRANCH  12  14
HETATM   14  O   UNL     1     -10.611   8.815  72.119  1.00  0.00    -0.340 OA 
BRANCH  14  15
HETATM   15  C   UNL     1     -10.664   7.510  72.640  1.00  0.00    -0.303 A  
HETATM   16  C   UNL     1      -9.809   7.090  73.659  1.00  0.00    -0.318 A  
HETATM   17  C   UNL     1      -9.983   5.827  74.225  1.00  0.00    -0.252 A  
HETATM   18  C   UNL     1     -11.018   5.002  73.786  1.00  0.00    -0.336 A  
HETATM   19  C   UNL     1     -11.884   5.437  72.779  1.00  0.00    -0.162 A  
HETATM   20  C   UNL     1     -11.711   6.699  72.207  1.00  0.00    -0.305 A  
ENDBRANCH  14  15
ENDBRANCH  12  14
ENDBRANCH   7  12
TORSDOF 3
ENDMDL
MODEL      146
REMARK 921   NORMALIZED FREE ENERGY PREDICTED BY IDOCK:   -4.16 KCAL/MOL
REMARK 922        TOTAL FREE ENERGY PREDICTED BY IDOCK:   -5.49 KCAL/MOL
REMARK 923 INTER-LIGAND FREE ENERGY PREDICTED BY IDOCK:   -5.00 KCAL/MOL
REMARK 924 INTRA-LIGAND FREE ENERGY PREDICTED BY IDOCK:   -0.48 KCAL/MOL
REMARK 927      BINDING AFFINITY PREDICTED BY RF-SCORE:    0.00 PKD
ROOT
HETATM    1  N   UNL     1     -11.142   4.818  74.060  1.00  0.00    -0.346 NA 
HETATM    2  H1  UNL     1     -10.571   4.055  74.425  1.00  0.00     0.000 HD 
HETATM    3  C   UNL     1     -11.001   5.228  72.730  1.00  0.00    -0.275 A  
HETATM    4  H2  UNL     1     -12.123   4.592  74.225  1.00  0.00     0.000 HD 
HETATM    5  C   UNL     1     -11.783   6.271  72.230  1.00  0.00    -0.344 A  
HETATM    6  C   UNL     1     -11.609   6.731  70.919  1.00  0.00    -0.353 A  
HETATM    7  C   UNL     1     -10.602   6.196  70.105  1.00  0.00    -0.321 A  
HETATM    8  O   UNL     1     -12.469   7.684  70.448  1.00  0.00    -0.434 OA 
HETATM    9  C   UNL     1      -9.944   4.753  71.953  1.00  0.00    -0.252 A  
HETATM   10  C   UNL     1      -9.757   5.214  70.644  1.00  0.00    -0.257 A  
HETATM   11  H   UNL     1     -12.351   7.996  69.558  1.00  0.00     0.000 HD 
ENDROOT
BRANCH   7  12
HETATM   12  C   UNL     1     -10.422   6.528  68.666  1.00  0.00    -0.218 C  
HETATM   13  O   UNL     1     -10.956   5.885  67.772  1.00  0.00    -0.279 OA 
BRANCH  12  14
HETATM   14  O   UNL     1      -9.593   7.624  68.506  1.00  0.00    -0.146 OA 
BRANCH  14  15
HETATM   15  C   UNL     1     -10.065   8.720  67.763  1.00  0.00    -0.207 A  
HETATM   16  C   UNL     1     -10.752   9.775  68.365  1.00  0.00    -0.262 A  
HETATM   17  C   UNL     1     -11.091  10.895  67.606  1.00  0.00    -0.376 A  
HETATM   18  C   UNL     1     -10.728  10.964  66.262  1.00  0.00    -0.241 A  
HETATM   19  C   UNL     1     -10.022   9.913  65.670  1.00  0.00    -0.353 A  
HETATM   20  C   UNL     1      -9.682   8.789  66.425  1.00  0.00    -0.335 A  
ENDBRANCH  14  15
ENDBRANCH  12  14
ENDBRANCH   7  12
TORSDOF 3
ENDMDL
MODEL      147
REMARK 921   NORMALIZED FREE ENERGY PREDICTED BY IDOCK:   -4.15 KCAL/MOL
REMARK 922        TOTAL FREE ENERGY PREDICTED BY IDOCK:   -5.47 KCAL/MOL
REMARK 923 INTER-LIGAND FREE ENERGY PREDICTED BY IDOCK:   -4.87 KCAL/MOL
REMARK 924 INTRA-LIGAND FREE ENERGY PREDICTED BY IDOCK:   -0.61 KCAL/MOL
REMARK 927      BINDING AFFINITY PREDICTED BY RF-SCORE:    0.00 PKD
ROOT
HETATM    1  N   UNL     1      -9.814  13.088  64.768  1.00  0.00    -0.563 NA 
HETATM    2  H1  UNL     1      -9.794  12.918  63.762  1.00  0.00     0.000 HD 
HETATM    3  C   UNL     1      -9.817  12.011  65.663  1.00  0.00    -0.243 A  
HETATM    4  H2  UNL     1      -9.035  13.702  65.006  1.00  0.00     0.000 HD 
HETATM    5  C   UNL     1      -9.845  12.244  67.039  1.00  0.00    -0.211 A  
HETATM    6  C   UNL     1      -9.909  11.178  67.944  1.00  0.00    -0.174 A  
HETATM    7  C   UNL     1     -10.012   9.858  67.482  1.00  0.00    -0.229 A  
HETATM    8  O   UNL     1      -9.829  11.456  69.280  1.00  0.00    -0.415 OA 
HETATM    9  C   UNL     1     -10.006  10.709  65.200  1.00  0.00    -0.366 A  
HETATM   10  C   UNL     1     -10.080   9.637  66.098  1.00  0.00    -0.328 A  
HETATM   11  H   UNL     1      -9.873  10.732  69.894  1.00  0.00     0.000 HD 
ENDROOT
BRANCH   7  12
HETATM   12  C   UNL     1      -9.959   8.657  68.357  1.00  0.00    -0.184 C  
HETATM   13  O   UNL     1      -9.006   7.888  68.362  1.00  0.00    -0.134 OA 
BRANCH  12  14
HETATM   14  O   UNL     1     -11.103   8.548  69.127  1.00  0.00    -0.002 OA 
BRANCH  14  15
HETATM   15  C   UNL     1     -11.006   7.943  70.393  1.00  0.00    -0.249 A  
HETATM   16  C   UNL     1     -10.579   8.654  71.516  1.00  0.00    -0.352 A  
HETATM   17  C   UNL     1     -10.618   8.044  72.769  1.00  0.00    -0.420 A  
HETATM   18  C   UNL     1     -11.097   6.741  72.897  1.00  0.00    -0.277 A  
HETATM   19  C   UNL     1     -11.543   6.043  71.772  1.00  0.00    -0.288 A  
HETATM   20  C   UNL     1     -11.504   6.648  70.515  1.00  0.00    -0.432 A  
ENDBRANCH  14  15
ENDBRANCH  12  14
ENDBRANCH   7  12
TORSDOF 3
ENDMDL
MODEL      148
REMARK 921   NORMALIZED FREE ENERGY PREDICTED BY IDOCK:   -4.11 KCAL/MOL
REMARK 922        TOTAL FREE ENERGY PREDICTED BY IDOCK:   -5.43 KCAL/MOL
REMARK 923 INTER-LIGAND FREE ENERGY PREDICTED BY IDOCK:   -4.76 KCAL/MOL
REMARK 924 INTRA-LIGAND FREE ENERGY PREDICTED BY IDOCK:   -0.67 KCAL/MOL
REMARK 927      BINDING AFFINITY PREDICTED BY RF-SCORE:    0.00 PKD
ROOT
HETATM    1  N   UNL     1      -6.092   9.144  71.749  1.00  0.00    -0.140 NA 
HETATM    2  H1  UNL     1      -5.741   9.576  70.894  1.00  0.00     0.000 HD 
HETATM    3  C   UNL     1      -7.452   8.836  71.874  1.00  0.00    -0.008 A  
HETATM    4  H2  UNL     1      -5.553   8.296  71.925  1.00  0.00     0.000 HD 
HETATM    5  C   UNL     1      -7.932   8.245  73.044  1.00  0.00    -0.199 A  
HETATM    6  C   UNL     1      -9.298   7.987  73.207  1.00  0.00    -0.275 A  
HETATM    7  C   UNL     1     -10.218   8.378  72.224  1.00  0.00    -0.396 A  
HETATM    8  O   UNL     1      -9.702   7.313  74.326  1.00  0.00    -0.415 OA 
HETATM    9  C   UNL     1      -8.371   9.303  70.935  1.00  0.00    -0.196 A  
HETATM   10  C   UNL     1      -9.740   9.058  71.093  1.00  0.00    -0.369 A  
HETATM   11  H   UNL     1     -10.629   7.139  74.436  1.00  0.00     0.000 HD 
ENDROOT
BRANCH   7  12
HETATM   12  C   UNL     1     -11.666   8.037  72.247  1.00  0.00    -0.371 C  
HETATM   13  O   UNL     1     -12.540   8.888  72.346  1.00  0.00    -0.382 OA 
BRANCH  12  14
HETATM   14  O   UNL     1     -11.860   6.671  72.148  1.00  0.00    -0.299 OA 
BRANCH  14  15
HETATM   15  C   UNL     1     -11.295   5.990  71.055  1.00  0.00    -0.229 A  
HETATM   16  C   UNL     1     -11.504   6.410  69.741  1.00  0.00    -0.468 A  
HETATM   17  C   UNL     1     -10.823   5.775  68.702  1.00  0.00    -0.270 A  
HETATM   18  C   UNL     1      -9.928   4.743  68.981  1.00  0.00    -0.213 A  
HETATM   19  C   UNL     1      -9.708   4.342  70.301  1.00  0.00    -0.280 A  
HETATM   20  C   UNL     1     -10.389   4.972  71.345  1.00  0.00    -0.251 A  
ENDBRANCH  14  15
ENDBRANCH  12  14
ENDBRANCH   7  12
TORSDOF 3
ENDMDL
MODEL      149
REMARK 921   NORMALIZED FREE ENERGY PREDICTED BY IDOCK:   -4.10 KCAL/MOL
REMARK 922        TOTAL FREE ENERGY PREDICTED BY IDOCK:   -5.42 KCAL/MOL
REMARK 923 INTER-LIGAND FREE ENERGY PREDICTED BY IDOCK:   -4.87 KCAL/MOL
REMARK 924 INTRA-LIGAND FREE ENERGY PREDICTED BY IDOCK:   -0.55 KCAL/MOL
REMARK 927      BINDING AFFINITY PREDICTED BY RF-SCORE:    0.00 PKD
ROOT
HETATM    1  N   UNL     1      -9.505  12.629  68.593  1.00  0.00    -0.404 NA 
HETATM    2  H1  UNL     1     -10.324  12.223  68.140  1.00  0.00     0.000 HD 
HETATM    3  C   UNL     1      -8.892  13.764  68.050  1.00  0.00    -0.182 A  
HETATM    4  H2  UNL     1      -9.740  12.825  69.567  1.00  0.00     0.000 HD 
HETATM    5  C   UNL     1      -7.771  14.319  68.670  1.00  0.00    -0.135 A  
HETATM    6  C   UNL     1      -7.111  15.418  68.106  1.00  0.00    -0.121 A  
HETATM    7  C   UNL     1      -7.526  15.939  66.872  1.00  0.00    -0.233 A  
HETATM    8  O   UNL     1      -6.084  15.986  68.805  1.00  0.00    -0.107 OA 
HETATM    9  C   UNL     1      -9.253  14.225  66.784  1.00  0.00    -0.282 A  
HETATM   10  C   UNL     1      -8.593  15.316  66.207  1.00  0.00    -0.087 A  
HETATM   11  H   UNL     1      -5.636  16.731  68.421  1.00  0.00     0.000 HD 
ENDROOT
BRANCH   7  12
HETATM   12  C   UNL     1      -6.973  17.175  66.256  1.00  0.00    -0.222 C  
HETATM   13  O   UNL     1      -5.776  17.431  66.258  1.00  0.00    -0.192 OA 
BRANCH  12  14
HETATM   14  O   UNL     1      -7.977  17.954  65.709  1.00  0.00    -0.540 OA 
BRANCH  14  15
HETATM   15  C   UNL     1      -8.788  18.708  66.575  1.00  0.00    -0.304 A  
HETATM   16  C   UNL     1     -10.104  19.037  66.250  1.00  0.00    -0.479 A  
HETATM   17  C   UNL     1     -10.905  19.679  67.194  1.00  0.00    -0.526 A  
HETATM   18  C   UNL     1     -10.395  19.973  68.458  1.00  0.00    -0.425 A  
HETATM   19  C   UNL     1      -9.083  19.622  68.785  1.00  0.00    -0.322 A  
HETATM   20  C   UNL     1      -8.277  18.981  67.843  1.00  0.00    -0.311 A  
ENDBRANCH  14  15
ENDBRANCH  12  14
ENDBRANCH   7  12
TORSDOF 3
ENDMDL
MODEL      150
REMARK 921   NORMALIZED FREE ENERGY PREDICTED BY IDOCK:   -4.10 KCAL/MOL
REMARK 922        TOTAL FREE ENERGY PREDICTED BY IDOCK:   -5.42 KCAL/MOL
REMARK 923 INTER-LIGAND FREE ENERGY PREDICTED BY IDOCK:   -4.89 KCAL/MOL
REMARK 924 INTRA-LIGAND FREE ENERGY PREDICTED BY IDOCK:   -0.52 KCAL/MOL
REMARK 927      BINDING AFFINITY PREDICTED BY RF-SCORE:    0.00 PKD
ROOT
HETATM    1  N   UNL     1      -9.557   1.697  71.811  1.00  0.00    -0.106 NA 
HETATM    2  H1  UNL     1     -10.105   0.990  72.300  1.00  0.00     0.000 HD 
HETATM    3  C   UNL     1      -9.695   3.049  72.145  1.00  0.00    -0.161 A  
HETATM    4  H2  UNL     1      -8.570   1.446  71.884  1.00  0.00     0.000 HD 
HETATM    5  C   UNL     1      -8.944   4.017  71.475  1.00  0.00    -0.161 A  
HETATM    6  C   UNL     1      -9.115   5.377  71.757  1.00  0.00    -0.138 A  
HETATM    7  C   UNL     1     -10.092   5.796  72.671  1.00  0.00    -0.204 A  
HETATM    8  O   UNL     1      -8.283   6.275  71.149  1.00  0.00    -0.119 OA 
HETATM    9  C   UNL     1     -10.723   3.467  72.989  1.00  0.00    -0.229 A  
HETATM   10  C   UNL     1     -10.908   4.825  73.270  1.00  0.00    -0.351 A  
HETATM   11  H   UNL     1      -8.400   7.199  71.340  1.00  0.00     0.000 HD 
ENDROOT
BRANCH   7  12
HETATM   12  C   UNL     1     -10.264   7.201  73.129  1.00  0.00    -0.276 C  
HETATM   13  O   UNL     1      -9.384   7.812  73.722  1.00  0.00    -0.280 OA 
BRANCH  12  14
HETATM   14  O   UNL     1     -11.517   7.685  72.799  1.00  0.00    -0.355 OA 
BRANCH  14  15
HETATM   15  C   UNL     1     -11.603   8.817  71.969  1.00  0.00    -0.366 A  
HETATM   16  C   UNL     1     -10.614   9.117  71.031  1.00  0.00    -0.362 A  
HETATM   17  C   UNL     1     -10.805  10.179  70.148  1.00  0.00    -0.368 A  
HETATM   18  C   UNL     1     -11.985  10.922  70.194  1.00  0.00    -0.435 A  
HETATM   19  C   UNL     1     -12.980  10.602  71.121  1.00  0.00    -0.483 A  
HETATM   20  C   UNL     1     -12.792   9.541  72.009  1.00  0.00    -0.499 A  
ENDBRANCH  14  15
ENDBRANCH  12  14
ENDBRANCH   7  12
TORSDOF 3
ENDMDL
MODEL      151
REMARK 921   NORMALIZED FREE ENERGY PREDICTED BY IDOCK:   -4.10 KCAL/MOL
REMARK 922        TOTAL FREE ENERGY PREDICTED BY IDOCK:   -5.41 KCAL/MOL
REMARK 923 INTER-LIGAND FREE ENERGY PREDICTED BY IDOCK:   -4.83 KCAL/MOL
REMARK 924 INTRA-LIGAND FREE ENERGY PREDICTED BY IDOCK:   -0.59 KCAL/MOL
REMARK 927      BINDING AFFINITY PREDICTED BY RF-SCORE:    0.00 PKD
ROOT
HETATM    1  N   UNL     1     -11.147   7.280  73.771  1.00  0.00    -0.488 NA 
HETATM    2  H1  UNL     1     -10.383   6.799  74.245  1.00  0.00     0.000 HD 
HETATM    3  C   UNL     1     -10.898   8.028  72.615  1.00  0.00    -0.368 A  
HETATM    4  H2  UNL     1     -11.876   6.597  73.563  1.00  0.00     0.000 HD 
HETATM    5  C   UNL     1     -11.946   8.685  71.966  1.00  0.00    -0.442 A  
HETATM    6  C   UNL     1     -11.702   9.485  70.843  1.00  0.00    -0.317 A  
HETATM    7  C   UNL     1     -10.392   9.693  70.390  1.00  0.00    -0.350 A  
HETATM    8  O   UNL     1     -12.773  10.022  70.186  1.00  0.00    -0.535 OA 
HETATM    9  C   UNL     1      -9.590   8.301  72.219  1.00  0.00    -0.355 A  
HETATM   10  C   UNL     1      -9.336   9.107  71.103  1.00  0.00    -0.313 A  
HETATM   11  H   UNL     1     -12.607  10.566  69.424  1.00  0.00     0.000 HD 
ENDROOT
BRANCH   7  12
HETATM   12  C   UNL     1     -10.044  10.419  69.138  1.00  0.00    -0.222 C  
HETATM   13  O   UNL     1      -9.398  11.459  69.140  1.00  0.00    -0.022 OA 
BRANCH  12  14
HETATM   14  O   UNL     1     -10.546   9.768  68.026  1.00  0.00    -0.216 OA 
BRANCH  14  15
HETATM   15  C   UNL     1      -9.849   9.880  66.810  1.00  0.00    -0.201 A  
HETATM   16  C   UNL     1     -10.269  10.745  65.799  1.00  0.00    -0.319 A  
HETATM   17  C   UNL     1      -9.476  10.911  64.664  1.00  0.00    -0.285 A  
HETATM   18  C   UNL     1      -8.264  10.231  64.554  1.00  0.00    -0.158 A  
HETATM   19  C   UNL     1      -7.838   9.383  65.580  1.00  0.00    -0.103 A  
HETATM   20  C   UNL     1      -8.630   9.211  66.716  1.00  0.00    -0.133 A  
ENDBRANCH  14  15
ENDBRANCH  12  14
ENDBRANCH   7  12
TORSDOF 3
ENDMDL
MODEL      152
REMARK 921   NORMALIZED FREE ENERGY PREDICTED BY IDOCK:   -4.07 KCAL/MOL
REMARK 922        TOTAL FREE ENERGY PREDICTED BY IDOCK:   -5.38 KCAL/MOL
REMARK 923 INTER-LIGAND FREE ENERGY PREDICTED BY IDOCK:   -4.85 KCAL/MOL
REMARK 924 INTRA-LIGAND FREE ENERGY PREDICTED BY IDOCK:   -0.53 KCAL/MOL
REMARK 927      BINDING AFFINITY PREDICTED BY RF-SCORE:    0.00 PKD
ROOT
HETATM    1  N   UNL     1     -12.528  13.967  63.117  1.00  0.00    -1.079 NA 
HETATM    2  H1  UNL     1     -12.870  14.861  63.469  1.00  0.00     0.000 HD 
HETATM    3  C   UNL     1     -11.695  13.170  63.912  1.00  0.00    -0.456 A  
HETATM    4  H2  UNL     1     -13.330  13.406  62.829  1.00  0.00     0.000 HD 
HETATM    5  C   UNL     1     -11.227  11.946  63.430  1.00  0.00    -0.463 A  
HETATM    6  C   UNL     1     -10.346  11.168  64.190  1.00  0.00    -0.361 A  
HETATM    7  C   UNL     1      -9.866  11.635  65.421  1.00  0.00    -0.268 A  
HETATM    8  O   UNL     1     -10.000   9.933  63.718  1.00  0.00    -0.476 OA 
HETATM    9  C   UNL     1     -11.154  13.675  65.094  1.00  0.00    -0.324 A  
HETATM   10  C   UNL     1     -10.265  12.908  65.856  1.00  0.00    -0.299 A  
HETATM   11  H   UNL     1      -9.402   9.405  64.234  1.00  0.00     0.000 HD 
ENDROOT
BRANCH   7  12
HETATM   12  C   UNL     1      -9.032  10.832  66.355  1.00  0.00    -0.166 C  
HETATM   13  O   UNL     1      -8.022  10.242  65.993  1.00  0.00    -0.126 OA 
BRANCH  12  14
HETATM   14  O   UNL     1      -9.554  10.852  67.636  1.00  0.00    -0.161 OA 
BRANCH  14  15
HETATM   15  C   UNL     1      -8.853  10.186  68.657  1.00  0.00    -0.136 A  
HETATM   16  C   UNL     1      -9.035   8.825  68.907  1.00  0.00    -0.134 A  
HETATM   17  C   UNL     1      -8.227   8.186  69.847  1.00  0.00    -0.118 A  
HETATM   18  C   UNL     1      -7.235   8.901  70.517  1.00  0.00    -0.071 A  
HETATM   19  C   UNL     1      -7.044  10.259  70.246  1.00  0.00    -0.114 A  
HETATM   20  C   UNL     1      -7.851  10.904  69.308  1.00  0.00    -0.096 A  
ENDBRANCH  14  15
ENDBRANCH  12  14
ENDBRANCH   7  12
TORSDOF 3
ENDMDL
MODEL      153
REMARK 921   NORMALIZED FREE ENERGY PREDICTED BY IDOCK:   -4.07 KCAL/MOL
REMARK 922        TOTAL FREE ENERGY PREDICTED BY IDOCK:   -5.38 KCAL/MOL
REMARK 923 INTER-LIGAND FREE ENERGY PREDICTED BY IDOCK:   -4.78 KCAL/MOL
REMARK 924 INTRA-LIGAND FREE ENERGY PREDICTED BY IDOCK:   -0.60 KCAL/MOL
REMARK 927      BINDING AFFINITY PREDICTED BY RF-SCORE:    0.00 PKD
ROOT
HETATM    1  N   UNL     1     -12.593  13.963  63.197  1.00  0.00    -0.976 NA 
HETATM    2  H1  UNL     1     -13.007  14.871  62.983  1.00  0.00     0.000 HD 
HETATM    3  C   UNL     1     -11.685  13.836  64.254  1.00  0.00    -0.395 A  
HETATM    4  H2  UNL     1     -13.348  13.291  63.339  1.00  0.00     0.000 HD 
HETATM    5  C   UNL     1     -11.120  12.593  64.547  1.00  0.00    -0.365 A  
HETATM    6  C   UNL     1     -10.165  12.463  65.563  1.00  0.00    -0.274 A  
HETATM    7  C   UNL     1      -9.711  13.591  66.260  1.00  0.00    -0.287 A  
HETATM    8  O   UNL     1      -9.720  11.209  65.877  1.00  0.00    -0.211 OA 
HETATM    9  C   UNL     1     -11.174  14.969  64.887  1.00  0.00    -0.423 A  
HETATM   10  C   UNL     1     -10.212  14.850  65.897  1.00  0.00    -0.333 A  
HETATM   11  H   UNL     1      -9.072  11.121  66.566  1.00  0.00     0.000 HD 
ENDROOT
BRANCH   7  12
HETATM   12  C   UNL     1      -8.798  13.539  67.434  1.00  0.00    -0.221 C  
HETATM   13  O   UNL     1      -7.983  12.639  67.594  1.00  0.00    -0.144 OA 
BRANCH  12  14
HETATM   14  O   UNL     1      -9.007  14.615  68.278  1.00  0.00    -0.172 OA 
BRANCH  14  15
HETATM   15  C   UNL     1      -7.926  15.470  68.557  1.00  0.00    -0.137 A  
HETATM   16  C   UNL     1      -7.125  15.298  69.687  1.00  0.00    -0.187 A  
HETATM   17  C   UNL     1      -5.993  16.095  69.853  1.00  0.00    -0.182 A  
HETATM   18  C   UNL     1      -5.657  17.042  68.886  1.00  0.00    -0.147 A  
HETATM   19  C   UNL     1      -6.451  17.193  67.746  1.00  0.00    -0.158 A  
HETATM   20  C   UNL     1      -7.587  16.400  67.577  1.00  0.00    -0.168 A  
ENDBRANCH  14  15
ENDBRANCH  12  14
ENDBRANCH   7  12
TORSDOF 3
ENDMDL
MODEL      154
REMARK 921   NORMALIZED FREE ENERGY PREDICTED BY IDOCK:   -4.07 KCAL/MOL
REMARK 922        TOTAL FREE ENERGY PREDICTED BY IDOCK:   -5.38 KCAL/MOL
REMARK 923 INTER-LIGAND FREE ENERGY PREDICTED BY IDOCK:   -4.93 KCAL/MOL
REMARK 924 INTRA-LIGAND FREE ENERGY PREDICTED BY IDOCK:   -0.45 KCAL/MOL
REMARK 927      BINDING AFFINITY PREDICTED BY RF-SCORE:    0.00 PKD
ROOT
HETATM    1  N   UNL     1      -5.689  18.705  68.106  1.00  0.00    -0.190 NA 
HETATM    2  H1  UNL     1      -4.811  18.418  67.674  1.00  0.00     0.000 HD 
HETATM    3  C   UNL     1      -6.886  18.071  67.754  1.00  0.00    -0.200 A  
HETATM    4  H2  UNL     1      -5.582  18.651  69.119  1.00  0.00     0.000 HD 
HETATM    5  C   UNL     1      -8.088  18.464  68.345  1.00  0.00    -0.327 A  
HETATM    6  C   UNL     1      -9.301  17.880  67.958  1.00  0.00    -0.274 A  
HETATM    7  C   UNL     1      -9.336  16.936  66.923  1.00  0.00    -0.254 A  
HETATM    8  O   UNL     1     -10.433  18.227  68.640  1.00  0.00    -0.372 OA 
HETATM    9  C   UNL     1      -6.929  17.197  66.668  1.00  0.00    -0.285 A  
HETATM   10  C   UNL     1      -8.138  16.615  66.268  1.00  0.00    -0.361 A  
HETATM   11  H   UNL     1     -11.256  17.831  68.377  1.00  0.00     0.000 HD 
ENDROOT
BRANCH   7  12
HETATM   12  C   UNL     1     -10.550  16.171  66.529  1.00  0.00    -0.268 C  
HETATM   13  O   UNL     1     -11.080  16.298  65.433  1.00  0.00    -0.212 OA 
BRANCH  12  14
HETATM   14  O   UNL     1     -10.967  15.334  67.549  1.00  0.00    -0.301 OA 
BRANCH  14  15
HETATM   15  C   UNL     1     -10.821  13.946  67.381  1.00  0.00    -0.285 A  
HETATM   16  C   UNL     1     -11.657  13.035  68.029  1.00  0.00    -0.383 A  
HETATM   17  C   UNL     1     -11.551  11.677  67.734  1.00  0.00    -0.359 A  
HETATM   18  C   UNL     1     -10.628  11.238  66.784  1.00  0.00    -0.305 A  
HETATM   19  C   UNL     1      -9.810  12.157  66.123  1.00  0.00    -0.254 A  
HETATM   20  C   UNL     1      -9.910  13.518  66.417  1.00  0.00    -0.299 A  
ENDBRANCH  14  15
ENDBRANCH  12  14
ENDBRANCH   7  12
TORSDOF 3
ENDMDL
MODEL      155
REMARK 921   NORMALIZED FREE ENERGY PREDICTED BY IDOCK:   -4.07 KCAL/MOL
REMARK 922        TOTAL FREE ENERGY PREDICTED BY IDOCK:   -5.38 KCAL/MOL
REMARK 923 INTER-LIGAND FREE ENERGY PREDICTED BY IDOCK:   -4.90 KCAL/MOL
REMARK 924 INTRA-LIGAND FREE ENERGY PREDICTED BY IDOCK:   -0.48 KCAL/MOL
REMARK 927      BINDING AFFINITY PREDICTED BY RF-SCORE:    0.00 PKD
ROOT
HETATM    1  N   UNL     1     -13.761  13.024  72.898  1.00  0.00    -0.650 NA 
HETATM    2  H1  UNL     1     -14.083  12.279  73.515  1.00  0.00     0.000 HD 
HETATM    3  C   UNL     1     -13.166  12.713  71.670  1.00  0.00    -0.298 A  
HETATM    4  H2  UNL     1     -14.541  13.659  72.727  1.00  0.00     0.000 HD 
HETATM    5  C   UNL     1     -12.725  13.734  70.826  1.00  0.00    -0.361 A  
HETATM    6  C   UNL     1     -12.074  13.436  69.623  1.00  0.00    -0.289 A  
HETATM    7  C   UNL     1     -11.795  12.107  69.275  1.00  0.00    -0.370 A  
HETATM    8  O   UNL     1     -11.756  14.469  68.786  1.00  0.00    -0.296 OA 
HETATM    9  C   UNL     1     -12.814  11.397  71.369  1.00  0.00    -0.502 A  
HETATM   10  C   UNL     1     -12.156  11.091  70.172  1.00  0.00    -0.438 A  
HETATM   11  H   UNL     1     -11.314  14.267  67.969  1.00  0.00     0.000 HD 
ENDROOT
BRANCH   7  12
HETATM   12  C   UNL     1     -11.225  11.685  67.967  1.00  0.00    -0.263 C  
HETATM   13  O   UNL     1     -11.628  10.702  67.361  1.00  0.00    -0.445 OA 
BRANCH  12  14
HETATM   14  O   UNL     1     -10.212  12.537  67.565  1.00  0.00    -0.213 OA 
BRANCH  14  15
HETATM   15  C   UNL     1      -8.887  12.211  67.902  1.00  0.00    -0.177 A  
HETATM   16  C   UNL     1      -7.816  13.037  67.559  1.00  0.00    -0.178 A  
HETATM   17  C   UNL     1      -6.537  12.731  68.023  1.00  0.00    -0.101 A  
HETATM   18  C   UNL     1      -6.337  11.618  68.839  1.00  0.00    -0.062 A  
HETATM   19  C   UNL     1      -7.417  10.807  69.196  1.00  0.00    -0.123 A  
HETATM   20  C   UNL     1      -8.699  11.107  68.732  1.00  0.00    -0.130 A  
ENDBRANCH  14  15
ENDBRANCH  12  14
ENDBRANCH   7  12
TORSDOF 3
ENDMDL
MODEL      156
REMARK 921   NORMALIZED FREE ENERGY PREDICTED BY IDOCK:   -4.07 KCAL/MOL
REMARK 922        TOTAL FREE ENERGY PREDICTED BY IDOCK:   -5.37 KCAL/MOL
REMARK 923 INTER-LIGAND FREE ENERGY PREDICTED BY IDOCK:   -4.78 KCAL/MOL
REMARK 924 INTRA-LIGAND FREE ENERGY PREDICTED BY IDOCK:   -0.60 KCAL/MOL
REMARK 927      BINDING AFFINITY PREDICTED BY RF-SCORE:    0.00 PKD
ROOT
HETATM    1  N   UNL     1     -12.537  14.946  69.684  1.00  0.00    -0.590 NA 
HETATM    2  H1  UNL     1     -13.225  15.108  70.420  1.00  0.00     0.000 HD 
HETATM    3  C   UNL     1     -12.073  13.651  69.428  1.00  0.00    -0.314 A  
HETATM    4  H2  UNL     1     -12.899  15.337  68.814  1.00  0.00     0.000 HD 
HETATM    5  C   UNL     1     -11.132  13.430  68.421  1.00  0.00    -0.301 A  
HETATM    6  C   UNL     1     -10.614  12.149  68.194  1.00  0.00    -0.216 A  
HETATM    7  C   UNL     1     -10.985  11.076  69.017  1.00  0.00    -0.284 A  
HETATM    8  O   UNL     1      -9.774  11.968  67.131  1.00  0.00    -0.193 OA 
HETATM    9  C   UNL     1     -12.378  12.606  70.300  1.00  0.00    -0.269 A  
HETATM   10  C   UNL     1     -11.859  11.324  70.086  1.00  0.00    -0.449 A  
HETATM   11  H   UNL     1      -9.423  11.099  66.977  1.00  0.00     0.000 HD 
ENDROOT
BRANCH   7  12
HETATM   12  C   UNL     1     -10.590   9.662  68.778  1.00  0.00    -0.216 C  
HETATM   13  O   UNL     1      -9.987   8.998  69.611  1.00  0.00    -0.181 OA 
BRANCH  12  14
HETATM   14  O   UNL     1     -10.990   9.235  67.524  1.00  0.00    -0.199 OA 
BRANCH  14  15
HETATM   15  C   UNL     1     -10.312   8.154  66.935  1.00  0.00    -0.331 A  
HETATM   16  C   UNL     1      -9.050   8.303  66.360  1.00  0.00    -0.226 A  
HETATM   17  C   UNL     1      -8.368   7.177  65.900  1.00  0.00    -0.141 A  
HETATM   18  C   UNL     1      -8.939   5.911  66.032  1.00  0.00    -0.159 A  
HETATM   19  C   UNL     1     -10.195   5.767  66.628  1.00  0.00    -0.261 A  
HETATM   20  C   UNL     1     -10.883   6.891  67.088  1.00  0.00    -0.447 A  
ENDBRANCH  14  15
ENDBRANCH  12  14
ENDBRANCH   7  12
TORSDOF 3
ENDMDL
MODEL      157
REMARK 921   NORMALIZED FREE ENERGY PREDICTED BY IDOCK:   -4.06 KCAL/MOL
REMARK 922        TOTAL FREE ENERGY PREDICTED BY IDOCK:   -5.37 KCAL/MOL
REMARK 923 INTER-LIGAND FREE ENERGY PREDICTED BY IDOCK:   -4.72 KCAL/MOL
REMARK 924 INTRA-LIGAND FREE ENERGY PREDICTED BY IDOCK:   -0.65 KCAL/MOL
REMARK 927      BINDING AFFINITY PREDICTED BY RF-SCORE:    0.00 PKD
ROOT
HETATM    1  N   UNL     1      -8.983   8.277  64.925  1.00  0.00    -0.393 NA 
HETATM    2  H1  UNL     1      -8.682   8.229  63.951  1.00  0.00     0.000 HD 
HETATM    3  C   UNL     1      -9.600   9.434  65.413  1.00  0.00    -0.226 A  
HETATM    4  H2  UNL     1      -9.595   7.482  65.111  1.00  0.00     0.000 HD 
HETATM    5  C   UNL     1     -10.012   9.499  66.746  1.00  0.00    -0.297 A  
HETATM    6  C   UNL     1     -10.576  10.671  67.264  1.00  0.00    -0.263 A  
HETATM    7  C   UNL     1     -10.677  11.822  66.471  1.00  0.00    -0.304 A  
HETATM    8  O   UNL     1     -11.056  10.648  68.544  1.00  0.00    -0.226 OA 
HETATM    9  C   UNL     1      -9.620  10.600  64.650  1.00  0.00    -0.334 A  
HETATM   10  C   UNL     1     -10.174  11.780  65.162  1.00  0.00    -0.309 A  
HETATM   11  H   UNL     1     -11.438  11.444  68.896  1.00  0.00     0.000 HD 
ENDROOT
BRANCH   7  12
HETATM   12  C   UNL     1     -11.371  13.070  66.889  1.00  0.00    -0.311 C  
HETATM   13  O   UNL     1     -11.973  13.163  67.951  1.00  0.00    -0.349 OA 
BRANCH  12  14
HETATM   14  O   UNL     1     -11.239  14.060  65.933  1.00  0.00    -0.303 OA 
BRANCH  14  15
HETATM   15  C   UNL     1     -10.487  15.204  66.250  1.00  0.00    -0.307 A  
HETATM   16  C   UNL     1      -9.208  15.113  66.801  1.00  0.00    -0.277 A  
HETATM   17  C   UNL     1      -8.455  16.273  66.983  1.00  0.00    -0.232 A  
HETATM   18  C   UNL     1      -8.973  17.510  66.599  1.00  0.00    -0.283 A  
HETATM   19  C   UNL     1     -10.245  17.591  66.028  1.00  0.00    -0.306 A  
HETATM   20  C   UNL     1     -11.004  16.434  65.846  1.00  0.00     0.003 A  
ENDBRANCH  14  15
ENDBRANCH  12  14
ENDBRANCH   7  12
TORSDOF 3
ENDMDL
MODEL      158
REMARK 921   NORMALIZED FREE ENERGY PREDICTED BY IDOCK:   -4.03 KCAL/MOL
REMARK 922        TOTAL FREE ENERGY PREDICTED BY IDOCK:   -5.33 KCAL/MOL
REMARK 923 INTER-LIGAND FREE ENERGY PREDICTED BY IDOCK:   -4.76 KCAL/MOL
REMARK 924 INTRA-LIGAND FREE ENERGY PREDICTED BY IDOCK:   -0.57 KCAL/MOL
REMARK 927      BINDING AFFINITY PREDICTED BY RF-SCORE:    0.00 PKD
ROOT
HETATM    1  N   UNL     1      -9.807   6.970  69.264  1.00  0.00    -0.158 NA 
HETATM    2  H1  UNL     1      -9.989   6.804  70.254  1.00  0.00     0.000 HD 
HETATM    3  C   UNL     1     -10.104   8.213  68.694  1.00  0.00    -0.196 A  
HETATM    4  H2  UNL     1      -8.827   6.756  69.077  1.00  0.00     0.000 HD 
HETATM    5  C   UNL     1      -9.854   8.441  67.339  1.00  0.00    -0.249 A  
HETATM    6  C   UNL     1     -10.202   9.658  66.741  1.00  0.00    -0.239 A  
HETATM    7  C   UNL     1     -10.868  10.647  67.479  1.00  0.00    -0.351 A  
HETATM    8  O   UNL     1      -9.842   9.867  65.439  1.00  0.00    -0.293 OA 
HETATM    9  C   UNL     1     -10.841   9.159  69.406  1.00  0.00    -0.165 A  
HETATM   10  C   UNL     1     -11.201  10.376  68.814  1.00  0.00    -0.295 A  
HETATM   11  H   UNL     1     -10.079  10.693  65.034  1.00  0.00     0.000 HD 
ENDROOT
BRANCH   7  12
HETATM   12  C   UNL     1     -11.164  12.014  66.971  1.00  0.00    -0.320 C  
HETATM   13  O   UNL     1     -12.211  12.596  67.224  1.00  0.00    -0.425 OA 
BRANCH  12  14
HETATM   14  O   UNL     1     -10.122  12.498  66.201  1.00  0.00    -0.241 OA 
BRANCH  14  15
HETATM   15  C   UNL     1      -9.912  13.888  66.154  1.00  0.00    -0.310 A  
HETATM   16  C   UNL     1     -10.494  14.686  65.169  1.00  0.00    -0.440 A  
HETATM   17  C   UNL     1     -10.355  16.072  65.238  1.00  0.00    -0.319 A  
HETATM   18  C   UNL     1      -9.655  16.652  66.295  1.00  0.00    -0.325 A  
HETATM   19  C   UNL     1      -9.093  15.848  67.290  1.00  0.00    -0.218 A  
HETATM   20  C   UNL     1      -9.227  14.460  67.224  1.00  0.00    -0.214 A  
ENDBRANCH  14  15
ENDBRANCH  12  14
ENDBRANCH   7  12
TORSDOF 3
ENDMDL
MODEL      159
REMARK 921   NORMALIZED FREE ENERGY PREDICTED BY IDOCK:   -4.03 KCAL/MOL
REMARK 922        TOTAL FREE ENERGY PREDICTED BY IDOCK:   -5.33 KCAL/MOL
REMARK 923 INTER-LIGAND FREE ENERGY PREDICTED BY IDOCK:   -4.75 KCAL/MOL
REMARK 924 INTRA-LIGAND FREE ENERGY PREDICTED BY IDOCK:   -0.58 KCAL/MOL
REMARK 927      BINDING AFFINITY PREDICTED BY RF-SCORE:    0.00 PKD
ROOT
HETATM    1  N   UNL     1      -7.977   5.391  67.705  1.00  0.00    -0.100 NA 
HETATM    2  H1  UNL     1      -8.524   4.531  67.742  1.00  0.00     0.000 HD 
HETATM    3  C   UNL     1      -8.616   6.624  67.534  1.00  0.00    -0.120 A  
HETATM    4  H2  UNL     1      -7.401   5.441  68.546  1.00  0.00     0.000 HD 
HETATM    5  C   UNL     1      -7.867   7.801  67.484  1.00  0.00    -0.122 A  
HETATM    6  C   UNL     1      -8.487   9.035  67.253  1.00  0.00    -0.114 A  
HETATM    7  C   UNL     1      -9.865   9.102  67.002  1.00  0.00    -0.267 A  
HETATM    8  O   UNL     1      -7.723  10.166  67.316  1.00  0.00    -0.095 OA 
HETATM    9  C   UNL     1      -9.970   6.678  67.200  1.00  0.00    -0.209 A  
HETATM   10  C   UNL     1     -10.596   7.906  66.959  1.00  0.00    -0.381 A  
HETATM   11  H   UNL     1      -8.144  11.003  67.159  1.00  0.00     0.000 HD 
ENDROOT
BRANCH   7  12
HETATM   12  C   UNL     1     -10.632  10.370  66.872  1.00  0.00    -0.230 C  
HETATM   13  O   UNL     1     -11.649  10.592  67.514  1.00  0.00    -0.482 OA 
BRANCH  12  14
HETATM   14  O   UNL     1     -10.043  11.218  65.950  1.00  0.00    -0.227 OA 
BRANCH  14  15
HETATM   15  C   UNL     1     -10.816  12.259  65.407  1.00  0.00    -0.286 A  
HETATM   16  C   UNL     1     -10.809  13.543  65.954  1.00  0.00    -0.279 A  
HETATM   17  C   UNL     1     -11.496  14.569  65.306  1.00  0.00    -0.355 A  
HETATM   18  C   UNL     1     -12.168  14.314  64.110  1.00  0.00    -0.410 A  
HETATM   19  C   UNL     1     -12.153  13.031  63.557  1.00  0.00    -0.617 A  
HETATM   20  C   UNL     1     -11.469  12.000  64.203  1.00  0.00    -0.460 A  
ENDBRANCH  14  15
ENDBRANCH  12  14
ENDBRANCH   7  12
TORSDOF 3
ENDMDL
MODEL      160
REMARK 921   NORMALIZED FREE ENERGY PREDICTED BY IDOCK:   -4.03 KCAL/MOL
REMARK 922        TOTAL FREE ENERGY PREDICTED BY IDOCK:   -5.33 KCAL/MOL
REMARK 923 INTER-LIGAND FREE ENERGY PREDICTED BY IDOCK:   -4.83 KCAL/MOL
REMARK 924 INTRA-LIGAND FREE ENERGY PREDICTED BY IDOCK:   -0.50 KCAL/MOL
REMARK 927      BINDING AFFINITY PREDICTED BY RF-SCORE:    0.00 PKD
ROOT
HETATM    1  N   UNL     1     -12.893  12.401  63.635  1.00  0.00    -0.780 NA 
HETATM    2  H1  UNL     1     -12.664  12.553  62.652  1.00  0.00     0.000 HD 
HETATM    3  C   UNL     1     -12.194  13.088  64.634  1.00  0.00    -0.421 A  
HETATM    4  H2  UNL     1     -13.891  12.573  63.763  1.00  0.00     0.000 HD 
HETATM    5  C   UNL     1     -12.508  12.880  65.979  1.00  0.00    -0.171 A  
HETATM    6  C   UNL     1     -11.778  13.515  66.990  1.00  0.00    -0.383 A  
HETATM    7  C   UNL     1     -10.675  14.320  66.673  1.00  0.00    -0.290 A  
HETATM    8  O   UNL     1     -12.191  13.358  68.284  1.00  0.00    -0.286 OA 
HETATM    9  C   UNL     1     -11.048  13.818  64.320  1.00  0.00    -0.300 A  
HETATM   10  C   UNL     1     -10.306  14.449  65.325  1.00  0.00    -0.427 A  
HETATM   11  H   UNL     1     -11.695  13.788  68.970  1.00  0.00     0.000 HD 
ENDROOT
BRANCH   7  12
HETATM   12  C   UNL     1      -9.918  15.133  67.663  1.00  0.00    -0.229 C  
HETATM   13  O   UNL     1     -10.091  15.026  68.870  1.00  0.00    -0.220 OA 
BRANCH  12  14
HETATM   14  O   UNL     1      -9.034  15.990  67.034  1.00  0.00    -0.196 OA 
BRANCH  14  15
HETATM   15  C   UNL     1      -8.011  16.580  67.798  1.00  0.00    -0.160 A  
HETATM   16  C   UNL     1      -6.695  16.121  67.744  1.00  0.00    -0.169 A  
HETATM   17  C   UNL     1      -5.697  16.816  68.426  1.00  0.00    -0.122 A  
HETATM   18  C   UNL     1      -6.014  17.971  69.140  1.00  0.00    -0.225 A  
HETATM   19  C   UNL     1      -7.331  18.437  69.174  1.00  0.00    -0.155 A  
HETATM   20  C   UNL     1      -8.334  17.743  68.495  1.00  0.00    -0.298 A  
ENDBRANCH  14  15
ENDBRANCH  12  14
ENDBRANCH   7  12
TORSDOF 3
ENDMDL
MODEL      161
REMARK 921   NORMALIZED FREE ENERGY PREDICTED BY IDOCK:   -4.03 KCAL/MOL
REMARK 922        TOTAL FREE ENERGY PREDICTED BY IDOCK:   -5.33 KCAL/MOL
REMARK 923 INTER-LIGAND FREE ENERGY PREDICTED BY IDOCK:   -4.95 KCAL/MOL
REMARK 924 INTRA-LIGAND FREE ENERGY PREDICTED BY IDOCK:   -0.37 KCAL/MOL
REMARK 927      BINDING AFFINITY PREDICTED BY RF-SCORE:    0.00 PKD
ROOT
HETATM    1  N   UNL     1     -12.925  11.649  63.038  1.00  0.00    -0.852 NA 
HETATM    2  H1  UNL     1     -12.511  11.223  62.209  1.00  0.00     0.000 HD 
HETATM    3  C   UNL     1     -12.108  12.256  63.999  1.00  0.00    -0.471 A  
HETATM    4  H2  UNL     1     -13.625  12.327  62.735  1.00  0.00     0.000 HD 
HETATM    5  C   UNL     1     -12.675  12.839  65.134  1.00  0.00    -0.402 A  
HETATM    6  C   UNL     1     -11.867  13.396  66.132  1.00  0.00    -0.385 A  
HETATM    7  C   UNL     1     -10.471  13.320  66.041  1.00  0.00    -0.289 A  
HETATM    8  O   UNL     1     -12.475  14.045  67.171  1.00  0.00    -0.533 OA 
HETATM    9  C   UNL     1     -10.723  12.102  63.947  1.00  0.00    -0.456 A  
HETATM   10  C   UNL     1      -9.907  12.648  64.945  1.00  0.00    -0.078 A  
HETATM   11  H   UNL     1     -11.926  14.423  67.848  1.00  0.00     0.000 HD 
ENDROOT
BRANCH   7  12
HETATM   12  C   UNL     1      -9.532  13.989  66.981  1.00  0.00    -0.250 C  
HETATM   13  O   UNL     1      -9.033  15.081  66.746  1.00  0.00    -0.233 OA 
BRANCH  12  14
HETATM   14  O   UNL     1      -9.318  13.216  68.109  1.00  0.00    -0.208 OA 
BRANCH  14  15
HETATM   15  C   UNL     1      -8.677  11.974  67.959  1.00  0.00    -0.175 A  
HETATM   16  C   UNL     1      -9.247  10.790  68.430  1.00  0.00    -0.164 A  
HETATM   17  C   UNL     1      -8.631   9.572  68.149  1.00  0.00    -0.120 A  
HETATM   18  C   UNL     1      -7.463   9.539  67.387  1.00  0.00    -0.091 A  
HETATM   19  C   UNL     1      -6.908  10.726  66.901  1.00  0.00    -0.101 A  
HETATM   20  C   UNL     1      -7.520  11.949  67.182  1.00  0.00    -0.146 A  
ENDBRANCH  14  15
ENDBRANCH  12  14
ENDBRANCH   7  12
TORSDOF 3
ENDMDL
MODEL      162
REMARK 921   NORMALIZED FREE ENERGY PREDICTED BY IDOCK:   -4.01 KCAL/MOL
REMARK 922        TOTAL FREE ENERGY PREDICTED BY IDOCK:   -5.31 KCAL/MOL
REMARK 923 INTER-LIGAND FREE ENERGY PREDICTED BY IDOCK:   -4.58 KCAL/MOL
REMARK 924 INTRA-LIGAND FREE ENERGY PREDICTED BY IDOCK:   -0.72 KCAL/MOL
REMARK 927      BINDING AFFINITY PREDICTED BY RF-SCORE:    0.00 PKD
ROOT
HETATM    1  N   UNL     1      -7.355   7.782  66.366  1.00  0.00    -0.078 NA 
HETATM    2  H1  UNL     1      -7.759   6.997  65.856  1.00  0.00     0.000 HD 
HETATM    3  C   UNL     1      -8.038   9.002  66.436  1.00  0.00    -0.110 A  
HETATM    4  H2  UNL     1      -7.147   7.474  67.317  1.00  0.00     0.000 HD 
HETATM    5  C   UNL     1      -7.484  10.076  67.135  1.00  0.00    -0.091 A  
HETATM    6  C   UNL     1      -8.127  11.319  67.163  1.00  0.00    -0.150 A  
HETATM    7  C   UNL     1      -9.307  11.526  66.434  1.00  0.00    -0.222 A  
HETATM    8  O   UNL     1      -7.596  12.306  67.946  1.00  0.00    -0.106 OA 
HETATM    9  C   UNL     1      -9.163   9.228  65.643  1.00  0.00    -0.291 A  
HETATM   10  C   UNL     1      -9.807  10.471  65.657  1.00  0.00    -0.311 A  
HETATM   11  H   UNL     1      -8.033  13.150  67.964  1.00  0.00     0.000 HD 
ENDROOT
BRANCH   7  12
HETATM   12  C   UNL     1     -10.127  12.766  66.501  1.00  0.00    -0.258 C  
HETATM   13  O   UNL     1      -9.664  13.874  66.267  1.00  0.00    -0.287 OA 
BRANCH  12  14
HETATM   14  O   UNL     1     -11.434  12.482  66.857  1.00  0.00    -0.311 OA 
BRANCH  14  15
HETATM   15  C   UNL     1     -11.803  12.600  68.208  1.00  0.00    -0.306 A  
HETATM   16  C   UNL     1     -11.797  11.503  69.071  1.00  0.00    -0.408 A  
HETATM   17  C   UNL     1     -12.052  11.696  70.428  1.00  0.00    -0.462 A  
HETATM   18  C   UNL     1     -12.291  12.980  70.919  1.00  0.00    -0.376 A  
HETATM   19  C   UNL     1     -12.274  14.076  70.053  1.00  0.00    -0.414 A  
HETATM   20  C   UNL     1     -12.022  13.888  68.693  1.00  0.00    -0.401 A  
ENDBRANCH  14  15
ENDBRANCH  12  14
ENDBRANCH   7  12
TORSDOF 3
ENDMDL
MODEL      163
REMARK 921   NORMALIZED FREE ENERGY PREDICTED BY IDOCK:   -4.00 KCAL/MOL
REMARK 922        TOTAL FREE ENERGY PREDICTED BY IDOCK:   -5.30 KCAL/MOL
REMARK 923 INTER-LIGAND FREE ENERGY PREDICTED BY IDOCK:   -4.91 KCAL/MOL
REMARK 924 INTRA-LIGAND FREE ENERGY PREDICTED BY IDOCK:   -0.38 KCAL/MOL
REMARK 927      BINDING AFFINITY PREDICTED BY RF-SCORE:    0.00 PKD
ROOT
HETATM    1  N   UNL     1     -13.834  14.061  72.065  1.00  0.00    -0.452 NA 
HETATM    2  H1  UNL     1     -14.337  13.725  72.886  1.00  0.00     0.000 HD 
HETATM    3  C   UNL     1     -13.104  13.166  71.273  1.00  0.00    -0.193 A  
HETATM    4  H2  UNL     1     -14.493  14.557  71.465  1.00  0.00     0.000 HD 
HETATM    5  C   UNL     1     -12.416  13.625  70.149  1.00  0.00    -0.305 A  
HETATM    6  C   UNL     1     -11.633  12.753  69.383  1.00  0.00    -0.298 A  
HETATM    7  C   UNL     1     -11.475  11.415  69.770  1.00  0.00    -0.376 A  
HETATM    8  O   UNL     1     -11.065  13.230  68.235  1.00  0.00    -0.243 OA 
HETATM    9  C   UNL     1     -12.880  11.860  71.708  1.00  0.00    -0.389 A  
HETATM   10  C   UNL     1     -12.092  10.983  70.954  1.00  0.00    -0.444 A  
HETATM   11  H   UNL     1     -10.534  12.638  67.716  1.00  0.00     0.000 HD 
ENDROOT
BRANCH   7  12
HETATM   12  C   UNL     1     -10.771  10.385  68.958  1.00  0.00    -0.228 C  
HETATM   13  O   UNL     1     -11.145  10.063  67.839  1.00  0.00    -0.275 OA 
BRANCH  12  14
HETATM   14  O   UNL     1      -9.681   9.872  69.638  1.00  0.00    -0.204 OA 
BRANCH  14  15
HETATM   15  C   UNL     1      -9.838   8.669  70.348  1.00  0.00    -0.183 A  
HETATM   16  C   UNL     1      -9.398   8.529  71.665  1.00  0.00    -0.311 A  
HETATM   17  C   UNL     1      -9.687   7.358  72.364  1.00  0.00    -0.194 A  
HETATM   18  C   UNL     1     -10.427   6.345  71.756  1.00  0.00    -0.246 A  
HETATM   19  C   UNL     1     -10.883   6.500  70.444  1.00  0.00    -0.326 A  
HETATM   20  C   UNL     1     -10.594   7.669  69.738  1.00  0.00    -0.245 A  
ENDBRANCH  14  15
ENDBRANCH  12  14
ENDBRANCH   7  12
TORSDOF 3
ENDMDL
MODEL      164
REMARK 921   NORMALIZED FREE ENERGY PREDICTED BY IDOCK:   -3.97 KCAL/MOL
REMARK 922        TOTAL FREE ENERGY PREDICTED BY IDOCK:   -5.27 KCAL/MOL
REMARK 923 INTER-LIGAND FREE ENERGY PREDICTED BY IDOCK:   -4.71 KCAL/MOL
REMARK 924 INTRA-LIGAND FREE ENERGY PREDICTED BY IDOCK:   -0.56 KCAL/MOL
REMARK 927      BINDING AFFINITY PREDICTED BY RF-SCORE:    0.00 PKD
ROOT
HETATM    1  N   UNL     1      -7.391   7.570  69.211  1.00  0.00    -0.086 NA 
HETATM    2  H1  UNL     1      -7.678   6.604  69.374  1.00  0.00     0.000 HD 
HETATM    3  C   UNL     1      -8.355   8.573  69.056  1.00  0.00    -0.118 A  
HETATM    4  H2  UNL     1      -6.755   7.847  69.959  1.00  0.00     0.000 HD 
HETATM    5  C   UNL     1      -7.962   9.894  68.833  1.00  0.00    -0.096 A  
HETATM    6  C   UNL     1      -8.914  10.897  68.616  1.00  0.00    -0.162 A  
HETATM    7  C   UNL     1     -10.278  10.581  68.555  1.00  0.00    -0.190 A  
HETATM    8  O   UNL     1      -8.481  12.189  68.506  1.00  0.00    -0.237 OA 
HETATM    9  C   UNL     1      -9.702   8.242  68.910  1.00  0.00    -0.164 A  
HETATM   10  C   UNL     1     -10.660   9.237  68.685  1.00  0.00    -0.219 A  
HETATM   11  H   UNL     1      -9.128  12.869  68.359  1.00  0.00     0.000 HD 
ENDROOT
BRANCH   7  12
HETATM   12  C   UNL     1     -11.369  11.588  68.457  1.00  0.00    -0.277 C  
HETATM   13  O   UNL     1     -12.388  11.392  67.808  1.00  0.00    -0.308 OA 
BRANCH  12  14
HETATM   14  O   UNL     1     -11.062  12.729  69.176  1.00  0.00    -0.242 OA 
BRANCH  14  15
HETATM   15  C   UNL     1     -11.893  13.087  70.253  1.00  0.00    -0.217 A  
HETATM   16  C   UNL     1     -12.280  14.410  70.473  1.00  0.00    -0.411 A  
HETATM   17  C   UNL     1     -13.203  14.696  71.479  1.00  0.00    -0.428 A  
HETATM   18  C   UNL     1     -13.745  13.663  72.244  1.00  0.00    -0.687 A  
HETATM   19  C   UNL     1     -13.369  12.339  72.003  1.00  0.00    -0.491 A  
HETATM   20  C   UNL     1     -12.444  12.048  70.999  1.00  0.00    -0.376 A  
ENDBRANCH  14  15
ENDBRANCH  12  14
ENDBRANCH   7  12
TORSDOF 3
ENDMDL
MODEL      165
REMARK 921   NORMALIZED FREE ENERGY PREDICTED BY IDOCK:   -3.97 KCAL/MOL
REMARK 922        TOTAL FREE ENERGY PREDICTED BY IDOCK:   -5.26 KCAL/MOL
REMARK 923 INTER-LIGAND FREE ENERGY PREDICTED BY IDOCK:   -5.31 KCAL/MOL
REMARK 924 INTRA-LIGAND FREE ENERGY PREDICTED BY IDOCK:    0.05 KCAL/MOL
REMARK 927      BINDING AFFINITY PREDICTED BY RF-SCORE:    0.00 PKD
ROOT
HETATM    1  N   UNL     1     -12.068  14.529  71.700  1.00  0.00    -0.336 NA 
HETATM    2  H1  UNL     1     -11.947  15.325  72.327  1.00  0.00     0.000 HD 
HETATM    3  C   UNL     1     -11.778  14.658  70.337  1.00  0.00    -0.295 A  
HETATM    4  H2  UNL     1     -11.531  13.744  72.071  1.00  0.00     0.000 HD 
HETATM    5  C   UNL     1     -11.943  13.569  69.479  1.00  0.00    -0.390 A  
HETATM    6  C   UNL     1     -11.715  13.700  68.104  1.00  0.00    -0.357 A  
HETATM    7  C   UNL     1     -11.379  14.945  67.555  1.00  0.00    -0.351 A  
HETATM    8  O   UNL     1     -11.790  12.579  67.325  1.00  0.00    -0.402 OA 
HETATM    9  C   UNL     1     -11.529  15.914  69.783  1.00  0.00    -0.342 A  
HETATM   10  C   UNL     1     -11.308  16.056  68.408  1.00  0.00    -0.355 A  
HETATM   11  H   UNL     1     -11.635  12.669  66.392  1.00  0.00     0.000 HD 
ENDROOT
BRANCH   7  12
HETATM   12  C   UNL     1     -10.996  15.158  66.133  1.00  0.00    -0.331 C  
HETATM   13  O   UNL     1     -11.003  14.254  65.308  1.00  0.00    -0.310 OA 
BRANCH  12  14
HETATM   14  O   UNL     1     -10.644  16.476  65.902  1.00  0.00    -0.325 OA 
BRANCH  14  15
HETATM   15  C   UNL     1      -9.415  16.940  66.402  1.00  0.00    -0.283 A  
HETATM   16  C   UNL     1      -8.226  16.236  66.201  1.00  0.00    -0.204 A  
HETATM   17  C   UNL     1      -7.018  16.799  66.610  1.00  0.00    -0.268 A  
HETATM   18  C   UNL     1      -6.999  18.064  67.197  1.00  0.00    -0.211 A  
HETATM   19  C   UNL     1      -8.190  18.772  67.376  1.00  0.00    -0.278 A  
HETATM   20  C   UNL     1      -9.403  18.212  66.971  1.00  0.00    -0.270 A  
ENDBRANCH  14  15
ENDBRANCH  12  14
ENDBRANCH   7  12
TORSDOF 3
ENDMDL
MODEL      166
REMARK 921   NORMALIZED FREE ENERGY PREDICTED BY IDOCK:   -3.96 KCAL/MOL
REMARK 922        TOTAL FREE ENERGY PREDICTED BY IDOCK:   -5.24 KCAL/MOL
REMARK 923 INTER-LIGAND FREE ENERGY PREDICTED BY IDOCK:   -4.72 KCAL/MOL
REMARK 924 INTRA-LIGAND FREE ENERGY PREDICTED BY IDOCK:   -0.53 KCAL/MOL
REMARK 927      BINDING AFFINITY PREDICTED BY RF-SCORE:    0.00 PKD
ROOT
HETATM    1  N   UNL     1      -8.623   5.197  64.926  1.00  0.00    -0.149 NA 
HETATM    2  H1  UNL     1      -9.253   4.781  64.240  1.00  0.00     0.000 HD 
HETATM    3  C   UNL     1      -9.102   5.567  66.187  1.00  0.00    -0.150 A  
HETATM    4  H2  UNL     1      -7.829   4.569  65.055  1.00  0.00     0.000 HD 
HETATM    5  C   UNL     1      -8.240   6.135  67.127  1.00  0.00    -0.106 A  
HETATM    6  C   UNL     1      -8.719   6.565  68.370  1.00  0.00    -0.121 A  
HETATM    7  C   UNL     1     -10.086   6.492  68.669  1.00  0.00    -0.175 A  
HETATM    8  O   UNL     1      -7.816   7.019  69.291  1.00  0.00    -0.109 OA 
HETATM    9  C   UNL     1     -10.473   5.572  66.448  1.00  0.00    -0.294 A  
HETATM   10  C   UNL     1     -10.962   6.008  67.685  1.00  0.00    -0.334 A  
HETATM   11  H   UNL     1      -8.141   7.311  70.134  1.00  0.00     0.000 HD 
ENDROOT
BRANCH   7  12
HETATM   12  C   UNL     1     -10.671   6.804  70.001  1.00  0.00    -0.247 C  
HETATM   13  O   UNL     1     -11.436   6.043  70.578  1.00  0.00    -0.304 OA 
BRANCH  12  14
HETATM   14  O   UNL     1     -10.236   8.034  70.463  1.00  0.00    -0.196 OA 
BRANCH  14  15
HETATM   15  C   UNL     1     -11.190   9.040  70.694  1.00  0.00    -0.270 A  
HETATM   16  C   UNL     1     -12.089   8.968  71.759  1.00  0.00    -0.438 A  
HETATM   17  C   UNL     1     -12.932  10.048  72.018  1.00  0.00    -0.514 A  
HETATM   18  C   UNL     1     -12.861  11.196  71.229  1.00  0.00    -0.515 A  
HETATM   19  C   UNL     1     -11.943  11.269  70.178  1.00  0.00    -0.452 A  
HETATM   20  C   UNL     1     -11.099  10.189  69.912  1.00  0.00    -0.346 A  
ENDBRANCH  14  15
ENDBRANCH  12  14
ENDBRANCH   7  12
TORSDOF 3
ENDMDL
MODEL      167
REMARK 921   NORMALIZED FREE ENERGY PREDICTED BY IDOCK:   -3.95 KCAL/MOL
REMARK 922        TOTAL FREE ENERGY PREDICTED BY IDOCK:   -5.24 KCAL/MOL
REMARK 923 INTER-LIGAND FREE ENERGY PREDICTED BY IDOCK:   -4.62 KCAL/MOL
REMARK 924 INTRA-LIGAND FREE ENERGY PREDICTED BY IDOCK:   -0.62 KCAL/MOL
REMARK 927      BINDING AFFINITY PREDICTED BY RF-SCORE:    0.00 PKD
ROOT
HETATM    1  N   UNL     1     -12.591  10.855  69.356  1.00  0.00    -0.577 NA 
HETATM    2  H1  UNL     1     -12.180  11.265  68.517  1.00  0.00     0.000 HD 
HETATM    3  C   UNL     1     -11.859   9.942  70.123  1.00  0.00    -0.124 A  
HETATM    4  H2  UNL     1     -12.901  11.613  69.966  1.00  0.00     0.000 HD 
HETATM    5  C   UNL     1     -12.421   9.381  71.271  1.00  0.00    -0.416 A  
HETATM    6  C   UNL     1     -11.723   8.422  72.015  1.00  0.00    -0.352 A  
HETATM    7  C   UNL     1     -10.473   7.959  71.582  1.00  0.00    -0.255 A  
HETATM    8  O   UNL     1     -12.276   7.981  73.185  1.00  0.00    -0.659 OA 
HETATM    9  C   UNL     1     -10.656   9.422  69.645  1.00  0.00    -0.239 A  
HETATM   10  C   UNL     1      -9.955   8.457  70.377  1.00  0.00    -0.199 A  
HETATM   11  H   UNL     1     -11.802   7.330  73.689  1.00  0.00     0.000 HD 
ENDROOT
BRANCH   7  12
HETATM   12  C   UNL     1      -9.603   7.040  72.365  1.00  0.00    -0.145 C  
HETATM   13  O   UNL     1      -8.429   7.291  72.604  1.00  0.00    -0.106 OA 
BRANCH  12  14
HETATM   14  O   UNL     1     -10.295   5.909  72.758  1.00  0.00    -0.184 OA 
BRANCH  14  15
HETATM   15  C   UNL     1     -10.143   4.733  72.004  1.00  0.00    -0.195 A  
HETATM   16  C   UNL     1      -9.791   4.766  70.654  1.00  0.00    -0.292 A  
HETATM   17  C   UNL     1      -9.532   3.571  69.983  1.00  0.00    -0.253 A  
HETATM   18  C   UNL     1      -9.609   2.356  70.664  1.00  0.00    -0.152 A  
HETATM   19  C   UNL     1      -9.941   2.332  72.021  1.00  0.00    -0.231 A  
HETATM   20  C   UNL     1     -10.204   3.525  72.697  1.00  0.00    -0.241 A  
ENDBRANCH  14  15
ENDBRANCH  12  14
ENDBRANCH   7  12
TORSDOF 3
ENDMDL
MODEL      168
REMARK 921   NORMALIZED FREE ENERGY PREDICTED BY IDOCK:   -3.93 KCAL/MOL
REMARK 922        TOTAL FREE ENERGY PREDICTED BY IDOCK:   -5.21 KCAL/MOL
REMARK 923 INTER-LIGAND FREE ENERGY PREDICTED BY IDOCK:   -4.68 KCAL/MOL
REMARK 924 INTRA-LIGAND FREE ENERGY PREDICTED BY IDOCK:   -0.53 KCAL/MOL
REMARK 927      BINDING AFFINITY PREDICTED BY RF-SCORE:    0.00 PKD
ROOT
HETATM    1  N   UNL     1      -9.908   4.457  69.518  1.00  0.00    -0.212 NA 
HETATM    2  H1  UNL     1     -10.581   3.755  69.827  1.00  0.00     0.000 HD 
HETATM    3  C   UNL     1     -10.156   5.816  69.743  1.00  0.00    -0.209 A  
HETATM    4  H2  UNL     1      -8.997   4.225  69.914  1.00  0.00     0.000 HD 
HETATM    5  C   UNL     1      -9.235   6.776  69.320  1.00  0.00    -0.141 A  
HETATM    6  C   UNL     1      -9.498   8.141  69.485  1.00  0.00    -0.156 A  
HETATM    7  C   UNL     1     -10.721   8.570  70.020  1.00  0.00    -0.234 A  
HETATM    8  O   UNL     1      -8.520   9.035  69.147  1.00  0.00    -0.123 OA 
HETATM    9  C   UNL     1     -11.405   6.241  70.195  1.00  0.00    -0.476 A  
HETATM   10  C   UNL     1     -11.681   7.604  70.355  1.00  0.00    -0.079 A  
HETATM   11  H   UNL     1      -8.699   9.961  69.259  1.00  0.00     0.000 HD 
ENDROOT
BRANCH   7  12
HETATM   12  C   UNL     1     -11.041   9.985  70.349  1.00  0.00    -0.327 C  
HETATM   13  O   UNL     1     -11.873  10.292  71.193  1.00  0.00    -0.353 OA 
BRANCH  12  14
HETATM   14  O   UNL     1     -10.288  10.859  69.586  1.00  0.00    -0.170 OA 
BRANCH  14  15
HETATM   15  C   UNL     1     -10.955  11.718  68.694  1.00  0.00    -0.224 A  
HETATM   16  C   UNL     1     -11.339  13.008  69.064  1.00  0.00    -0.340 A  
HETATM   17  C   UNL     1     -11.886  13.861  68.107  1.00  0.00    -0.407 A  
HETATM   18  C   UNL     1     -12.030  13.432  66.788  1.00  0.00    -0.447 A  
HETATM   19  C   UNL     1     -11.624  12.147  66.420  1.00  0.00    -0.429 A  
HETATM   20  C   UNL     1     -11.078  11.287  67.375  1.00  0.00    -0.358 A  
ENDBRANCH  14  15
ENDBRANCH  12  14
ENDBRANCH   7  12
TORSDOF 3
ENDMDL
MODEL      169
REMARK 921   NORMALIZED FREE ENERGY PREDICTED BY IDOCK:   -3.93 KCAL/MOL
REMARK 922        TOTAL FREE ENERGY PREDICTED BY IDOCK:   -5.21 KCAL/MOL
REMARK 923 INTER-LIGAND FREE ENERGY PREDICTED BY IDOCK:   -4.61 KCAL/MOL
REMARK 924 INTRA-LIGAND FREE ENERGY PREDICTED BY IDOCK:   -0.60 KCAL/MOL
REMARK 927      BINDING AFFINITY PREDICTED BY RF-SCORE:    0.00 PKD
ROOT
HETATM    1  N   UNL     1     -12.772  11.613  70.843  1.00  0.00    -0.300 NA 
HETATM    2  H1  UNL     1     -12.119  12.352  70.580  1.00  0.00     0.000 HD 
HETATM    3  C   UNL     1     -12.295  10.342  71.182  1.00  0.00    -0.400 A  
HETATM    4  H2  UNL     1     -13.352  11.955  71.609  1.00  0.00     0.000 HD 
HETATM    5  C   UNL     1     -13.189   9.331  71.542  1.00  0.00    -0.433 A  
HETATM    6  C   UNL     1     -12.732   8.039  71.826  1.00  0.00    -0.329 A  
HETATM    7  C   UNL     1     -11.373   7.720  71.690  1.00  0.00    -0.291 A  
HETATM    8  O   UNL     1     -13.635   7.115  72.273  1.00  0.00    -0.511 OA 
HETATM    9  C   UNL     1     -10.959  10.007  70.964  1.00  0.00    -0.267 A  
HETATM   10  C   UNL     1     -10.494   8.715  71.236  1.00  0.00    -0.311 A  
HETATM   11  H   UNL     1     -13.324   6.238  72.465  1.00  0.00     0.000 HD 
ENDROOT
BRANCH   7  12
HETATM   12  C   UNL     1     -10.775   6.417  72.088  1.00  0.00    -0.227 C  
HETATM   13  O   UNL     1      -9.959   6.318  72.995  1.00  0.00    -0.167 OA 
BRANCH  12  14
HETATM   14  O   UNL     1     -11.259   5.385  71.305  1.00  0.00    -0.082 OA 
BRANCH  14  15
HETATM   15  C   UNL     1     -10.606   5.097  70.093  1.00  0.00    -0.155 A  
HETATM   16  C   UNL     1     -10.702   5.943  68.988  1.00  0.00    -0.379 A  
HETATM   17  C   UNL     1      -9.938   5.677  67.852  1.00  0.00    -0.174 A  
HETATM   18  C   UNL     1      -9.071   4.585  67.833  1.00  0.00    -0.147 A  
HETATM   19  C   UNL     1      -8.964   3.754  68.951  1.00  0.00    -0.178 A  
HETATM   20  C   UNL     1      -9.730   4.014  70.090  1.00  0.00    -0.265 A  
ENDBRANCH  14  15
ENDBRANCH  12  14
ENDBRANCH   7  12
TORSDOF 3
ENDMDL
MODEL      170
REMARK 921   NORMALIZED FREE ENERGY PREDICTED BY IDOCK:   -3.92 KCAL/MOL
REMARK 922        TOTAL FREE ENERGY PREDICTED BY IDOCK:   -5.20 KCAL/MOL
REMARK 923 INTER-LIGAND FREE ENERGY PREDICTED BY IDOCK:   -4.59 KCAL/MOL
REMARK 924 INTRA-LIGAND FREE ENERGY PREDICTED BY IDOCK:   -0.61 KCAL/MOL
REMARK 927      BINDING AFFINITY PREDICTED BY RF-SCORE:    0.00 PKD
ROOT
HETATM    1  N   UNL     1     -10.541  18.137  65.653  1.00  0.00    -0.595 NA 
HETATM    2  H1  UNL     1     -11.152  18.638  65.007  1.00  0.00     0.000 HD 
HETATM    3  C   UNL     1     -10.418  16.746  65.567  1.00  0.00    -0.237 A  
HETATM    4  H2  UNL     1      -9.608  18.547  65.597  1.00  0.00     0.000 HD 
HETATM    5  C   UNL     1      -9.582  16.060  66.451  1.00  0.00    -0.309 A  
HETATM    6  C   UNL     1      -9.496  14.663  66.416  1.00  0.00    -0.299 A  
HETATM    7  C   UNL     1     -10.297  13.923  65.536  1.00  0.00    -0.347 A  
HETATM    8  O   UNL     1      -8.587  14.049  67.232  1.00  0.00    -0.197 OA 
HETATM    9  C   UNL     1     -11.278  16.009  64.752  1.00  0.00    -0.348 A  
HETATM   10  C   UNL     1     -11.205  14.612  64.717  1.00  0.00    -0.395 A  
HETATM   11  H   UNL     1      -8.528  13.101  67.208  1.00  0.00     0.000 HD 
ENDROOT
BRANCH   7  12
HETATM   12  C   UNL     1     -10.187  12.453  65.336  1.00  0.00    -0.278 C  
HETATM   13  O   UNL     1     -10.211  11.936  64.227  1.00  0.00    -0.276 OA 
BRANCH  12  14
HETATM   14  O   UNL     1     -10.061  11.792  66.545  1.00  0.00    -0.198 OA 
BRANCH  14  15
HETATM   15  C   UNL     1      -9.529  10.491  66.548  1.00  0.00    -0.166 A  
HETATM   16  C   UNL     1      -8.153  10.259  66.579  1.00  0.00    -0.121 A  
HETATM   17  C   UNL     1      -7.680   8.954  66.704  1.00  0.00    -0.100 A  
HETATM   18  C   UNL     1      -8.578   7.893  66.816  1.00  0.00    -0.133 A  
HETATM   19  C   UNL     1      -9.954   8.134  66.806  1.00  0.00    -0.349 A  
HETATM   20  C   UNL     1     -10.433   9.439  66.678  1.00  0.00    -0.238 A  
ENDBRANCH  14  15
ENDBRANCH  12  14
ENDBRANCH   7  12
TORSDOF 3
ENDMDL
MODEL      171
REMARK 921   NORMALIZED FREE ENERGY PREDICTED BY IDOCK:   -3.91 KCAL/MOL
REMARK 922        TOTAL FREE ENERGY PREDICTED BY IDOCK:   -5.19 KCAL/MOL
REMARK 923 INTER-LIGAND FREE ENERGY PREDICTED BY IDOCK:   -4.55 KCAL/MOL
REMARK 924 INTRA-LIGAND FREE ENERGY PREDICTED BY IDOCK:   -0.64 KCAL/MOL
REMARK 927      BINDING AFFINITY PREDICTED BY RF-SCORE:    0.00 PKD
ROOT
HETATM    1  N   UNL     1     -13.384  11.652  72.214  1.00  0.00    -0.546 NA 
HETATM    2  H1  UNL     1     -14.016  11.460  72.992  1.00  0.00     0.000 HD 
HETATM    3  C   UNL     1     -12.693  10.606  71.594  1.00  0.00    -0.426 A  
HETATM    4  H2  UNL     1     -13.902  12.165  71.499  1.00  0.00     0.000 HD 
HETATM    5  C   UNL     1     -11.829  10.870  70.529  1.00  0.00    -0.457 A  
HETATM    6  C   UNL     1     -11.085   9.841  69.939  1.00  0.00    -0.254 A  
HETATM    7  C   UNL     1     -11.146   8.537  70.450  1.00  0.00    -0.246 A  
HETATM    8  O   UNL     1     -10.334  10.135  68.835  1.00  0.00    -0.185 OA 
HETATM    9  C   UNL     1     -12.690   9.330  72.157  1.00  0.00    -0.465 A  
HETATM   10  C   UNL     1     -11.942   8.297  71.579  1.00  0.00    -0.335 A  
HETATM   11  H   UNL     1      -9.829   9.437  68.435  1.00  0.00     0.000 HD 
ENDROOT
BRANCH   7  12
HETATM   12  C   UNL     1     -10.495   7.358  69.817  1.00  0.00    -0.229 C  
HETATM   13  O   UNL     1      -9.608   6.721  70.370  1.00  0.00    -0.169 OA 
BRANCH  12  14
HETATM   14  O   UNL     1     -11.022   7.109  68.562  1.00  0.00    -0.138 OA 
BRANCH  14  15
HETATM   15  C   UNL     1     -10.172   6.599  67.566  1.00  0.00    -0.181 A  
HETATM   16  C   UNL     1     -10.259   5.276  67.131  1.00  0.00    -0.264 A  
HETATM   17  C   UNL     1      -9.478   4.854  66.056  1.00  0.00    -0.169 A  
HETATM   18  C   UNL     1      -8.631   5.755  65.411  1.00  0.00    -0.143 A  
HETATM   19  C   UNL     1      -8.564   7.084  65.838  1.00  0.00    -0.152 A  
HETATM   20  C   UNL     1      -9.342   7.511  66.916  1.00  0.00    -0.197 A  
ENDBRANCH  14  15
ENDBRANCH  12  14
ENDBRANCH   7  12
TORSDOF 3
ENDMDL
MODEL      172
REMARK 921   NORMALIZED FREE ENERGY PREDICTED BY IDOCK:   -3.91 KCAL/MOL
REMARK 922        TOTAL FREE ENERGY PREDICTED BY IDOCK:   -5.19 KCAL/MOL
REMARK 923 INTER-LIGAND FREE ENERGY PREDICTED BY IDOCK:   -4.53 KCAL/MOL
REMARK 924 INTRA-LIGAND FREE ENERGY PREDICTED BY IDOCK:   -0.66 KCAL/MOL
REMARK 927      BINDING AFFINITY PREDICTED BY RF-SCORE:    0.00 PKD
ROOT
HETATM    1  N   UNL     1      -8.850   9.407  65.036  1.00  0.00    -0.185 NA 
HETATM    2  H1  UNL     1      -8.983   8.713  64.300  1.00  0.00     0.000 HD 
HETATM    3  C   UNL     1      -9.290   9.144  66.338  1.00  0.00    -0.204 A  
HETATM    4  H2  UNL     1      -7.860   9.650  65.073  1.00  0.00     0.000 HD 
HETATM    5  C   UNL     1      -9.107  10.094  67.345  1.00  0.00    -0.149 A  
HETATM    6  C   UNL     1      -9.596   9.870  68.637  1.00  0.00    -0.156 A  
HETATM    7  C   UNL     1     -10.334   8.714  68.928  1.00  0.00    -0.228 A  
HETATM    8  O   UNL     1      -9.300  10.785  69.609  1.00  0.00    -0.408 OA 
HETATM    9  C   UNL     1     -10.096   8.037  66.602  1.00  0.00    -0.329 A  
HETATM   10  C   UNL     1     -10.596   7.809  67.889  1.00  0.00    -0.221 A  
HETATM   11  H   UNL     1      -9.632  10.632  70.487  1.00  0.00     0.000 HD 
ENDROOT
BRANCH   7  12
HETATM   12  C   UNL     1     -10.784   8.328  70.292  1.00  0.00    -0.235 C  
HETATM   13  O   UNL     1     -10.556   9.016  71.279  1.00  0.00    -0.254 OA 
BRANCH  12  14
HETATM   14  O   UNL     1     -11.464   7.124  70.272  1.00  0.00    -0.286 OA 
BRANCH  14  15
HETATM   15  C   UNL     1     -11.059   6.109  71.157  1.00  0.00    -0.298 A  
HETATM   16  C   UNL     1     -11.630   5.966  72.423  1.00  0.00    -0.341 A  
HETATM   17  C   UNL     1     -11.282   4.871  73.212  1.00  0.00    -0.423 A  
HETATM   18  C   UNL     1     -10.384   3.919  72.730  1.00  0.00    -0.237 A  
HETATM   19  C   UNL     1      -9.833   4.057  71.454  1.00  0.00    -0.249 A  
HETATM   20  C   UNL     1     -10.176   5.153  70.660  1.00  0.00    -0.326 A  
ENDBRANCH  14  15
ENDBRANCH  12  14
ENDBRANCH   7  12
TORSDOF 3
ENDMDL
MODEL      173
REMARK 921   NORMALIZED FREE ENERGY PREDICTED BY IDOCK:   -3.91 KCAL/MOL
REMARK 922        TOTAL FREE ENERGY PREDICTED BY IDOCK:   -5.19 KCAL/MOL
REMARK 923 INTER-LIGAND FREE ENERGY PREDICTED BY IDOCK:   -4.56 KCAL/MOL
REMARK 924 INTRA-LIGAND FREE ENERGY PREDICTED BY IDOCK:   -0.62 KCAL/MOL
REMARK 927      BINDING AFFINITY PREDICTED BY RF-SCORE:    0.00 PKD
ROOT
HETATM    1  N   UNL     1      -8.997   3.860  68.825  1.00  0.00    -0.109 NA 
HETATM    2  H1  UNL     1      -8.035   3.642  68.566  1.00  0.00     0.000 HD 
HETATM    3  C   UNL     1      -9.330   5.142  69.276  1.00  0.00    -0.123 A  
HETATM    4  H2  UNL     1      -9.603   3.628  68.038  1.00  0.00     0.000 HD 
HETATM    5  C   UNL     1     -10.647   5.441  69.630  1.00  0.00    -0.328 A  
HETATM    6  C   UNL     1     -10.983   6.701  70.139  1.00  0.00    -0.305 A  
HETATM    7  C   UNL     1      -9.990   7.665  70.363  1.00  0.00    -0.188 A  
HETATM    8  O   UNL     1     -12.301   6.975  70.374  1.00  0.00    -0.615 OA 
HETATM    9  C   UNL     1      -8.330   6.067  69.577  1.00  0.00    -0.115 A  
HETATM   10  C   UNL     1      -8.655   7.326  70.095  1.00  0.00    -0.140 A  
HETATM   11  H   UNL     1     -12.529   7.831  70.719  1.00  0.00     0.000 HD 
ENDROOT
BRANCH   7  12
HETATM   12  C   UNL     1     -10.262   9.068  70.779  1.00  0.00    -0.244 C  
HETATM   13  O   UNL     1      -9.496   9.702  71.492  1.00  0.00    -0.066 OA 
BRANCH  12  14
HETATM   14  O   UNL     1     -11.462   9.519  70.261  1.00  0.00    -0.251 OA 
BRANCH  14  15
HETATM   15  C   UNL     1     -11.466  10.713  69.519  1.00  0.00    -0.291 A  
HETATM   16  C   UNL     1     -11.084  10.746  68.177  1.00  0.00    -0.337 A  
HETATM   17  C   UNL     1     -11.223  11.929  67.453  1.00  0.00    -0.366 A  
HETATM   18  C   UNL     1     -11.757  13.064  68.063  1.00  0.00    -0.397 A  
HETATM   19  C   UNL     1     -12.158  13.018  69.401  1.00  0.00    -0.267 A  
HETATM   20  C   UNL     1     -12.018  11.836  70.131  1.00  0.00    -0.421 A  
ENDBRANCH  14  15
ENDBRANCH  12  14
ENDBRANCH   7  12
TORSDOF 3
ENDMDL
MODEL      174
REMARK 921   NORMALIZED FREE ENERGY PREDICTED BY IDOCK:   -3.90 KCAL/MOL
REMARK 922        TOTAL FREE ENERGY PREDICTED BY IDOCK:   -5.17 KCAL/MOL
REMARK 923 INTER-LIGAND FREE ENERGY PREDICTED BY IDOCK:   -4.42 KCAL/MOL
REMARK 924 INTRA-LIGAND FREE ENERGY PREDICTED BY IDOCK:   -0.75 KCAL/MOL
REMARK 927      BINDING AFFINITY PREDICTED BY RF-SCORE:    0.00 PKD
ROOT
HETATM    1  N   UNL     1     -10.239  18.209  66.385  1.00  0.00    -0.383 NA 
HETATM    2  H1  UNL     1      -9.943  18.556  65.473  1.00  0.00     0.000 HD 
HETATM    3  C   UNL     1     -10.467  16.842  66.578  1.00  0.00    -0.258 A  
HETATM    4  H2  UNL     1      -9.565  18.525  67.083  1.00  0.00     0.000 HD 
HETATM    5  C   UNL     1     -10.872  16.367  67.827  1.00  0.00    -0.306 A  
HETATM    6  C   UNL     1     -11.162  15.011  68.018  1.00  0.00    -0.316 A  
HETATM    7  C   UNL     1     -11.113  14.115  66.941  1.00  0.00    -0.312 A  
HETATM    8  O   UNL     1     -11.454  14.583  69.282  1.00  0.00    -0.256 OA 
HETATM    9  C   UNL     1     -10.501  15.971  65.488  1.00  0.00    -0.426 A  
HETATM   10  C   UNL     1     -10.798  14.615  65.668  1.00  0.00    -0.335 A  
HETATM   11  H   UNL     1     -11.650  13.662  69.411  1.00  0.00     0.000 HD 
ENDROOT
BRANCH   7  12
HETATM   12  C   UNL     1     -11.279  12.642  67.067  1.00  0.00    -0.300 C  
HETATM   13  O   UNL     1     -12.264  12.134  67.586  1.00  0.00    -0.462 OA 
BRANCH  12  14
HETATM   14  O   UNL     1     -10.194  11.969  66.535  1.00  0.00    -0.202 OA 
BRANCH  14  15
HETATM   15  C   UNL     1      -9.100  11.690  67.374  1.00  0.00    -0.169 A  
HETATM   16  C   UNL     1      -7.940  12.465  67.351  1.00  0.00    -0.178 A  
HETATM   17  C   UNL     1      -6.935  12.223  68.286  1.00  0.00    -0.082 A  
HETATM   18  C   UNL     1      -7.099  11.225  69.247  1.00  0.00    -0.112 A  
HETATM   19  C   UNL     1      -8.273  10.467  69.277  1.00  0.00    -0.163 A  
HETATM   20  C   UNL     1      -9.281  10.704  68.341  1.00  0.00    -0.159 A  
ENDBRANCH  14  15
ENDBRANCH  12  14
ENDBRANCH   7  12
TORSDOF 3
ENDMDL
MODEL      175
REMARK 921   NORMALIZED FREE ENERGY PREDICTED BY IDOCK:   -3.89 KCAL/MOL
REMARK 922        TOTAL FREE ENERGY PREDICTED BY IDOCK:   -5.17 KCAL/MOL
REMARK 923 INTER-LIGAND FREE ENERGY PREDICTED BY IDOCK:   -5.38 KCAL/MOL
REMARK 924 INTRA-LIGAND FREE ENERGY PREDICTED BY IDOCK:    0.22 KCAL/MOL
REMARK 927      BINDING AFFINITY PREDICTED BY RF-SCORE:    0.00 PKD
ROOT
HETATM    1  N   UNL     1     -12.023  14.325  71.748  1.00  0.00    -0.313 NA 
HETATM    2  H1  UNL     1     -11.830  15.291  72.015  1.00  0.00     0.000 HD 
HETATM    3  C   UNL     1     -11.955  13.940  70.405  1.00  0.00    -0.323 A  
HETATM    4  H2  UNL     1     -11.410  13.715  72.290  1.00  0.00     0.000 HD 
HETATM    5  C   UNL     1     -12.217  12.618  70.041  1.00  0.00    -0.267 A  
HETATM    6  C   UNL     1     -12.212  12.231  68.695  1.00  0.00     0.104 A  
HETATM    7  C   UNL     1     -12.007  13.180  67.684  1.00  0.00    -0.363 A  
HETATM    8  O   UNL     1     -12.373  10.906  68.400  1.00  0.00    -0.803 OA 
HETATM    9  C   UNL     1     -11.836  14.899  69.399  1.00  0.00    -0.356 A  
HETATM   10  C   UNL     1     -11.839  14.524  68.051  1.00  0.00    -0.350 A  
HETATM   11  H   UNL     1     -12.369  10.645  67.487  1.00  0.00     0.000 HD 
ENDROOT
BRANCH   7  12
HETATM   12  C   UNL     1     -11.859  12.849  66.241  1.00  0.00    -0.416 C  
HETATM   13  O   UNL     1     -12.814  12.790  65.479  1.00  0.00    -0.531 OA 
BRANCH  12  14
HETATM   14  O   UNL     1     -10.534  12.624  65.913  1.00  0.00    -0.264 OA 
BRANCH  14  15
HETATM   15  C   UNL     1      -9.551  13.454  66.481  1.00  0.00    -0.272 A  
HETATM   16  C   UNL     1      -8.560  12.949  67.324  1.00  0.00    -0.205 A  
HETATM   17  C   UNL     1      -7.538  13.791  67.762  1.00  0.00    -0.173 A  
HETATM   18  C   UNL     1      -7.501  15.121  67.345  1.00  0.00    -0.239 A  
HETATM   19  C   UNL     1      -8.485  15.614  66.484  1.00  0.00    -0.311 A  
HETATM   20  C   UNL     1      -9.511  14.777  66.045  1.00  0.00    -0.299 A  
ENDBRANCH  14  15
ENDBRANCH  12  14
ENDBRANCH   7  12
TORSDOF 3
ENDMDL
MODEL      176
REMARK 921   NORMALIZED FREE ENERGY PREDICTED BY IDOCK:   -3.87 KCAL/MOL
REMARK 922        TOTAL FREE ENERGY PREDICTED BY IDOCK:   -5.15 KCAL/MOL
REMARK 923 INTER-LIGAND FREE ENERGY PREDICTED BY IDOCK:   -4.64 KCAL/MOL
REMARK 924 INTRA-LIGAND FREE ENERGY PREDICTED BY IDOCK:   -0.50 KCAL/MOL
REMARK 927      BINDING AFFINITY PREDICTED BY RF-SCORE:    0.00 PKD
ROOT
HETATM    1  N   UNL     1      -7.417   2.378  64.607  1.00  0.00    -0.062 NA 
HETATM    2  H1  UNL     1      -6.410   2.313  64.758  1.00  0.00     0.000 HD 
HETATM    3  C   UNL     1      -8.149   3.420  65.187  1.00  0.00    -0.093 A  
HETATM    4  H2  UNL     1      -7.591   2.383  63.601  1.00  0.00     0.000 HD 
HETATM    5  C   UNL     1      -9.527   3.509  64.980  1.00  0.00    -0.159 A  
HETATM    6  C   UNL     1     -10.282   4.510  65.603  1.00  0.00    -0.253 A  
HETATM    7  C   UNL     1      -9.677   5.402  66.498  1.00  0.00    -0.179 A  
HETATM    8  O   UNL     1     -11.607   4.615  65.285  1.00  0.00    -1.093 OA 
HETATM    9  C   UNL     1      -7.562   4.250  66.142  1.00  0.00    -0.089 A  
HETATM   10  C   UNL     1      -8.310   5.248  66.776  1.00  0.00    -0.108 A  
HETATM   11  H   UNL     1     -12.119   5.295  65.708  1.00  0.00     0.000 HD 
ENDROOT
BRANCH   7  12
HETATM   12  C   UNL     1     -10.364   6.572  67.109  1.00  0.00    -0.247 C  
HETATM   13  O   UNL     1     -10.028   7.726  66.879  1.00  0.00    -0.213 OA 
BRANCH  12  14
HETATM   14  O   UNL     1     -11.392   6.169  67.942  1.00  0.00    -0.208 OA 
BRANCH  14  15
HETATM   15  C   UNL     1     -11.130   6.036  69.317  1.00  0.00    -0.354 A  
HETATM   16  C   UNL     1     -11.826   6.777  70.273  1.00  0.00    -0.359 A  
HETATM   17  C   UNL     1     -11.615   6.519  71.627  1.00  0.00    -0.357 A  
HETATM   18  C   UNL     1     -10.729   5.515  72.018  1.00  0.00    -0.293 A  
HETATM   19  C   UNL     1     -10.051   4.763  71.055  1.00  0.00    -0.269 A  
HETATM   20  C   UNL     1     -10.257   5.019  69.698  1.00  0.00    -0.306 A  
ENDBRANCH  14  15
ENDBRANCH  12  14
ENDBRANCH   7  12
TORSDOF 3
ENDMDL
MODEL      177
REMARK 921   NORMALIZED FREE ENERGY PREDICTED BY IDOCK:   -3.87 KCAL/MOL
REMARK 922        TOTAL FREE ENERGY PREDICTED BY IDOCK:   -5.14 KCAL/MOL
REMARK 923 INTER-LIGAND FREE ENERGY PREDICTED BY IDOCK:   -4.62 KCAL/MOL
REMARK 924 INTRA-LIGAND FREE ENERGY PREDICTED BY IDOCK:   -0.52 KCAL/MOL
REMARK 927      BINDING AFFINITY PREDICTED BY RF-SCORE:    0.00 PKD
ROOT
HETATM    1  N   UNL     1     -12.836  12.933  65.069  1.00  0.00    -0.798 NA 
HETATM    2  H1  UNL     1     -13.690  13.413  65.358  1.00  0.00     0.000 HD 
HETATM    3  C   UNL     1     -11.980  12.384  66.030  1.00  0.00    -0.350 A  
HETATM    4  H2  UNL     1     -13.089  12.200  64.406  1.00  0.00     0.000 HD 
HETATM    5  C   UNL     1     -10.812  11.727  65.635  1.00  0.00    -0.342 A  
HETATM    6  C   UNL     1      -9.916  11.226  66.586  1.00  0.00    -0.209 A  
HETATM    7  C   UNL     1     -10.143  11.431  67.954  1.00  0.00    -0.198 A  
HETATM    8  O   UNL     1      -8.843  10.502  66.147  1.00  0.00    -0.150 OA 
HETATM    9  C   UNL     1     -12.164  12.664  67.384  1.00  0.00     0.040 A  
HETATM   10  C   UNL     1     -11.269  12.174  68.342  1.00  0.00    -0.314 A  
HETATM   11  H   UNL     1      -8.235  10.162  66.794  1.00  0.00     0.000 HD 
ENDROOT
BRANCH   7  12
HETATM   12  C   UNL     1      -9.321  10.832  69.040  1.00  0.00    -0.156 C  
HETATM   13  O   UNL     1      -8.108  10.981  69.104  1.00  0.00    -0.135 OA 
BRANCH  12  14
HETATM   14  O   UNL     1     -10.106  10.110  69.921  1.00  0.00    -0.244 OA 
BRANCH  14  15
HETATM   15  C   UNL     1     -10.484   8.803  69.569  1.00  0.00    -0.220 A  
HETATM   16  C   UNL     1      -9.990   8.179  68.422  1.00  0.00    -0.210 A  
HETATM   17  C   UNL     1     -10.299   6.841  68.183  1.00  0.00    -0.219 A  
HETATM   18  C   UNL     1     -11.080   6.130  69.093  1.00  0.00    -0.448 A  
HETATM   19  C   UNL     1     -11.553   6.755  70.250  1.00  0.00    -0.417 A  
HETATM   20  C   UNL     1     -11.249   8.095  70.493  1.00  0.00    -0.249 A  
ENDBRANCH  14  15
ENDBRANCH  12  14
ENDBRANCH   7  12
TORSDOF 3
ENDMDL
MODEL      178
REMARK 921   NORMALIZED FREE ENERGY PREDICTED BY IDOCK:   -3.86 KCAL/MOL
REMARK 922        TOTAL FREE ENERGY PREDICTED BY IDOCK:   -5.13 KCAL/MOL
REMARK 923 INTER-LIGAND FREE ENERGY PREDICTED BY IDOCK:   -4.56 KCAL/MOL
REMARK 924 INTRA-LIGAND FREE ENERGY PREDICTED BY IDOCK:   -0.57 KCAL/MOL
REMARK 927      BINDING AFFINITY PREDICTED BY RF-SCORE:    0.00 PKD
ROOT
HETATM    1  N   UNL     1     -12.892  11.782  63.191  1.00  0.00    -0.879 NA 
HETATM    2  H1  UNL     1     -12.727  11.934  62.195  1.00  0.00     0.000 HD 
HETATM    3  C   UNL     1     -12.248  12.583  64.140  1.00  0.00    -0.467 A  
HETATM    4  H2  UNL     1     -13.897  11.826  63.360  1.00  0.00     0.000 HD 
HETATM    5  C   UNL     1     -12.473  12.374  65.502  1.00  0.00    -0.086 A  
HETATM    6  C   UNL     1     -11.790  13.127  66.465  1.00  0.00    -0.400 A  
HETATM    7  C   UNL     1     -10.819  14.061  66.078  1.00  0.00    -0.295 A  
HETATM    8  O   UNL     1     -12.124  12.955  67.779  1.00  0.00    -0.312 OA 
HETATM    9  C   UNL     1     -11.222  13.447  63.757  1.00  0.00    -0.133 A  
HETATM   10  C   UNL     1     -10.528  14.198  64.713  1.00  0.00    -0.432 A  
HETATM   11  H   UNL     1     -11.660  13.466  68.432  1.00  0.00     0.000 HD 
ENDROOT
BRANCH   7  12
HETATM   12  C   UNL     1     -10.134  14.993  67.013  1.00  0.00    -0.244 C  
HETATM   13  O   UNL     1      -9.849  16.143  66.704  1.00  0.00    -0.230 OA 
BRANCH  12  14
HETATM   14  O   UNL     1      -9.878  14.385  68.229  1.00  0.00    -0.216 OA 
BRANCH  14  15
HETATM   15  C   UNL     1      -8.550  14.335  68.689  1.00  0.00    -0.149 A  
HETATM   16  C   UNL     1      -7.974  15.398  69.386  1.00  0.00    -0.234 A  
HETATM   17  C   UNL     1      -6.697  15.251  69.927  1.00  0.00    -0.149 A  
HETATM   18  C   UNL     1      -6.013  14.044  69.787  1.00  0.00    -0.122 A  
HETATM   19  C   UNL     1      -6.604  12.977  69.106  1.00  0.00    -0.104 A  
HETATM   20  C   UNL     1      -7.881  13.120  68.560  1.00  0.00    -0.105 A  
ENDBRANCH  14  15
ENDBRANCH  12  14
ENDBRANCH   7  12
TORSDOF 3
ENDMDL
MODEL      179
REMARK 921   NORMALIZED FREE ENERGY PREDICTED BY IDOCK:   -3.86 KCAL/MOL
REMARK 922        TOTAL FREE ENERGY PREDICTED BY IDOCK:   -5.13 KCAL/MOL
REMARK 923 INTER-LIGAND FREE ENERGY PREDICTED BY IDOCK:   -4.45 KCAL/MOL
REMARK 924 INTRA-LIGAND FREE ENERGY PREDICTED BY IDOCK:   -0.68 KCAL/MOL
REMARK 927      BINDING AFFINITY PREDICTED BY RF-SCORE:    0.00 PKD
ROOT
HETATM    1  N   UNL     1      -6.548  10.292  70.638  1.00  0.00    -0.310 NA 
HETATM    2  H1  UNL     1      -5.924  10.375  71.441  1.00  0.00     0.000 HD 
HETATM    3  C   UNL     1      -7.529   9.294  70.610  1.00  0.00    -0.136 A  
HETATM    4  H2  UNL     1      -7.002  11.194  70.490  1.00  0.00     0.000 HD 
HETATM    5  C   UNL     1      -8.383   9.181  69.512  1.00  0.00    -0.126 A  
HETATM    6  C   UNL     1      -9.329   8.151  69.443  1.00  0.00    -0.155 A  
HETATM    7  C   UNL     1      -9.390   7.175  70.447  1.00  0.00    -0.159 A  
HETATM    8  O   UNL     1     -10.208   8.147  68.397  1.00  0.00    -0.199 OA 
HETATM    9  C   UNL     1      -7.530   8.278  71.565  1.00  0.00    -0.097 A  
HETATM   10  C   UNL     1      -8.465   7.238  71.500  1.00  0.00    -0.113 A  
HETATM   11  H   UNL     1     -10.849   7.448  68.350  1.00  0.00     0.000 HD 
ENDROOT
BRANCH   7  12
HETATM   12  C   UNL     1     -10.436   6.120  70.527  1.00  0.00    -0.234 C  
HETATM   13  O   UNL     1     -10.667   5.351  69.603  1.00  0.00    -0.308 OA 
BRANCH  12  14
HETATM   14  O   UNL     1     -11.079   6.146  71.752  1.00  0.00    -0.253 OA 
BRANCH  14  15
HETATM   15  C   UNL     1     -12.082   7.108  71.963  1.00  0.00    -0.292 A  
HETATM   16  C   UNL     1     -11.786   8.384  72.445  1.00  0.00    -0.452 A  
HETATM   17  C   UNL     1     -12.798   9.340  72.520  1.00  0.00    -0.351 A  
HETATM   18  C   UNL     1     -14.090   9.026  72.099  1.00  0.00    -0.461 A  
HETATM   19  C   UNL     1     -14.374   7.753  71.598  1.00  0.00    -0.607 A  
HETATM   20  C   UNL     1     -13.365   6.791  71.523  1.00  0.00    -0.195 A  
ENDBRANCH  14  15
ENDBRANCH  12  14
ENDBRANCH   7  12
TORSDOF 3
ENDMDL
MODEL      180
REMARK 921   NORMALIZED FREE ENERGY PREDICTED BY IDOCK:   -3.85 KCAL/MOL
REMARK 922        TOTAL FREE ENERGY PREDICTED BY IDOCK:   -5.12 KCAL/MOL
REMARK 923 INTER-LIGAND FREE ENERGY PREDICTED BY IDOCK:   -4.84 KCAL/MOL
REMARK 924 INTRA-LIGAND FREE ENERGY PREDICTED BY IDOCK:   -0.28 KCAL/MOL
REMARK 927      BINDING AFFINITY PREDICTED BY RF-SCORE:    0.00 PKD
ROOT
HETATM    1  N   UNL     1      -8.765   5.372  72.264  1.00  0.00    -0.129 NA 
HETATM    2  H1  UNL     1      -9.251   5.019  73.088  1.00  0.00     0.000 HD 
HETATM    3  C   UNL     1      -9.183   6.561  71.656  1.00  0.00    -0.143 A  
HETATM    4  H2  UNL     1      -7.773   5.457  72.489  1.00  0.00     0.000 HD 
HETATM    5  C   UNL     1      -8.516   7.044  70.528  1.00  0.00    -0.133 A  
HETATM    6  C   UNL     1      -8.961   8.199  69.874  1.00  0.00    -0.143 A  
HETATM    7  C   UNL     1     -10.124   8.855  70.301  1.00  0.00    -0.218 A  
HETATM    8  O   UNL     1      -8.213   8.687  68.839  1.00  0.00    -0.119 OA 
HETATM    9  C   UNL     1     -10.386   7.161  72.030  1.00  0.00    -0.214 A  
HETATM   10  C   UNL     1     -10.843   8.311  71.376  1.00  0.00    -0.293 A  
HETATM   11  H   UNL     1      -8.515   9.470  68.395  1.00  0.00     0.000 HD 
ENDROOT
BRANCH   7  12
HETATM   12  C   UNL     1     -10.603  10.153  69.754  1.00  0.00    -0.260 C  
HETATM   13  O   UNL     1      -9.885  10.895  69.097  1.00  0.00    -0.205 OA 
BRANCH  12  14
HETATM   14  O   UNL     1     -11.925  10.380  70.092  1.00  0.00    -0.270 OA 
BRANCH  14  15
HETATM   15  C   UNL     1     -12.278  11.635  70.618  1.00  0.00    -0.366 A  
HETATM   16  C   UNL     1     -11.922  12.825  69.982  1.00  0.00    -0.371 A  
HETATM   17  C   UNL     1     -12.400  14.038  70.478  1.00  0.00    -0.437 A  
HETATM   18  C   UNL     1     -13.242  14.055  71.589  1.00  0.00    -0.442 A  
HETATM   19  C   UNL     1     -13.612  12.858  72.208  1.00  0.00    -0.611 A  
HETATM   20  C   UNL     1     -13.134  11.642  71.718  1.00  0.00    -0.487 A  
ENDBRANCH  14  15
ENDBRANCH  12  14
ENDBRANCH   7  12
TORSDOF 3
ENDMDL
MODEL      181
REMARK 921   NORMALIZED FREE ENERGY PREDICTED BY IDOCK:   -3.84 KCAL/MOL
REMARK 922        TOTAL FREE ENERGY PREDICTED BY IDOCK:   -5.11 KCAL/MOL
REMARK 923 INTER-LIGAND FREE ENERGY PREDICTED BY IDOCK:   -4.46 KCAL/MOL
REMARK 924 INTRA-LIGAND FREE ENERGY PREDICTED BY IDOCK:   -0.65 KCAL/MOL
REMARK 927      BINDING AFFINITY PREDICTED BY RF-SCORE:    0.00 PKD
ROOT
HETATM    1  N   UNL     1      -6.443  12.752  69.794  1.00  0.00    -0.320 NA 
HETATM    2  H1  UNL     1      -6.915  12.863  70.692  1.00  0.00     0.000 HD 
HETATM    3  C   UNL     1      -7.051  12.022  68.766  1.00  0.00    -0.111 A  
HETATM    4  H2  UNL     1      -6.210  13.679  69.437  1.00  0.00     0.000 HD 
HETATM    5  C   UNL     1      -6.405  11.870  67.538  1.00  0.00    -0.105 A  
HETATM    6  C   UNL     1      -6.973  11.092  66.522  1.00  0.00    -0.126 A  
HETATM    7  C   UNL     1      -8.171  10.399  66.743  1.00  0.00    -0.126 A  
HETATM    8  O   UNL     1      -6.351  11.060  65.305  1.00  0.00    -0.368 OA 
HETATM    9  C   UNL     1      -8.196  11.266  69.018  1.00  0.00    -0.026 A  
HETATM   10  C   UNL     1      -8.766  10.479  68.011  1.00  0.00    -0.128 A  
HETATM   11  H   UNL     1      -6.737  10.532  64.616  1.00  0.00     0.000 HD 
ENDROOT
BRANCH   7  12
HETATM   12  C   UNL     1      -8.914   9.653  65.692  1.00  0.00    -0.169 C  
HETATM   13  O   UNL     1      -8.354   8.934  64.875  1.00  0.00    -0.154 OA 
BRANCH  12  14
HETATM   14  O   UNL     1     -10.274   9.892  65.776  1.00  0.00    -0.265 OA 
BRANCH  14  15
HETATM   15  C   UNL     1     -10.773  11.113  65.287  1.00  0.00    -0.203 A  
HETATM   16  C   UNL     1     -10.796  11.404  63.923  1.00  0.00    -0.463 A  
HETATM   17  C   UNL     1     -11.412  12.574  63.481  1.00  0.00    -0.570 A  
HETATM   18  C   UNL     1     -12.016  13.435  64.398  1.00  0.00    -0.460 A  
HETATM   19  C   UNL     1     -12.008  13.127  65.760  1.00  0.00    -0.473 A  
HETATM   20  C   UNL     1     -11.390  11.958  66.208  1.00  0.00    -0.394 A  
ENDBRANCH  14  15
ENDBRANCH  12  14
ENDBRANCH   7  12
TORSDOF 3
ENDMDL
MODEL      182
REMARK 921   NORMALIZED FREE ENERGY PREDICTED BY IDOCK:   -3.84 KCAL/MOL
REMARK 922        TOTAL FREE ENERGY PREDICTED BY IDOCK:   -5.11 KCAL/MOL
REMARK 923 INTER-LIGAND FREE ENERGY PREDICTED BY IDOCK:   -4.46 KCAL/MOL
REMARK 924 INTRA-LIGAND FREE ENERGY PREDICTED BY IDOCK:   -0.65 KCAL/MOL
REMARK 927      BINDING AFFINITY PREDICTED BY RF-SCORE:    0.00 PKD
ROOT
HETATM    1  N   UNL     1      -8.607   5.435  72.588  1.00  0.00    -0.121 NA 
HETATM    2  H1  UNL     1      -7.613   5.316  72.788  1.00  0.00     0.000 HD 
HETATM    3  C   UNL     1      -9.019   5.949  71.354  1.00  0.00    -0.140 A  
HETATM    4  H2  UNL     1      -9.074   4.539  72.736  1.00  0.00     0.000 HD 
HETATM    5  C   UNL     1     -10.379   6.112  71.081  1.00  0.00    -0.257 A  
HETATM    6  C   UNL     1     -10.804   6.682  69.875  1.00  0.00    -0.278 A  
HETATM    7  C   UNL     1      -9.868   7.159  68.946  1.00  0.00    -0.156 A  
HETATM    8  O   UNL     1     -12.145   6.723  69.614  1.00  0.00    -0.635 OA 
HETATM    9  C   UNL     1      -8.089   6.500  70.472  1.00  0.00    -0.117 A  
HETATM   10  C   UNL     1      -8.505   7.080  69.267  1.00  0.00    -0.133 A  
HETATM   11  H   UNL     1     -12.433   7.110  68.796  1.00  0.00     0.000 HD 
ENDROOT
BRANCH   7  12
HETATM   12  C   UNL     1     -10.216   7.662  67.589  1.00  0.00    -0.214 C  
HETATM   13  O   UNL     1     -11.186   7.253  66.966  1.00  0.00    -0.221 OA 
BRANCH  12  14
HETATM   14  O   UNL     1      -9.310   8.617  67.163  1.00  0.00    -0.142 OA 
BRANCH  14  15
HETATM   15  C   UNL     1      -9.801   9.775  66.535  1.00  0.00    -0.225 A  
HETATM   16  C   UNL     1      -9.689   9.968  65.157  1.00  0.00    -0.380 A  
HETATM   17  C   UNL     1     -10.300  11.074  64.568  1.00  0.00    -0.420 A  
HETATM   18  C   UNL     1     -11.032  11.967  65.350  1.00  0.00    -0.347 A  
HETATM   19  C   UNL     1     -11.158  11.756  66.725  1.00  0.00    -0.360 A  
HETATM   20  C   UNL     1     -10.546  10.652  67.321  1.00  0.00    -0.313 A  
ENDBRANCH  14  15
ENDBRANCH  12  14
ENDBRANCH   7  12
TORSDOF 3
ENDMDL
MODEL      183
REMARK 921   NORMALIZED FREE ENERGY PREDICTED BY IDOCK:   -3.83 KCAL/MOL
REMARK 922        TOTAL FREE ENERGY PREDICTED BY IDOCK:   -5.09 KCAL/MOL
REMARK 923 INTER-LIGAND FREE ENERGY PREDICTED BY IDOCK:   -4.37 KCAL/MOL
REMARK 924 INTRA-LIGAND FREE ENERGY PREDICTED BY IDOCK:   -0.72 KCAL/MOL
REMARK 927      BINDING AFFINITY PREDICTED BY RF-SCORE:    0.00 PKD
ROOT
HETATM    1  N   UNL     1     -11.231   4.488  65.088  1.00  0.00    -1.047 NA 
HETATM    2  H1  UNL     1     -12.090   4.903  64.729  1.00  0.00     0.000 HD 
HETATM    3  C   UNL     1     -10.612   5.023  66.224  1.00  0.00    -0.276 A  
HETATM    4  H2  UNL     1     -11.398   3.494  65.251  1.00  0.00     0.000 HD 
HETATM    5  C   UNL     1      -9.436   4.453  66.715  1.00  0.00    -0.194 A  
HETATM    6  C   UNL     1      -8.774   5.015  67.814  1.00  0.00    -0.103 A  
HETATM    7  C   UNL     1      -9.245   6.198  68.399  1.00  0.00    -0.111 A  
HETATM    8  O   UNL     1      -7.685   4.359  68.318  1.00  0.00    -0.074 OA 
HETATM    9  C   UNL     1     -11.034   6.244  66.748  1.00  0.00    -0.328 A  
HETATM   10  C   UNL     1     -10.373   6.818  67.841  1.00  0.00    -0.236 A  
HETATM   11  H   UNL     1      -7.236   4.741  69.064  1.00  0.00     0.000 HD 
ENDROOT
BRANCH   7  12
HETATM   12  C   UNL     1      -8.687   6.799  69.641  1.00  0.00    -0.137 C  
HETATM   13  O   UNL     1      -7.484   6.874  69.851  1.00  0.00    -0.089 OA 
BRANCH  12  14
HETATM   14  O   UNL     1      -9.695   7.234  70.482  1.00  0.00    -0.176 OA 
BRANCH  14  15
HETATM   15  C   UNL     1      -9.821   6.632  71.746  1.00  0.00    -0.161 A  
HETATM   16  C   UNL     1      -9.616   7.349  72.926  1.00  0.00    -0.224 A  
HETATM   17  C   UNL     1      -9.873   6.740  74.153  1.00  0.00    -0.352 A  
HETATM   18  C   UNL     1     -10.350   5.430  74.197  1.00  0.00    -0.307 A  
HETATM   19  C   UNL     1     -10.573   4.725  73.011  1.00  0.00    -0.279 A  
HETATM   20  C   UNL     1     -10.315   5.330  71.780  1.00  0.00    -0.277 A  
ENDBRANCH  14  15
ENDBRANCH  12  14
ENDBRANCH   7  12
TORSDOF 3
ENDMDL
MODEL      184
REMARK 921   NORMALIZED FREE ENERGY PREDICTED BY IDOCK:   -3.83 KCAL/MOL
REMARK 922        TOTAL FREE ENERGY PREDICTED BY IDOCK:   -5.09 KCAL/MOL
REMARK 923 INTER-LIGAND FREE ENERGY PREDICTED BY IDOCK:   -4.78 KCAL/MOL
REMARK 924 INTRA-LIGAND FREE ENERGY PREDICTED BY IDOCK:   -0.31 KCAL/MOL
REMARK 927      BINDING AFFINITY PREDICTED BY RF-SCORE:    0.00 PKD
ROOT
HETATM    1  N   UNL     1      -9.202   8.637  65.014  1.00  0.00    -0.417 NA 
HETATM    2  H1  UNL     1      -9.968   8.954  64.419  1.00  0.00     0.000 HD 
HETATM    3  C   UNL     1      -9.316   8.712  66.407  1.00  0.00    -0.211 A  
HETATM    4  H2  UNL     1      -8.975   7.675  64.761  1.00  0.00     0.000 HD 
HETATM    5  C   UNL     1      -8.268   8.278  67.221  1.00  0.00    -0.120 A  
HETATM    6  C   UNL     1      -8.344   8.403  68.613  1.00  0.00    -0.120 A  
HETATM    7  C   UNL     1      -9.448   9.026  69.211  1.00  0.00    -0.157 A  
HETATM    8  O   UNL     1      -7.336   7.869  69.367  1.00  0.00    -0.077 OA 
HETATM    9  C   UNL     1     -10.374   9.408  66.992  1.00  0.00    -0.322 A  
HETATM   10  C   UNL     1     -10.454   9.545  68.383  1.00  0.00    -0.261 A  
HETATM   11  H   UNL     1      -7.388   7.954  70.312  1.00  0.00     0.000 HD 
ENDROOT
BRANCH   7  12
HETATM   12  C   UNL     1      -9.678   9.092  70.680  1.00  0.00    -0.256 C  
HETATM   13  O   UNL     1      -8.905   8.597  71.490  1.00  0.00    -0.182 OA 
BRANCH  12  14
HETATM   14  O   UNL     1     -10.850   9.767  70.972  1.00  0.00    -0.326 OA 
BRANCH  14  15
HETATM   15  C   UNL     1     -11.970   9.021  71.379  1.00  0.00    -0.332 A  
HETATM   16  C   UNL     1     -13.240   9.593  71.474  1.00  0.00    -0.484 A  
HETATM   17  C   UNL     1     -14.337   8.783  71.762  1.00  0.00    -0.414 A  
HETATM   18  C   UNL     1     -14.167   7.410  71.935  1.00  0.00    -0.474 A  
HETATM   19  C   UNL     1     -12.896   6.840  71.817  1.00  0.00    -0.307 A  
HETATM   20  C   UNL     1     -11.793   7.647  71.531  1.00  0.00    -0.323 A  
ENDBRANCH  14  15
ENDBRANCH  12  14
ENDBRANCH   7  12
TORSDOF 3
ENDMDL
MODEL      185
REMARK 921   NORMALIZED FREE ENERGY PREDICTED BY IDOCK:   -3.81 KCAL/MOL
REMARK 922        TOTAL FREE ENERGY PREDICTED BY IDOCK:   -5.07 KCAL/MOL
REMARK 923 INTER-LIGAND FREE ENERGY PREDICTED BY IDOCK:   -4.68 KCAL/MOL
REMARK 924 INTRA-LIGAND FREE ENERGY PREDICTED BY IDOCK:   -0.39 KCAL/MOL
REMARK 927      BINDING AFFINITY PREDICTED BY RF-SCORE:    0.00 PKD
ROOT
HETATM    1  N   UNL     1      -8.653   6.235  70.826  1.00  0.00    -0.134 NA 
HETATM    2  H1  UNL     1      -8.191   5.448  70.371  1.00  0.00     0.000 HD 
HETATM    3  C   UNL     1      -8.980   7.379  70.089  1.00  0.00    -0.148 A  
HETATM    4  H2  UNL     1      -9.500   5.892  71.280  1.00  0.00     0.000 HD 
HETATM    5  C   UNL     1      -9.613   8.457  70.712  1.00  0.00    -0.203 A  
HETATM    6  C   UNL     1      -9.892   9.631  70.002  1.00  0.00    -0.246 A  
HETATM    7  C   UNL     1      -9.481   9.770  68.669  1.00  0.00    -0.151 A  
HETATM    8  O   UNL     1     -10.604  10.615  70.630  1.00  0.00    -0.303 OA 
HETATM    9  C   UNL     1      -8.495   7.547  68.792  1.00  0.00    -0.129 A  
HETATM   10  C   UNL     1      -8.761   8.721  68.077  1.00  0.00    -0.141 A  
HETATM   11  H   UNL     1     -10.792  11.411  70.147  1.00  0.00     0.000 HD 
ENDROOT
BRANCH   7  12
HETATM   12  C   UNL     1      -9.839  10.921  67.797  1.00  0.00    -0.175 C  
HETATM   13  O   UNL     1      -9.273  12.004  67.873  1.00  0.00    -0.176 OA 
BRANCH  12  14
HETATM   14  O   UNL     1     -10.866  10.593  66.931  1.00  0.00    -0.255 OA 
BRANCH  14  15
HETATM   15  C   UNL     1     -11.132  11.449  65.848  1.00  0.00    -0.162 A  
HETATM   16  C   UNL     1     -10.652  11.183  64.565  1.00  0.00    -0.397 A  
HETATM   17  C   UNL     1     -11.046  11.996  63.503  1.00  0.00    -0.519 A  
HETATM   18  C   UNL     1     -11.926  13.055  63.723  1.00  0.00    -0.585 A  
HETATM   19  C   UNL     1     -12.419  13.304  65.007  1.00  0.00    -0.498 A  
HETATM   20  C   UNL     1     -12.026  12.494  66.074  1.00  0.00    -0.456 A  
ENDBRANCH  14  15
ENDBRANCH  12  14
ENDBRANCH   7  12
TORSDOF 3
ENDMDL
MODEL      186
REMARK 921   NORMALIZED FREE ENERGY PREDICTED BY IDOCK:   -3.80 KCAL/MOL
REMARK 922        TOTAL FREE ENERGY PREDICTED BY IDOCK:   -5.06 KCAL/MOL
REMARK 923 INTER-LIGAND FREE ENERGY PREDICTED BY IDOCK:   -4.35 KCAL/MOL
REMARK 924 INTRA-LIGAND FREE ENERGY PREDICTED BY IDOCK:   -0.70 KCAL/MOL
REMARK 927      BINDING AFFINITY PREDICTED BY RF-SCORE:    0.00 PKD
ROOT
HETATM    1  N   UNL     1      -9.447   4.107  66.505  1.00  0.00    -0.175 NA 
HETATM    2  H1  UNL     1      -9.612   4.415  65.547  1.00  0.00     0.000 HD 
HETATM    3  C   UNL     1     -10.000   4.816  67.577  1.00  0.00    -0.144 A  
HETATM    4  H2  UNL     1      -9.734   3.131  66.582  1.00  0.00     0.000 HD 
HETATM    5  C   UNL     1      -9.774   4.394  68.888  1.00  0.00    -0.211 A  
HETATM    6  C   UNL     1     -10.271   5.127  69.972  1.00  0.00    -0.284 A  
HETATM    7  C   UNL     1     -10.949   6.336  69.762  1.00  0.00    -0.444 A  
HETATM    8  O   UNL     1     -10.110   4.615  71.229  1.00  0.00    -0.194 OA 
HETATM    9  C   UNL     1     -10.598   6.059  67.368  1.00  0.00    -0.355 A  
HETATM   10  C   UNL     1     -11.090   6.804  68.447  1.00  0.00    -0.214 A  
HETATM   11  H   UNL     1     -10.447   5.114  71.965  1.00  0.00     0.000 HD 
ENDROOT
BRANCH   7  12
HETATM   12  C   UNL     1     -11.620   7.118  70.834  1.00  0.00    -0.311 C  
HETATM   13  O   UNL     1     -12.664   6.754  71.359  1.00  0.00    -0.346 OA 
BRANCH  12  14
HETATM   14  O   UNL     1     -10.914   8.271  71.129  1.00  0.00    -0.234 OA 
BRANCH  14  15
HETATM   15  C   UNL     1      -9.863   8.194  72.060  1.00  0.00    -0.232 A  
HETATM   16  C   UNL     1     -10.021   7.572  73.299  1.00  0.00    -0.368 A  
HETATM   17  C   UNL     1      -8.916   7.414  74.133  1.00  0.00    -0.270 A  
HETATM   18  C   UNL     1      -7.660   7.859  73.722  1.00  0.00    -0.197 A  
HETATM   19  C   UNL     1      -7.504   8.463  72.471  1.00  0.00    -0.122 A  
HETATM   20  C   UNL     1      -8.608   8.625  71.632  1.00  0.00    -0.254 A  
ENDBRANCH  14  15
ENDBRANCH  12  14
ENDBRANCH   7  12
TORSDOF 3
ENDMDL
MODEL      187
REMARK 921   NORMALIZED FREE ENERGY PREDICTED BY IDOCK:   -3.75 KCAL/MOL
REMARK 922        TOTAL FREE ENERGY PREDICTED BY IDOCK:   -5.00 KCAL/MOL
REMARK 923 INTER-LIGAND FREE ENERGY PREDICTED BY IDOCK:   -4.30 KCAL/MOL
REMARK 924 INTRA-LIGAND FREE ENERGY PREDICTED BY IDOCK:   -0.70 KCAL/MOL
REMARK 927      BINDING AFFINITY PREDICTED BY RF-SCORE:    0.00 PKD
ROOT
HETATM    1  N   UNL     1     -10.826  19.596  65.542  1.00  0.00    -0.368 NA 
HETATM    2  H1  UNL     1     -11.147  19.596  64.574  1.00  0.00     0.000 HD 
HETATM    3  C   UNL     1     -10.337  18.420  66.122  1.00  0.00    -0.407 A  
HETATM    4  H2  UNL     1     -10.118  20.324  65.645  1.00  0.00     0.000 HD 
HETATM    5  C   UNL     1      -9.897  18.421  67.447  1.00  0.00    -0.323 A  
HETATM    6  C   UNL     1      -9.462  17.239  68.058  1.00  0.00    -0.271 A  
HETATM    7  C   UNL     1      -9.523  16.020  67.370  1.00  0.00    -0.220 A  
HETATM    8  O   UNL     1      -8.945  17.315  69.321  1.00  0.00    -0.042 OA 
HETATM    9  C   UNL     1     -10.479  17.197  65.466  1.00  0.00    -0.158 A  
HETATM   10  C   UNL     1     -10.056  16.009  66.072  1.00  0.00    -0.362 A  
HETATM   11  H   UNL     1      -8.651  16.512  69.735  1.00  0.00     0.000 HD 
ENDROOT
BRANCH   7  12
HETATM   12  C   UNL     1      -8.971  14.738  67.885  1.00  0.00    -0.172 C  
HETATM   13  O   UNL     1      -8.250  14.683  68.873  1.00  0.00    -0.156 OA 
BRANCH  12  14
HETATM   14  O   UNL     1      -9.377  13.669  67.107  1.00  0.00    -0.222 OA 
BRANCH  14  15
HETATM   15  C   UNL     1     -10.015  12.585  67.735  1.00  0.00    -0.210 A  
HETATM   16  C   UNL     1      -9.322  11.424  68.080  1.00  0.00    -0.181 A  
HETATM   17  C   UNL     1      -9.971  10.430  68.811  1.00  0.00    -0.196 A  
HETATM   18  C   UNL     1     -11.297  10.606  69.208  1.00  0.00    -0.346 A  
HETATM   19  C   UNL     1     -11.978  11.780  68.877  1.00  0.00    -0.332 A  
HETATM   20  C   UNL     1     -11.333  12.778  68.143  1.00  0.00    -0.329 A  
ENDBRANCH  14  15
ENDBRANCH  12  14
ENDBRANCH   7  12
TORSDOF 3
ENDMDL
MODEL      188
REMARK 921   NORMALIZED FREE ENERGY PREDICTED BY IDOCK:   -3.73 KCAL/MOL
REMARK 922        TOTAL FREE ENERGY PREDICTED BY IDOCK:   -4.98 KCAL/MOL
REMARK 923 INTER-LIGAND FREE ENERGY PREDICTED BY IDOCK:   -4.30 KCAL/MOL
REMARK 924 INTRA-LIGAND FREE ENERGY PREDICTED BY IDOCK:   -0.69 KCAL/MOL
REMARK 927      BINDING AFFINITY PREDICTED BY RF-SCORE:    0.00 PKD
ROOT
HETATM    1  N   UNL     1      -8.739   5.644  68.839  1.00  0.00    -0.107 NA 
HETATM    2  H1  UNL     1      -8.069   5.188  68.219  1.00  0.00     0.000 HD 
HETATM    3  C   UNL     1      -9.314   6.866  68.474  1.00  0.00    -0.134 A  
HETATM    4  H2  UNL     1      -9.489   4.983  69.043  1.00  0.00     0.000 HD 
HETATM    5  C   UNL     1     -10.232   7.490  69.322  1.00  0.00    -0.201 A  
HETATM    6  C   UNL     1     -10.770   8.741  68.998  1.00  0.00    -0.112 A  
HETATM    7  C   UNL     1     -10.347   9.420  67.847  1.00  0.00    -0.276 A  
HETATM    8  O   UNL     1     -11.740   9.259  69.810  1.00  0.00    -0.445 OA 
HETATM    9  C   UNL     1      -8.829   7.576  67.376  1.00  0.00    -0.127 A  
HETATM   10  C   UNL     1      -9.355   8.832  67.049  1.00  0.00    -0.200 A  
HETATM   11  H   UNL     1     -12.104  10.109  69.590  1.00  0.00     0.000 HD 
ENDROOT
BRANCH   7  12
HETATM   12  C   UNL     1     -10.948  10.689  67.354  1.00  0.00    -0.298 C  
HETATM   13  O   UNL     1     -11.995  11.138  67.802  1.00  0.00    -0.630 OA 
BRANCH  12  14
HETATM   14  O   UNL     1     -10.176  11.252  66.354  1.00  0.00    -0.216 OA 
BRANCH  14  15
HETATM   15  C   UNL     1      -9.687  12.558  66.538  1.00  0.00    -0.246 A  
HETATM   16  C   UNL     1      -8.519  12.810  67.258  1.00  0.00    -0.194 A  
HETATM   17  C   UNL     1      -8.010  14.108  67.307  1.00  0.00    -0.171 A  
HETATM   18  C   UNL     1      -8.657  15.138  66.625  1.00  0.00    -0.279 A  
HETATM   19  C   UNL     1      -9.815  14.874  65.889  1.00  0.00    -0.362 A  
HETATM   20  C   UNL     1     -10.330  13.578  65.838  1.00  0.00    -0.301 A  
ENDBRANCH  14  15
ENDBRANCH  12  14
ENDBRANCH   7  12
TORSDOF 3
ENDMDL
MODEL      189
REMARK 921   NORMALIZED FREE ENERGY PREDICTED BY IDOCK:   -3.73 KCAL/MOL
REMARK 922        TOTAL FREE ENERGY PREDICTED BY IDOCK:   -4.98 KCAL/MOL
REMARK 923 INTER-LIGAND FREE ENERGY PREDICTED BY IDOCK:   -4.69 KCAL/MOL
REMARK 924 INTRA-LIGAND FREE ENERGY PREDICTED BY IDOCK:   -0.29 KCAL/MOL
REMARK 927      BINDING AFFINITY PREDICTED BY RF-SCORE:    0.00 PKD
ROOT
HETATM    1  N   UNL     1     -12.706  15.889  73.223  1.00  0.00    -0.486 NA 
HETATM    2  H1  UNL     1     -12.423  16.837  73.472  1.00  0.00     0.000 HD 
HETATM    3  C   UNL     1     -12.247  15.307  72.036  1.00  0.00    -0.367 A  
HETATM    4  H2  UNL     1     -12.470  15.269  73.998  1.00  0.00     0.000 HD 
HETATM    5  C   UNL     1     -12.634  14.009  71.696  1.00  0.00    -0.403 A  
HETATM    6  C   UNL     1     -12.231  13.437  70.483  1.00  0.00    -0.352 A  
HETATM    7  C   UNL     1     -11.485  14.181  69.559  1.00  0.00    -0.334 A  
HETATM    8  O   UNL     1     -12.552  12.129  70.246  1.00  0.00    -0.109 OA 
HETATM    9  C   UNL     1     -11.579  16.077  71.084  1.00  0.00    -0.492 A  
HETATM   10  C   UNL     1     -11.180  15.516  69.865  1.00  0.00    -0.322 A  
HETATM   11  H   UNL     1     -12.278  11.741  69.423  1.00  0.00     0.000 HD 
ENDROOT
BRANCH   7  12
HETATM   12  C   UNL     1     -10.905  13.624  68.307  1.00  0.00    -0.251 C  
HETATM   13  O   UNL     1     -11.337  13.911  67.199  1.00  0.00    -0.302 OA 
BRANCH  12  14
HETATM   14  O   UNL     1      -9.854  12.767  68.581  1.00  0.00    -0.173 OA 
BRANCH  14  15
HETATM   15  C   UNL     1      -9.876  11.477  68.021  1.00  0.00    -0.188 A  
HETATM   16  C   UNL     1     -11.051  10.910  67.529  1.00  0.00    -0.375 A  
HETATM   17  C   UNL     1     -10.997   9.680  66.873  1.00  0.00     0.028 A  
HETATM   18  C   UNL     1      -9.773   9.036  66.697  1.00  0.00    -0.295 A  
HETATM   19  C   UNL     1      -8.597   9.620  67.174  1.00  0.00    -0.133 A  
HETATM   20  C   UNL     1      -8.646  10.849  67.833  1.00  0.00    -0.130 A  
ENDBRANCH  14  15
ENDBRANCH  12  14
ENDBRANCH   7  12
TORSDOF 3
ENDMDL
MODEL      190
REMARK 921   NORMALIZED FREE ENERGY PREDICTED BY IDOCK:   -3.72 KCAL/MOL
REMARK 922        TOTAL FREE ENERGY PREDICTED BY IDOCK:   -4.97 KCAL/MOL
REMARK 923 INTER-LIGAND FREE ENERGY PREDICTED BY IDOCK:   -4.62 KCAL/MOL
REMARK 924 INTRA-LIGAND FREE ENERGY PREDICTED BY IDOCK:   -0.35 KCAL/MOL
REMARK 927      BINDING AFFINITY PREDICTED BY RF-SCORE:    0.00 PKD
ROOT
HETATM    1  N   UNL     1     -13.558  13.127  71.456  1.00  0.00    -0.140 NA 
HETATM    2  H1  UNL     1     -14.288  13.156  72.168  1.00  0.00     0.000 HD 
HETATM    3  C   UNL     1     -12.892  11.927  71.180  1.00  0.00    -0.249 A  
HETATM    4  H2  UNL     1     -13.945  13.489  70.584  1.00  0.00     0.000 HD 
HETATM    5  C   UNL     1     -11.894  11.888  70.204  1.00  0.00    -0.390 A  
HETATM    6  C   UNL     1     -11.178  10.709  69.960  1.00  0.00    -0.309 A  
HETATM    7  C   UNL     1     -11.408   9.565  70.736  1.00  0.00    -0.387 A  
HETATM    8  O   UNL     1     -10.285  10.696  68.926  1.00  0.00    -0.182 OA 
HETATM    9  C   UNL     1     -13.062  10.818  72.008  1.00  0.00    -0.476 A  
HETATM   10  C   UNL     1     -12.345   9.639  71.777  1.00  0.00    -0.474 A  
HETATM   11  H   UNL     1      -9.799   9.896  68.760  1.00  0.00     0.000 HD 
ENDROOT
BRANCH   7  12
HETATM   12  C   UNL     1     -10.793   8.236  70.472  1.00  0.00    -0.232 C  
HETATM   13  O   UNL     1     -11.043   7.584  69.467  1.00  0.00    -0.174 OA 
BRANCH  12  14
HETATM   14  O   UNL     1      -9.936   7.869  71.495  1.00  0.00    -0.169 OA 
BRANCH  14  15
HETATM   15  C   UNL     1     -10.338   6.847  72.373  1.00  0.00    -0.202 A  
HETATM   16  C   UNL     1     -11.422   6.017  72.087  1.00  0.00    -0.356 A  
HETATM   17  C   UNL     1     -11.704   4.941  72.929  1.00  0.00    -0.172 A  
HETATM   18  C   UNL     1     -10.894   4.690  74.036  1.00  0.00    -0.328 A  
HETATM   19  C   UNL     1      -9.797   5.513  74.304  1.00  0.00    -0.209 A  
HETATM   20  C   UNL     1      -9.513   6.593  73.466  1.00  0.00    -0.175 A  
ENDBRANCH  14  15
ENDBRANCH  12  14
ENDBRANCH   7  12
TORSDOF 3
ENDMDL
MODEL      191
REMARK 921   NORMALIZED FREE ENERGY PREDICTED BY IDOCK:   -3.70 KCAL/MOL
REMARK 922        TOTAL FREE ENERGY PREDICTED BY IDOCK:   -4.94 KCAL/MOL
REMARK 923 INTER-LIGAND FREE ENERGY PREDICTED BY IDOCK:   -4.54 KCAL/MOL
REMARK 924 INTRA-LIGAND FREE ENERGY PREDICTED BY IDOCK:   -0.41 KCAL/MOL
REMARK 927      BINDING AFFINITY PREDICTED BY RF-SCORE:    0.00 PKD
ROOT
HETATM    1  N   UNL     1     -10.309  18.028  66.556  1.00  0.00    -0.376 NA 
HETATM    2  H1  UNL     1      -9.756  18.112  65.703  1.00  0.00     0.000 HD 
HETATM    3  C   UNL     1     -10.513  16.773  67.141  1.00  0.00    -0.299 A  
HETATM    4  H2  UNL     1      -9.910  18.650  67.260  1.00  0.00     0.000 HD 
HETATM    5  C   UNL     1     -11.270  16.659  68.308  1.00  0.00    -0.220 A  
HETATM    6  C   UNL     1     -11.533  15.404  68.871  1.00  0.00    -0.342 A  
HETATM    7  C   UNL     1     -11.096  14.234  68.234  1.00  0.00    -0.276 A  
HETATM    8  O   UNL     1     -12.191  15.355  70.068  1.00  0.00    -0.345 OA 
HETATM    9  C   UNL     1     -10.152  15.610  66.461  1.00  0.00    -0.293 A  
HETATM   10  C   UNL     1     -10.418  14.350  67.011  1.00  0.00    -0.268 A  
HETATM   11  H   UNL     1     -12.369  14.503  70.450  1.00  0.00     0.000 HD 
ENDROOT
BRANCH   7  12
HETATM   12  C   UNL     1     -11.216  12.869  68.815  1.00  0.00    -0.279 C  
HETATM   13  O   UNL     1     -12.271  12.431  69.252  1.00  0.00    -0.195 OA 
BRANCH  12  14
HETATM   14  O   UNL     1     -10.002  12.206  68.787  1.00  0.00    -0.165 OA 
BRANCH  14  15
HETATM   15  C   UNL     1      -9.880  11.062  67.979  1.00  0.00    -0.171 A  
HETATM   16  C   UNL     1     -10.530   9.868  68.291  1.00  0.00    -0.246 A  
HETATM   17  C   UNL     1     -10.476   8.802  67.394  1.00  0.00    -0.349 A  
HETATM   18  C   UNL     1      -9.793   8.940  66.186  1.00  0.00    -0.326 A  
HETATM   19  C   UNL     1      -9.162  10.146  65.869  1.00  0.00    -0.203 A  
HETATM   20  C   UNL     1      -9.211  11.215  66.766  1.00  0.00    -0.183 A  
ENDBRANCH  14  15
ENDBRANCH  12  14
ENDBRANCH   7  12
TORSDOF 3
ENDMDL
MODEL      192
REMARK 921   NORMALIZED FREE ENERGY PREDICTED BY IDOCK:   -3.69 KCAL/MOL
REMARK 922        TOTAL FREE ENERGY PREDICTED BY IDOCK:   -4.93 KCAL/MOL
REMARK 923 INTER-LIGAND FREE ENERGY PREDICTED BY IDOCK:   -4.19 KCAL/MOL
REMARK 924 INTRA-LIGAND FREE ENERGY PREDICTED BY IDOCK:   -0.73 KCAL/MOL
REMARK 927      BINDING AFFINITY PREDICTED BY RF-SCORE:    0.00 PKD
ROOT
HETATM    1  N   UNL     1     -11.681   5.639  73.190  1.00  0.00    -0.506 NA 
HETATM    2  H1  UNL     1     -11.690   5.810  74.196  1.00  0.00     0.000 HD 
HETATM    3  C   UNL     1     -11.485   6.700  72.299  1.00  0.00    -0.283 A  
HETATM    4  H2  UNL     1     -10.985   4.920  72.993  1.00  0.00     0.000 HD 
HETATM    5  C   UNL     1     -11.472   6.466  70.922  1.00  0.00    -0.406 A  
HETATM    6  C   UNL     1     -11.337   7.526  70.018  1.00  0.00    -0.096 A  
HETATM    7  C   UNL     1     -11.278   8.849  70.477  1.00  0.00    -0.287 A  
HETATM    8  O   UNL     1     -11.227   7.232  68.687  1.00  0.00    -0.451 OA 
HETATM    9  C   UNL     1     -11.513   8.019  72.753  1.00  0.00    -0.420 A  
HETATM   10  C   UNL     1     -11.387   9.085  71.855  1.00  0.00    -0.438 A  
HETATM   11  H   UNL     1     -11.136   7.952  68.073  1.00  0.00     0.000 HD 
ENDROOT
BRANCH   7  12
HETATM   12  C   UNL     1     -11.010  10.027  69.607  1.00  0.00    -0.264 C  
HETATM   13  O   UNL     1     -11.843  10.473  68.829  1.00  0.00    -0.277 OA 
BRANCH  12  14
HETATM   14  O   UNL     1      -9.729  10.512  69.804  1.00  0.00    -0.139 OA 
BRANCH  14  15
HETATM   15  C   UNL     1      -8.641   9.719  69.402  1.00  0.00    -0.165 A  
HETATM   16  C   UNL     1      -7.686   9.264  70.312  1.00  0.00    -0.133 A  
HETATM   17  C   UNL     1      -6.697   8.380  69.884  1.00  0.00    -0.042 A  
HETATM   18  C   UNL     1      -6.676   7.941  68.561  1.00  0.00    -0.062 A  
HETATM   19  C   UNL     1      -7.648   8.384  67.659  1.00  0.00    -0.098 A  
HETATM   20  C   UNL     1      -8.639   9.271  68.082  1.00  0.00    -0.125 A  
ENDBRANCH  14  15
ENDBRANCH  12  14
ENDBRANCH   7  12
TORSDOF 3
ENDMDL
MODEL      193
REMARK 921   NORMALIZED FREE ENERGY PREDICTED BY IDOCK:   -3.68 KCAL/MOL
REMARK 922        TOTAL FREE ENERGY PREDICTED BY IDOCK:   -4.92 KCAL/MOL
REMARK 923 INTER-LIGAND FREE ENERGY PREDICTED BY IDOCK:   -4.56 KCAL/MOL
REMARK 924 INTRA-LIGAND FREE ENERGY PREDICTED BY IDOCK:   -0.35 KCAL/MOL
REMARK 927      BINDING AFFINITY PREDICTED BY RF-SCORE:    0.00 PKD
ROOT
HETATM    1  N   UNL     1     -11.989  15.915  68.914  1.00  0.00    -0.496 NA 
HETATM    2  H1  UNL     1     -11.504  16.411  69.662  1.00  0.00     0.000 HD 
HETATM    3  C   UNL     1     -11.480  14.705  68.429  1.00  0.00    -0.311 A  
HETATM    4  H2  UNL     1     -12.956  15.765  69.203  1.00  0.00     0.000 HD 
HETATM    5  C   UNL     1     -12.144  14.025  67.406  1.00  0.00    -0.384 A  
HETATM    6  C   UNL     1     -11.615  12.845  66.870  1.00  0.00    -0.368 A  
HETATM    7  C   UNL     1     -10.374  12.360  67.305  1.00  0.00    -0.227 A  
HETATM    8  O   UNL     1     -12.355  12.165  65.943  1.00  0.00    -0.561 OA 
HETATM    9  C   UNL     1     -10.207  14.273  68.803  1.00  0.00    -0.226 A  
HETATM   10  C   UNL     1      -9.666  13.099  68.265  1.00  0.00    -0.223 A  
HETATM   11  H   UNL     1     -11.995  11.364  65.579  1.00  0.00     0.000 HD 
ENDROOT
BRANCH   7  12
HETATM   12  C   UNL     1      -9.791  11.056  66.890  1.00  0.00    -0.191 C  
HETATM   13  O   UNL     1      -9.106  10.933  65.883  1.00  0.00    -0.180 OA 
BRANCH  12  14
HETATM   14  O   UNL     1     -10.131  10.050  67.777  1.00  0.00    -0.166 OA 
BRANCH  14  15
HETATM   15  C   UNL     1      -9.690   8.742  67.510  1.00  0.00    -0.167 A  
HETATM   16  C   UNL     1      -8.405   8.317  67.848  1.00  0.00    -0.128 A  
HETATM   17  C   UNL     1      -8.058   6.977  67.675  1.00  0.00    -0.114 A  
HETATM   18  C   UNL     1      -8.997   6.070  67.186  1.00  0.00    -0.114 A  
HETATM   19  C   UNL     1     -10.289   6.498  66.870  1.00  0.00    -0.311 A  
HETATM   20  C   UNL     1     -10.640   7.839  67.039  1.00  0.00    -0.396 A  
ENDBRANCH  14  15
ENDBRANCH  12  14
ENDBRANCH   7  12
TORSDOF 3
ENDMDL
MODEL      194
REMARK 921   NORMALIZED FREE ENERGY PREDICTED BY IDOCK:   -3.68 KCAL/MOL
REMARK 922        TOTAL FREE ENERGY PREDICTED BY IDOCK:   -4.92 KCAL/MOL
REMARK 923 INTER-LIGAND FREE ENERGY PREDICTED BY IDOCK:   -4.59 KCAL/MOL
REMARK 924 INTRA-LIGAND FREE ENERGY PREDICTED BY IDOCK:   -0.33 KCAL/MOL
REMARK 927      BINDING AFFINITY PREDICTED BY RF-SCORE:    0.00 PKD
ROOT
HETATM    1  N   UNL     1      -5.883  12.942  70.177  1.00  0.00    -0.149 NA 
HETATM    2  H1  UNL     1      -5.601  11.965  70.087  1.00  0.00     0.000 HD 
HETATM    3  C   UNL     1      -6.880  13.465  69.346  1.00  0.00     0.005 A  
HETATM    4  H2  UNL     1      -6.150  13.110  71.147  1.00  0.00     0.000 HD 
HETATM    5  C   UNL     1      -7.266  14.801  69.470  1.00  0.00    -0.160 A  
HETATM    6  C   UNL     1      -8.219  15.354  68.606  1.00  0.00    -0.158 A  
HETATM    7  C   UNL     1      -8.755  14.592  67.558  1.00  0.00    -0.195 A  
HETATM    8  O   UNL     1      -8.636  16.635  68.835  1.00  0.00    -0.247 OA 
HETATM    9  C   UNL     1      -7.346  12.732  68.255  1.00  0.00    -0.117 A  
HETATM   10  C   UNL     1      -8.293  13.279  67.380  1.00  0.00    -0.193 A  
HETATM   11  H   UNL     1      -9.282  17.010  68.248  1.00  0.00     0.000 HD 
ENDROOT
BRANCH   7  12
HETATM   12  C   UNL     1      -9.859  15.047  66.671  1.00  0.00    -0.254 C  
HETATM   13  O   UNL     1     -10.772  15.757  67.070  1.00  0.00    -0.315 OA 
BRANCH  12  14
HETATM   14  O   UNL     1      -9.701  14.561  65.386  1.00  0.00    -0.285 OA 
BRANCH  14  15
HETATM   15  C   UNL     1     -10.634  13.628  64.901  1.00  0.00    -0.408 A  
HETATM   16  C   UNL     1     -11.995  13.732  65.190  1.00  0.00    -0.393 A  
HETATM   17  C   UNL     1     -12.894  12.854  64.585  1.00  0.00    -0.323 A  
HETATM   18  C   UNL     1     -12.434  11.893  63.685  1.00  0.00    -0.583 A  
HETATM   19  C   UNL     1     -11.072  11.809  63.383  1.00  0.00    -0.448 A  
HETATM   20  C   UNL     1     -10.168  12.684  63.988  1.00  0.00    -0.363 A  
ENDBRANCH  14  15
ENDBRANCH  12  14
ENDBRANCH   7  12
TORSDOF 3
ENDMDL
MODEL      195
REMARK 921   NORMALIZED FREE ENERGY PREDICTED BY IDOCK:   -3.67 KCAL/MOL
REMARK 922        TOTAL FREE ENERGY PREDICTED BY IDOCK:   -4.90 KCAL/MOL
REMARK 923 INTER-LIGAND FREE ENERGY PREDICTED BY IDOCK:   -4.40 KCAL/MOL
REMARK 924 INTRA-LIGAND FREE ENERGY PREDICTED BY IDOCK:   -0.50 KCAL/MOL
REMARK 927      BINDING AFFINITY PREDICTED BY RF-SCORE:    0.00 PKD
ROOT
HETATM    1  N   UNL     1     -10.729   5.696  70.246  1.00  0.00    -0.302 NA 
HETATM    2  H1  UNL     1     -10.851   5.660  71.258  1.00  0.00     0.000 HD 
HETATM    3  C   UNL     1     -10.622   6.931  69.595  1.00  0.00    -0.231 A  
HETATM    4  H2  UNL     1      -9.916   5.131  70.000  1.00  0.00     0.000 HD 
HETATM    5  C   UNL     1     -10.455   6.980  68.209  1.00  0.00    -0.237 A  
HETATM    6  C   UNL     1     -10.407   8.208  67.538  1.00  0.00    -0.261 A  
HETATM    7  C   UNL     1     -10.591   9.408  68.237  1.00  0.00    -0.256 A  
HETATM    8  O   UNL     1     -10.138   8.203  66.197  1.00  0.00    -0.475 OA 
HETATM    9  C   UNL     1     -10.892   8.116  70.278  1.00  0.00    -0.244 A  
HETATM   10  C   UNL     1     -10.855   9.347  69.614  1.00  0.00    -0.245 A  
HETATM   11  H   UNL     1     -10.106   9.036  65.742  1.00  0.00     0.000 HD 
ENDROOT
BRANCH   7  12
HETATM   12  C   UNL     1     -10.433  10.760  67.637  1.00  0.00    -0.214 C  
HETATM   13  O   UNL     1     -10.132  10.927  66.463  1.00  0.00    -0.207 OA 
BRANCH  12  14
HETATM   14  O   UNL     1     -10.665  11.753  68.573  1.00  0.00    -0.202 OA 
BRANCH  14  15
HETATM   15  C   UNL     1     -10.667  13.092  68.144  1.00  0.00    -0.242 A  
HETATM   16  C   UNL     1      -9.483  13.787  67.897  1.00  0.00    -0.214 A  
HETATM   17  C   UNL     1      -9.541  15.071  67.356  1.00  0.00    -0.205 A  
HETATM   18  C   UNL     1     -10.775  15.645  67.050  1.00  0.00    -0.314 A  
HETATM   19  C   UNL     1     -11.956  14.935  67.281  1.00  0.00    -0.149 A  
HETATM   20  C   UNL     1     -11.903  13.650  67.824  1.00  0.00    -0.403 A  
ENDBRANCH  14  15
ENDBRANCH  12  14
ENDBRANCH   7  12
TORSDOF 3
ENDMDL
MODEL      196
REMARK 921   NORMALIZED FREE ENERGY PREDICTED BY IDOCK:   -3.66 KCAL/MOL
REMARK 922        TOTAL FREE ENERGY PREDICTED BY IDOCK:   -4.89 KCAL/MOL
REMARK 923 INTER-LIGAND FREE ENERGY PREDICTED BY IDOCK:   -4.31 KCAL/MOL
REMARK 924 INTRA-LIGAND FREE ENERGY PREDICTED BY IDOCK:   -0.58 KCAL/MOL
REMARK 927      BINDING AFFINITY PREDICTED BY RF-SCORE:    0.00 PKD
ROOT
HETATM    1  N   UNL     1      -9.054  11.015  67.679  1.00  0.00    -0.144 NA 
HETATM    2  H1  UNL     1      -9.705  11.244  66.929  1.00  0.00     0.000 HD 
HETATM    3  C   UNL     1      -9.495  10.303  68.800  1.00  0.00    -0.176 A  
HETATM    4  H2  UNL     1      -8.259  10.518  67.275  1.00  0.00     0.000 HD 
HETATM    5  C   UNL     1      -8.603   9.989  69.828  1.00  0.00    -0.192 A  
HETATM    6  C   UNL     1      -9.044   9.330  70.982  1.00  0.00    -0.183 A  
HETATM    7  C   UNL     1     -10.402   9.032  71.155  1.00  0.00    -0.362 A  
HETATM    8  O   UNL     1      -8.112   8.955  71.909  1.00  0.00    -0.338 OA 
HETATM    9  C   UNL     1     -10.857  10.086  69.008  1.00  0.00    -0.253 A  
HETATM   10  C   UNL     1     -11.308   9.436  70.163  1.00  0.00    -0.220 A  
HETATM   11  H   UNL     1      -8.412   8.508  72.692  1.00  0.00     0.000 HD 
ENDROOT
BRANCH   7  12
HETATM   12  C   UNL     1     -10.947   8.227  72.282  1.00  0.00    -0.348 C  
HETATM   13  O   UNL     1     -12.099   8.345  72.677  1.00  0.00    -0.390 OA 
BRANCH  12  14
HETATM   14  O   UNL     1      -9.989   7.368  72.791  1.00  0.00    -0.183 OA 
BRANCH  14  15
HETATM   15  C   UNL     1     -10.194   5.983  72.662  1.00  0.00    -0.183 A  
HETATM   16  C   UNL     1      -9.775   5.280  71.532  1.00  0.00    -0.215 A  
HETATM   17  C   UNL     1      -9.891   3.890  71.507  1.00  0.00    -0.247 A  
HETATM   18  C   UNL     1     -10.403   3.211  72.612  1.00  0.00    -0.212 A  
HETATM   19  C   UNL     1     -10.801   3.920  73.749  1.00  0.00    -0.326 A  
HETATM   20  C   UNL     1     -10.690   5.311  73.778  1.00  0.00    -0.343 A  
ENDBRANCH  14  15
ENDBRANCH  12  14
ENDBRANCH   7  12
TORSDOF 3
ENDMDL
MODEL      197
REMARK 921   NORMALIZED FREE ENERGY PREDICTED BY IDOCK:   -3.65 KCAL/MOL
REMARK 922        TOTAL FREE ENERGY PREDICTED BY IDOCK:   -4.88 KCAL/MOL
REMARK 923 INTER-LIGAND FREE ENERGY PREDICTED BY IDOCK:   -4.34 KCAL/MOL
REMARK 924 INTRA-LIGAND FREE ENERGY PREDICTED BY IDOCK:   -0.54 KCAL/MOL
REMARK 927      BINDING AFFINITY PREDICTED BY RF-SCORE:    0.00 PKD
ROOT
HETATM    1  N   UNL     1      -9.115   5.623  66.627  1.00  0.00    -0.125 NA 
HETATM    2  H1  UNL     1      -9.914   5.024  66.417  1.00  0.00     0.000 HD 
HETATM    3  C   UNL     1      -9.315   6.959  66.994  1.00  0.00    -0.145 A  
HETATM    4  H2  UNL     1      -8.556   5.171  67.351  1.00  0.00     0.000 HD 
HETATM    5  C   UNL     1      -8.222   7.778  67.282  1.00  0.00    -0.119 A  
HETATM    6  C   UNL     1      -8.404   9.131  67.592  1.00  0.00    -0.116 A  
HETATM    7  C   UNL     1      -9.683   9.704  67.555  1.00  0.00    -0.195 A  
HETATM    8  O   UNL     1      -7.311   9.863  67.966  1.00  0.00    -0.083 OA 
HETATM    9  C   UNL     1     -10.576   7.544  66.873  1.00  0.00    -0.367 A  
HETATM   10  C   UNL     1     -10.765   8.898  67.172  1.00  0.00    -0.203 A  
HETATM   11  H   UNL     1      -7.435  10.781  68.176  1.00  0.00     0.000 HD 
ENDROOT
BRANCH   7  12
HETATM   12  C   UNL     1      -9.992  11.093  67.988  1.00  0.00    -0.176 C  
HETATM   13  O   UNL     1      -9.130  11.955  68.098  1.00  0.00    -0.178 OA 
BRANCH  12  14
HETATM   14  O   UNL     1     -11.344  11.249  68.239  1.00  0.00    -0.239 OA 
BRANCH  14  15
HETATM   15  C   UNL     1     -11.737  12.073  69.309  1.00  0.00    -0.330 A  
HETATM   16  C   UNL     1     -11.821  13.459  69.176  1.00  0.00    -0.383 A  
HETATM   17  C   UNL     1     -12.334  14.219  70.227  1.00  0.00    -0.418 A  
HETATM   18  C   UNL     1     -12.775  13.592  71.392  1.00  0.00    -0.437 A  
HETATM   19  C   UNL     1     -12.707  12.202  71.510  1.00  0.00    -0.348 A  
HETATM   20  C   UNL     1     -12.193  11.437  70.462  1.00  0.00    -0.478 A  
ENDBRANCH  14  15
ENDBRANCH  12  14
ENDBRANCH   7  12
TORSDOF 3
ENDMDL
MODEL      198
REMARK 921   NORMALIZED FREE ENERGY PREDICTED BY IDOCK:   -3.64 KCAL/MOL
REMARK 922        TOTAL FREE ENERGY PREDICTED BY IDOCK:   -4.88 KCAL/MOL
REMARK 923 INTER-LIGAND FREE ENERGY PREDICTED BY IDOCK:   -4.45 KCAL/MOL
REMARK 924 INTRA-LIGAND FREE ENERGY PREDICTED BY IDOCK:   -0.43 KCAL/MOL
REMARK 927      BINDING AFFINITY PREDICTED BY RF-SCORE:    0.00 PKD
ROOT
HETATM    1  N   UNL     1     -12.018  12.639  66.313  1.00  0.00    -0.531 NA 
HETATM    2  H1  UNL     1     -13.030  12.728  66.407  1.00  0.00     0.000 HD 
HETATM    3  C   UNL     1     -11.297  11.832  67.200  1.00  0.00    -0.322 A  
HETATM    4  H2  UNL     1     -11.810  12.337  65.360  1.00  0.00     0.000 HD 
HETATM    5  C   UNL     1      -9.913  11.710  67.070  1.00  0.00    -0.226 A  
HETATM    6  C   UNL     1      -9.171  10.955  67.987  1.00  0.00    -0.156 A  
HETATM    7  C   UNL     1      -9.799  10.360  69.090  1.00  0.00    -0.237 A  
HETATM    8  O   UNL     1      -7.835  10.784  67.755  1.00  0.00    -0.106 OA 
HETATM    9  C   UNL     1     -11.910  11.314  68.341  1.00  0.00    -0.331 A  
HETATM   10  C   UNL     1     -11.176  10.565  69.268  1.00  0.00    -0.320 A  
HETATM   11  H   UNL     1      -7.333  10.271  68.378  1.00  0.00     0.000 HD 
ENDROOT
BRANCH   7  12
HETATM   12  C   UNL     1      -9.123   9.440  70.043  1.00  0.00    -0.220 C  
HETATM   13  O   UNL     1      -8.316   9.832  70.876  1.00  0.00    -0.210 OA 
BRANCH  12  14
HETATM   14  O   UNL     1      -9.528   8.131  69.848  1.00  0.00    -0.159 OA 
BRANCH  14  15
HETATM   15  C   UNL     1      -9.954   7.386  70.961  1.00  0.00    -0.183 A  
HETATM   16  C   UNL     1     -10.594   7.987  72.046  1.00  0.00    -0.310 A  
HETATM   17  C   UNL     1     -11.106   7.189  73.068  1.00  0.00    -0.323 A  
HETATM   18  C   UNL     1     -10.995   5.801  72.994  1.00  0.00    -0.314 A  
HETATM   19  C   UNL     1     -10.372   5.205  71.895  1.00  0.00    -0.275 A  
HETATM   20  C   UNL     1      -9.855   6.000  70.870  1.00  0.00    -0.222 A  
ENDBRANCH  14  15
ENDBRANCH  12  14
ENDBRANCH   7  12
TORSDOF 3
ENDMDL
MODEL      199
REMARK 921   NORMALIZED FREE ENERGY PREDICTED BY IDOCK:   -3.60 KCAL/MOL
REMARK 922        TOTAL FREE ENERGY PREDICTED BY IDOCK:   -4.82 KCAL/MOL
REMARK 923 INTER-LIGAND FREE ENERGY PREDICTED BY IDOCK:   -4.28 KCAL/MOL
REMARK 924 INTRA-LIGAND FREE ENERGY PREDICTED BY IDOCK:   -0.54 KCAL/MOL
REMARK 927      BINDING AFFINITY PREDICTED BY RF-SCORE:    0.00 PKD
ROOT
HETATM    1  N   UNL     1     -10.851   4.698  65.512  1.00  0.00    -0.794 NA 
HETATM    2  H1  UNL     1     -11.859   4.541  65.508  1.00  0.00     0.000 HD 
HETATM    3  C   UNL     1     -10.297   5.687  66.331  1.00  0.00    -0.187 A  
HETATM    4  H2  UNL     1     -10.389   3.812  65.719  1.00  0.00     0.000 HD 
HETATM    5  C   UNL     1      -8.917   5.901  66.337  1.00  0.00    -0.143 A  
HETATM    6  C   UNL     1      -8.355   6.928  67.106  1.00  0.00    -0.121 A  
HETATM    7  C   UNL     1      -9.175   7.801  67.834  1.00  0.00    -0.141 A  
HETATM    8  O   UNL     1      -6.992   7.028  67.156  1.00  0.00    -0.072 OA 
HETATM    9  C   UNL     1     -11.118   6.606  66.985  1.00  0.00    -0.395 A  
HETATM   10  C   UNL     1     -10.566   7.640  67.749  1.00  0.00    -0.265 A  
HETATM   11  H   UNL     1      -6.611   7.725  67.677  1.00  0.00     0.000 HD 
ENDROOT
BRANCH   7  12
HETATM   12  C   UNL     1      -8.669   8.836  68.775  1.00  0.00    -0.137 C  
HETATM   13  O   UNL     1      -7.534   9.288  68.707  1.00  0.00    -0.074 OA 
BRANCH  12  14
HETATM   14  O   UNL     1      -9.637   9.188  69.699  1.00  0.00    -0.165 OA 
BRANCH  14  15
HETATM   15  C   UNL     1      -9.588   8.604  70.977  1.00  0.00    -0.209 A  
HETATM   16  C   UNL     1      -8.390   8.470  71.679  1.00  0.00    -0.218 A  
HETATM   17  C   UNL     1      -8.412   7.999  72.991  1.00  0.00    -0.252 A  
HETATM   18  C   UNL     1      -9.627   7.682  73.599  1.00  0.00    -0.333 A  
HETATM   19  C   UNL     1     -10.825   7.838  72.898  1.00  0.00    -0.453 A  
HETATM   20  C   UNL     1     -10.808   8.308  71.583  1.00  0.00    -0.320 A  
ENDBRANCH  14  15
ENDBRANCH  12  14
ENDBRANCH   7  12
TORSDOF 3
ENDMDL
MODEL      200
REMARK 921   NORMALIZED FREE ENERGY PREDICTED BY IDOCK:   -3.55 KCAL/MOL
REMARK 922        TOTAL FREE ENERGY PREDICTED BY IDOCK:   -4.76 KCAL/MOL
REMARK 923 INTER-LIGAND FREE ENERGY PREDICTED BY IDOCK:   -4.19 KCAL/MOL
REMARK 924 INTRA-LIGAND FREE ENERGY PREDICTED BY IDOCK:   -0.58 KCAL/MOL
REMARK 927      BINDING AFFINITY PREDICTED BY RF-SCORE:    0.00 PKD
ROOT
HETATM    1  N   UNL     1      -8.774   9.241  67.945  1.00  0.00    -0.124 NA 
HETATM    2  H1  UNL     1      -8.774   8.923  68.914  1.00  0.00     0.000 HD 
HETATM    3  C   UNL     1      -9.291  10.500  67.619  1.00  0.00    -0.149 A  
HETATM    4  H2  UNL     1      -7.820   9.182  67.587  1.00  0.00     0.000 HD 
HETATM    5  C   UNL     1      -9.291  10.936  66.292  1.00  0.00    -0.203 A  
HETATM    6  C   UNL     1      -9.859  12.167  65.943  1.00  0.00    -0.247 A  
HETATM    7  C   UNL     1     -10.496  12.955  66.911  1.00  0.00    -0.252 A  
HETATM    8  O   UNL     1      -9.740  12.592  64.649  1.00  0.00    -0.488 OA 
HETATM    9  C   UNL     1      -9.998  11.241  68.566  1.00  0.00    -0.206 A  
HETATM   10  C   UNL     1     -10.577  12.469  68.224  1.00  0.00    -0.245 A  
HETATM   11  H   UNL     1     -10.126  13.427  64.413  1.00  0.00     0.000 HD 
ENDROOT
BRANCH   7  12
HETATM   12  C   UNL     1     -11.015  14.328  66.665  1.00  0.00    -0.310 C  
HETATM   13  O   UNL     1     -12.135  14.679  67.011  1.00  0.00    -0.357 OA 
BRANCH  12  14
HETATM   14  O   UNL     1     -10.079  15.107  66.009  1.00  0.00    -0.265 OA 
BRANCH  14  15
HETATM   15  C   UNL     1      -9.233  15.927  66.776  1.00  0.00    -0.240 A  
HETATM   16  C   UNL     1      -8.793  15.548  68.045  1.00  0.00    -0.165 A  
HETATM   17  C   UNL     1      -7.858  16.338  68.712  1.00  0.00    -0.216 A  
HETATM   18  C   UNL     1      -7.356  17.489  68.105  1.00  0.00    -0.218 A  
HETATM   19  C   UNL     1      -7.784  17.851  66.826  1.00  0.00    -0.251 A  
HETATM   20  C   UNL     1      -8.722  17.065  66.154  1.00  0.00    -0.254 A  
ENDBRANCH  14  15
ENDBRANCH  12  14
ENDBRANCH   7  12
TORSDOF 3
ENDMDL
MODEL      201
REMARK 921   NORMALIZED FREE ENERGY PREDICTED BY IDOCK:   -3.54 KCAL/MOL
REMARK 922        TOTAL FREE ENERGY PREDICTED BY IDOCK:   -4.75 KCAL/MOL
REMARK 923 INTER-LIGAND FREE ENERGY PREDICTED BY IDOCK:   -4.05 KCAL/MOL
REMARK 924 INTRA-LIGAND FREE ENERGY PREDICTED BY IDOCK:   -0.70 KCAL/MOL
REMARK 927      BINDING AFFINITY PREDICTED BY RF-SCORE:    0.00 PKD
ROOT
HETATM    1  N   UNL     1     -12.903  11.837  70.789  1.00  0.00    -0.149 NA 
HETATM    2  H1  UNL     1     -12.991  12.048  71.783  1.00  0.00     0.000 HD 
HETATM    3  C   UNL     1     -12.138  12.663  69.959  1.00  0.00    -0.269 A  
HETATM    4  H2  UNL     1     -12.562  10.879  70.693  1.00  0.00     0.000 HD 
HETATM    5  C   UNL     1     -12.017  12.374  68.599  1.00  0.00    -0.272 A  
HETATM    6  C   UNL     1     -11.305  13.225  67.746  1.00  0.00    -0.295 A  
HETATM    7  C   UNL     1     -10.754  14.419  68.231  1.00  0.00    -0.246 A  
HETATM    8  O   UNL     1     -11.131  12.842  66.445  1.00  0.00    -0.271 OA 
HETATM    9  C   UNL     1     -11.665  13.890  70.426  1.00  0.00    -0.269 A  
HETATM   10  C   UNL     1     -10.959  14.752  69.579  1.00  0.00    -0.287 A  
HETATM   11  H   UNL     1     -10.647  13.420  65.867  1.00  0.00     0.000 HD 
ENDROOT
BRANCH   7  12
HETATM   12  C   UNL     1      -9.877  15.321  67.437  1.00  0.00    -0.217 C  
HETATM   13  O   UNL     1      -9.442  15.012  66.336  1.00  0.00    -0.260 OA 
BRANCH  12  14
HETATM   14  O   UNL     1      -9.639  16.507  68.109  1.00  0.00    -0.219 OA 
BRANCH  14  15
HETATM   15  C   UNL     1      -8.308  16.923  68.286  1.00  0.00    -0.224 A  
HETATM   16  C   UNL     1      -7.831  18.113  67.734  1.00  0.00    -0.236 A  
HETATM   17  C   UNL     1      -6.540  18.542  68.040  1.00  0.00    -0.219 A  
HETATM   18  C   UNL     1      -5.742  17.794  68.906  1.00  0.00    -0.180 A  
HETATM   19  C   UNL     1      -6.234  16.615  69.472  1.00  0.00    -0.220 A  
HETATM   20  C   UNL     1      -7.525  16.180  69.166  1.00  0.00    -0.221 A  
ENDBRANCH  14  15
ENDBRANCH  12  14
ENDBRANCH   7  12
TORSDOF 3
ENDMDL
MODEL      202
REMARK 921   NORMALIZED FREE ENERGY PREDICTED BY IDOCK:   -3.53 KCAL/MOL
REMARK 922        TOTAL FREE ENERGY PREDICTED BY IDOCK:   -4.75 KCAL/MOL
REMARK 923 INTER-LIGAND FREE ENERGY PREDICTED BY IDOCK:   -4.16 KCAL/MOL
REMARK 924 INTRA-LIGAND FREE ENERGY PREDICTED BY IDOCK:   -0.58 KCAL/MOL
REMARK 927      BINDING AFFINITY PREDICTED BY RF-SCORE:    0.00 PKD
ROOT
HETATM    1  N   UNL     1      -6.874   4.091  74.553  1.00  0.00    -0.057 NA 
HETATM    2  H1  UNL     1      -6.891   3.103  74.297  1.00  0.00     0.000 HD 
HETATM    3  C   UNL     1      -7.376   5.055  73.671  1.00  0.00    -0.087 A  
HETATM    4  H2  UNL     1      -7.347   4.197  75.451  1.00  0.00     0.000 HD 
HETATM    5  C   UNL     1      -7.353   6.406  74.023  1.00  0.00    -0.085 A  
HETATM    6  C   UNL     1      -7.796   7.386  73.127  1.00  0.00    -0.096 A  
HETATM    7  C   UNL     1      -8.210   7.033  71.835  1.00  0.00    -0.102 A  
HETATM    8  O   UNL     1      -7.849   8.682  73.558  1.00  0.00    -0.403 OA 
HETATM    9  C   UNL     1      -7.705   4.710  72.361  1.00  0.00    -0.086 A  
HETATM   10  C   UNL     1      -8.141   5.684  71.455  1.00  0.00    -0.118 A  
HETATM   11  H   UNL     1      -8.150   9.347  72.950  1.00  0.00     0.000 HD 
ENDROOT
BRANCH   7  12
HETATM   12  C   UNL     1      -8.814   7.981  70.860  1.00  0.00    -0.139 C  
HETATM   13  O   UNL     1      -8.792   7.785  69.652  1.00  0.00    -0.138 OA 
BRANCH  12  14
HETATM   14  O   UNL     1      -9.374   9.071  71.503  1.00  0.00    -0.266 OA 
BRANCH  14  15
HETATM   15  C   UNL     1     -10.773   9.210  71.493  1.00  0.00    -0.367 A  
HETATM   16  C   UNL     1     -11.593   8.457  72.334  1.00  0.00    -0.450 A  
HETATM   17  C   UNL     1     -12.961   8.720  72.373  1.00  0.00    -0.442 A  
HETATM   18  C   UNL     1     -13.500   9.741  71.591  1.00  0.00    -0.436 A  
HETATM   19  C   UNL     1     -12.670  10.506  70.767  1.00  0.00    -0.471 A  
HETATM   20  C   UNL     1     -11.299  10.245  70.721  1.00  0.00    -0.421 A  
ENDBRANCH  14  15
ENDBRANCH  12  14
ENDBRANCH   7  12
TORSDOF 3
ENDMDL
MODEL      203
REMARK 921   NORMALIZED FREE ENERGY PREDICTED BY IDOCK:   -3.52 KCAL/MOL
REMARK 922        TOTAL FREE ENERGY PREDICTED BY IDOCK:   -4.73 KCAL/MOL
REMARK 923 INTER-LIGAND FREE ENERGY PREDICTED BY IDOCK:   -3.93 KCAL/MOL
REMARK 924 INTRA-LIGAND FREE ENERGY PREDICTED BY IDOCK:   -0.79 KCAL/MOL
REMARK 927      BINDING AFFINITY PREDICTED BY RF-SCORE:    0.00 PKD
ROOT
HETATM    1  N   UNL     1     -11.974   6.267  72.637  1.00  0.00    -0.518 NA 
HETATM    2  H1  UNL     1     -11.742   5.822  73.525  1.00  0.00     0.000 HD 
HETATM    3  C   UNL     1     -11.330   5.865  71.461  1.00  0.00    -0.190 A  
HETATM    4  H2  UNL     1     -12.981   6.193  72.494  1.00  0.00     0.000 HD 
HETATM    5  C   UNL     1     -11.648   6.474  70.245  1.00  0.00    -0.473 A  
HETATM    6  C   UNL     1     -10.971   6.124  69.071  1.00  0.00    -0.367 A  
HETATM    7  C   UNL     1      -9.915   5.203  69.107  1.00  0.00    -0.273 A  
HETATM    8  O   UNL     1     -11.391   6.675  67.892  1.00  0.00    -0.558 OA 
HETATM    9  C   UNL     1     -10.226   5.015  71.514  1.00  0.00    -0.273 A  
HETATM   10  C   UNL     1      -9.537   4.667  70.347  1.00  0.00    -0.271 A  
HETATM   11  H   UNL     1     -10.930   6.437  67.095  1.00  0.00     0.000 HD 
ENDROOT
BRANCH   7  12
HETATM   12  C   UNL     1      -9.221   4.676  67.901  1.00  0.00    -0.127 C  
HETATM   13  O   UNL     1      -9.764   3.916  67.110  1.00  0.00    -0.209 OA 
BRANCH  12  14
HETATM   14  O   UNL     1      -7.925   5.153  67.821  1.00  0.00    -0.094 OA 
BRANCH  14  15
HETATM   15  C   UNL     1      -7.727   6.507  67.496  1.00  0.00    -0.106 A  
HETATM   16  C   UNL     1      -8.250   7.067  66.330  1.00  0.00    -0.120 A  
HETATM   17  C   UNL     1      -8.131   8.440  66.115  1.00  0.00    -0.106 A  
HETATM   18  C   UNL     1      -7.510   9.245  67.069  1.00  0.00    -0.091 A  
HETATM   19  C   UNL     1      -7.008   8.681  68.244  1.00  0.00    -0.073 A  
HETATM   20  C   UNL     1      -7.122   7.307  68.463  1.00  0.00    -0.085 A  
ENDBRANCH  14  15
ENDBRANCH  12  14
ENDBRANCH   7  12
TORSDOF 3
ENDMDL
MODEL      204
REMARK 921   NORMALIZED FREE ENERGY PREDICTED BY IDOCK:   -3.48 KCAL/MOL
REMARK 922        TOTAL FREE ENERGY PREDICTED BY IDOCK:   -4.68 KCAL/MOL
REMARK 923 INTER-LIGAND FREE ENERGY PREDICTED BY IDOCK:   -4.12 KCAL/MOL
REMARK 924 INTRA-LIGAND FREE ENERGY PREDICTED BY IDOCK:   -0.57 KCAL/MOL
REMARK 927      BINDING AFFINITY PREDICTED BY RF-SCORE:    0.00 PKD
ROOT
HETATM    1  N   UNL     1      -6.963   7.545  65.020  1.00  0.00    -0.057 NA 
HETATM    2  H1  UNL     1      -6.112   7.956  64.638  1.00  0.00     0.000 HD 
HETATM    3  C   UNL     1      -7.950   8.364  65.580  1.00  0.00    -0.115 A  
HETATM    4  H2  UNL     1      -7.395   6.969  64.296  1.00  0.00     0.000 HD 
HETATM    5  C   UNL     1      -9.116   7.801  66.102  1.00  0.00    -0.199 A  
HETATM    6  C   UNL     1     -10.084   8.603  66.719  1.00  0.00    -0.296 A  
HETATM    7  C   UNL     1      -9.870   9.979  66.880  1.00  0.00    -0.248 A  
HETATM    8  O   UNL     1     -11.252   8.016  67.120  1.00  0.00    -0.334 OA 
HETATM    9  C   UNL     1      -7.696   9.715  65.815  1.00  0.00    -0.106 A  
HETATM   10  C   UNL     1      -8.654  10.523  66.439  1.00  0.00    -0.147 A  
HETATM   11  H   UNL     1     -11.908   8.561  67.539  1.00  0.00     0.000 HD 
ENDROOT
BRANCH   7  12
HETATM   12  C   UNL     1     -10.887  10.930  67.405  1.00  0.00    -0.279 C  
HETATM   13  O   UNL     1     -11.900  11.217  66.783  1.00  0.00    -0.368 OA 
BRANCH  12  14
HETATM   14  O   UNL     1     -10.521  11.417  68.647  1.00  0.00    -0.188 OA 
BRANCH  14  15
HETATM   15  C   UNL     1     -10.834  12.751  68.963  1.00  0.00    -0.148 A  
HETATM   16  C   UNL     1     -10.246  13.823  68.290  1.00  0.00    -0.245 A  
HETATM   17  C   UNL     1     -10.680  15.121  68.556  1.00  0.00    -0.240 A  
HETATM   18  C   UNL     1     -11.707  15.340  69.474  1.00  0.00    -0.359 A  
HETATM   19  C   UNL     1     -12.305  14.261  70.129  1.00  0.00    -0.413 A  
HETATM   20  C   UNL     1     -11.872  12.959  69.869  1.00  0.00    -0.373 A  
ENDBRANCH  14  15
ENDBRANCH  12  14
ENDBRANCH   7  12
TORSDOF 3
ENDMDL
MODEL      205
REMARK 921   NORMALIZED FREE ENERGY PREDICTED BY IDOCK:   -3.48 KCAL/MOL
REMARK 922        TOTAL FREE ENERGY PREDICTED BY IDOCK:   -4.68 KCAL/MOL
REMARK 923 INTER-LIGAND FREE ENERGY PREDICTED BY IDOCK:   -4.21 KCAL/MOL
REMARK 924 INTRA-LIGAND FREE ENERGY PREDICTED BY IDOCK:   -0.47 KCAL/MOL
REMARK 927      BINDING AFFINITY PREDICTED BY RF-SCORE:    0.00 PKD
ROOT
HETATM    1  N   UNL     1     -11.071   5.001  73.749  1.00  0.00    -0.384 NA 
HETATM    2  H1  UNL     1     -10.620   4.124  74.011  1.00  0.00     0.000 HD 
HETATM    3  C   UNL     1     -11.027   5.445  72.423  1.00  0.00    -0.240 A  
HETATM    4  H2  UNL     1     -12.047   4.960  74.043  1.00  0.00     0.000 HD 
HETATM    5  C   UNL     1     -11.644   6.645  72.065  1.00  0.00    -0.341 A  
HETATM    6  C   UNL     1     -11.556   7.131  70.755  1.00  0.00    -0.318 A  
HETATM    7  C   UNL     1     -10.792   6.454  69.795  1.00  0.00    -0.373 A  
HETATM    8  O   UNL     1     -12.263   8.256  70.433  1.00  0.00    -0.465 OA 
HETATM    9  C   UNL     1     -10.197   4.816  71.495  1.00  0.00    -0.246 A  
HETATM   10  C   UNL     1     -10.096   5.300  70.185  1.00  0.00    -0.333 A  
HETATM   11  H   UNL     1     -12.203   8.586  69.544  1.00  0.00     0.000 HD 
ENDROOT
BRANCH   7  12
HETATM   12  C   UNL     1     -10.740   6.821  68.354  1.00  0.00    -0.232 C  
HETATM   13  O   UNL     1     -10.621   7.978  67.974  1.00  0.00    -0.200 OA 
BRANCH  12  14
HETATM   14  O   UNL     1     -10.847   5.701  67.549  1.00  0.00    -0.233 OA 
BRANCH  14  15
HETATM   15  C   UNL     1      -9.905   5.520  66.521  1.00  0.00    -0.172 A  
HETATM   16  C   UNL     1      -8.614   6.045  66.606  1.00  0.00    -0.113 A  
HETATM   17  C   UNL     1      -7.681   5.733  65.619  1.00  0.00    -0.093 A  
HETATM   18  C   UNL     1      -8.032   4.889  64.566  1.00  0.00    -0.103 A  
HETATM   19  C   UNL     1      -9.319   4.349  64.499  1.00  0.00    -0.143 A  
HETATM   20  C   UNL     1     -10.259   4.660  65.483  1.00  0.00    -0.219 A  
ENDBRANCH  14  15
ENDBRANCH  12  14
ENDBRANCH   7  12
TORSDOF 3
ENDMDL
MODEL      206
REMARK 921   NORMALIZED FREE ENERGY PREDICTED BY IDOCK:   -3.47 KCAL/MOL
REMARK 922        TOTAL FREE ENERGY PREDICTED BY IDOCK:   -4.67 KCAL/MOL
REMARK 923 INTER-LIGAND FREE ENERGY PREDICTED BY IDOCK:   -4.38 KCAL/MOL
REMARK 924 INTRA-LIGAND FREE ENERGY PREDICTED BY IDOCK:   -0.29 KCAL/MOL
REMARK 927      BINDING AFFINITY PREDICTED BY RF-SCORE:    0.00 PKD
ROOT
HETATM    1  N   UNL     1      -5.619  12.163  69.681  1.00  0.00    -0.081 NA 
HETATM    2  H1  UNL     1      -5.557  11.188  69.386  1.00  0.00     0.000 HD 
HETATM    3  C   UNL     1      -6.571  13.012  69.105  1.00  0.00    -0.104 A  
HETATM    4  H2  UNL     1      -5.739  12.185  70.694  1.00  0.00     0.000 HD 
HETATM    5  C   UNL     1      -6.656  14.346  69.508  1.00  0.00    -0.141 A  
HETATM    6  C   UNL     1      -7.563  15.222  68.899  1.00  0.00    -0.152 A  
HETATM    7  C   UNL     1      -8.355  14.790  67.826  1.00  0.00    -0.166 A  
HETATM    8  O   UNL     1      -7.678  16.488  69.401  1.00  0.00    -0.209 OA 
HETATM    9  C   UNL     1      -7.295  12.605  67.984  1.00  0.00    -0.114 A  
HETATM   10  C   UNL     1      -8.197  13.476  67.362  1.00  0.00    -0.187 A  
HETATM   11  H   UNL     1      -8.293  17.082  68.986  1.00  0.00     0.000 HD 
ENDROOT
BRANCH   7  12
HETATM   12  C   UNL     1      -9.431  15.605  67.199  1.00  0.00    -0.217 C  
HETATM   13  O   UNL     1     -10.616  15.435  67.452  1.00  0.00    -0.276 OA 
BRANCH  12  14
HETATM   14  O   UNL     1      -8.906  16.537  66.322  1.00  0.00    -0.283 OA 
BRANCH  14  15
HETATM   15  C   UNL     1      -9.185  17.897  66.543  1.00  0.00    -0.273 A  
HETATM   16  C   UNL     1     -10.408  18.465  66.182  1.00  0.00    -0.431 A  
HETATM   17  C   UNL     1     -10.682  19.786  66.533  1.00  0.00    -0.508 A  
HETATM   18  C   UNL     1      -9.745  20.526  67.255  1.00  0.00    -0.600 A  
HETATM   19  C   UNL     1      -8.532  19.944  67.632  1.00  0.00    -0.374 A  
HETATM   20  C   UNL     1      -8.252  18.623  67.280  1.00  0.00    -0.261 A  
ENDBRANCH  14  15
ENDBRANCH  12  14
ENDBRANCH   7  12
TORSDOF 3
ENDMDL
MODEL      207
REMARK 921   NORMALIZED FREE ENERGY PREDICTED BY IDOCK:   -3.45 KCAL/MOL
REMARK 922        TOTAL FREE ENERGY PREDICTED BY IDOCK:   -4.65 KCAL/MOL
REMARK 923 INTER-LIGAND FREE ENERGY PREDICTED BY IDOCK:   -4.08 KCAL/MOL
REMARK 924 INTRA-LIGAND FREE ENERGY PREDICTED BY IDOCK:   -0.58 KCAL/MOL
REMARK 927      BINDING AFFINITY PREDICTED BY RF-SCORE:    0.00 PKD
ROOT
HETATM    1  N   UNL     1      -8.990   5.151  66.571  1.00  0.00    -0.116 NA 
HETATM    2  H1  UNL     1      -9.498   4.631  67.286  1.00  0.00     0.000 HD 
HETATM    3  C   UNL     1      -9.178   6.531  66.438  1.00  0.00    -0.153 A  
HETATM    4  H2  UNL     1      -7.992   4.972  66.692  1.00  0.00     0.000 HD 
HETATM    5  C   UNL     1      -8.481   7.243  65.459  1.00  0.00    -0.119 A  
HETATM    6  C   UNL     1      -8.704   8.613  65.274  1.00  0.00    -0.165 A  
HETATM    7  C   UNL     1      -9.679   9.281  66.027  1.00  0.00    -0.359 A  
HETATM    8  O   UNL     1      -7.922   9.281  64.374  1.00  0.00    -0.120 OA 
HETATM    9  C   UNL     1     -10.206   7.174  67.126  1.00  0.00    -0.327 A  
HETATM   10  C   UNL     1     -10.443   8.541  66.942  1.00  0.00    -0.345 A  
HETATM   11  H   UNL     1      -8.074  10.211  64.249  1.00  0.00     0.000 HD 
ENDROOT
BRANCH   7  12
HETATM   12  C   UNL     1      -9.901  10.752  65.994  1.00  0.00    -0.235 C  
HETATM   13  O   UNL     1      -9.981  11.381  64.947  1.00  0.00    -0.240 OA 
BRANCH  12  14
HETATM   14  O   UNL     1      -9.994  11.273  67.272  1.00  0.00    -0.180 OA 
BRANCH  14  15
HETATM   15  C   UNL     1     -10.383  12.616  67.423  1.00  0.00    -0.220 A  
HETATM   16  C   UNL     1     -11.723  13.003  67.367  1.00  0.00    -0.427 A  
HETATM   17  C   UNL     1     -12.066  14.325  67.646  1.00  0.00    -0.332 A  
HETATM   18  C   UNL     1     -11.078  15.246  67.995  1.00  0.00    -0.312 A  
HETATM   19  C   UNL     1      -9.742  14.846  68.069  1.00  0.00    -0.212 A  
HETATM   20  C   UNL     1      -9.392  13.524  67.789  1.00  0.00    -0.213 A  
ENDBRANCH  14  15
ENDBRANCH  12  14
ENDBRANCH   7  12
TORSDOF 3
ENDMDL
MODEL      208
REMARK 921   NORMALIZED FREE ENERGY PREDICTED BY IDOCK:   -3.45 KCAL/MOL
REMARK 922        TOTAL FREE ENERGY PREDICTED BY IDOCK:   -4.65 KCAL/MOL
REMARK 923 INTER-LIGAND FREE ENERGY PREDICTED BY IDOCK:   -4.01 KCAL/MOL
REMARK 924 INTRA-LIGAND FREE ENERGY PREDICTED BY IDOCK:   -0.64 KCAL/MOL
REMARK 927      BINDING AFFINITY PREDICTED BY RF-SCORE:    0.00 PKD
ROOT
HETATM    1  N   UNL     1     -12.157   5.614  73.068  1.00  0.00    -0.479 NA 
HETATM    2  H1  UNL     1     -13.039   5.133  72.888  1.00  0.00     0.000 HD 
HETATM    3  C   UNL     1     -11.529   6.337  72.047  1.00  0.00    -0.310 A  
HETATM    4  H2  UNL     1     -12.286   6.233  73.869  1.00  0.00     0.000 HD 
HETATM    5  C   UNL     1     -10.323   6.995  72.294  1.00  0.00    -0.216 A  
HETATM    6  C   UNL     1      -9.654   7.672  71.267  1.00  0.00    -0.157 A  
HETATM    7  C   UNL     1     -10.151   7.646  69.957  1.00  0.00    -0.204 A  
HETATM    8  O   UNL     1      -8.532   8.385  71.585  1.00  0.00    -0.134 OA 
HETATM    9  C   UNL     1     -11.980   6.237  70.731  1.00  0.00    -0.111 A  
HETATM   10  C   UNL     1     -11.312   6.903  69.696  1.00  0.00    -0.254 A  
HETATM   11  H   UNL     1      -8.077   8.844  70.888  1.00  0.00     0.000 HD 
ENDROOT
BRANCH   7  12
HETATM   12  C   UNL     1      -9.583   8.434  68.830  1.00  0.00    -0.149 C  
HETATM   13  O   UNL     1      -9.562   8.014  67.680  1.00  0.00    -0.145 OA 
BRANCH  12  14
HETATM   14  O   UNL     1      -9.103   9.656  69.265  1.00  0.00    -0.152 OA 
BRANCH  14  15
HETATM   15  C   UNL     1      -9.937  10.782  69.157  1.00  0.00    -0.187 A  
HETATM   16  C   UNL     1      -9.763  11.731  68.148  1.00  0.00    -0.192 A  
HETATM   17  C   UNL     1     -10.691  12.763  68.009  1.00  0.00    -0.246 A  
HETATM   18  C   UNL     1     -11.792  12.832  68.862  1.00  0.00    -0.351 A  
HETATM   19  C   UNL     1     -11.972  11.866  69.856  1.00  0.00    -0.398 A  
HETATM   20  C   UNL     1     -11.045  10.833  70.001  1.00  0.00    -0.327 A  
ENDBRANCH  14  15
ENDBRANCH  12  14
ENDBRANCH   7  12
TORSDOF 3
ENDMDL
MODEL      209
REMARK 921   NORMALIZED FREE ENERGY PREDICTED BY IDOCK:   -3.45 KCAL/MOL
REMARK 922        TOTAL FREE ENERGY PREDICTED BY IDOCK:   -4.65 KCAL/MOL
REMARK 923 INTER-LIGAND FREE ENERGY PREDICTED BY IDOCK:   -3.93 KCAL/MOL
REMARK 924 INTRA-LIGAND FREE ENERGY PREDICTED BY IDOCK:   -0.72 KCAL/MOL
REMARK 927      BINDING AFFINITY PREDICTED BY RF-SCORE:    0.00 PKD
ROOT
HETATM    1  N   UNL     1     -13.022  12.776  64.902  1.00  0.00    -0.853 NA 
HETATM    2  H1  UNL     1     -13.370  13.500  65.531  1.00  0.00     0.000 HD 
HETATM    3  C   UNL     1     -11.759  12.210  65.112  1.00  0.00    -0.310 A  
HETATM    4  H2  UNL     1     -13.710  12.023  64.866  1.00  0.00     0.000 HD 
HETATM    5  C   UNL     1     -11.283  11.219  64.251  1.00  0.00    -0.214 A  
HETATM    6  C   UNL     1      -9.998  10.687  64.413  1.00  0.00    -0.350 A  
HETATM    7  C   UNL     1      -9.142  11.188  65.403  1.00  0.00    -0.193 A  
HETATM    8  O   UNL     1      -9.621   9.649  63.608  1.00  0.00    -0.471 OA 
HETATM    9  C   UNL     1     -10.881  12.768  66.040  1.00  0.00    -0.301 A  
HETATM   10  C   UNL     1      -9.591  12.249  66.203  1.00  0.00    -0.248 A  
HETATM   11  H   UNL     1      -8.748   9.288  63.718  1.00  0.00     0.000 HD 
ENDROOT
BRANCH   7  12
HETATM   12  C   UNL     1      -7.813  10.606  65.734  1.00  0.00    -0.141 C  
HETATM   13  O   UNL     1      -6.924  10.482  64.901  1.00  0.00    -0.089 OA 
BRANCH  12  14
HETATM   14  O   UNL     1      -7.744  10.241  67.066  1.00  0.00    -0.098 OA 
BRANCH  14  15
HETATM   15  C   UNL     1      -7.949   8.891  67.404  1.00  0.00    -0.101 A  
HETATM   16  C   UNL     1      -6.968   7.923  67.190  1.00  0.00    -0.074 A  
HETATM   17  C   UNL     1      -7.173   6.624  67.655  1.00  0.00    -0.090 A  
HETATM   18  C   UNL     1      -8.343   6.305  68.344  1.00  0.00    -0.115 A  
HETATM   19  C   UNL     1      -9.312   7.285  68.573  1.00  0.00    -0.141 A  
HETATM   20  C   UNL     1      -9.113   8.586  68.108  1.00  0.00    -0.138 A  
ENDBRANCH  14  15
ENDBRANCH  12  14
ENDBRANCH   7  12
TORSDOF 3
ENDMDL
MODEL      210
REMARK 921   NORMALIZED FREE ENERGY PREDICTED BY IDOCK:   -3.43 KCAL/MOL
REMARK 922        TOTAL FREE ENERGY PREDICTED BY IDOCK:   -4.62 KCAL/MOL
REMARK 923 INTER-LIGAND FREE ENERGY PREDICTED BY IDOCK:   -4.12 KCAL/MOL
REMARK 924 INTRA-LIGAND FREE ENERGY PREDICTED BY IDOCK:   -0.51 KCAL/MOL
REMARK 927      BINDING AFFINITY PREDICTED BY RF-SCORE:    0.00 PKD
ROOT
HETATM    1  N   UNL     1      -7.280   9.461  67.434  1.00  0.00    -0.086 NA 
HETATM    2  H1  UNL     1      -7.820   8.616  67.622  1.00  0.00     0.000 HD 
HETATM    3  C   UNL     1      -7.893  10.717  67.498  1.00  0.00    -0.106 A  
HETATM    4  H2  UNL     1      -6.468   9.466  68.053  1.00  0.00     0.000 HD 
HETATM    5  C   UNL     1      -7.152  11.873  67.242  1.00  0.00    -0.143 A  
HETATM    6  C   UNL     1      -7.766  13.131  67.243  1.00  0.00    -0.098 A  
HETATM    7  C   UNL     1      -9.149  13.247  67.438  1.00  0.00    -0.216 A  
HETATM    8  O   UNL     1      -6.978  14.237  67.088  1.00  0.00    -0.379 OA 
HETATM    9  C   UNL     1      -9.280  10.822  67.607  1.00  0.00    -0.152 A  
HETATM   10  C   UNL     1      -9.903  12.075  67.600  1.00  0.00    -0.191 A  
HETATM   11  H   UNL     1      -7.395  15.090  67.089  1.00  0.00     0.000 HD 
ENDROOT
BRANCH   7  12
HETATM   12  C   UNL     1      -9.870  14.541  67.581  1.00  0.00    -0.223 C  
HETATM   13  O   UNL     1     -10.692  14.930  66.762  1.00  0.00    -0.299 OA 
BRANCH  12  14
HETATM   14  O   UNL     1      -9.481  15.205  68.730  1.00  0.00    -0.193 OA 
BRANCH  14  15
HETATM   15  C   UNL     1      -9.263  16.592  68.663  1.00  0.00    -0.248 A  
HETATM   16  C   UNL     1     -10.311  17.507  68.774  1.00  0.00    -0.358 A  
HETATM   17  C   UNL     1     -10.028  18.872  68.824  1.00  0.00    -0.466 A  
HETATM   18  C   UNL     1      -8.706  19.313  68.782  1.00  0.00    -0.383 A  
HETATM   19  C   UNL     1      -7.660  18.391  68.691  1.00  0.00    -0.321 A  
HETATM   20  C   UNL     1      -7.938  17.024  68.638  1.00  0.00    -0.258 A  
ENDBRANCH  14  15
ENDBRANCH  12  14
ENDBRANCH   7  12
TORSDOF 3
ENDMDL
MODEL      211
REMARK 921   NORMALIZED FREE ENERGY PREDICTED BY IDOCK:   -3.40 KCAL/MOL
REMARK 922        TOTAL FREE ENERGY PREDICTED BY IDOCK:   -4.59 KCAL/MOL
REMARK 923 INTER-LIGAND FREE ENERGY PREDICTED BY IDOCK:   -4.03 KCAL/MOL
REMARK 924 INTRA-LIGAND FREE ENERGY PREDICTED BY IDOCK:   -0.56 KCAL/MOL
REMARK 927      BINDING AFFINITY PREDICTED BY RF-SCORE:    0.00 PKD
ROOT
HETATM    1  N   UNL     1     -12.005  15.905  68.888  1.00  0.00    -0.496 NA 
HETATM    2  H1  UNL     1     -11.486  16.327  69.658  1.00  0.00     0.000 HD 
HETATM    3  C   UNL     1     -11.517  14.755  68.257  1.00  0.00    -0.317 A  
HETATM    4  H2  UNL     1     -12.956  15.718  69.207  1.00  0.00     0.000 HD 
HETATM    5  C   UNL     1     -12.229  14.178  67.203  1.00  0.00    -0.348 A  
HETATM    6  C   UNL     1     -11.723  13.064  66.523  1.00  0.00    -0.382 A  
HETATM    7  C   UNL     1     -10.461  12.548  66.846  1.00  0.00    -0.244 A  
HETATM    8  O   UNL     1     -12.507  12.476  65.570  1.00  0.00    -0.646 OA 
HETATM    9  C   UNL     1     -10.226  14.298  68.521  1.00  0.00    -0.245 A  
HETATM   10  C   UNL     1      -9.708  13.190  67.840  1.00  0.00    -0.221 A  
HETATM   11  H   UNL     1     -12.163  11.720  65.108  1.00  0.00     0.000 HD 
ENDROOT
BRANCH   7  12
HETATM   12  C   UNL     1      -9.894  11.298  66.270  1.00  0.00    -0.214 C  
HETATM   13  O   UNL     1     -10.585  10.320  66.014  1.00  0.00    -0.157 OA 
BRANCH  12  14
HETATM   14  O   UNL     1      -8.528  11.408  66.083  1.00  0.00    -0.172 OA 
BRANCH  14  15
HETATM   15  C   UNL     1      -7.832  10.306  65.556  1.00  0.00    -0.152 A  
HETATM   16  C   UNL     1      -7.766  10.066  64.183  1.00  0.00    -0.144 A  
HETATM   17  C   UNL     1      -6.962   9.032  63.705  1.00  0.00    -0.089 A  
HETATM   18  C   UNL     1      -6.217   8.258  64.594  1.00  0.00    -0.064 A  
HETATM   19  C   UNL     1      -6.271   8.517  65.966  1.00  0.00    -0.052 A  
HETATM   20  C   UNL     1      -7.076   9.549  66.450  1.00  0.00    -0.088 A  
ENDBRANCH  14  15
ENDBRANCH  12  14
ENDBRANCH   7  12
TORSDOF 3
ENDMDL
MODEL      212
REMARK 921   NORMALIZED FREE ENERGY PREDICTED BY IDOCK:   -3.40 KCAL/MOL
REMARK 922        TOTAL FREE ENERGY PREDICTED BY IDOCK:   -4.59 KCAL/MOL
REMARK 923 INTER-LIGAND FREE ENERGY PREDICTED BY IDOCK:   -3.68 KCAL/MOL
REMARK 924 INTRA-LIGAND FREE ENERGY PREDICTED BY IDOCK:   -0.91 KCAL/MOL
REMARK 927      BINDING AFFINITY PREDICTED BY RF-SCORE:    0.00 PKD
ROOT
HETATM    1  N   UNL     1     -12.377  11.040  68.535  1.00  0.00    -0.724 NA 
HETATM    2  H1  UNL     1     -12.985  11.016  67.716  1.00  0.00     0.000 HD 
HETATM    3  C   UNL     1     -11.123  10.418  68.498  1.00  0.00    -0.266 A  
HETATM    4  H2  UNL     1     -12.245  12.014  68.808  1.00  0.00     0.000 HD 
HETATM    5  C   UNL     1     -10.291  10.452  69.619  1.00  0.00    -0.261 A  
HETATM    6  C   UNL     1      -9.061   9.783  69.617  1.00  0.00    -0.220 A  
HETATM    7  C   UNL     1      -8.673   9.013  68.513  1.00  0.00    -0.133 A  
HETATM    8  O   UNL     1      -8.240   9.934  70.700  1.00  0.00    -0.389 OA 
HETATM    9  C   UNL     1     -10.779   9.585  67.435  1.00  0.00    -0.297 A  
HETATM   10  C   UNL     1      -9.555   8.905  67.428  1.00  0.00    -0.201 A  
HETATM   11  H   UNL     1      -7.406   9.480  70.698  1.00  0.00     0.000 HD 
ENDROOT
BRANCH   7  12
HETATM   12  C   UNL     1      -7.338   8.372  68.366  1.00  0.00    -0.094 C  
HETATM   13  O   UNL     1      -6.568   8.658  67.458  1.00  0.00    -0.057 OA 
BRANCH  12  14
HETATM   14  O   UNL     1      -7.116   7.443  69.366  1.00  0.00    -0.066 OA 
BRANCH  14  15
HETATM   15  C   UNL     1      -7.932   6.299  69.413  1.00  0.00    -0.109 A  
HETATM   16  C   UNL     1      -8.830   6.079  70.459  1.00  0.00    -0.146 A  
HETATM   17  C   UNL     1      -9.703   4.994  70.396  1.00  0.00    -0.280 A  
HETATM   18  C   UNL     1      -9.689   4.148  69.287  1.00  0.00    -0.219 A  
HETATM   19  C   UNL     1      -8.802   4.387  68.234  1.00  0.00    -0.128 A  
HETATM   20  C   UNL     1      -7.924   5.470  68.293  1.00  0.00    -0.096 A  
ENDBRANCH  14  15
ENDBRANCH  12  14
ENDBRANCH   7  12
TORSDOF 3
ENDMDL
MODEL      213
REMARK 921   NORMALIZED FREE ENERGY PREDICTED BY IDOCK:   -3.40 KCAL/MOL
REMARK 922        TOTAL FREE ENERGY PREDICTED BY IDOCK:   -4.59 KCAL/MOL
REMARK 923 INTER-LIGAND FREE ENERGY PREDICTED BY IDOCK:   -3.93 KCAL/MOL
REMARK 924 INTRA-LIGAND FREE ENERGY PREDICTED BY IDOCK:   -0.66 KCAL/MOL
REMARK 927      BINDING AFFINITY PREDICTED BY RF-SCORE:    0.00 PKD
ROOT
HETATM    1  N   UNL     1     -10.612   4.161  65.696  1.00  0.00    -0.478 NA 
HETATM    2  H1  UNL     1     -11.540   3.766  65.846  1.00  0.00     0.000 HD 
HETATM    3  C   UNL     1     -10.206   5.295  66.410  1.00  0.00    -0.249 A  
HETATM    4  H2  UNL     1      -9.922   3.424  65.843  1.00  0.00     0.000 HD 
HETATM    5  C   UNL     1      -8.935   5.835  66.205  1.00  0.00    -0.149 A  
HETATM    6  C   UNL     1      -8.538   7.003  66.867  1.00  0.00    -0.120 A  
HETATM    7  C   UNL     1      -9.435   7.687  67.699  1.00  0.00    -0.165 A  
HETATM    8  O   UNL     1      -7.250   7.431  66.710  1.00  0.00    -0.082 OA 
HETATM    9  C   UNL     1     -11.126   6.019  67.168  1.00  0.00    -0.255 A  
HETATM   10  C   UNL     1     -10.742   7.192  67.827  1.00  0.00    -0.282 A  
HETATM   11  H   UNL     1      -6.981   8.223  67.160  1.00  0.00     0.000 HD 
ENDROOT
BRANCH   7  12
HETATM   12  C   UNL     1      -9.070   8.859  68.540  1.00  0.00    -0.137 C  
HETATM   13  O   UNL     1      -9.072   8.817  69.763  1.00  0.00    -0.145 OA 
BRANCH  12  14
HETATM   14  O   UNL     1      -8.746   9.954  67.759  1.00  0.00    -0.128 OA 
BRANCH  14  15
HETATM   15  C   UNL     1      -9.768  10.854  67.408  1.00  0.00    -0.168 A  
HETATM   16  C   UNL     1     -10.914  11.007  68.190  1.00  0.00    -0.301 A  
HETATM   17  C   UNL     1     -11.838  11.999  67.867  1.00  0.00    -0.320 A  
HETATM   18  C   UNL     1     -11.607  12.842  66.780  1.00  0.00    -0.431 A  
HETATM   19  C   UNL     1     -10.448  12.697  66.013  1.00  0.00    -0.288 A  
HETATM   20  C   UNL     1      -9.520  11.703  66.332  1.00  0.00    -0.232 A  
ENDBRANCH  14  15
ENDBRANCH  12  14
ENDBRANCH   7  12
TORSDOF 3
ENDMDL
MODEL      214
REMARK 921   NORMALIZED FREE ENERGY PREDICTED BY IDOCK:   -3.40 KCAL/MOL
REMARK 922        TOTAL FREE ENERGY PREDICTED BY IDOCK:   -4.59 KCAL/MOL
REMARK 923 INTER-LIGAND FREE ENERGY PREDICTED BY IDOCK:   -3.93 KCAL/MOL
REMARK 924 INTRA-LIGAND FREE ENERGY PREDICTED BY IDOCK:   -0.65 KCAL/MOL
REMARK 927      BINDING AFFINITY PREDICTED BY RF-SCORE:    0.00 PKD
ROOT
HETATM    1  N   UNL     1      -8.417   5.010  64.419  1.00  0.00    -0.139 NA 
HETATM    2  H1  UNL     1      -8.799   4.140  64.047  1.00  0.00     0.000 HD 
HETATM    3  C   UNL     1      -8.956   5.575  65.580  1.00  0.00    -0.146 A  
HETATM    4  H2  UNL     1      -7.413   4.888  64.555  1.00  0.00     0.000 HD 
HETATM    5  C   UNL     1      -8.433   6.766  66.088  1.00  0.00    -0.135 A  
HETATM    6  C   UNL     1      -9.001   7.373  67.215  1.00  0.00    -0.124 A  
HETATM    7  C   UNL     1     -10.146   6.830  67.814  1.00  0.00    -0.189 A  
HETATM    8  O   UNL     1      -8.389   8.480  67.732  1.00  0.00    -0.127 OA 
HETATM    9  C   UNL     1     -10.143   5.081  66.121  1.00  0.00    -0.262 A  
HETATM   10  C   UNL     1     -10.723   5.687  67.241  1.00  0.00    -0.299 A  
HETATM   11  H   UNL     1      -8.774   8.893  68.496  1.00  0.00     0.000 HD 
ENDROOT
BRANCH   7  12
HETATM   12  C   UNL     1     -10.745   7.328  69.082  1.00  0.00    -0.185 C  
HETATM   13  O   UNL     1     -10.537   8.457  69.508  1.00  0.00    -0.227 OA 
BRANCH  12  14
HETATM   14  O   UNL     1     -11.534   6.360  69.677  1.00  0.00    -0.416 OA 
BRANCH  14  15
HETATM   15  C   UNL     1     -11.063   5.735  70.844  1.00  0.00    -0.197 A  
HETATM   16  C   UNL     1     -11.641   5.975  72.091  1.00  0.00    -0.348 A  
HETATM   17  C   UNL     1     -11.219   5.238  73.197  1.00  0.00    -0.382 A  
HETATM   18  C   UNL     1     -10.238   4.257  73.050  1.00  0.00    -0.226 A  
HETATM   19  C   UNL     1      -9.678   4.007  71.794  1.00  0.00    -0.241 A  
HETATM   20  C   UNL     1     -10.096   4.744  70.685  1.00  0.00    -0.288 A  
ENDBRANCH  14  15
ENDBRANCH  12  14
ENDBRANCH   7  12
TORSDOF 3
ENDMDL
MODEL      215
REMARK 921   NORMALIZED FREE ENERGY PREDICTED BY IDOCK:   -3.32 KCAL/MOL
REMARK 922        TOTAL FREE ENERGY PREDICTED BY IDOCK:   -4.49 KCAL/MOL
REMARK 923 INTER-LIGAND FREE ENERGY PREDICTED BY IDOCK:   -3.99 KCAL/MOL
REMARK 924 INTRA-LIGAND FREE ENERGY PREDICTED BY IDOCK:   -0.50 KCAL/MOL
REMARK 927      BINDING AFFINITY PREDICTED BY RF-SCORE:    0.00 PKD
ROOT
HETATM    1  N   UNL     1      -7.409   9.334  70.393  1.00  0.00    -0.095 NA 
HETATM    2  H1  UNL     1      -7.812   8.764  71.137  1.00  0.00     0.000 HD 
HETATM    3  C   UNL     1      -8.214   9.787  69.341  1.00  0.00    -0.135 A  
HETATM    4  H2  UNL     1      -6.952  10.141  70.818  1.00  0.00     0.000 HD 
HETATM    5  C   UNL     1      -7.663  10.568  68.323  1.00  0.00    -0.101 A  
HETATM    6  C   UNL     1      -8.442  10.978  67.234  1.00  0.00    -0.130 A  
HETATM    7  C   UNL     1      -9.773  10.555  67.114  1.00  0.00    -0.202 A  
HETATM    8  O   UNL     1      -7.883  11.826  66.320  1.00  0.00    -0.376 OA 
HETATM    9  C   UNL     1      -9.510   9.296  69.180  1.00  0.00    -0.157 A  
HETATM   10  C   UNL     1     -10.293   9.692  68.090  1.00  0.00    -0.250 A  
HETATM   11  H   UNL     1      -8.412  12.103  65.581  1.00  0.00     0.000 HD 
ENDROOT
BRANCH   7  12
HETATM   12  C   UNL     1     -10.714  11.036  66.066  1.00  0.00    -0.177 C  
HETATM   13  O   UNL     1     -10.745  10.557  64.941  1.00  0.00    -0.157 OA 
BRANCH  12  14
HETATM   14  O   UNL     1     -11.507  12.066  66.541  1.00  0.00    -0.344 OA 
BRANCH  14  15
HETATM   15  C   UNL     1     -11.013  13.380  66.473  1.00  0.00    -0.290 A  
HETATM   16  C   UNL     1     -10.295  13.951  67.525  1.00  0.00    -0.245 A  
HETATM   17  C   UNL     1      -9.721  15.211  67.361  1.00  0.00    -0.209 A  
HETATM   18  C   UNL     1      -9.850  15.884  66.146  1.00  0.00    -0.343 A  
HETATM   19  C   UNL     1     -10.552  15.298  65.090  1.00  0.00    -0.453 A  
HETATM   20  C   UNL     1     -11.131  14.038  65.250  1.00  0.00    -0.325 A  
ENDBRANCH  14  15
ENDBRANCH  12  14
ENDBRANCH   7  12
TORSDOF 3
ENDMDL
MODEL      216
REMARK 921   NORMALIZED FREE ENERGY PREDICTED BY IDOCK:   -3.30 KCAL/MOL
REMARK 922        TOTAL FREE ENERGY PREDICTED BY IDOCK:   -4.47 KCAL/MOL
REMARK 923 INTER-LIGAND FREE ENERGY PREDICTED BY IDOCK:   -3.70 KCAL/MOL
REMARK 924 INTRA-LIGAND FREE ENERGY PREDICTED BY IDOCK:   -0.78 KCAL/MOL
REMARK 927      BINDING AFFINITY PREDICTED BY RF-SCORE:    0.00 PKD
ROOT
HETATM    1  N   UNL     1      -5.378   6.483  64.684  1.00  0.00    -0.025 NA 
HETATM    2  H1  UNL     1      -4.608   7.125  64.872  1.00  0.00     0.000 HD 
HETATM    3  C   UNL     1      -6.636   6.706  65.254  1.00  0.00    -0.050 A  
HETATM    4  H2  UNL     1      -5.492   6.406  63.672  1.00  0.00     0.000 HD 
HETATM    5  C   UNL     1      -7.689   5.827  64.995  1.00  0.00    -0.096 A  
HETATM    6  C   UNL     1      -8.936   6.004  65.606  1.00  0.00    -0.064 A  
HETATM    7  C   UNL     1      -9.130   7.030  66.541  1.00  0.00    -0.183 A  
HETATM    8  O   UNL     1      -9.961   5.177  65.240  1.00  0.00    -0.374 OA 
HETATM    9  C   UNL     1      -6.801   7.673  66.245  1.00  0.00    -0.062 A  
HETATM   10  C   UNL     1      -8.042   7.852  66.869  1.00  0.00    -0.115 A  
HETATM   11  H   UNL     1     -10.807   5.297  65.655  1.00  0.00     0.000 HD 
ENDROOT
BRANCH   7  12
HETATM   12  C   UNL     1     -10.445   7.376  67.146  1.00  0.00    -0.333 C  
HETATM   13  O   UNL     1     -10.882   8.519  67.160  1.00  0.00    -0.216 OA 
BRANCH  12  14
HETATM   14  O   UNL     1     -11.065   6.255  67.668  1.00  0.00    -0.341 OA 
BRANCH  14  15
HETATM   15  C   UNL     1     -10.878   5.958  69.030  1.00  0.00    -0.313 A  
HETATM   16  C   UNL     1     -11.567   6.643  70.032  1.00  0.00    -0.423 A  
HETATM   17  C   UNL     1     -11.439   6.228  71.358  1.00  0.00    -0.352 A  
HETATM   18  C   UNL     1     -10.644   5.126  71.672  1.00  0.00    -0.226 A  
HETATM   19  C   UNL     1      -9.975   4.433  70.661  1.00  0.00    -0.254 A  
HETATM   20  C   UNL     1     -10.097   4.845  69.333  1.00  0.00    -0.270 A  
ENDBRANCH  14  15
ENDBRANCH  12  14
ENDBRANCH   7  12
TORSDOF 3
ENDMDL
MODEL      217
REMARK 921   NORMALIZED FREE ENERGY PREDICTED BY IDOCK:   -3.29 KCAL/MOL
REMARK 922        TOTAL FREE ENERGY PREDICTED BY IDOCK:   -4.47 KCAL/MOL
REMARK 923 INTER-LIGAND FREE ENERGY PREDICTED BY IDOCK:   -4.00 KCAL/MOL
REMARK 924 INTRA-LIGAND FREE ENERGY PREDICTED BY IDOCK:   -0.46 KCAL/MOL
REMARK 927      BINDING AFFINITY PREDICTED BY RF-SCORE:    0.00 PKD
ROOT
HETATM    1  N   UNL     1      -9.891  19.816  68.278  1.00  0.00    -0.410 NA 
HETATM    2  H1  UNL     1      -9.440  20.526  67.702  1.00  0.00     0.000 HD 
HETATM    3  C   UNL     1      -9.892  18.477  67.871  1.00  0.00    -0.325 A  
HETATM    4  H2  UNL     1      -9.497  19.867  69.218  1.00  0.00     0.000 HD 
HETATM    5  C   UNL     1     -10.509  17.505  68.661  1.00  0.00    -0.338 A  
HETATM    6  C   UNL     1     -10.570  16.172  68.237  1.00  0.00    -0.288 A  
HETATM    7  C   UNL     1     -10.069  15.801  66.982  1.00  0.00    -0.261 A  
HETATM    8  O   UNL     1     -11.093  15.243  69.093  1.00  0.00    -0.235 OA 
HETATM    9  C   UNL     1      -9.471  18.128  66.588  1.00  0.00    -0.303 A  
HETATM   10  C   UNL     1      -9.536  16.799  66.153  1.00  0.00    -0.295 A  
HETATM   11  H   UNL     1     -11.134  14.338  68.805  1.00  0.00     0.000 HD 
ENDROOT
BRANCH   7  12
HETATM   12  C   UNL     1      -9.973  14.397  66.498  1.00  0.00    -0.283 C  
HETATM   13  O   UNL     1     -10.195  14.086  65.336  1.00  0.00    -0.325 OA 
BRANCH  12  14
HETATM   14  O   UNL     1      -9.616  13.539  67.523  1.00  0.00    -0.210 OA 
BRANCH  14  15
HETATM   15  C   UNL     1      -8.250  13.359  67.802  1.00  0.00    -0.172 A  
HETATM   16  C   UNL     1      -7.363  14.435  67.859  1.00  0.00    -0.163 A  
HETATM   17  C   UNL     1      -6.046  14.219  68.261  1.00  0.00    -0.119 A  
HETATM   18  C   UNL     1      -5.626  12.938  68.619  1.00  0.00    -0.068 A  
HETATM   19  C   UNL     1      -6.525  11.868  68.581  1.00  0.00    -0.062 A  
HETATM   20  C   UNL     1      -7.844  12.080  68.177  1.00  0.00    -0.145 A  
ENDBRANCH  14  15
ENDBRANCH  12  14
ENDBRANCH   7  12
TORSDOF 3
ENDMDL
MODEL      218
REMARK 921   NORMALIZED FREE ENERGY PREDICTED BY IDOCK:   -3.27 KCAL/MOL
REMARK 922        TOTAL FREE ENERGY PREDICTED BY IDOCK:   -4.44 KCAL/MOL
REMARK 923 INTER-LIGAND FREE ENERGY PREDICTED BY IDOCK:   -3.70 KCAL/MOL
REMARK 924 INTRA-LIGAND FREE ENERGY PREDICTED BY IDOCK:   -0.74 KCAL/MOL
REMARK 927      BINDING AFFINITY PREDICTED BY RF-SCORE:    0.00 PKD
ROOT
HETATM    1  N   UNL     1      -8.124  12.273  67.806  1.00  0.00    -0.143 NA 
HETATM    2  H1  UNL     1      -8.634  12.964  67.254  1.00  0.00     0.000 HD 
HETATM    3  C   UNL     1      -8.608  10.964  67.913  1.00  0.00    -0.130 A  
HETATM    4  H2  UNL     1      -7.164  12.235  67.463  1.00  0.00     0.000 HD 
HETATM    5  C   UNL     1      -7.910  10.019  68.667  1.00  0.00    -0.091 A  
HETATM    6  C   UNL     1      -8.413   8.723  68.833  1.00  0.00    -0.131 A  
HETATM    7  C   UNL     1      -9.660   8.371  68.299  1.00  0.00    -0.156 A  
HETATM    8  O   UNL     1      -7.641   7.808  69.493  1.00  0.00    -0.095 OA 
HETATM    9  C   UNL     1      -9.885  10.643  67.455  1.00  0.00    -0.198 A  
HETATM   10  C   UNL     1     -10.401   9.353  67.624  1.00  0.00    -0.303 A  
HETATM   11  H   UNL     1      -7.983   6.929  69.606  1.00  0.00     0.000 HD 
ENDROOT
BRANCH   7  12
HETATM   12  C   UNL     1     -10.219   6.992  68.313  1.00  0.00    -0.182 C  
HETATM   13  O   UNL     1      -9.710   6.070  67.690  1.00  0.00    -0.111 OA 
BRANCH  12  14
HETATM   14  O   UNL     1     -11.354   6.921  69.101  1.00  0.00    -0.148 OA 
BRANCH  14  15
HETATM   15  C   UNL     1     -11.201   6.912  70.499  1.00  0.00    -0.307 A  
HETATM   16  C   UNL     1     -10.622   5.834  71.169  1.00  0.00    -0.315 A  
HETATM   17  C   UNL     1     -10.381   5.926  72.539  1.00  0.00    -0.227 A  
HETATM   18  C   UNL     1     -10.702   7.096  73.228  1.00  0.00    -0.403 A  
HETATM   19  C   UNL     1     -11.262   8.180  72.547  1.00  0.00    -0.459 A  
HETATM   20  C   UNL     1     -11.507   8.092  71.175  1.00  0.00    -0.302 A  
ENDBRANCH  14  15
ENDBRANCH  12  14
ENDBRANCH   7  12
TORSDOF 3
ENDMDL
MODEL      219
REMARK 921   NORMALIZED FREE ENERGY PREDICTED BY IDOCK:   -3.27 KCAL/MOL
REMARK 922        TOTAL FREE ENERGY PREDICTED BY IDOCK:   -4.44 KCAL/MOL
REMARK 923 INTER-LIGAND FREE ENERGY PREDICTED BY IDOCK:   -4.29 KCAL/MOL
REMARK 924 INTRA-LIGAND FREE ENERGY PREDICTED BY IDOCK:   -0.15 KCAL/MOL
REMARK 927      BINDING AFFINITY PREDICTED BY RF-SCORE:    0.00 PKD
ROOT
HETATM    1  N   UNL     1      -6.117   5.575  73.181  1.00  0.00    -0.042 NA 
HETATM    2  H1  UNL     1      -5.560   6.283  73.659  1.00  0.00     0.000 HD 
HETATM    3  C   UNL     1      -7.409   5.879  72.737  1.00  0.00    -0.091 A  
HETATM    4  H2  UNL     1      -5.579   5.223  72.389  1.00  0.00     0.000 HD 
HETATM    5  C   UNL     1      -8.172   4.909  72.083  1.00  0.00    -0.115 A  
HETATM    6  C   UNL     1      -9.487   5.180  71.688  1.00  0.00    -0.150 A  
HETATM    7  C   UNL     1     -10.084   6.410  71.999  1.00  0.00    -0.197 A  
HETATM    8  O   UNL     1     -10.153   4.233  70.961  1.00  0.00    -0.178 OA 
HETATM    9  C   UNL     1      -8.028   7.068  73.124  1.00  0.00    -0.109 A  
HETATM   10  C   UNL     1      -9.345   7.344  72.740  1.00  0.00    -0.201 A  
HETATM   11  H   UNL     1     -11.046   4.418  70.692  1.00  0.00     0.000 HD 
ENDROOT
BRANCH   7  12
HETATM   12  C   UNL     1     -11.425   6.837  71.515  1.00  0.00    -0.287 C  
HETATM   13  O   UNL     1     -12.463   6.486  72.060  1.00  0.00    -0.327 OA 
BRANCH  12  14
HETATM   14  O   UNL     1     -11.318   7.652  70.402  1.00  0.00    -0.272 OA 
BRANCH  14  15
HETATM   15  C   UNL     1     -11.611   9.020  70.540  1.00  0.00    -0.175 A  
HETATM   16  C   UNL     1     -11.106   9.973  69.655  1.00  0.00    -0.300 A  
HETATM   17  C   UNL     1     -11.526  11.298  69.762  1.00  0.00    -0.386 A  
HETATM   18  C   UNL     1     -12.457  11.661  70.735  1.00  0.00    -0.425 A  
HETATM   19  C   UNL     1     -12.975  10.697  71.605  1.00  0.00    -0.582 A  
HETATM   20  C   UNL     1     -12.556   9.369  71.504  1.00  0.00    -0.447 A  
ENDBRANCH  14  15
ENDBRANCH  12  14
ENDBRANCH   7  12
TORSDOF 3
ENDMDL
MODEL      220
REMARK 921   NORMALIZED FREE ENERGY PREDICTED BY IDOCK:   -3.27 KCAL/MOL
REMARK 922        TOTAL FREE ENERGY PREDICTED BY IDOCK:   -4.43 KCAL/MOL
REMARK 923 INTER-LIGAND FREE ENERGY PREDICTED BY IDOCK:   -4.14 KCAL/MOL
REMARK 924 INTRA-LIGAND FREE ENERGY PREDICTED BY IDOCK:   -0.30 KCAL/MOL
REMARK 927      BINDING AFFINITY PREDICTED BY RF-SCORE:    0.00 PKD
ROOT
HETATM    1  N   UNL     1      -9.368   4.576  72.487  1.00  0.00    -0.129 NA 
HETATM    2  H1  UNL     1      -8.957   4.525  73.419  1.00  0.00     0.000 HD 
HETATM    3  C   UNL     1      -9.734   5.814  71.946  1.00  0.00    -0.159 A  
HETATM    4  H2  UNL     1      -8.737   4.113  71.832  1.00  0.00     0.000 HD 
HETATM    5  C   UNL     1     -10.297   5.883  70.670  1.00  0.00    -0.296 A  
HETATM    6  C   UNL     1     -10.723   7.107  70.142  1.00  0.00    -0.240 A  
HETATM    7  C   UNL     1     -10.653   8.277  70.911  1.00  0.00    -0.239 A  
HETATM    8  O   UNL     1     -11.171   7.135  68.850  1.00  0.00    -0.455 OA 
HETATM    9  C   UNL     1      -9.743   6.958  72.744  1.00  0.00    -0.171 A  
HETATM   10  C   UNL     1     -10.176   8.185  72.227  1.00  0.00    -0.348 A  
HETATM   11  H   UNL     1     -11.461   7.966  68.492  1.00  0.00     0.000 HD 
ENDROOT
BRANCH   7  12
HETATM   12  C   UNL     1     -10.962   9.638  70.396  1.00  0.00    -0.299 C  
HETATM   13  O   UNL     1     -12.072  10.144  70.500  1.00  0.00    -0.283 OA 
BRANCH  12  14
HETATM   14  O   UNL     1      -9.851  10.214  69.806  1.00  0.00    -0.232 OA 
BRANCH  14  15
HETATM   15  C   UNL     1      -9.681  10.076  68.417  1.00  0.00    -0.146 A  
HETATM   16  C   UNL     1      -8.862   9.087  67.871  1.00  0.00    -0.129 A  
HETATM   17  C   UNL     1      -8.824   8.914  66.488  1.00  0.00    -0.160 A  
HETATM   18  C   UNL     1      -9.615   9.712  65.662  1.00  0.00    -0.338 A  
HETATM   19  C   UNL     1     -10.449  10.686  66.217  1.00  0.00    -0.268 A  
HETATM   20  C   UNL     1     -10.489  10.865  67.601  1.00  0.00    -0.244 A  
ENDBRANCH  14  15
ENDBRANCH  12  14
ENDBRANCH   7  12
TORSDOF 3
ENDMDL
MODEL      221
REMARK 921   NORMALIZED FREE ENERGY PREDICTED BY IDOCK:   -3.24 KCAL/MOL
REMARK 922        TOTAL FREE ENERGY PREDICTED BY IDOCK:   -4.40 KCAL/MOL
REMARK 923 INTER-LIGAND FREE ENERGY PREDICTED BY IDOCK:   -3.82 KCAL/MOL
REMARK 924 INTRA-LIGAND FREE ENERGY PREDICTED BY IDOCK:   -0.58 KCAL/MOL
REMARK 927      BINDING AFFINITY PREDICTED BY RF-SCORE:    0.00 PKD
ROOT
HETATM    1  N   UNL     1      -7.063   9.992  68.265  1.00  0.00    -0.072 NA 
HETATM    2  H1  UNL     1      -7.438   9.049  68.375  1.00  0.00     0.000 HD 
HETATM    3  C   UNL     1      -7.894  11.034  67.839  1.00  0.00    -0.110 A  
HETATM    4  H2  UNL     1      -6.625  10.268  69.144  1.00  0.00     0.000 HD 
HETATM    5  C   UNL     1      -7.380  12.324  67.689  1.00  0.00    -0.127 A  
HETATM    6  C   UNL     1      -8.185  13.363  67.206  1.00  0.00    -0.154 A  
HETATM    7  C   UNL     1      -9.504  13.112  66.803  1.00  0.00    -0.252 A  
HETATM    8  O   UNL     1      -7.663  14.626  67.176  1.00  0.00    -0.265 OA 
HETATM    9  C   UNL     1      -9.176  10.765  67.359  1.00  0.00    -0.156 A  
HETATM   10  C   UNL     1      -9.984  11.796  66.866  1.00  0.00    -0.220 A  
HETATM   11  H   UNL     1      -8.209  15.331  66.848  1.00  0.00     0.000 HD 
ENDROOT
BRANCH   7  12
HETATM   12  C   UNL     1     -10.471  14.167  66.398  1.00  0.00    -0.283 C  
HETATM   13  O   UNL     1     -11.348  13.971  65.567  1.00  0.00    -0.305 OA 
BRANCH  12  14
HETATM   14  O   UNL     1     -10.232  15.351  67.073  1.00  0.00    -0.253 OA 
BRANCH  14  15
HETATM   15  C   UNL     1     -10.883  15.567  68.301  1.00  0.00    -0.292 A  
HETATM   16  C   UNL     1     -11.831  14.672  68.797  1.00  0.00    -0.348 A  
HETATM   17  C   UNL     1     -12.356  14.867  70.074  1.00  0.00    -0.358 A  
HETATM   18  C   UNL     1     -11.920  15.939  70.853  1.00  0.00    -0.432 A  
HETATM   19  C   UNL     1     -10.955  16.819  70.358  1.00  0.00     0.135 A  
HETATM   20  C   UNL     1     -10.428  16.630  69.079  1.00  0.00    -0.328 A  
ENDBRANCH  14  15
ENDBRANCH  12  14
ENDBRANCH   7  12
TORSDOF 3
ENDMDL
MODEL      222
REMARK 921   NORMALIZED FREE ENERGY PREDICTED BY IDOCK:   -3.22 KCAL/MOL
REMARK 922        TOTAL FREE ENERGY PREDICTED BY IDOCK:   -4.37 KCAL/MOL
REMARK 923 INTER-LIGAND FREE ENERGY PREDICTED BY IDOCK:   -4.43 KCAL/MOL
REMARK 924 INTRA-LIGAND FREE ENERGY PREDICTED BY IDOCK:    0.06 KCAL/MOL
REMARK 927      BINDING AFFINITY PREDICTED BY RF-SCORE:    0.00 PKD
ROOT
HETATM    1  N   UNL     1      -7.489  13.162  67.364  1.00  0.00    -0.268 NA 
HETATM    2  H1  UNL     1      -7.936  12.996  66.462  1.00  0.00     0.000 HD 
HETATM    3  C   UNL     1      -7.173  14.466  67.762  1.00  0.00    -0.175 A  
HETATM    4  H2  UNL     1      -8.063  12.733  68.091  1.00  0.00     0.000 HD 
HETATM    5  C   UNL     1      -6.561  14.693  68.997  1.00  0.00    -0.102 A  
HETATM    6  C   UNL     1      -6.185  15.985  69.383  1.00  0.00    -0.159 A  
HETATM    7  C   UNL     1      -6.357  17.066  68.507  1.00  0.00    -0.154 A  
HETATM    8  O   UNL     1      -5.685  16.166  70.642  1.00  0.00    -0.113 OA 
HETATM    9  C   UNL     1      -7.266  15.524  66.858  1.00  0.00     0.008 A  
HETATM   10  C   UNL     1      -6.884  16.818  67.231  1.00  0.00    -0.205 A  
HETATM   11  H   UNL     1      -5.429  17.043  70.903  1.00  0.00     0.000 HD 
ENDROOT
BRANCH   7  12
HETATM   12  C   UNL     1      -6.107  18.487  68.871  1.00  0.00    -0.223 C  
HETATM   13  O   UNL     1      -5.571  18.812  69.922  1.00  0.00    -0.220 OA 
BRANCH  12  14
HETATM   14  O   UNL     1      -6.559  19.343  67.883  1.00  0.00    -0.225 OA 
BRANCH  14  15
HETATM   15  C   UNL     1      -7.944  19.454  67.672  1.00  0.00    -0.283 A  
HETATM   16  C   UNL     1      -8.843  19.571  68.733  1.00  0.00    -0.354 A  
HETATM   17  C   UNL     1     -10.192  19.802  68.468  1.00  0.00    -0.547 A  
HETATM   18  C   UNL     1     -10.633  19.931  67.151  1.00  0.00    -0.527 A  
HETATM   19  C   UNL     1      -9.724  19.833  66.094  1.00  0.00    -0.510 A  
HETATM   20  C   UNL     1      -8.373  19.600  66.354  1.00  0.00    -0.376 A  
ENDBRANCH  14  15
ENDBRANCH  12  14
ENDBRANCH   7  12
TORSDOF 3
ENDMDL
MODEL      223
REMARK 921   NORMALIZED FREE ENERGY PREDICTED BY IDOCK:   -3.21 KCAL/MOL
REMARK 922        TOTAL FREE ENERGY PREDICTED BY IDOCK:   -4.37 KCAL/MOL
REMARK 923 INTER-LIGAND FREE ENERGY PREDICTED BY IDOCK:   -3.81 KCAL/MOL
REMARK 924 INTRA-LIGAND FREE ENERGY PREDICTED BY IDOCK:   -0.56 KCAL/MOL
REMARK 927      BINDING AFFINITY PREDICTED BY RF-SCORE:    0.00 PKD
ROOT
HETATM    1  N   UNL     1      -7.258   4.847  73.732  1.00  0.00    -0.080 NA 
HETATM    2  H1  UNL     1      -6.539   5.068  74.421  1.00  0.00     0.000 HD 
HETATM    3  C   UNL     1      -8.104   5.852  73.251  1.00  0.00    -0.116 A  
HETATM    4  H2  UNL     1      -6.809   4.394  72.934  1.00  0.00     0.000 HD 
HETATM    5  C   UNL     1      -9.087   5.549  72.307  1.00  0.00    -0.149 A  
HETATM    6  C   UNL     1      -9.979   6.532  71.862  1.00  0.00    -0.177 A  
HETATM    7  C   UNL     1      -9.943   7.823  72.406  1.00  0.00    -0.272 A  
HETATM    8  O   UNL     1     -10.854   6.208  70.863  1.00  0.00    -0.253 OA 
HETATM    9  C   UNL     1      -8.121   7.109  73.855  1.00  0.00    -0.142 A  
HETATM   10  C   UNL     1      -9.015   8.096  73.423  1.00  0.00    -0.313 A  
HETATM   11  H   UNL     1     -11.460   6.876  70.562  1.00  0.00     0.000 HD 
ENDROOT
BRANCH   7  12
HETATM   12  C   UNL     1     -10.761   8.964  71.912  1.00  0.00    -0.356 C  
HETATM   13  O   UNL     1     -11.965   9.046  72.115  1.00  0.00    -0.357 OA 
BRANCH  12  14
HETATM   14  O   UNL     1      -9.983   9.872  71.216  1.00  0.00     0.093 OA 
BRANCH  14  15
HETATM   15  C   UNL     1     -10.316  10.157  69.880  1.00  0.00    -0.261 A  
HETATM   16  C   UNL     1      -9.907   9.335  68.829  1.00  0.00    -0.174 A  
HETATM   17  C   UNL     1     -10.367   9.592  67.538  1.00  0.00    -0.306 A  
HETATM   18  C   UNL     1     -11.243  10.652  67.306  1.00  0.00    -0.237 A  
HETATM   19  C   UNL     1     -11.665  11.458  68.366  1.00  0.00    -0.373 A  
HETATM   20  C   UNL     1     -11.206  11.206  69.660  1.00  0.00    -0.333 A  
ENDBRANCH  14  15
ENDBRANCH  12  14
ENDBRANCH   7  12
TORSDOF 3
ENDMDL
MODEL      224
REMARK 921   NORMALIZED FREE ENERGY PREDICTED BY IDOCK:   -3.20 KCAL/MOL
REMARK 922        TOTAL FREE ENERGY PREDICTED BY IDOCK:   -4.36 KCAL/MOL
REMARK 923 INTER-LIGAND FREE ENERGY PREDICTED BY IDOCK:   -3.67 KCAL/MOL
REMARK 924 INTRA-LIGAND FREE ENERGY PREDICTED BY IDOCK:   -0.69 KCAL/MOL
REMARK 927      BINDING AFFINITY PREDICTED BY RF-SCORE:    0.00 PKD
ROOT
HETATM    1  N   UNL     1      -9.328  11.939  65.201  1.00  0.00    -0.432 NA 
HETATM    2  H1  UNL     1      -9.721  12.776  65.632  1.00  0.00     0.000 HD 
HETATM    3  C   UNL     1      -9.642  10.673  65.709  1.00  0.00    -0.210 A  
HETATM    4  H2  UNL     1      -9.557  11.953  64.207  1.00  0.00     0.000 HD 
HETATM    5  C   UNL     1      -9.105   9.528  65.118  1.00  0.00    -0.281 A  
HETATM    6  C   UNL     1      -9.362   8.260  65.653  1.00  0.00     0.052 A  
HETATM    7  C   UNL     1     -10.111   8.122  66.829  1.00  0.00    -0.365 A  
HETATM    8  O   UNL     1      -8.897   7.166  64.977  1.00  0.00    -0.360 OA 
HETATM    9  C   UNL     1     -10.314  10.547  66.925  1.00  0.00    -0.293 A  
HETATM   10  C   UNL     1     -10.568   9.283  67.471  1.00  0.00    -0.329 A  
HETATM   11  H   UNL     1      -9.071   6.305  65.340  1.00  0.00     0.000 HD 
ENDROOT
BRANCH   7  12
HETATM   12  C   UNL     1     -10.541   6.818  67.401  1.00  0.00    -0.302 C  
HETATM   13  O   UNL     1     -11.082   5.951  66.727  1.00  0.00    -0.262 OA 
BRANCH  12  14
HETATM   14  O   UNL     1     -10.252   6.744  68.752  1.00  0.00    -0.160 OA 
BRANCH  14  15
HETATM   15  C   UNL     1      -9.285   5.819  69.182  1.00  0.00    -0.120 A  
HETATM   16  C   UNL     1      -7.945   5.927  68.806  1.00  0.00    -0.103 A  
HETATM   17  C   UNL     1      -7.005   5.058  69.357  1.00  0.00    -0.055 A  
HETATM   18  C   UNL     1      -7.402   4.101  70.291  1.00  0.00    -0.045 A  
HETATM   19  C   UNL     1      -8.741   4.011  70.679  1.00  0.00    -0.120 A  
HETATM   20  C   UNL     1      -9.686   4.878  70.128  1.00  0.00    -0.283 A  
ENDBRANCH  14  15
ENDBRANCH  12  14
ENDBRANCH   7  12
TORSDOF 3
ENDMDL
MODEL      225
REMARK 921   NORMALIZED FREE ENERGY PREDICTED BY IDOCK:   -3.15 KCAL/MOL
REMARK 922        TOTAL FREE ENERGY PREDICTED BY IDOCK:   -4.30 KCAL/MOL
REMARK 923 INTER-LIGAND FREE ENERGY PREDICTED BY IDOCK:   -3.55 KCAL/MOL
REMARK 924 INTRA-LIGAND FREE ENERGY PREDICTED BY IDOCK:   -0.76 KCAL/MOL
REMARK 927      BINDING AFFINITY PREDICTED BY RF-SCORE:    0.00 PKD
ROOT
HETATM    1  N   UNL     1      -5.694   5.815  68.736  1.00  0.00    -0.011 NA 
HETATM    2  H1  UNL     1      -5.755   5.135  67.978  1.00  0.00     0.000 HD 
HETATM    3  C   UNL     1      -6.759   6.688  68.985  1.00  0.00    -0.052 A  
HETATM    4  H2  UNL     1      -5.478   5.316  69.599  1.00  0.00     0.000 HD 
HETATM    5  C   UNL     1      -6.675   7.619  70.022  1.00  0.00    -0.049 A  
HETATM    6  C   UNL     1      -7.708   8.538  70.244  1.00  0.00    -0.077 A  
HETATM    7  C   UNL     1      -8.816   8.582  69.388  1.00  0.00    -0.141 A  
HETATM    8  O   UNL     1      -7.622   9.358  71.335  1.00  0.00    -0.340 OA 
HETATM    9  C   UNL     1      -7.818   6.787  68.082  1.00  0.00    -0.113 A  
HETATM   10  C   UNL     1      -8.850   7.708  68.291  1.00  0.00    -0.125 A  
HETATM   11  H   UNL     1      -8.323   9.981  71.485  1.00  0.00     0.000 HD 
ENDROOT
BRANCH   7  12
HETATM   12  C   UNL     1     -10.017   9.432  69.614  1.00  0.00    -0.197 C  
HETATM   13  O   UNL     1      -9.972  10.654  69.580  1.00  0.00    -0.197 OA 
BRANCH  12  14
HETATM   14  O   UNL     1     -11.137   8.659  69.861  1.00  0.00    -0.218 OA 
BRANCH  14  15
HETATM   15  C   UNL     1     -11.127   7.798  70.973  1.00  0.00    -0.257 A  
HETATM   16  C   UNL     1     -11.168   6.410  70.828  1.00  0.00    -0.386 A  
HETATM   17  C   UNL     1     -11.031   5.599  71.953  1.00  0.00    -0.297 A  
HETATM   18  C   UNL     1     -10.837   6.173  73.210  1.00  0.00    -0.268 A  
HETATM   19  C   UNL     1     -10.775   7.562  73.344  1.00  0.00    -0.387 A  
HETATM   20  C   UNL     1     -10.914   8.379  72.221  1.00  0.00    -0.431 A  
ENDBRANCH  14  15
ENDBRANCH  12  14
ENDBRANCH   7  12
TORSDOF 3
ENDMDL
MODEL      226
REMARK 921   NORMALIZED FREE ENERGY PREDICTED BY IDOCK:   -3.10 KCAL/MOL
REMARK 922        TOTAL FREE ENERGY PREDICTED BY IDOCK:   -4.24 KCAL/MOL
REMARK 923 INTER-LIGAND FREE ENERGY PREDICTED BY IDOCK:   -3.65 KCAL/MOL
REMARK 924 INTRA-LIGAND FREE ENERGY PREDICTED BY IDOCK:   -0.60 KCAL/MOL
REMARK 927      BINDING AFFINITY PREDICTED BY RF-SCORE:    0.00 PKD
ROOT
HETATM    1  N   UNL     1     -11.995   6.566  72.535  1.00  0.00    -0.514 NA 
HETATM    2  H1  UNL     1     -11.763   6.171  73.447  1.00  0.00     0.000 HD 
HETATM    3  C   UNL     1     -11.380   6.074  71.379  1.00  0.00    -0.236 A  
HETATM    4  H2  UNL     1     -13.006   6.511  72.410  1.00  0.00     0.000 HD 
HETATM    5  C   UNL     1     -11.698   6.614  70.131  1.00  0.00    -0.412 A  
HETATM    6  C   UNL     1     -11.046   6.173  68.973  1.00  0.00    -0.367 A  
HETATM    7  C   UNL     1     -10.015   5.227  69.054  1.00  0.00    -0.260 A  
HETATM    8  O   UNL     1     -11.468   6.660  67.767  1.00  0.00    -0.654 OA 
HETATM    9  C   UNL     1     -10.298   5.198  71.472  1.00  0.00    -0.278 A  
HETATM   10  C   UNL     1      -9.634   4.759  70.320  1.00  0.00    -0.269 A  
HETATM   11  H   UNL     1     -11.025   6.360  66.981  1.00  0.00     0.000 HD 
ENDROOT
BRANCH   7  12
HETATM   12  C   UNL     1      -9.352   4.606  67.875  1.00  0.00    -0.134 C  
HETATM   13  O   UNL     1      -9.984   4.144  66.934  1.00  0.00    -0.210 OA 
BRANCH  12  14
HETATM   14  O   UNL     1      -7.975   4.630  68.006  1.00  0.00    -0.084 OA 
BRANCH  14  15
HETATM   15  C   UNL     1      -7.191   4.655  66.839  1.00  0.00    -0.076 A  
HETATM   16  C   UNL     1      -6.952   5.838  66.139  1.00  0.00    -0.059 A  
HETATM   17  C   UNL     1      -6.068   5.830  65.061  1.00  0.00    -0.025 A  
HETATM   18  C   UNL     1      -5.416   4.652  64.700  1.00  0.00    -0.013 A  
HETATM   19  C   UNL     1      -5.643   3.475  65.419  1.00  0.00    -0.017 A  
HETATM   20  C   UNL     1      -6.529   3.477  66.498  1.00  0.00    -0.037 A  
ENDBRANCH  14  15
ENDBRANCH  12  14
ENDBRANCH   7  12
TORSDOF 3
ENDMDL
MODEL      227
REMARK 921   NORMALIZED FREE ENERGY PREDICTED BY IDOCK:   -3.04 KCAL/MOL
REMARK 922        TOTAL FREE ENERGY PREDICTED BY IDOCK:   -4.16 KCAL/MOL
REMARK 923 INTER-LIGAND FREE ENERGY PREDICTED BY IDOCK:   -3.48 KCAL/MOL
REMARK 924 INTRA-LIGAND FREE ENERGY PREDICTED BY IDOCK:   -0.69 KCAL/MOL
REMARK 927      BINDING AFFINITY PREDICTED BY RF-SCORE:    0.00 PKD
ROOT
HETATM    1  N   UNL     1      -8.645   3.926  74.207  1.00  0.00    -0.095 NA 
HETATM    2  H1  UNL     1      -7.882   3.997  74.880  1.00  0.00     0.000 HD 
HETATM    3  C   UNL     1      -9.188   5.082  73.635  1.00  0.00    -0.122 A  
HETATM    4  H2  UNL     1      -8.353   3.301  73.455  1.00  0.00     0.000 HD 
HETATM    5  C   UNL     1     -10.233   4.985  72.714  1.00  0.00    -0.226 A  
HETATM    6  C   UNL     1     -10.825   6.136  72.180  1.00  0.00    -0.247 A  
HETATM    7  C   UNL     1     -10.424   7.407  72.611  1.00  0.00    -0.303 A  
HETATM    8  O   UNL     1     -11.773   5.984  71.206  1.00  0.00    -0.225 OA 
HETATM    9  C   UNL     1      -8.846   6.342  74.128  1.00  0.00    -0.143 A  
HETATM   10  C   UNL     1      -9.440   7.497  73.607  1.00  0.00    -0.338 A  
HETATM   11  H   UNL     1     -12.175   6.765  70.844  1.00  0.00     0.000 HD 
ENDROOT
BRANCH   7  12
HETATM   12  C   UNL     1     -10.902   8.684  72.015  1.00  0.00    -0.360 C  
HETATM   13  O   UNL     1     -12.090   8.964  71.926  1.00  0.00    -0.325 OA 
BRANCH  12  14
HETATM   14  O   UNL     1      -9.842   9.466  71.592  1.00  0.00    -0.219 OA 
BRANCH  14  15
HETATM   15  C   UNL     1      -9.104   9.048  70.471  1.00  0.00    -0.221 A  
HETATM   16  C   UNL     1      -9.694   8.335  69.426  1.00  0.00    -0.177 A  
HETATM   17  C   UNL     1      -8.948   8.052  68.283  1.00  0.00    -0.132 A  
HETATM   18  C   UNL     1      -7.630   8.495  68.180  1.00  0.00    -0.098 A  
HETATM   19  C   UNL     1      -7.052   9.226  69.221  1.00  0.00    -0.057 A  
HETATM   20  C   UNL     1      -7.793   9.511  70.369  1.00  0.00    -0.190 A  
ENDBRANCH  14  15
ENDBRANCH  12  14
ENDBRANCH   7  12
TORSDOF 3
ENDMDL
MODEL      228
REMARK 921   NORMALIZED FREE ENERGY PREDICTED BY IDOCK:   -3.03 KCAL/MOL
REMARK 922        TOTAL FREE ENERGY PREDICTED BY IDOCK:   -4.15 KCAL/MOL
REMARK 923 INTER-LIGAND FREE ENERGY PREDICTED BY IDOCK:   -4.14 KCAL/MOL
REMARK 924 INTRA-LIGAND FREE ENERGY PREDICTED BY IDOCK:   -0.01 KCAL/MOL
REMARK 927      BINDING AFFINITY PREDICTED BY RF-SCORE:    0.00 PKD
ROOT
HETATM    1  N   UNL     1     -10.832  12.296  64.445  1.00  0.00    -0.307 NA 
HETATM    2  H1  UNL     1     -11.438  13.116  64.414  1.00  0.00     0.000 HD 
HETATM    3  C   UNL     1     -10.755  11.522  65.608  1.00  0.00    -0.267 A  
HETATM    4  H2  UNL     1     -11.079  11.684  63.666  1.00  0.00     0.000 HD 
HETATM    5  C   UNL     1      -9.925  10.400  65.650  1.00  0.00    -0.337 A  
HETATM    6  C   UNL     1      -9.792   9.651  66.826  1.00  0.00    -0.211 A  
HETATM    7  C   UNL     1     -10.440  10.054  68.002  1.00  0.00    -0.260 A  
HETATM    8  O   UNL     1      -9.049   8.505  66.784  1.00  0.00    -0.138 OA 
HETATM    9  C   UNL     1     -11.330  11.973  66.796  1.00  0.00    -0.398 A  
HETATM   10  C   UNL     1     -11.195  11.236  67.979  1.00  0.00    -0.351 A  
HETATM   11  H   UNL     1      -8.959   7.997  67.582  1.00  0.00     0.000 HD 
ENDROOT
BRANCH   7  12
HETATM   12  C   UNL     1     -10.462   9.261  69.260  1.00  0.00    -0.218 C  
HETATM   13  O   UNL     1     -10.141   9.735  70.342  1.00  0.00    -0.259 OA 
BRANCH  12  14
HETATM   14  O   UNL     1     -10.878   7.963  69.026  1.00  0.00    -0.143 OA 
BRANCH  14  15
HETATM   15  C   UNL     1     -10.197   6.913  69.668  1.00  0.00    -0.193 A  
HETATM   16  C   UNL     1     -10.555   5.578  69.475  1.00  0.00    -0.366 A  
HETATM   17  C   UNL     1      -9.773   4.570  70.037  1.00  0.00    -0.283 A  
HETATM   18  C   UNL     1      -8.632   4.897  70.769  1.00  0.00    -0.127 A  
HETATM   19  C   UNL     1      -8.268   6.235  70.941  1.00  0.00    -0.126 A  
HETATM   20  C   UNL     1      -9.049   7.248  70.383  1.00  0.00    -0.155 A  
ENDBRANCH  14  15
ENDBRANCH  12  14
ENDBRANCH   7  12
TORSDOF 3
ENDMDL
MODEL      229
REMARK 921   NORMALIZED FREE ENERGY PREDICTED BY IDOCK:   -3.00 KCAL/MOL
REMARK 922        TOTAL FREE ENERGY PREDICTED BY IDOCK:   -4.13 KCAL/MOL
REMARK 923 INTER-LIGAND FREE ENERGY PREDICTED BY IDOCK:   -3.55 KCAL/MOL
REMARK 924 INTRA-LIGAND FREE ENERGY PREDICTED BY IDOCK:   -0.58 KCAL/MOL
REMARK 927      BINDING AFFINITY PREDICTED BY RF-SCORE:    0.00 PKD
ROOT
HETATM    1  N   UNL     1      -9.399  14.705  66.046  1.00  0.00    -0.487 NA 
HETATM    2  H1  UNL     1      -9.284  15.503  66.671  1.00  0.00     0.000 HD 
HETATM    3  C   UNL     1      -9.535  13.415  66.570  1.00  0.00    -0.245 A  
HETATM    4  H2  UNL     1     -10.195  14.889  65.434  1.00  0.00     0.000 HD 
HETATM    5  C   UNL     1      -9.694  12.323  65.714  1.00  0.00    -0.228 A  
HETATM    6  C   UNL     1      -9.770  11.021  66.222  1.00  0.00    -0.207 A  
HETATM    7  C   UNL     1      -9.623  10.784  67.596  1.00  0.00    -0.174 A  
HETATM    8  O   UNL     1     -10.028  10.000  65.351  1.00  0.00    -0.297 OA 
HETATM    9  C   UNL     1      -9.303  13.175  67.924  1.00  0.00    -0.215 A  
HETATM   10  C   UNL     1      -9.368  11.875  68.440  1.00  0.00    -0.184 A  
HETATM   11  H   UNL     1     -10.080   9.116  65.696  1.00  0.00     0.000 HD 
ENDROOT
BRANCH   7  12
HETATM   12  C   UNL     1      -9.813   9.458  68.243  1.00  0.00    -0.160 C  
HETATM   13  O   UNL     1     -10.807   9.185  68.903  1.00  0.00    -0.178 OA 
BRANCH  12  14
HETATM   14  O   UNL     1      -8.739   8.621  67.995  1.00  0.00    -0.139 OA 
BRANCH  14  15
HETATM   15  C   UNL     1      -8.979   7.243  67.860  1.00  0.00    -0.130 A  
HETATM   16  C   UNL     1      -8.778   6.354  68.917  1.00  0.00    -0.126 A  
HETATM   17  C   UNL     1      -9.147   5.018  68.769  1.00  0.00    -0.140 A  
HETATM   18  C   UNL     1      -9.728   4.581  67.579  1.00  0.00    -0.213 A  
HETATM   19  C   UNL     1      -9.946   5.480  66.532  1.00  0.00    -0.214 A  
HETATM   20  C   UNL     1      -9.576   6.819  66.674  1.00  0.00    -0.211 A  
ENDBRANCH  14  15
ENDBRANCH  12  14
ENDBRANCH   7  12
TORSDOF 3
ENDMDL
MODEL      230
REMARK 921   NORMALIZED FREE ENERGY PREDICTED BY IDOCK:   -2.99 KCAL/MOL
REMARK 922        TOTAL FREE ENERGY PREDICTED BY IDOCK:   -4.11 KCAL/MOL
REMARK 923 INTER-LIGAND FREE ENERGY PREDICTED BY IDOCK:   -3.56 KCAL/MOL
REMARK 924 INTRA-LIGAND FREE ENERGY PREDICTED BY IDOCK:   -0.55 KCAL/MOL
REMARK 927      BINDING AFFINITY PREDICTED BY RF-SCORE:    0.00 PKD
ROOT
HETATM    1  N   UNL     1     -10.515  12.974  65.767  1.00  0.00    -0.276 NA 
HETATM    2  H1  UNL     1     -10.299  13.324  64.833  1.00  0.00     0.000 HD 
HETATM    3  C   UNL     1     -10.276  11.633  66.087  1.00  0.00    -0.226 A  
HETATM    4  H2  UNL     1     -10.031  13.560  66.448  1.00  0.00     0.000 HD 
HETATM    5  C   UNL     1     -10.571  11.155  67.366  1.00  0.00    -0.272 A  
HETATM    6  C   UNL     1     -10.394   9.803  67.683  1.00  0.00    -0.230 A  
HETATM    7  C   UNL     1      -9.979   8.892  66.702  1.00  0.00    -0.346 A  
HETATM    8  O   UNL     1     -10.599   9.408  68.975  1.00  0.00    -0.217 OA 
HETATM    9  C   UNL     1      -9.947  10.716  65.090  1.00  0.00    -0.366 A  
HETATM   10  C   UNL     1      -9.776   9.360  65.395  1.00  0.00    -0.248 A  
HETATM   11  H   UNL     1     -10.479   8.490  69.190  1.00  0.00     0.000 HD 
ENDROOT
BRANCH   7  12
HETATM   12  C   UNL     1      -9.643   7.467  66.970  1.00  0.00    -0.170 C  
HETATM   13  O   UNL     1     -10.057   6.552  66.271  1.00  0.00    -0.050 OA 
BRANCH  12  14
HETATM   14  O   UNL     1      -8.831   7.346  68.083  1.00  0.00    -0.128 OA 
BRANCH  14  15
HETATM   15  C   UNL     1      -9.104   6.319  69.004  1.00  0.00    -0.129 A  
HETATM   16  C   UNL     1     -10.277   6.301  69.759  1.00  0.00    -0.234 A  
HETATM   17  C   UNL     1     -10.557   5.199  70.567  1.00  0.00    -0.221 A  
HETATM   18  C   UNL     1      -9.677   4.118  70.602  1.00  0.00    -0.273 A  
HETATM   19  C   UNL     1      -8.515   4.133  69.828  1.00  0.00    -0.087 A  
HETATM   20  C   UNL     1      -8.229   5.235  69.020  1.00  0.00    -0.085 A  
ENDBRANCH  14  15
ENDBRANCH  12  14
ENDBRANCH   7  12
TORSDOF 3
ENDMDL
MODEL      231
REMARK 921   NORMALIZED FREE ENERGY PREDICTED BY IDOCK:   -2.97 KCAL/MOL
REMARK 922        TOTAL FREE ENERGY PREDICTED BY IDOCK:   -4.09 KCAL/MOL
REMARK 923 INTER-LIGAND FREE ENERGY PREDICTED BY IDOCK:   -3.55 KCAL/MOL
REMARK 924 INTRA-LIGAND FREE ENERGY PREDICTED BY IDOCK:   -0.53 KCAL/MOL
REMARK 927      BINDING AFFINITY PREDICTED BY RF-SCORE:    0.00 PKD
ROOT
HETATM    1  N   UNL     1      -7.606  14.883  66.982  1.00  0.00    -0.291 NA 
HETATM    2  H1  UNL     1      -7.804  15.875  67.119  1.00  0.00     0.000 HD 
HETATM    3  C   UNL     1      -8.485  13.916  67.482  1.00  0.00    -0.196 A  
HETATM    4  H2  UNL     1      -7.478  14.716  65.983  1.00  0.00     0.000 HD 
HETATM    5  C   UNL     1      -8.215  12.559  67.294  1.00  0.00    -0.184 A  
HETATM    6  C   UNL     1      -9.053  11.579  67.840  1.00  0.00    -0.167 A  
HETATM    7  C   UNL     1     -10.143  11.944  68.642  1.00  0.00    -0.186 A  
HETATM    8  O   UNL     1      -8.801  10.270  67.540  1.00  0.00    -0.128 OA 
HETATM    9  C   UNL     1      -9.517  14.278  68.348  1.00  0.00    -0.213 A  
HETATM   10  C   UNL     1     -10.354  13.306  68.907  1.00  0.00    -0.079 A  
HETATM   11  H   UNL     1      -9.370   9.606  67.911  1.00  0.00     0.000 HD 
ENDROOT
BRANCH   7  12
HETATM   12  C   UNL     1     -11.159  10.988  69.161  1.00  0.00    -0.243 C  
HETATM   13  O   UNL     1     -12.150  10.670  68.517  1.00  0.00    -0.420 OA 
BRANCH  12  14
HETATM   14  O   UNL     1     -10.824  10.541  70.426  1.00  0.00    -0.263 OA 
BRANCH  14  15
HETATM   15  C   UNL     1     -10.145   9.316  70.547  1.00  0.00    -0.255 A  
HETATM   16  C   UNL     1      -8.827   9.248  71.001  1.00  0.00    -0.205 A  
HETATM   17  C   UNL     1      -8.240   8.002  71.220  1.00  0.00    -0.119 A  
HETATM   18  C   UNL     1      -8.974   6.836  71.004  1.00  0.00    -0.145 A  
HETATM   19  C   UNL     1     -10.300   6.912  70.570  1.00  0.00    -0.224 A  
HETATM   20  C   UNL     1     -10.892   8.156  70.347  1.00  0.00    -0.237 A  
ENDBRANCH  14  15
ENDBRANCH  12  14
ENDBRANCH   7  12
TORSDOF 3
ENDMDL
MODEL      232
REMARK 921   NORMALIZED FREE ENERGY PREDICTED BY IDOCK:   -2.97 KCAL/MOL
REMARK 922        TOTAL FREE ENERGY PREDICTED BY IDOCK:   -4.08 KCAL/MOL
REMARK 923 INTER-LIGAND FREE ENERGY PREDICTED BY IDOCK:   -3.26 KCAL/MOL
REMARK 924 INTRA-LIGAND FREE ENERGY PREDICTED BY IDOCK:   -0.83 KCAL/MOL
REMARK 927      BINDING AFFINITY PREDICTED BY RF-SCORE:    0.00 PKD
ROOT
HETATM    1  N   UNL     1      -7.076   9.998  70.544  1.00  0.00    -0.286 NA 
HETATM    2  H1  UNL     1      -6.669  10.219  69.635  1.00  0.00     0.000 HD 
HETATM    3  C   UNL     1      -8.154   9.110  70.634  1.00  0.00    -0.172 A  
HETATM    4  H2  UNL     1      -6.331   9.664  71.157  1.00  0.00     0.000 HD 
HETATM    5  C   UNL     1      -8.710   8.807  71.878  1.00  0.00    -0.199 A  
HETATM    6  C   UNL     1      -9.827   7.968  71.978  1.00  0.00    -0.211 A  
HETATM    7  C   UNL     1     -10.446   7.469  70.823  1.00  0.00    -0.217 A  
HETATM    8  O   UNL     1     -10.268   7.622  73.224  1.00  0.00    -0.305 OA 
HETATM    9  C   UNL     1      -8.817   8.686  69.483  1.00  0.00    -0.144 A  
HETATM   10  C   UNL     1      -9.940   7.854  69.573  1.00  0.00    -0.189 A  
HETATM   11  H   UNL     1     -11.026   7.052  73.291  1.00  0.00     0.000 HD 
ENDROOT
BRANCH   7  12
HETATM   12  C   UNL     1     -11.553   6.475  70.829  1.00  0.00    -0.377 C  
HETATM   13  O   UNL     1     -12.661   6.728  71.280  1.00  0.00    -0.345 OA 
BRANCH  12  14
HETATM   14  O   UNL     1     -11.149   5.274  70.274  1.00  0.00    -0.065 OA 
BRANCH  14  15
HETATM   15  C   UNL     1     -10.202   4.498  70.966  1.00  0.00    -0.097 A  
HETATM   16  C   UNL     1     -10.388   4.130  72.299  1.00  0.00    -0.197 A  
HETATM   17  C   UNL     1      -9.482   3.259  72.903  1.00  0.00    -0.136 A  
HETATM   18  C   UNL     1      -8.410   2.748  72.171  1.00  0.00    -0.061 A  
HETATM   19  C   UNL     1      -8.242   3.104  70.831  1.00  0.00    -0.075 A  
HETATM   20  C   UNL     1      -9.145   3.978  70.222  1.00  0.00    -0.181 A  
ENDBRANCH  14  15
ENDBRANCH  12  14
ENDBRANCH   7  12
TORSDOF 3
ENDMDL
MODEL      233
REMARK 921   NORMALIZED FREE ENERGY PREDICTED BY IDOCK:   -2.96 KCAL/MOL
REMARK 922        TOTAL FREE ENERGY PREDICTED BY IDOCK:   -4.07 KCAL/MOL
REMARK 923 INTER-LIGAND FREE ENERGY PREDICTED BY IDOCK:   -3.75 KCAL/MOL
REMARK 924 INTRA-LIGAND FREE ENERGY PREDICTED BY IDOCK:   -0.32 KCAL/MOL
REMARK 927      BINDING AFFINITY PREDICTED BY RF-SCORE:    0.00 PKD
ROOT
HETATM    1  N   UNL     1      -7.065   7.247  65.131  1.00  0.00    -0.062 NA 
HETATM    2  H1  UNL     1      -7.339   7.031  64.172  1.00  0.00     0.000 HD 
HETATM    3  C   UNL     1      -7.469   8.448  65.724  1.00  0.00    -0.077 A  
HETATM    4  H2  UNL     1      -7.361   6.476  65.730  1.00  0.00     0.000 HD 
HETATM    5  C   UNL     1      -7.094   8.743  67.036  1.00  0.00    -0.078 A  
HETATM    6  C   UNL     1      -7.439   9.967  67.622  1.00  0.00    -0.090 A  
HETATM    7  C   UNL     1      -8.113  10.946  66.878  1.00  0.00    -0.137 A  
HETATM    8  O   UNL     1      -7.137  10.163  68.940  1.00  0.00    -0.064 OA 
HETATM    9  C   UNL     1      -8.061   9.451  64.957  1.00  0.00    -0.129 A  
HETATM   10  C   UNL     1      -8.403  10.681  65.531  1.00  0.00    -0.158 A  
HETATM   11  H   UNL     1      -7.372  10.993  69.337  1.00  0.00     0.000 HD 
ENDROOT
BRANCH   7  12
HETATM   12  C   UNL     1      -8.632  12.220  67.445  1.00  0.00    -0.178 C  
HETATM   13  O   UNL     1      -7.893  13.111  67.842  1.00  0.00    -0.122 OA 
BRANCH  12  14
HETATM   14  O   UNL     1     -10.015  12.235  67.455  1.00  0.00    -0.195 OA 
BRANCH  14  15
HETATM   15  C   UNL     1     -10.687  12.865  66.393  1.00  0.00    -0.270 A  
HETATM   16  C   UNL     1     -11.891  12.371  65.889  1.00  0.00    -0.467 A  
HETATM   17  C   UNL     1     -12.580  13.099  64.920  1.00  0.00    -0.468 A  
HETATM   18  C   UNL     1     -12.075  14.321  64.474  1.00  0.00    -0.499 A  
HETATM   19  C   UNL     1     -10.880  14.820  64.998  1.00  0.00    -0.440 A  
HETATM   20  C   UNL     1     -10.186  14.093  65.967  1.00  0.00    -0.318 A  
ENDBRANCH  14  15
ENDBRANCH  12  14
ENDBRANCH   7  12
TORSDOF 3
ENDMDL
MODEL      234
REMARK 921   NORMALIZED FREE ENERGY PREDICTED BY IDOCK:   -2.96 KCAL/MOL
REMARK 922        TOTAL FREE ENERGY PREDICTED BY IDOCK:   -4.07 KCAL/MOL
REMARK 923 INTER-LIGAND FREE ENERGY PREDICTED BY IDOCK:   -3.34 KCAL/MOL
REMARK 924 INTRA-LIGAND FREE ENERGY PREDICTED BY IDOCK:   -0.74 KCAL/MOL
REMARK 927      BINDING AFFINITY PREDICTED BY RF-SCORE:    0.00 PKD
ROOT
HETATM    1  N   UNL     1      -6.947  10.898  70.336  1.00  0.00    -0.477 NA 
HETATM    2  H1  UNL     1      -6.081  10.749  70.854  1.00  0.00     0.000 HD 
HETATM    3  C   UNL     1      -7.871   9.857  70.195  1.00  0.00    -0.171 A  
HETATM    4  H2  UNL     1      -7.427  11.703  70.740  1.00  0.00     0.000 HD 
HETATM    5  C   UNL     1      -9.056  10.063  69.486  1.00  0.00    -0.236 A  
HETATM    6  C   UNL     1      -9.961   9.014  69.285  1.00  0.00    -0.188 A  
HETATM    7  C   UNL     1      -9.662   7.721  69.736  1.00  0.00    -0.176 A  
HETATM    8  O   UNL     1     -11.152   9.293  68.675  1.00  0.00    -0.449 OA 
HETATM    9  C   UNL     1      -7.532   8.557  70.569  1.00  0.00    -0.062 A  
HETATM   10  C   UNL     1      -8.427   7.500  70.364  1.00  0.00    -0.141 A  
HETATM   11  H   UNL     1     -11.766   8.581  68.539  1.00  0.00     0.000 HD 
ENDROOT
BRANCH   7  12
HETATM   12  C   UNL     1     -10.609   6.574  69.683  1.00  0.00    -0.243 C  
HETATM   13  O   UNL     1     -11.811   6.705  69.872  1.00  0.00    -0.340 OA 
BRANCH  12  14
HETATM   14  O   UNL     1      -9.947   5.392  69.403  1.00  0.00    -0.172 OA 
BRANCH  14  15
HETATM   15  C   UNL     1      -9.709   5.059  68.058  1.00  0.00    -0.151 A  
HETATM   16  C   UNL     1     -10.751   4.898  67.144  1.00  0.00     0.120 A  
HETATM   17  C   UNL     1     -10.457   4.689  65.797  1.00  0.00    -0.290 A  
HETATM   18  C   UNL     1      -9.131   4.661  65.368  1.00  0.00    -0.149 A  
HETATM   19  C   UNL     1      -8.092   4.844  66.285  1.00  0.00    -0.107 A  
HETATM   20  C   UNL     1      -8.381   5.050  67.635  1.00  0.00    -0.105 A  
ENDBRANCH  14  15
ENDBRANCH  12  14
ENDBRANCH   7  12
TORSDOF 3
ENDMDL
MODEL      235
REMARK 921   NORMALIZED FREE ENERGY PREDICTED BY IDOCK:   -2.93 KCAL/MOL
REMARK 922        TOTAL FREE ENERGY PREDICTED BY IDOCK:   -4.04 KCAL/MOL
REMARK 923 INTER-LIGAND FREE ENERGY PREDICTED BY IDOCK:   -3.33 KCAL/MOL
REMARK 924 INTRA-LIGAND FREE ENERGY PREDICTED BY IDOCK:   -0.70 KCAL/MOL
REMARK 927      BINDING AFFINITY PREDICTED BY RF-SCORE:    0.00 PKD
ROOT
HETATM    1  N   UNL     1      -7.196  10.721  70.299  1.00  0.00    -0.464 NA 
HETATM    2  H1  UNL     1      -6.246  10.989  70.040  1.00  0.00     0.000 HD 
HETATM    3  C   UNL     1      -7.912   9.818  69.505  1.00  0.00    -0.137 A  
HETATM    4  H2  UNL     1      -7.179  10.366  71.256  1.00  0.00     0.000 HD 
HETATM    5  C   UNL     1      -9.212   9.450  69.861  1.00  0.00    -0.226 A  
HETATM    6  C   UNL     1      -9.962   8.595  69.045  1.00  0.00    -0.192 A  
HETATM    7  C   UNL     1      -9.445   8.145  67.822  1.00  0.00    -0.164 A  
HETATM    8  O   UNL     1     -11.188   8.186  69.489  1.00  0.00    -0.446 OA 
HETATM    9  C   UNL     1      -7.430   9.441  68.252  1.00  0.00    -0.078 A  
HETATM   10  C   UNL     1      -8.176   8.594  67.425  1.00  0.00    -0.105 A  
HETATM   11  H   UNL     1     -11.697   7.606  68.935  1.00  0.00     0.000 HD 
ENDROOT
BRANCH   7  12
HETATM   12  C   UNL     1     -10.110   7.139  66.950  1.00  0.00    -0.238 C  
HETATM   13  O   UNL     1     -11.318   6.942  66.978  1.00  0.00    -0.304 OA 
BRANCH  12  14
HETATM   14  O   UNL     1      -9.192   6.490  66.144  1.00  0.00    -0.156 OA 
BRANCH  14  15
HETATM   15  C   UNL     1      -9.046   5.099  66.278  1.00  0.00    -0.136 A  
HETATM   16  C   UNL     1      -8.879   4.493  67.524  1.00  0.00    -0.115 A  
HETATM   17  C   UNL     1      -8.863   3.102  67.615  1.00  0.00    -0.161 A  
HETATM   18  C   UNL     1      -9.031   2.325  66.469  1.00  0.00    -0.123 A  
HETATM   19  C   UNL     1      -9.220   2.938  65.227  1.00  0.00    -0.139 A  
HETATM   20  C   UNL     1      -9.234   4.330  65.131  1.00  0.00    -0.151 A  
ENDBRANCH  14  15
ENDBRANCH  12  14
ENDBRANCH   7  12
TORSDOF 3
ENDMDL
MODEL      236
REMARK 921   NORMALIZED FREE ENERGY PREDICTED BY IDOCK:   -2.89 KCAL/MOL
REMARK 922        TOTAL FREE ENERGY PREDICTED BY IDOCK:   -3.99 KCAL/MOL
REMARK 923 INTER-LIGAND FREE ENERGY PREDICTED BY IDOCK:   -3.40 KCAL/MOL
REMARK 924 INTRA-LIGAND FREE ENERGY PREDICTED BY IDOCK:   -0.59 KCAL/MOL
REMARK 927      BINDING AFFINITY PREDICTED BY RF-SCORE:    0.00 PKD
ROOT
HETATM    1  N   UNL     1      -9.920  12.684  64.730  1.00  0.00    -0.491 NA 
HETATM    2  H1  UNL     1     -10.491  12.283  63.985  1.00  0.00     0.000 HD 
HETATM    3  C   UNL     1      -9.775  12.007  65.946  1.00  0.00    -0.239 A  
HETATM    4  H2  UNL     1      -8.990  12.874  64.354  1.00  0.00     0.000 HD 
HETATM    5  C   UNL     1      -8.993  12.555  66.964  1.00  0.00    -0.211 A  
HETATM    6  C   UNL     1      -8.888  11.919  68.207  1.00  0.00    -0.174 A  
HETATM    7  C   UNL     1      -9.619  10.754  68.473  1.00  0.00    -0.183 A  
HETATM    8  O   UNL     1      -8.029  12.443  69.133  1.00  0.00    -0.331 OA 
HETATM    9  C   UNL     1     -10.569  10.897  66.236  1.00  0.00    -0.276 A  
HETATM   10  C   UNL     1     -10.477  10.260  67.479  1.00  0.00    -0.293 A  
HETATM   11  H   UNL     1      -7.958  12.011  69.976  1.00  0.00     0.000 HD 
ENDROOT
BRANCH   7  12
HETATM   12  C   UNL     1      -9.478   9.940  69.711  1.00  0.00    -0.226 C  
HETATM   13  O   UNL     1     -10.362   9.867  70.554  1.00  0.00    -0.286 OA 
BRANCH  12  14
HETATM   14  O   UNL     1      -8.247   9.311  69.758  1.00  0.00    -0.107 OA 
BRANCH  14  15
HETATM   15  C   UNL     1      -8.202   7.912  69.620  1.00  0.00    -0.122 A  
HETATM   16  C   UNL     1      -9.146   7.217  68.864  1.00  0.00    -0.132 A  
HETATM   17  C   UNL     1      -8.987   5.848  68.657  1.00  0.00    -0.116 A  
HETATM   18  C   UNL     1      -7.880   5.185  69.189  1.00  0.00    -0.081 A  
HETATM   19  C   UNL     1      -6.927   5.891  69.928  1.00  0.00    -0.066 A  
HETATM   20  C   UNL     1      -7.084   7.262  70.139  1.00  0.00    -0.065 A  
ENDBRANCH  14  15
ENDBRANCH  12  14
ENDBRANCH   7  12
TORSDOF 3
ENDMDL
MODEL      237
REMARK 921   NORMALIZED FREE ENERGY PREDICTED BY IDOCK:   -2.87 KCAL/MOL
REMARK 922        TOTAL FREE ENERGY PREDICTED BY IDOCK:   -3.97 KCAL/MOL
REMARK 923 INTER-LIGAND FREE ENERGY PREDICTED BY IDOCK:   -3.09 KCAL/MOL
REMARK 924 INTRA-LIGAND FREE ENERGY PREDICTED BY IDOCK:   -0.88 KCAL/MOL
REMARK 927      BINDING AFFINITY PREDICTED BY RF-SCORE:    0.00 PKD
ROOT
HETATM    1  N   UNL     1      -7.623   2.729  68.224  1.00  0.00    -0.055 NA 
HETATM    2  H1  UNL     1      -6.891   3.128  67.635  1.00  0.00     0.000 HD 
HETATM    3  C   UNL     1      -7.921   3.305  69.464  1.00  0.00    -0.049 A  
HETATM    4  H2  UNL     1      -8.483   2.678  67.677  1.00  0.00     0.000 HD 
HETATM    5  C   UNL     1      -8.922   2.759  70.269  1.00  0.00    -0.165 A  
HETATM    6  C   UNL     1      -9.190   3.288  71.537  1.00  0.00    -0.121 A  
HETATM    7  C   UNL     1      -8.412   4.337  72.048  1.00  0.00    -0.111 A  
HETATM    8  O   UNL     1     -10.247   2.782  72.240  1.00  0.00    -0.166 OA 
HETATM    9  C   UNL     1      -7.092   4.289  70.003  1.00  0.00    -0.042 A  
HETATM   10  C   UNL     1      -7.346   4.819  71.273  1.00  0.00    -0.068 A  
HETATM   11  H   UNL     1     -10.428   3.142  73.101  1.00  0.00     0.000 HD 
ENDROOT
BRANCH   7  12
HETATM   12  C   UNL     1      -8.697   5.047  73.324  1.00  0.00    -0.111 C  
HETATM   13  O   UNL     1      -7.831   5.274  74.158  1.00  0.00    -0.096 OA 
BRANCH  12  14
HETATM   14  O   UNL     1     -10.034   5.391  73.417  1.00  0.00    -0.163 OA 
BRANCH  14  15
HETATM   15  C   UNL     1     -10.531   6.392  72.564  1.00  0.00    -0.202 A  
HETATM   16  C   UNL     1     -11.601   6.158  71.700  1.00  0.00    -0.317 A  
HETATM   17  C   UNL     1     -12.135   7.217  70.966  1.00  0.00    -0.391 A  
HETATM   18  C   UNL     1     -11.612   8.501  71.111  1.00  0.00    -0.325 A  
HETATM   19  C   UNL     1     -10.554   8.733  71.994  1.00  0.00    -0.414 A  
HETATM   20  C   UNL     1     -10.014   7.676  72.730  1.00  0.00    -0.298 A  
ENDBRANCH  14  15
ENDBRANCH  12  14
ENDBRANCH   7  12
TORSDOF 3
ENDMDL
MODEL      238
REMARK 921   NORMALIZED FREE ENERGY PREDICTED BY IDOCK:   -2.87 KCAL/MOL
REMARK 922        TOTAL FREE ENERGY PREDICTED BY IDOCK:   -3.96 KCAL/MOL
REMARK 923 INTER-LIGAND FREE ENERGY PREDICTED BY IDOCK:   -3.31 KCAL/MOL
REMARK 924 INTRA-LIGAND FREE ENERGY PREDICTED BY IDOCK:   -0.66 KCAL/MOL
REMARK 927      BINDING AFFINITY PREDICTED BY RF-SCORE:    0.00 PKD
ROOT
HETATM    1  N   UNL     1      -9.316  11.984  65.227  1.00  0.00    -0.433 NA 
HETATM    2  H1  UNL     1      -9.741  12.911  65.203  1.00  0.00     0.000 HD 
HETATM    3  C   UNL     1      -9.621  11.097  66.266  1.00  0.00    -0.206 A  
HETATM    4  H2  UNL     1      -9.509  11.519  64.340  1.00  0.00     0.000 HD 
HETATM    5  C   UNL     1      -9.040   9.828  66.299  1.00  0.00    -0.192 A  
HETATM    6  C   UNL     1      -9.290   8.954  67.363  1.00  0.00    -0.136 A  
HETATM    7  C   UNL     1     -10.077   9.362  68.449  1.00  0.00    -0.208 A  
HETATM    8  O   UNL     1      -8.779   7.688  67.295  1.00  0.00    -0.123 OA 
HETATM    9  C   UNL     1     -10.333  11.536  67.383  1.00  0.00    -0.235 A  
HETATM   10  C   UNL     1     -10.580  10.672  68.456  1.00  0.00    -0.229 A  
HETATM   11  H   UNL     1      -8.948   7.095  68.018  1.00  0.00     0.000 HD 
ENDROOT
BRANCH   7  12
HETATM   12  C   UNL     1     -10.501   8.468  69.560  1.00  0.00    -0.220 C  
HETATM   13  O   UNL     1     -11.097   7.417  69.367  1.00  0.00    -0.158 OA 
BRANCH  12  14
HETATM   14  O   UNL     1     -10.135   8.989  70.788  1.00  0.00    -0.203 OA 
BRANCH  14  15
HETATM   15  C   UNL     1      -9.163   8.310  71.543  1.00  0.00    -0.177 A  
HETATM   16  C   UNL     1      -8.043   7.730  70.947  1.00  0.00    -0.102 A  
HETATM   17  C   UNL     1      -7.047   7.176  71.751  1.00  0.00    -0.068 A  
HETATM   18  C   UNL     1      -7.165   7.221  73.140  1.00  0.00    -0.078 A  
HETATM   19  C   UNL     1      -8.279   7.822  73.731  1.00  0.00    -0.251 A  
HETATM   20  C   UNL     1      -9.280   8.376  72.930  1.00  0.00    -0.288 A  
ENDBRANCH  14  15
ENDBRANCH  12  14
ENDBRANCH   7  12
TORSDOF 3
ENDMDL
MODEL      239
REMARK 921   NORMALIZED FREE ENERGY PREDICTED BY IDOCK:   -2.86 KCAL/MOL
REMARK 922        TOTAL FREE ENERGY PREDICTED BY IDOCK:   -3.96 KCAL/MOL
REMARK 923 INTER-LIGAND FREE ENERGY PREDICTED BY IDOCK:   -3.30 KCAL/MOL
REMARK 924 INTRA-LIGAND FREE ENERGY PREDICTED BY IDOCK:   -0.66 KCAL/MOL
REMARK 927      BINDING AFFINITY PREDICTED BY RF-SCORE:    0.00 PKD
ROOT
HETATM    1  N   UNL     1      -7.114   6.960  64.909  1.00  0.00    -0.058 NA 
HETATM    2  H1  UNL     1      -7.742   6.442  64.294  1.00  0.00     0.000 HD 
HETATM    3  C   UNL     1      -7.632   7.858  65.848  1.00  0.00    -0.083 A  
HETATM    4  H2  UNL     1      -6.520   6.290  65.398  1.00  0.00     0.000 HD 
HETATM    5  C   UNL     1      -6.772   8.566  66.690  1.00  0.00    -0.068 A  
HETATM    6  C   UNL     1      -7.272   9.512  67.593  1.00  0.00    -0.082 A  
HETATM    7  C   UNL     1      -8.640   9.813  67.621  1.00  0.00    -0.125 A  
HETATM    8  O   UNL     1      -6.399  10.101  68.464  1.00  0.00    -0.048 OA 
HETATM    9  C   UNL     1      -8.979   8.217  65.815  1.00  0.00    -0.185 A  
HETATM   10  C   UNL     1      -9.487   9.169  66.707  1.00  0.00    -0.230 A  
HETATM   11  H   UNL     1      -6.738  10.743  69.077  1.00  0.00     0.000 HD 
ENDROOT
BRANCH   7  12
HETATM   12  C   UNL     1      -9.281  10.706  68.625  1.00  0.00    -0.181 C  
HETATM   13  O   UNL     1     -10.083  10.295  69.453  1.00  0.00    -0.212 OA 
BRANCH  12  14
HETATM   14  O   UNL     1      -8.852  12.013  68.478  1.00  0.00    -0.166 OA 
BRANCH  14  15
HETATM   15  C   UNL     1      -9.656  12.906  67.747  1.00  0.00    -0.212 A  
HETATM   16  C   UNL     1      -9.287  13.359  66.480  1.00  0.00    -0.225 A  
HETATM   17  C   UNL     1     -10.176  14.144  65.747  1.00  0.00    -0.347 A  
HETATM   18  C   UNL     1     -11.429  14.457  66.272  1.00  0.00    -0.361 A  
HETATM   19  C   UNL     1     -11.801  13.982  67.532  1.00  0.00    -0.442 A  
HETATM   20  C   UNL     1     -10.914  13.197  68.272  1.00  0.00    -0.278 A  
ENDBRANCH  14  15
ENDBRANCH  12  14
ENDBRANCH   7  12
TORSDOF 3
ENDMDL
MODEL      240
REMARK 921   NORMALIZED FREE ENERGY PREDICTED BY IDOCK:   -2.82 KCAL/MOL
REMARK 922        TOTAL FREE ENERGY PREDICTED BY IDOCK:   -3.92 KCAL/MOL
REMARK 923 INTER-LIGAND FREE ENERGY PREDICTED BY IDOCK:   -3.49 KCAL/MOL
REMARK 924 INTRA-LIGAND FREE ENERGY PREDICTED BY IDOCK:   -0.43 KCAL/MOL
REMARK 927      BINDING AFFINITY PREDICTED BY RF-SCORE:    0.00 PKD
ROOT
HETATM    1  N   UNL     1      -8.530  10.027  65.108  1.00  0.00    -0.145 NA 
HETATM    2  H1  UNL     1      -8.069   9.476  64.384  1.00  0.00     0.000 HD 
HETATM    3  C   UNL     1      -9.074   9.396  66.233  1.00  0.00    -0.163 A  
HETATM    4  H2  UNL     1      -7.880  10.747  65.426  1.00  0.00     0.000 HD 
HETATM    5  C   UNL     1      -9.704  10.151  67.224  1.00  0.00    -0.203 A  
HETATM    6  C   UNL     1     -10.306   9.528  68.324  1.00  0.00    -0.207 A  
HETATM    7  C   UNL     1     -10.343   8.129  68.417  1.00  0.00    -0.236 A  
HETATM    8  O   UNL     1     -10.818  10.317  69.316  1.00  0.00    -0.211 OA 
HETATM    9  C   UNL     1      -9.184   8.006  66.279  1.00  0.00    -0.237 A  
HETATM   10  C   UNL     1      -9.792   7.374  67.370  1.00  0.00    -0.219 A  
HETATM   11  H   UNL     1     -11.226   9.894  70.062  1.00  0.00     0.000 HD 
ENDROOT
BRANCH   7  12
HETATM   12  C   UNL     1     -10.844   7.381  69.601  1.00  0.00    -0.210 C  
HETATM   13  O   UNL     1     -11.504   6.355  69.499  1.00  0.00    -0.407 OA 
BRANCH  12  14
HETATM   14  O   UNL     1     -10.467   7.999  70.779  1.00  0.00    -0.203 OA 
BRANCH  14  15
HETATM   15  C   UNL     1      -9.906   7.213  71.801  1.00  0.00    -0.161 A  
HETATM   16  C   UNL     1      -8.555   7.301  72.139  1.00  0.00    -0.126 A  
HETATM   17  C   UNL     1      -8.075   6.592  73.239  1.00  0.00    -0.109 A  
HETATM   18  C   UNL     1      -8.946   5.816  74.004  1.00  0.00    -0.126 A  
HETATM   19  C   UNL     1     -10.301   5.749  73.673  1.00  0.00    -0.258 A  
HETATM   20  C   UNL     1     -10.787   6.455  72.571  1.00  0.00    -0.268 A  
ENDBRANCH  14  15
ENDBRANCH  12  14
ENDBRANCH   7  12
TORSDOF 3
ENDMDL
MODEL      241
REMARK 921   NORMALIZED FREE ENERGY PREDICTED BY IDOCK:   -2.80 KCAL/MOL
REMARK 922        TOTAL FREE ENERGY PREDICTED BY IDOCK:   -3.88 KCAL/MOL
REMARK 923 INTER-LIGAND FREE ENERGY PREDICTED BY IDOCK:   -3.05 KCAL/MOL
REMARK 924 INTRA-LIGAND FREE ENERGY PREDICTED BY IDOCK:   -0.83 KCAL/MOL
REMARK 927      BINDING AFFINITY PREDICTED BY RF-SCORE:    0.00 PKD
ROOT
HETATM    1  N   UNL     1      -6.974  11.154  70.125  1.00  0.00    -0.467 NA 
HETATM    2  H1  UNL     1      -6.626  11.485  71.025  1.00  0.00     0.000 HD 
HETATM    3  C   UNL     1      -7.243   9.794  69.932  1.00  0.00    -0.116 A  
HETATM    4  H2  UNL     1      -7.813  11.685  69.890  1.00  0.00     0.000 HD 
HETATM    5  C   UNL     1      -7.719   9.341  68.700  1.00  0.00    -0.085 A  
HETATM    6  C   UNL     1      -7.935   7.977  68.474  1.00  0.00    -0.120 A  
HETATM    7  C   UNL     1      -7.614   7.033  69.460  1.00  0.00    -0.098 A  
HETATM    8  O   UNL     1      -8.498   7.598  67.288  1.00  0.00    -0.120 OA 
HETATM    9  C   UNL     1      -6.843   8.853  70.881  1.00  0.00    -0.076 A  
HETATM   10  C   UNL     1      -7.046   7.486  70.660  1.00  0.00    -0.059 A  
HETATM   11  H   UNL     1      -8.644   6.672  67.134  1.00  0.00     0.000 HD 
ENDROOT
BRANCH   7  12
HETATM   12  C   UNL     1      -7.923   5.581  69.362  1.00  0.00    -0.094 C  
HETATM   13  O   UNL     1      -7.051   4.722  69.362  1.00  0.00    -0.050 OA 
BRANCH  12  14
HETATM   14  O   UNL     1      -9.286   5.365  69.272  1.00  0.00    -0.113 OA 
BRANCH  14  15
HETATM   15  C   UNL     1     -10.104   5.777  70.339  1.00  0.00    -0.210 A  
HETATM   16  C   UNL     1      -9.959   5.248  71.622  1.00  0.00    -0.236 A  
HETATM   17  C   UNL     1     -10.710   5.777  72.671  1.00  0.00    -0.280 A  
HETATM   18  C   UNL     1     -11.583   6.840  72.439  1.00  0.00    -0.284 A  
HETATM   19  C   UNL     1     -11.707   7.379  71.156  1.00  0.00    -0.322 A  
HETATM   20  C   UNL     1     -10.960   6.850  70.102  1.00  0.00    -0.322 A  
ENDBRANCH  14  15
ENDBRANCH  12  14
ENDBRANCH   7  12
TORSDOF 3
ENDMDL
MODEL      242
REMARK 921   NORMALIZED FREE ENERGY PREDICTED BY IDOCK:   -2.64 KCAL/MOL
REMARK 922        TOTAL FREE ENERGY PREDICTED BY IDOCK:   -3.70 KCAL/MOL
REMARK 923 INTER-LIGAND FREE ENERGY PREDICTED BY IDOCK:   -3.01 KCAL/MOL
REMARK 924 INTRA-LIGAND FREE ENERGY PREDICTED BY IDOCK:   -0.69 KCAL/MOL
REMARK 927      BINDING AFFINITY PREDICTED BY RF-SCORE:    0.00 PKD
ROOT
HETATM    1  N   UNL     1      -7.560  13.784  68.110  1.00  0.00    -0.114 NA 
HETATM    2  H1  UNL     1      -8.203  14.571  68.198  1.00  0.00     0.000 HD 
HETATM    3  C   UNL     1      -8.057  12.483  67.970  1.00  0.00    -0.164 A  
HETATM    4  H2  UNL     1      -6.927  13.973  67.333  1.00  0.00     0.000 HD 
HETATM    5  C   UNL     1      -7.177  11.406  67.849  1.00  0.00    -0.084 A  
HETATM    6  C   UNL     1      -7.658  10.094  67.769  1.00  0.00    -0.090 A  
HETATM    7  C   UNL     1      -9.031   9.833  67.875  1.00  0.00    -0.119 A  
HETATM    8  O   UNL     1      -6.761   9.087  67.548  1.00  0.00    -0.067 OA 
HETATM    9  C   UNL     1      -9.413  12.220  68.161  1.00  0.00    -0.213 A  
HETATM   10  C   UNL     1      -9.903  10.911  68.092  1.00  0.00    -0.187 A  
HETATM   11  H   UNL     1      -7.088   8.196  67.494  1.00  0.00     0.000 HD 
ENDROOT
BRANCH   7  12
HETATM   12  C   UNL     1      -9.647   8.494  67.676  1.00  0.00    -0.153 C  
HETATM   13  O   UNL     1     -10.551   8.298  66.874  1.00  0.00    -0.321 OA 
BRANCH  12  14
HETATM   14  O   UNL     1      -9.068   7.549  68.504  1.00  0.00    -0.135 OA 
BRANCH  14  15
HETATM   15  C   UNL     1      -9.775   7.132  69.646  1.00  0.00    -0.158 A  
HETATM   16  C   UNL     1     -10.317   8.048  70.549  1.00  0.00    -0.205 A  
HETATM   17  C   UNL     1     -11.114   7.588  71.597  1.00  0.00    -0.270 A  
HETATM   18  C   UNL     1     -11.379   6.225  71.727  1.00  0.00    -0.346 A  
HETATM   19  C   UNL     1     -10.850   5.316  70.807  1.00  0.00    -0.117 A  
HETATM   20  C   UNL     1     -10.050   5.771  69.757  1.00  0.00    -0.273 A  
ENDBRANCH  14  15
ENDBRANCH  12  14
ENDBRANCH   7  12
TORSDOF 3
ENDMDL
MODEL      243
REMARK 921   NORMALIZED FREE ENERGY PREDICTED BY IDOCK:   -2.64 KCAL/MOL
REMARK 922        TOTAL FREE ENERGY PREDICTED BY IDOCK:   -3.70 KCAL/MOL
REMARK 923 INTER-LIGAND FREE ENERGY PREDICTED BY IDOCK:   -2.98 KCAL/MOL
REMARK 924 INTRA-LIGAND FREE ENERGY PREDICTED BY IDOCK:   -0.71 KCAL/MOL
REMARK 927      BINDING AFFINITY PREDICTED BY RF-SCORE:    0.00 PKD
ROOT
HETATM    1  N   UNL     1      -7.191   2.340  66.951  1.00  0.00    -0.052 NA 
HETATM    2  H1  UNL     1      -6.633   2.720  66.186  1.00  0.00     0.000 HD 
HETATM    3  C   UNL     1      -7.647   3.180  67.973  1.00  0.00    -0.057 A  
HETATM    4  H2  UNL     1      -7.994   1.854  66.552  1.00  0.00     0.000 HD 
HETATM    5  C   UNL     1      -8.410   2.660  69.020  1.00  0.00    -0.084 A  
HETATM    6  C   UNL     1      -8.822   3.477  70.080  1.00  0.00    -0.088 A  
HETATM    7  C   UNL     1      -8.419   4.818  70.142  1.00  0.00    -0.094 A  
HETATM    8  O   UNL     1      -9.653   2.942  71.024  1.00  0.00    -0.150 OA 
HETATM    9  C   UNL     1      -7.174   4.489  68.076  1.00  0.00    -0.065 A  
HETATM   10  C   UNL     1      -7.573   5.310  69.137  1.00  0.00    -0.074 A  
HETATM   11  H   UNL     1      -9.932   3.496  71.744  1.00  0.00     0.000 HD 
ENDROOT
BRANCH   7  12
HETATM   12  C   UNL     1      -8.906   5.793  71.155  1.00  0.00    -0.136 C  
HETATM   13  O   UNL     1      -8.165   6.303  71.985  1.00  0.00    -0.109 OA 
BRANCH  12  14
HETATM   14  O   UNL     1     -10.264   6.018  71.021  1.00  0.00    -0.189 OA 
BRANCH  14  15
HETATM   15  C   UNL     1     -10.711   7.339  70.842  1.00  0.00    -0.234 A  
HETATM   16  C   UNL     1     -11.321   8.055  71.873  1.00  0.00    -0.336 A  
HETATM   17  C   UNL     1     -11.634   9.400  71.682  1.00  0.00    -0.466 A  
HETATM   18  C   UNL     1     -11.322  10.026  70.475  1.00  0.00    -0.409 A  
HETATM   19  C   UNL     1     -10.693   9.308  69.455  1.00  0.00    -0.222 A  
HETATM   20  C   UNL     1     -10.379   7.961  69.640  1.00  0.00    -0.216 A  
ENDBRANCH  14  15
ENDBRANCH  12  14
ENDBRANCH   7  12
TORSDOF 3
ENDMDL
MODEL      244
REMARK 921   NORMALIZED FREE ENERGY PREDICTED BY IDOCK:   -2.48 KCAL/MOL
REMARK 922        TOTAL FREE ENERGY PREDICTED BY IDOCK:   -3.51 KCAL/MOL
REMARK 923 INTER-LIGAND FREE ENERGY PREDICTED BY IDOCK:   -2.66 KCAL/MOL
REMARK 924 INTRA-LIGAND FREE ENERGY PREDICTED BY IDOCK:   -0.85 KCAL/MOL
REMARK 927      BINDING AFFINITY PREDICTED BY RF-SCORE:    0.00 PKD
ROOT
HETATM    1  N   UNL     1     -11.386   9.845  68.772  1.00  0.00    -0.481 NA 
HETATM    2  H1  UNL     1     -12.144  10.138  68.154  1.00  0.00     0.000 HD 
HETATM    3  C   UNL     1     -10.336   9.064  68.275  1.00  0.00    -0.209 A  
HETATM    4  H2  UNL     1     -10.990  10.676  69.211  1.00  0.00     0.000 HD 
HETATM    5  C   UNL     1      -9.300   8.664  69.121  1.00  0.00    -0.153 A  
HETATM    6  C   UNL     1      -8.275   7.833  68.653  1.00  0.00    -0.128 A  
HETATM    7  C   UNL     1      -8.305   7.336  67.343  1.00  0.00    -0.119 A  
HETATM    8  O   UNL     1      -7.232   7.555  69.492  1.00  0.00    -0.077 OA 
HETATM    9  C   UNL     1     -10.414   8.503  67.001  1.00  0.00    -0.362 A  
HETATM   10  C   UNL     1      -9.399   7.664  66.527  1.00  0.00    -0.241 A  
HETATM   11  H   UNL     1      -6.536   6.991  69.173  1.00  0.00     0.000 HD 
ENDROOT
BRANCH   7  12
HETATM   12  C   UNL     1      -7.205   6.554  66.717  1.00  0.00    -0.077 C  
HETATM   13  O   UNL     1      -6.060   6.980  66.635  1.00  0.00    -0.035 OA 
BRANCH  12  14
HETATM   14  O   UNL     1      -7.658   5.330  66.259  1.00  0.00    -0.086 OA 
BRANCH  14  15
HETATM   15  C   UNL     1      -7.866   4.299  67.193  1.00  0.00    -0.096 A  
HETATM   16  C   UNL     1      -6.914   3.982  68.163  1.00  0.00    -0.051 A  
HETATM   17  C   UNL     1      -7.219   3.037  69.141  1.00  0.00    -0.045 A  
HETATM   18  C   UNL     1      -8.475   2.429  69.158  1.00  0.00    -0.097 A  
HETATM   19  C   UNL     1      -9.431   2.767  68.197  1.00  0.00    -0.217 A  
HETATM   20  C   UNL     1      -9.129   3.711  67.214  1.00  0.00    -0.191 A  
ENDBRANCH  14  15
ENDBRANCH  12  14
ENDBRANCH   7  12
TORSDOF 3
ENDMDL
MODEL      245
REMARK 921   NORMALIZED FREE ENERGY PREDICTED BY IDOCK:   -2.41 KCAL/MOL
REMARK 922        TOTAL FREE ENERGY PREDICTED BY IDOCK:   -3.42 KCAL/MOL
REMARK 923 INTER-LIGAND FREE ENERGY PREDICTED BY IDOCK:   -2.93 KCAL/MOL
REMARK 924 INTRA-LIGAND FREE ENERGY PREDICTED BY IDOCK:   -0.49 KCAL/MOL
REMARK 927      BINDING AFFINITY PREDICTED BY RF-SCORE:    0.00 PKD
ROOT
HETATM    1  N   UNL     1     -11.184   8.385  73.149  1.00  0.00     0.145 NA 
HETATM    2  H1  UNL     1     -10.938   7.594  73.744  1.00  0.00     0.000 HD 
HETATM    3  C   UNL     1     -10.952   8.325  71.770  1.00  0.00    -0.278 A  
HETATM    4  H2  UNL     1     -12.168   8.607  73.300  1.00  0.00     0.000 HD 
HETATM    5  C   UNL     1     -11.289   9.407  70.954  1.00  0.00    -0.386 A  
HETATM    6  C   UNL     1     -11.007   9.385  69.583  1.00  0.00    -0.197 A  
HETATM    7  C   UNL     1     -10.322   8.302  69.016  1.00  0.00    -0.233 A  
HETATM    8  O   UNL     1     -11.451  10.424  68.814  1.00  0.00    -0.399 OA 
HETATM    9  C   UNL     1     -10.195   7.287  71.225  1.00  0.00    -0.198 A  
HETATM   10  C   UNL     1      -9.901   7.261  69.857  1.00  0.00    -0.178 A  
HETATM   11  H   UNL     1     -11.259  10.409  67.883  1.00  0.00     0.000 HD 
ENDROOT
BRANCH   7  12
HETATM   12  C   UNL     1     -10.089   8.129  67.556  1.00  0.00    -0.224 C  
HETATM   13  O   UNL     1     -11.006   8.077  66.746  1.00  0.00    -0.092 OA 
BRANCH  12  14
HETATM   14  O   UNL     1      -8.739   8.037  67.272  1.00  0.00    -0.129 OA 
BRANCH  14  15
HETATM   15  C   UNL     1      -8.326   8.131  65.932  1.00  0.00    -0.132 A  
HETATM   16  C   UNL     1      -8.196   7.001  65.122  1.00  0.00    -0.113 A  
HETATM   17  C   UNL     1      -7.904   7.158  63.768  1.00  0.00    -0.110 A  
HETATM   18  C   UNL     1      -7.762   8.435  63.226  1.00  0.00    -0.140 A  
HETATM   19  C   UNL     1      -7.915   9.562  64.038  1.00  0.00    -0.141 A  
HETATM   20  C   UNL     1      -8.205   9.411  65.395  1.00  0.00    -0.126 A  
ENDBRANCH  14  15
ENDBRANCH  12  14
ENDBRANCH   7  12
TORSDOF 3
ENDMDL
MODEL      246
REMARK 921   NORMALIZED FREE ENERGY PREDICTED BY IDOCK:   -2.39 KCAL/MOL
REMARK 922        TOTAL FREE ENERGY PREDICTED BY IDOCK:   -3.40 KCAL/MOL
REMARK 923 INTER-LIGAND FREE ENERGY PREDICTED BY IDOCK:   -2.89 KCAL/MOL
REMARK 924 INTRA-LIGAND FREE ENERGY PREDICTED BY IDOCK:   -0.51 KCAL/MOL
REMARK 927      BINDING AFFINITY PREDICTED BY RF-SCORE:    0.00 PKD
ROOT
HETATM    1  N   UNL     1     -12.031   8.591  73.043  1.00  0.00    -0.304 NA 
HETATM    2  H1  UNL     1     -12.017   8.086  73.930  1.00  0.00     0.000 HD 
HETATM    3  C   UNL     1     -11.515   7.994  71.887  1.00  0.00    -0.291 A  
HETATM    4  H2  UNL     1     -12.991   8.882  72.854  1.00  0.00     0.000 HD 
HETATM    5  C   UNL     1     -11.535   8.684  70.673  1.00  0.00    -0.256 A  
HETATM    6  C   UNL     1     -10.969   8.124  69.522  1.00  0.00    -0.047 A  
HETATM    7  C   UNL     1     -10.313   6.887  69.582  1.00  0.00    -0.224 A  
HETATM    8  O   UNL     1     -11.106   8.796  68.339  1.00  0.00    -0.445 OA 
HETATM    9  C   UNL     1     -10.790   6.805  71.968  1.00  0.00    -0.257 A  
HETATM   10  C   UNL     1     -10.213   6.242  70.824  1.00  0.00    -0.238 A  
HETATM   11  H   UNL     1     -10.721   8.416  67.558  1.00  0.00     0.000 HD 
ENDROOT
BRANCH   7  12
HETATM   12  C   UNL     1      -9.793   6.155  68.396  1.00  0.00    -0.126 C  
HETATM   13  O   UNL     1     -10.487   5.914  67.417  1.00  0.00    -0.192 OA 
BRANCH  12  14
HETATM   14  O   UNL     1      -8.466   5.803  68.567  1.00  0.00    -0.109 OA 
BRANCH  14  15
HETATM   15  C   UNL     1      -7.785   5.209  67.490  1.00  0.00    -0.092 A  
HETATM   16  C   UNL     1      -7.800   3.829  67.282  1.00  0.00    -0.079 A  
HETATM   17  C   UNL     1      -7.213   3.302  66.132  1.00  0.00    -0.067 A  
HETATM   18  C   UNL     1      -6.632   4.153  65.191  1.00  0.00    -0.047 A  
HETATM   19  C   UNL     1      -6.639   5.535  65.396  1.00  0.00    -0.040 A  
HETATM   20  C   UNL     1      -7.224   6.067  66.547  1.00  0.00    -0.073 A  
ENDBRANCH  14  15
ENDBRANCH  12  14
ENDBRANCH   7  12
TORSDOF 3
ENDMDL
MODEL      247
REMARK 921   NORMALIZED FREE ENERGY PREDICTED BY IDOCK:   -2.36 KCAL/MOL
REMARK 922        TOTAL FREE ENERGY PREDICTED BY IDOCK:   -3.37 KCAL/MOL
REMARK 923 INTER-LIGAND FREE ENERGY PREDICTED BY IDOCK:   -2.69 KCAL/MOL
REMARK 924 INTRA-LIGAND FREE ENERGY PREDICTED BY IDOCK:   -0.68 KCAL/MOL
REMARK 927      BINDING AFFINITY PREDICTED BY RF-SCORE:    0.00 PKD
ROOT
HETATM    1  N   UNL     1      -9.682   4.420  71.720  1.00  0.00    -0.162 NA 
HETATM    2  H1  UNL     1      -9.121   3.682  72.146  1.00  0.00     0.000 HD 
HETATM    3  C   UNL     1      -9.865   4.454  70.333  1.00  0.00    -0.216 A  
HETATM    4  H2  UNL     1     -10.600   4.423  72.166  1.00  0.00     0.000 HD 
HETATM    5  C   UNL     1     -10.633   5.464  69.751  1.00  0.00    -0.347 A  
HETATM    6  C   UNL     1     -10.774   5.545  68.361  1.00  0.00    -0.085 A  
HETATM    7  C   UNL     1     -10.093   4.650  67.524  1.00  0.00    -0.131 A  
HETATM    8  O   UNL     1     -11.619   6.490  67.849  1.00  0.00    -0.623 OA 
HETATM    9  C   UNL     1      -9.119   3.618  69.502  1.00  0.00    -0.201 A  
HETATM   10  C   UNL     1      -9.247   3.697  68.111  1.00  0.00    -0.221 A  
HETATM   11  H   UNL     1     -11.715   6.544  66.905  1.00  0.00     0.000 HD 
ENDROOT
BRANCH   7  12
HETATM   12  C   UNL     1     -10.277   4.576  66.050  1.00  0.00    -0.260 C  
HETATM   13  O   UNL     1     -11.316   4.914  65.499  1.00  0.00     0.012 OA 
BRANCH  12  14
HETATM   14  O   UNL     1      -9.143   4.084  65.428  1.00  0.00    -0.128 OA 
BRANCH  14  15
HETATM   15  C   UNL     1      -8.118   4.984  65.089  1.00  0.00    -0.112 A  
HETATM   16  C   UNL     1      -8.394   6.275  64.634  1.00  0.00    -0.026 A  
HETATM   17  C   UNL     1      -7.344   7.169  64.430  1.00  0.00    -0.082 A  
HETATM   18  C   UNL     1      -6.032   6.779  64.696  1.00  0.00    -0.035 A  
HETATM   19  C   UNL     1      -5.765   5.493  65.171  1.00  0.00    -0.017 A  
HETATM   20  C   UNL     1      -6.812   4.593  65.375  1.00  0.00    -0.061 A  
ENDBRANCH  14  15
ENDBRANCH  12  14
ENDBRANCH   7  12
TORSDOF 3
ENDMDL
MODEL      248
REMARK 921   NORMALIZED FREE ENERGY PREDICTED BY IDOCK:   -2.35 KCAL/MOL
REMARK 922        TOTAL FREE ENERGY PREDICTED BY IDOCK:   -3.35 KCAL/MOL
REMARK 923 INTER-LIGAND FREE ENERGY PREDICTED BY IDOCK:   -2.68 KCAL/MOL
REMARK 924 INTRA-LIGAND FREE ENERGY PREDICTED BY IDOCK:   -0.68 KCAL/MOL
REMARK 927      BINDING AFFINITY PREDICTED BY RF-SCORE:    0.00 PKD
ROOT
HETATM    1  N   UNL     1      -8.662   8.820  72.198  1.00  0.00    -0.391 NA 
HETATM    2  H1  UNL     1      -9.516   9.365  72.316  1.00  0.00     0.000 HD 
HETATM    3  C   UNL     1      -8.714   7.547  71.618  1.00  0.00    -0.116 A  
HETATM    4  H2  UNL     1      -7.990   9.384  71.677  1.00  0.00     0.000 HD 
HETATM    5  C   UNL     1      -7.544   6.801  71.458  1.00  0.00    -0.088 A  
HETATM    6  C   UNL     1      -7.590   5.504  70.935  1.00  0.00    -0.090 A  
HETATM    7  C   UNL     1      -8.818   4.905  70.624  1.00  0.00    -0.147 A  
HETATM    8  O   UNL     1      -6.408   4.857  70.702  1.00  0.00    -0.024 OA 
HETATM    9  C   UNL     1      -9.941   6.924  71.391  1.00  0.00    -0.190 A  
HETATM   10  C   UNL     1      -9.996   5.623  70.877  1.00  0.00    -0.251 A  
HETATM   11  H   UNL     1      -6.439   3.976  70.348  1.00  0.00     0.000 HD 
ENDROOT
BRANCH   7  12
HETATM   12  C   UNL     1      -8.961   3.586  69.950  1.00  0.00    -0.107 C  
HETATM   13  O   UNL     1      -9.653   2.686  70.407  1.00  0.00    -0.134 OA 
BRANCH  12  14
HETATM   14  O   UNL     1      -8.221   3.539  68.782  1.00  0.00    -0.067 OA 
BRANCH  14  15
HETATM   15  C   UNL     1      -8.896   3.652  67.554  1.00  0.00    -0.125 A  
HETATM   16  C   UNL     1      -9.929   4.571  67.365  1.00  0.00    -0.171 A  
HETATM   17  C   UNL     1     -10.482   4.730  66.095  1.00  0.00    -0.332 A  
HETATM   18  C   UNL     1      -9.991   3.988  65.021  1.00  0.00    -0.207 A  
HETATM   19  C   UNL     1      -8.942   3.086  65.213  1.00  0.00    -0.142 A  
HETATM   20  C   UNL     1      -8.386   2.921  66.483  1.00  0.00    -0.095 A  
ENDBRANCH  14  15
ENDBRANCH  12  14
ENDBRANCH   7  12
TORSDOF 3
ENDMDL
MODEL      249
REMARK 921   NORMALIZED FREE ENERGY PREDICTED BY IDOCK:   -2.34 KCAL/MOL
REMARK 922        TOTAL FREE ENERGY PREDICTED BY IDOCK:   -3.35 KCAL/MOL
REMARK 923 INTER-LIGAND FREE ENERGY PREDICTED BY IDOCK:   -2.75 KCAL/MOL
REMARK 924 INTRA-LIGAND FREE ENERGY PREDICTED BY IDOCK:   -0.59 KCAL/MOL
REMARK 927      BINDING AFFINITY PREDICTED BY RF-SCORE:    0.00 PKD
ROOT
HETATM    1  N   UNL     1      -6.396  11.497  70.860  1.00  0.00    -0.416 NA 
HETATM    2  H1  UNL     1      -5.684  12.201  70.663  1.00  0.00     0.000 HD 
HETATM    3  C   UNL     1      -6.903  10.702  69.827  1.00  0.00    -0.143 A  
HETATM    4  H2  UNL     1      -6.045  10.884  71.597  1.00  0.00     0.000 HD 
HETATM    5  C   UNL     1      -7.877   9.738  70.097  1.00  0.00    -0.196 A  
HETATM    6  C   UNL     1      -8.437   8.977  69.064  1.00  0.00    -0.132 A  
HETATM    7  C   UNL     1      -8.076   9.214  67.730  1.00  0.00    -0.105 A  
HETATM    8  O   UNL     1      -9.309   7.978  69.395  1.00  0.00    -0.155 OA 
HETATM    9  C   UNL     1      -6.606  10.998  68.497  1.00  0.00    -0.059 A  
HETATM   10  C   UNL     1      -7.168  10.248  67.456  1.00  0.00    -0.088 A  
HETATM   11  H   UNL     1      -9.689   7.462  68.693  1.00  0.00     0.000 HD 
ENDROOT
BRANCH   7  12
HETATM   12  C   UNL     1      -8.518   8.379  66.581  1.00  0.00    -0.111 C  
HETATM   13  O   UNL     1      -8.968   8.863  65.552  1.00  0.00    -0.190 OA 
BRANCH  12  14
HETATM   14  O   UNL     1      -8.350   7.032  66.849  1.00  0.00    -0.115 OA 
BRANCH  14  15
HETATM   15  C   UNL     1      -8.950   6.097  65.987  1.00  0.00    -0.145 A  
HETATM   16  C   UNL     1      -8.275   5.576  64.882  1.00  0.00    -0.136 A  
HETATM   17  C   UNL     1      -8.867   4.562  64.132  1.00  0.00    -0.148 A  
HETATM   18  C   UNL     1     -10.117   4.061  64.496  1.00  0.00    -0.209 A  
HETATM   19  C   UNL     1     -10.778   4.572  65.616  1.00  0.00    -0.160 A  
HETATM   20  C   UNL     1     -10.190   5.589  66.370  1.00  0.00    -0.247 A  
ENDBRANCH  14  15
ENDBRANCH  12  14
ENDBRANCH   7  12
TORSDOF 3
ENDMDL
MODEL      250
REMARK 921   NORMALIZED FREE ENERGY PREDICTED BY IDOCK:   -2.16 KCAL/MOL
REMARK 922        TOTAL FREE ENERGY PREDICTED BY IDOCK:   -3.13 KCAL/MOL
REMARK 923 INTER-LIGAND FREE ENERGY PREDICTED BY IDOCK:   -2.44 KCAL/MOL
REMARK 924 INTRA-LIGAND FREE ENERGY PREDICTED BY IDOCK:   -0.69 KCAL/MOL
REMARK 927      BINDING AFFINITY PREDICTED BY RF-SCORE:    0.00 PKD
ROOT
HETATM    1  N   UNL     1      -8.588   3.449  69.216  1.00  0.00    -0.066 NA 
HETATM    2  H1  UNL     1      -7.845   2.862  69.596  1.00  0.00     0.000 HD 
HETATM    3  C   UNL     1      -8.868   3.428  67.845  1.00  0.00    -0.123 A  
HETATM    4  H2  UNL     1      -9.449   3.247  69.724  1.00  0.00     0.000 HD 
HETATM    5  C   UNL     1      -9.884   4.232  67.324  1.00  0.00    -0.193 A  
HETATM    6  C   UNL     1     -10.135   4.267  65.947  1.00  0.00    -0.205 A  
HETATM    7  C   UNL     1      -9.327   3.544  65.059  1.00  0.00    -0.155 A  
HETATM    8  O   UNL     1     -11.206   4.990  65.502  1.00  0.00    -0.808 OA 
HETATM    9  C   UNL     1      -8.010   2.777  66.958  1.00  0.00    -0.075 A  
HETATM   10  C   UNL     1      -8.247   2.813  65.579  1.00  0.00    -0.089 A  
HETATM   11  H   UNL     1     -11.376   5.013  64.567  1.00  0.00     0.000 HD 
ENDROOT
BRANCH   7  12
HETATM   12  C   UNL     1      -9.590   3.417  63.600  1.00  0.00    -0.127 C  
HETATM   13  O   UNL     1     -10.709   3.215  63.150  1.00  0.00    -0.205 OA 
BRANCH  12  14
HETATM   14  O   UNL     1      -8.424   3.553  62.868  1.00  0.00    -0.083 OA 
BRANCH  14  15
HETATM   15  C   UNL     1      -7.764   4.795  62.882  1.00  0.00    -0.064 A  
HETATM   16  C   UNL     1      -6.382   4.890  63.050  1.00  0.00    -0.026 A  
HETATM   17  C   UNL     1      -5.761   6.133  62.933  1.00  0.00    -0.022 A  
HETATM   18  C   UNL     1      -6.516   7.267  62.633  1.00  0.00    -0.054 A  
HETATM   19  C   UNL     1      -7.897   7.160  62.445  1.00  0.00    -0.125 A  
HETATM   20  C   UNL     1      -8.524   5.918  62.563  1.00  0.00    -0.020 A  
ENDBRANCH  14  15
ENDBRANCH  12  14
ENDBRANCH   7  12
TORSDOF 3
ENDMDL
MODEL      251
REMARK 921   NORMALIZED FREE ENERGY PREDICTED BY IDOCK:   -2.14 KCAL/MOL
REMARK 922        TOTAL FREE ENERGY PREDICTED BY IDOCK:   -3.11 KCAL/MOL
REMARK 923 INTER-LIGAND FREE ENERGY PREDICTED BY IDOCK:   -2.54 KCAL/MOL
REMARK 924 INTRA-LIGAND FREE ENERGY PREDICTED BY IDOCK:   -0.57 KCAL/MOL
REMARK 927      BINDING AFFINITY PREDICTED BY RF-SCORE:    0.00 PKD
ROOT
HETATM    1  N   UNL     1      -9.659   9.546  71.364  1.00  0.00    -0.295 NA 
HETATM    2  H1  UNL     1     -10.447  10.185  71.468  1.00  0.00     0.000 HD 
HETATM    3  C   UNL     1      -9.506   8.805  70.187  1.00  0.00    -0.169 A  
HETATM    4  H2  UNL     1      -8.798  10.067  71.531  1.00  0.00     0.000 HD 
HETATM    5  C   UNL     1      -8.427   7.930  70.044  1.00  0.00    -0.134 A  
HETATM    6  C   UNL     1      -8.294   7.138  68.897  1.00  0.00    -0.126 A  
HETATM    7  C   UNL     1      -9.279   7.162  67.899  1.00  0.00    -0.129 A  
HETATM    8  O   UNL     1      -7.167   6.376  68.762  1.00  0.00    -0.079 OA 
HETATM    9  C   UNL     1     -10.527   8.767  69.238  1.00  0.00    -0.228 A  
HETATM   10  C   UNL     1     -10.408   7.972  68.092  1.00  0.00    -0.250 A  
HETATM   11  H   UNL     1      -7.078   5.839  67.984  1.00  0.00     0.000 HD 
ENDROOT
BRANCH   7  12
HETATM   12  C   UNL     1      -9.166   6.457  66.594  1.00  0.00    -0.151 C  
HETATM   13  O   UNL     1     -10.074   5.777  66.134  1.00  0.00    -0.113 OA 
BRANCH  12  14
HETATM   14  O   UNL     1      -7.930   6.677  66.011  1.00  0.00    -0.103 OA 
BRANCH  14  15
HETATM   15  C   UNL     1      -7.788   7.761  65.128  1.00  0.00    -0.123 A  
HETATM   16  C   UNL     1      -8.733   8.787  65.064  1.00  0.00    -0.183 A  
HETATM   17  C   UNL     1      -8.484   9.899  64.261  1.00  0.00    -0.178 A  
HETATM   18  C   UNL     1      -7.292   9.991  63.543  1.00  0.00    -0.138 A  
HETATM   19  C   UNL     1      -6.342   8.970  63.628  1.00  0.00    -0.089 A  
HETATM   20  C   UNL     1      -6.587   7.853  64.428  1.00  0.00    -0.056 A  
ENDBRANCH  14  15
ENDBRANCH  12  14
ENDBRANCH   7  12
TORSDOF 3
ENDMDL
MODEL      252
REMARK 921   NORMALIZED FREE ENERGY PREDICTED BY IDOCK:   -2.06 KCAL/MOL
REMARK 922        TOTAL FREE ENERGY PREDICTED BY IDOCK:   -3.01 KCAL/MOL
REMARK 923 INTER-LIGAND FREE ENERGY PREDICTED BY IDOCK:   -3.28 KCAL/MOL
REMARK 924 INTRA-LIGAND FREE ENERGY PREDICTED BY IDOCK:    0.27 KCAL/MOL
REMARK 927      BINDING AFFINITY PREDICTED BY RF-SCORE:    0.00 PKD
ROOT
HETATM    1  N   UNL     1     -12.009  12.704  64.198  1.00  0.00    -0.392 NA 
HETATM    2  H1  UNL     1     -12.601  13.534  64.211  1.00  0.00     0.000 HD 
HETATM    3  C   UNL     1     -11.508  12.179  65.395  1.00  0.00    -0.336 A  
HETATM    4  H2  UNL     1     -12.506  11.962  63.704  1.00  0.00     0.000 HD 
HETATM    5  C   UNL     1     -10.698  11.042  65.377  1.00  0.00    -0.222 A  
HETATM    6  C   UNL     1     -10.141  10.541  66.560  1.00  0.00    -0.225 A  
HETATM    7  C   UNL     1     -10.335  11.211  67.776  1.00  0.00    -0.215 A  
HETATM    8  O   UNL     1      -9.441   9.369  66.501  1.00  0.00    -0.163 OA 
HETATM    9  C   UNL     1     -11.631  12.894  66.586  1.00  0.00    -0.428 A  
HETATM   10  C   UNL     1     -11.071  12.406  67.773  1.00  0.00    -0.292 A  
HETATM   11  H   UNL     1      -9.063   9.029  67.304  1.00  0.00     0.000 HD 
ENDROOT
BRANCH   7  12
HETATM   12  C   UNL     1      -9.892  10.692  69.099  1.00  0.00    -0.200 C  
HETATM   13  O   UNL     1     -10.677  10.249  69.927  1.00  0.00    -0.262 OA 
BRANCH  12  14
HETATM   14  O   UNL     1      -8.520  10.789  69.240  1.00  0.00    -0.135 OA 
BRANCH  14  15
HETATM   15  C   UNL     1      -7.858   9.837  70.036  1.00  0.00    -0.178 A  
HETATM   16  C   UNL     1      -6.526   9.489  69.811  1.00  0.00    -0.046 A  
HETATM   17  C   UNL     1      -5.880   8.633  70.703  1.00  0.00    -0.032 A  
HETATM   18  C   UNL     1      -6.559   8.146  71.819  1.00  0.00    -0.058 A  
HETATM   19  C   UNL     1      -7.887   8.515  72.050  1.00  0.00    -0.150 A  
HETATM   20  C   UNL     1      -8.538   9.369  71.159  1.00  0.00     0.052 A  
ENDBRANCH  14  15
ENDBRANCH  12  14
ENDBRANCH   7  12
TORSDOF 3
ENDMDL
MODEL      253
REMARK 921   NORMALIZED FREE ENERGY PREDICTED BY IDOCK:   -2.03 KCAL/MOL
REMARK 922        TOTAL FREE ENERGY PREDICTED BY IDOCK:   -2.98 KCAL/MOL
REMARK 923 INTER-LIGAND FREE ENERGY PREDICTED BY IDOCK:   -2.13 KCAL/MOL
REMARK 924 INTRA-LIGAND FREE ENERGY PREDICTED BY IDOCK:   -0.85 KCAL/MOL
REMARK 927      BINDING AFFINITY PREDICTED BY RF-SCORE:    0.00 PKD
ROOT
HETATM    1  N   UNL     1      -7.067  10.881  70.247  1.00  0.00    -0.472 NA 
HETATM    2  H1  UNL     1      -6.204  10.884  70.790  1.00  0.00     0.000 HD 
HETATM    3  C   UNL     1      -7.261   9.930  69.239  1.00  0.00    -0.073 A  
HETATM    4  H2  UNL     1      -7.854  10.828  70.895  1.00  0.00     0.000 HD 
HETATM    5  C   UNL     1      -8.443   9.926  68.496  1.00  0.00    -0.112 A  
HETATM    6  C   UNL     1      -8.625   9.019  67.445  1.00  0.00    -0.115 A  
HETATM    7  C   UNL     1      -7.595   8.141  67.077  1.00  0.00    -0.096 A  
HETATM    8  O   UNL     1      -9.839   8.989  66.818  1.00  0.00    -0.192 OA 
HETATM    9  C   UNL     1      -6.206   9.119  68.821  1.00  0.00    -0.044 A  
HETATM   10  C   UNL     1      -6.375   8.215  67.766  1.00  0.00    -0.053 A  
HETATM   11  H   UNL     1      -9.962   8.373  66.104  1.00  0.00     0.000 HD 
ENDROOT
BRANCH   7  12
HETATM   12  C   UNL     1      -7.737   7.061  66.064  1.00  0.00    -0.099 C  
HETATM   13  O   UNL     1      -8.556   6.159  66.174  1.00  0.00    -0.130 OA 
BRANCH  12  14
HETATM   14  O   UNL     1      -6.836   7.227  65.027  1.00  0.00    -0.046 OA 
BRANCH  14  15
HETATM   15  C   UNL     1      -7.083   8.233  64.077  1.00  0.00    -0.084 A  
HETATM   16  C   UNL     1      -8.288   8.301  63.376  1.00  0.00    -0.032 A  
HETATM   17  C   UNL     1      -8.533   9.387  62.536  1.00  0.00    -0.200 A  
HETATM   18  C   UNL     1      -7.586  10.403  62.414  1.00  0.00    -0.166 A  
HETATM   19  C   UNL     1      -6.391  10.339  63.135  1.00  0.00    -0.134 A  
HETATM   20  C   UNL     1      -6.140   9.253  63.975  1.00  0.00    -0.084 A  
ENDBRANCH  14  15
ENDBRANCH  12  14
ENDBRANCH   7  12
TORSDOF 3
ENDMDL
MODEL      254
REMARK 921   NORMALIZED FREE ENERGY PREDICTED BY IDOCK:   -1.62 KCAL/MOL
REMARK 922        TOTAL FREE ENERGY PREDICTED BY IDOCK:   -2.50 KCAL/MOL
REMARK 923 INTER-LIGAND FREE ENERGY PREDICTED BY IDOCK:   -2.04 KCAL/MOL
REMARK 924 INTRA-LIGAND FREE ENERGY PREDICTED BY IDOCK:   -0.46 KCAL/MOL
REMARK 927      BINDING AFFINITY PREDICTED BY RF-SCORE:    0.00 PKD
ROOT
HETATM    1  N   UNL     1      -6.666  10.993  70.556  1.00  0.00    -0.484 NA 
HETATM    2  H1  UNL     1      -5.904  11.412  71.089  1.00  0.00     0.000 HD 
HETATM    3  C   UNL     1      -6.886   9.612  70.610  1.00  0.00    -0.116 A  
HETATM    4  H2  UNL     1      -7.533  11.468  70.808  1.00  0.00     0.000 HD 
HETATM    5  C   UNL     1      -7.930   9.039  69.880  1.00  0.00    -0.103 A  
HETATM    6  C   UNL     1      -8.124   7.653  69.878  1.00  0.00    -0.124 A  
HETATM    7  C   UNL     1      -7.234   6.809  70.556  1.00  0.00    -0.073 A  
HETATM    8  O   UNL     1      -9.221   7.154  69.231  1.00  0.00    -0.141 OA 
HETATM    9  C   UNL     1      -5.951   8.771  71.214  1.00  0.00    -0.048 A  
HETATM   10  C   UNL     1      -6.133   7.383  71.209  1.00  0.00    -0.036 A  
HETATM   11  H   UNL     1      -9.352   6.212  69.230  1.00  0.00     0.000 HD 
ENDROOT
BRANCH   7  12
HETATM   12  C   UNL     1      -7.427   5.342  70.716  1.00  0.00    -0.080 C  
HETATM   13  O   UNL     1      -8.122   4.864  71.603  1.00  0.00    -0.107 OA 
BRANCH  12  14
HETATM   14  O   UNL     1      -6.727   4.637  69.753  1.00  0.00    -0.035 OA 
BRANCH  14  15
HETATM   15  C   UNL     1      -7.424   4.168  68.626  1.00  0.00    -0.055 A  
HETATM   16  C   UNL     1      -8.734   3.695  68.715  1.00  0.00    -0.137 A  
HETATM   17  C   UNL     1      -9.422   3.357  67.551  1.00  0.00    -0.227 A  
HETATM   18  C   UNL     1      -8.809   3.509  66.307  1.00  0.00    -0.131 A  
HETATM   19  C   UNL     1      -7.504   4.003  66.224  1.00  0.00    -0.088 A  
HETATM   20  C   UNL     1      -6.810   4.341  67.387  1.00  0.00    -0.052 A  
ENDBRANCH  14  15
ENDBRANCH  12  14
ENDBRANCH   7  12
TORSDOF 3
ENDMDL
MODEL      255
REMARK 921   NORMALIZED FREE ENERGY PREDICTED BY IDOCK:    5.15 KCAL/MOL
REMARK 922        TOTAL FREE ENERGY PREDICTED BY IDOCK:    5.46 KCAL/MOL
REMARK 923 INTER-LIGAND FREE ENERGY PREDICTED BY IDOCK:    5.71 KCAL/MOL
REMARK 924 INTRA-LIGAND FREE ENERGY PREDICTED BY IDOCK:   -0.25 KCAL/MOL
REMARK 927      BINDING AFFINITY PREDICTED BY RF-SCORE:    0.00 PKD
ROOT
HETATM    1  N   UNL     1      -6.649  12.863  72.144  1.00  0.00     2.506 NA 
HETATM    2  H1  UNL     1      -5.817  13.279  72.562  1.00  0.00     0.000 HD 
HETATM    3  C   UNL     1      -6.528  11.785  71.260  1.00  0.00     2.176 A  
HETATM    4  H2  UNL     1      -7.285  12.593  72.895  1.00  0.00     0.000 HD 
HETATM    5  C   UNL     1      -7.667  11.215  70.688  1.00  0.00     2.780 A  
HETATM    6  C   UNL     1      -7.558  10.176  69.756  1.00  0.00    -0.170 A  
HETATM    7  C   UNL     1      -6.297   9.733  69.331  1.00  0.00    -0.044 A  
HETATM    8  O   UNL     1      -8.705   9.586  69.305  1.00  0.00    -0.134 OA 
HETATM    9  C   UNL     1      -5.276  11.406  70.775  1.00  0.00    -0.123 A  
HETATM   10  C   UNL     1      -5.157  10.374  69.837  1.00  0.00    -0.038 A  
HETATM   11  H   UNL     1      -8.630   8.881  68.673  1.00  0.00     0.000 HD 
ENDROOT
BRANCH   7  12
HETATM   12  C   UNL     1      -6.077   8.558  68.445  1.00  0.00    -0.050 C  
HETATM   13  O   UNL     1      -5.969   7.419  68.879  1.00  0.00    -0.025 OA 
BRANCH  12  14
HETATM   14  O   UNL     1      -6.013   8.938  67.116  1.00  0.00    -0.054 OA 
BRANCH  14  15
HETATM   15  C   UNL     1      -7.215   9.100  66.406  1.00  0.00    -0.091 A  
HETATM   16  C   UNL     1      -8.307   8.253  66.605  1.00  0.00    -0.111 A  
HETATM   17  C   UNL     1      -9.515   8.531  65.967  1.00  0.00    -0.256 A  
HETATM   18  C   UNL     1      -9.633   9.656  65.152  1.00  0.00    -0.324 A  
HETATM   19  C   UNL     1      -8.543  10.511  64.974  1.00  0.00    -0.184 A  
HETATM   20  C   UNL     1      -7.330  10.237  65.608  1.00  0.00    -0.149 A  
ENDBRANCH  14  15
ENDBRANCH  12  14
ENDBRANCH   7  12
TORSDOF 3
ENDMDL
MODEL      256
REMARK 921   NORMALIZED FREE ENERGY PREDICTED BY IDOCK:    9.46 KCAL/MOL
REMARK 922        TOTAL FREE ENERGY PREDICTED BY IDOCK:   10.53 KCAL/MOL
REMARK 923 INTER-LIGAND FREE ENERGY PREDICTED BY IDOCK:   11.22 KCAL/MOL
REMARK 924 INTRA-LIGAND FREE ENERGY PREDICTED BY IDOCK:   -0.69 KCAL/MOL
REMARK 927      BINDING AFFINITY PREDICTED BY RF-SCORE:    0.00 PKD
ROOT
HETATM    1  N   UNL     1     -13.921  11.306  68.055  1.00  0.00     9.593 NA 
HETATM    2  H1  UNL     1     -14.633  11.544  68.745  1.00  0.00     0.000 HD 
HETATM    3  C   UNL     1     -12.571  11.566  68.319  1.00  0.00     1.440 A  
HETATM    4  H2  UNL     1     -14.019  10.317  67.820  1.00  0.00     0.000 HD 
HETATM    5  C   UNL     1     -11.596  11.239  67.374  1.00  0.00    -0.214 A  
HETATM    6  C   UNL     1     -10.250  11.548  67.599  1.00  0.00    -0.184 A  
HETATM    7  C   UNL     1      -9.864  12.250  68.749  1.00  0.00    -0.018 A  
HETATM    8  O   UNL     1      -9.325  11.115  66.690  1.00  0.00    -0.170 OA 
HETATM    9  C   UNL     1     -12.203  12.338  69.420  1.00  0.00    -0.120 A  
HETATM   10  C   UNL     1     -10.860  12.660  69.649  1.00  0.00     0.271 A  
HETATM   11  H   UNL     1      -8.411  11.325  66.844  1.00  0.00     0.000 HD 
ENDROOT
BRANCH   7  12
HETATM   12  C   UNL     1      -8.452  12.513  69.137  1.00  0.00     0.639 C  
HETATM   13  O   UNL     1      -8.106  13.543  69.701  1.00  0.00     0.754 OA 
BRANCH  12  14
HETATM   14  O   UNL     1      -7.630  11.461  68.775  1.00  0.00    -0.122 OA 
BRANCH  14  15
HETATM   15  C   UNL     1      -7.076  10.661  69.790  1.00  0.00    -0.139 A  
HETATM   16  C   UNL     1      -7.715   9.507  70.247  1.00  0.00    -0.170 A  
HETATM   17  C   UNL     1      -7.067   8.683  71.166  1.00  0.00    -0.081 A  
HETATM   18  C   UNL     1      -5.783   9.003  71.608  1.00  0.00    -0.061 A  
HETATM   19  C   UNL     1      -5.141  10.148  71.130  1.00  0.00    -0.069 A  
HETATM   20  C   UNL     1      -5.787  10.978  70.212  1.00  0.00    -0.128 A  
ENDBRANCH  14  15
ENDBRANCH  12  14
ENDBRANCH   7  12
TORSDOF 3
ENDMDL
MODEL      257
REMARK 921   NORMALIZED FREE ENERGY PREDICTED BY IDOCK:   30.63 KCAL/MOL
REMARK 922        TOTAL FREE ENERGY PREDICTED BY IDOCK:   35.41 KCAL/MOL
REMARK 923 INTER-LIGAND FREE ENERGY PREDICTED BY IDOCK:   36.10 KCAL/MOL
REMARK 924 INTRA-LIGAND FREE ENERGY PREDICTED BY IDOCK:   -0.70 KCAL/MOL
REMARK 927      BINDING AFFINITY PREDICTED BY RF-SCORE:    0.00 PKD
ROOT
HETATM    1  N   UNL     1     -13.059  12.293  67.867  1.00  0.00     2.890 NA 
HETATM    2  H1  UNL     1     -13.954  12.468  68.325  1.00  0.00     0.000 HD 
HETATM    3  C   UNL     1     -11.868  12.719  68.467  1.00  0.00    -0.306 A  
HETATM    4  H2  UNL     1     -12.985  11.293  67.679  1.00  0.00     0.000 HD 
HETATM    5  C   UNL     1     -10.643  12.478  67.841  1.00  0.00    -0.233 A  
HETATM    6  C   UNL     1      -9.449  12.951  68.398  1.00  0.00    -0.162 A  
HETATM    7  C   UNL     1      -9.469  13.732  69.562  1.00  0.00     0.912 A  
HETATM    8  O   UNL     1      -8.271  12.600  67.800  1.00  0.00    -0.146 OA 
HETATM    9  C   UNL     1     -11.898  13.565  69.575  1.00  0.00    -0.392 A  
HETATM   10  C   UNL     1     -10.710  14.051  70.134  1.00  0.00     0.516 A  
HETATM   11  H   UNL     1      -7.461  12.922  68.179  1.00  0.00     0.000 HD 
ENDROOT
BRANCH   7  12
HETATM   12  C   UNL     1      -8.252  14.172  70.297  1.00  0.00     1.899 C  
HETATM   13  O   UNL     1      -8.153  15.285  70.796  1.00  0.00     1.178 OA 
BRANCH  12  14
HETATM   14  O   UNL     1      -7.295  13.174  70.322  1.00  0.00     1.134 OA 
BRANCH  14  15
HETATM   15  C   UNL     1      -7.008  12.549  71.548  1.00  0.00     5.338 A  
HETATM   16  C   UNL     1      -7.679  11.396  71.960  1.00  0.00    10.614 A  
HETATM   17  C   UNL     1      -7.273  10.746  73.125  1.00  0.00     7.353 A  
HETATM   18  C   UNL     1      -6.194  11.236  73.859  1.00  0.00     3.044 A  
HETATM   19  C   UNL     1      -5.513  12.378  73.430  1.00  0.00     1.001 A  
HETATM   20  C   UNL     1      -5.917  13.035  72.266  1.00  0.00     1.464 A  
ENDBRANCH  14  15
ENDBRANCH  12  14
ENDBRANCH   7  12
TORSDOF 3
ENDMDL
