MODEL        1
REMARK 921   NORMALIZED FREE ENERGY PREDICTED BY IDOCK:   -6.28 KCAL/MOL
REMARK 922        TOTAL FREE ENERGY PREDICTED BY IDOCK:   -7.19 KCAL/MOL
REMARK 923 INTER-LIGAND FREE ENERGY PREDICTED BY IDOCK:   -7.02 KCAL/MOL
REMARK 924 INTRA-LIGAND FREE ENERGY PREDICTED BY IDOCK:   -0.18 KCAL/MOL
REMARK 927      BINDING AFFINITY PREDICTED BY RF-SCORE:    0.00 PKD
ROOT
HETATM    1  C   UNL     1     -10.256  19.464  66.269  1.00  0.00    -0.478 C  
HETATM    2  N   UNL     1      -9.735  18.677  67.388  1.00  0.00    -0.299 NA 
HETATM    3  C   UNL     1      -9.956  19.396  68.645  1.00  0.00    -0.444 C  
ENDROOT
BRANCH   2   4
HETATM    4  C   UNL     1     -10.360  17.343  67.465  1.00  0.00    -0.351 C  
BRANCH   4   5
HETATM    5  C   UNL     1     -10.658  16.859  68.891  1.00  0.00    -0.353 C  
HETATM    6  C   UNL     1     -11.783  15.801  68.983  1.00  0.00    -0.405 C  
HETATM    7  C   UNL     1     -11.405  14.491  68.297  1.00  0.00    -0.319 A  
HETATM    8  C   UNL     1     -12.221  15.592  70.433  1.00  0.00    -0.395 A  
HETATM    9  C   UNL     1     -10.305  13.734  68.729  1.00  0.00    -0.198 A  
HETATM   10  C   UNL     1     -13.520  15.164  70.711  1.00  0.00    -0.345 A  
HETATM   11  C   UNL     1      -9.948  12.555  68.073  1.00  0.00    -0.219 A  
HETATM   12  C   UNL     1     -13.917  15.026  72.039  1.00  0.00    -0.605 A  
HETATM   13  C   UNL     1     -13.012  15.309  73.054  1.00  0.00    -0.599 A  
HETATM   14  C   UNL     1     -10.695  12.109  66.984  1.00  0.00    -0.272 A  
HETATM   15  C   UNL     1     -11.796  12.843  66.549  1.00  0.00    -0.473 A  
HETATM   16  C   UNL     1     -11.736  15.708  72.698  1.00  0.00    -0.451 A  
HETATM   17  N   UNL     1     -11.324  15.850  71.420  1.00  0.00    -0.377 NA 
HETATM   18  C   UNL     1     -12.148  14.028  67.199  1.00  0.00    -0.436 A  
ENDBRANCH   4   5
ENDBRANCH   2   4
TORSDOF 2
ENDMDL
MODEL        2
REMARK 921   NORMALIZED FREE ENERGY PREDICTED BY IDOCK:   -6.11 KCAL/MOL
REMARK 922        TOTAL FREE ENERGY PREDICTED BY IDOCK:   -7.00 KCAL/MOL
REMARK 923 INTER-LIGAND FREE ENERGY PREDICTED BY IDOCK:   -6.62 KCAL/MOL
REMARK 924 INTRA-LIGAND FREE ENERGY PREDICTED BY IDOCK:   -0.38 KCAL/MOL
REMARK 927      BINDING AFFINITY PREDICTED BY RF-SCORE:    0.00 PKD
ROOT
HETATM    1  C   UNL     1     -12.505  13.904  66.040  1.00  0.00    -0.461 C  
HETATM    2  N   UNL     1     -11.099  13.523  66.182  1.00  0.00    -0.290 NA 
HETATM    3  C   UNL     1     -10.241  14.588  65.655  1.00  0.00    -0.357 C  
ENDROOT
BRANCH   2   4
HETATM    4  C   UNL     1     -10.738  13.248  67.586  1.00  0.00    -0.239 C  
BRANCH   4   5
HETATM    5  C   UNL     1     -11.686  13.866  68.622  1.00  0.00    -0.396 C  
HETATM    6  C   UNL     1     -10.986  14.761  69.672  1.00  0.00    -0.285 C  
HETATM    7  C   UNL     1     -10.368  16.010  69.051  1.00  0.00    -0.242 A  
HETATM    8  C   UNL     1     -11.933  15.093  70.827  1.00  0.00    -0.327 A  
HETATM    9  C   UNL     1     -11.160  16.962  68.390  1.00  0.00    -0.216 A  
HETATM   10  C   UNL     1     -11.414  15.370  72.092  1.00  0.00    -0.525 A  
HETATM   11  C   UNL     1     -10.580  18.084  67.795  1.00  0.00    -0.409 A  
HETATM   12  C   UNL     1     -12.293  15.622  73.143  1.00  0.00    -0.584 A  
HETATM   13  C   UNL     1     -13.662  15.602  72.907  1.00  0.00    -0.628 A  
HETATM   14  C   UNL     1      -9.202  18.277  67.866  1.00  0.00    -0.284 A  
HETATM   15  C   UNL     1      -8.403  17.348  68.528  1.00  0.00    -0.271 A  
HETATM   16  C   UNL     1     -14.097  15.340  71.620  1.00  0.00    -0.541 A  
HETATM   17  N   UNL     1     -13.269  15.093  70.583  1.00  0.00    -0.349 NA 
HETATM   18  C   UNL     1      -8.981  16.220  69.115  1.00  0.00    -0.219 A  
ENDBRANCH   4   5
ENDBRANCH   2   4
TORSDOF 2
ENDMDL
MODEL        3
REMARK 921   NORMALIZED FREE ENERGY PREDICTED BY IDOCK:   -6.03 KCAL/MOL
REMARK 922        TOTAL FREE ENERGY PREDICTED BY IDOCK:   -6.92 KCAL/MOL
REMARK 923 INTER-LIGAND FREE ENERGY PREDICTED BY IDOCK:   -6.73 KCAL/MOL
REMARK 924 INTRA-LIGAND FREE ENERGY PREDICTED BY IDOCK:   -0.19 KCAL/MOL
REMARK 927      BINDING AFFINITY PREDICTED BY RF-SCORE:    0.00 PKD
ROOT
HETATM    1  C   UNL     1     -13.990  15.118  72.033  1.00  0.00    -0.526 C  
HETATM    2  N   UNL     1     -12.929  15.963  72.587  1.00  0.00    -0.462 NA 
HETATM    3  C   UNL     1     -12.372  15.335  73.788  1.00  0.00    -0.605 C  
ENDROOT
BRANCH   2   4
HETATM    4  C   UNL     1     -11.850  16.209  71.613  1.00  0.00    -0.487 C  
BRANCH   4   5
HETATM    5  C   UNL     1     -11.608  15.062  70.623  1.00  0.00    -0.358 C  
HETATM    6  C   UNL     1     -11.497  15.506  69.146  1.00  0.00    -0.356 C  
HETATM    7  C   UNL     1     -10.272  16.380  68.893  1.00  0.00    -0.258 A  
HETATM    8  C   UNL     1     -11.556  14.302  68.204  1.00  0.00    -0.332 A  
HETATM    9  C   UNL     1      -8.974  15.894  69.113  1.00  0.00    -0.256 A  
HETATM   10  C   UNL     1     -12.035  14.461  66.904  1.00  0.00    -0.425 A  
HETATM   11  C   UNL     1      -7.861  16.713  68.911  1.00  0.00    -0.240 A  
HETATM   12  C   UNL     1     -12.128  13.343  66.077  1.00  0.00    -0.487 A  
HETATM   13  C   UNL     1     -11.734  12.102  66.560  1.00  0.00    -0.392 A  
HETATM   14  C   UNL     1      -8.031  18.025  68.474  1.00  0.00    -0.310 A  
HETATM   15  C   UNL     1      -9.312  18.520  68.241  1.00  0.00    -0.350 A  
HETATM   16  C   UNL     1     -11.251  12.031  67.854  1.00  0.00    -0.264 A  
HETATM   17  N   UNL     1     -11.150  13.096  68.678  1.00  0.00    -0.257 NA 
HETATM   18  C   UNL     1     -10.427  17.705  68.452  1.00  0.00    -0.360 A  
ENDBRANCH   4   5
ENDBRANCH   2   4
TORSDOF 2
ENDMDL
MODEL        4
REMARK 921   NORMALIZED FREE ENERGY PREDICTED BY IDOCK:   -5.79 KCAL/MOL
REMARK 922        TOTAL FREE ENERGY PREDICTED BY IDOCK:   -6.64 KCAL/MOL
REMARK 923 INTER-LIGAND FREE ENERGY PREDICTED BY IDOCK:   -6.48 KCAL/MOL
REMARK 924 INTRA-LIGAND FREE ENERGY PREDICTED BY IDOCK:   -0.16 KCAL/MOL
REMARK 927      BINDING AFFINITY PREDICTED BY RF-SCORE:    0.00 PKD
ROOT
HETATM    1  C   UNL     1     -12.003  14.904  64.544  1.00  0.00    -0.410 C  
HETATM    2  N   UNL     1     -12.582  13.561  64.603  1.00  0.00    -0.639 NA 
HETATM    3  C   UNL     1     -12.143  12.780  63.444  1.00  0.00    -0.534 C  
ENDROOT
BRANCH   2   4
HETATM    4  C   UNL     1     -12.215  12.852  65.844  1.00  0.00    -0.407 C  
BRANCH   4   5
HETATM    5  C   UNL     1     -11.851  13.769  67.019  1.00  0.00    -0.445 C  
HETATM    6  C   UNL     1     -11.879  13.076  68.401  1.00  0.00    -0.370 C  
HETATM    7  C   UNL     1     -10.813  11.991  68.528  1.00  0.00    -0.267 A  
HETATM    8  C   UNL     1     -11.800  14.103  69.532  1.00  0.00    -0.322 A  
HETATM    9  C   UNL     1      -9.448  12.297  68.423  1.00  0.00    -0.175 A  
HETATM   10  C   UNL     1     -12.359  13.810  70.776  1.00  0.00    -0.451 A  
HETATM   11  C   UNL     1      -8.483  11.291  68.506  1.00  0.00    -0.156 A  
HETATM   12  C   UNL     1     -12.321  14.777  71.779  1.00  0.00    -0.414 A  
HETATM   13  C   UNL     1     -11.722  16.003  71.521  1.00  0.00    -0.554 A  
HETATM   14  C   UNL     1      -8.869   9.968  68.710  1.00  0.00    -0.137 A  
HETATM   15  C   UNL     1     -10.220   9.650  68.829  1.00  0.00    -0.213 A  
HETATM   16  C   UNL     1     -11.172  16.210  70.269  1.00  0.00    -0.381 A  
HETATM   17  N   UNL     1     -11.194  15.292  69.279  1.00  0.00    -0.265 NA 
HETATM   18  C   UNL     1     -11.187  10.653  68.735  1.00  0.00    -0.337 A  
ENDBRANCH   4   5
ENDBRANCH   2   4
TORSDOF 2
ENDMDL
MODEL        5
REMARK 921   NORMALIZED FREE ENERGY PREDICTED BY IDOCK:   -5.78 KCAL/MOL
REMARK 922        TOTAL FREE ENERGY PREDICTED BY IDOCK:   -6.63 KCAL/MOL
REMARK 923 INTER-LIGAND FREE ENERGY PREDICTED BY IDOCK:   -6.48 KCAL/MOL
REMARK 924 INTRA-LIGAND FREE ENERGY PREDICTED BY IDOCK:   -0.15 KCAL/MOL
REMARK 927      BINDING AFFINITY PREDICTED BY RF-SCORE:    0.00 PKD
ROOT
HETATM    1  C   UNL     1     -11.059   9.635  71.081  1.00  0.00    -0.374 C  
HETATM    2  N   UNL     1     -12.257  10.368  70.667  1.00  0.00    -0.320 NA 
HETATM    3  C   UNL     1     -13.114  10.613  71.830  1.00  0.00    -0.466 C  
ENDROOT
BRANCH   2   4
HETATM    4  C   UNL     1     -11.927  11.651  70.018  1.00  0.00    -0.351 C  
BRANCH   4   5
HETATM    5  C   UNL     1     -11.465  11.528  68.560  1.00  0.00    -0.354 C  
HETATM    6  C   UNL     1     -11.800  12.755  67.680  1.00  0.00    -0.396 C  
HETATM    7  C   UNL     1     -11.054  14.010  68.124  1.00  0.00    -0.280 A  
HETATM    8  C   UNL     1     -11.583  12.443  66.198  1.00  0.00    -0.396 A  
HETATM    9  C   UNL     1      -9.652  14.064  68.115  1.00  0.00    -0.220 A  
HETATM   10  C   UNL     1     -12.317  13.128  65.229  1.00  0.00    -0.532 A  
HETATM   11  C   UNL     1      -8.978  15.205  68.556  1.00  0.00    -0.186 A  
HETATM   12  C   UNL     1     -12.140  12.796  63.888  1.00  0.00    -0.562 A  
HETATM   13  C   UNL     1     -11.234  11.801  63.545  1.00  0.00    -0.494 A  
HETATM   14  C   UNL     1      -9.699  16.312  68.999  1.00  0.00    -0.252 A  
HETATM   15  C   UNL     1     -11.091  16.279  69.004  1.00  0.00    -0.331 A  
HETATM   16  C   UNL     1     -10.529  11.183  64.562  1.00  0.00    -0.350 A  
HETATM   17  N   UNL     1     -10.679  11.484  65.870  1.00  0.00    -0.271 NA 
HETATM   18  C   UNL     1     -11.766  15.135  68.572  1.00  0.00    -0.347 A  
ENDBRANCH   4   5
ENDBRANCH   2   4
TORSDOF 2
ENDMDL
MODEL        6
REMARK 921   NORMALIZED FREE ENERGY PREDICTED BY IDOCK:   -5.77 KCAL/MOL
REMARK 922        TOTAL FREE ENERGY PREDICTED BY IDOCK:   -6.62 KCAL/MOL
REMARK 923 INTER-LIGAND FREE ENERGY PREDICTED BY IDOCK:   -6.45 KCAL/MOL
REMARK 924 INTRA-LIGAND FREE ENERGY PREDICTED BY IDOCK:   -0.17 KCAL/MOL
REMARK 927      BINDING AFFINITY PREDICTED BY RF-SCORE:    0.00 PKD
ROOT
HETATM    1  C   UNL     1     -11.082  11.610  65.643  1.00  0.00    -0.249 C  
HETATM    2  N   UNL     1     -11.614  11.987  66.955  1.00  0.00    -0.511 NA 
HETATM    3  C   UNL     1     -11.298  10.946  67.936  1.00  0.00    -0.308 C  
ENDROOT
BRANCH   2   4
HETATM    4  C   UNL     1     -11.079  13.281  67.419  1.00  0.00    -0.278 C  
BRANCH   4   5
HETATM    5  C   UNL     1     -11.907  13.957  68.520  1.00  0.00    -0.401 C  
HETATM    6  C   UNL     1     -11.067  14.692  69.590  1.00  0.00    -0.284 C  
HETATM    7  C   UNL     1     -10.308  15.884  69.014  1.00  0.00    -0.231 A  
HETATM    8  C   UNL     1     -11.928  15.077  70.794  1.00  0.00    -0.318 A  
HETATM    9  C   UNL     1     -10.987  16.966  68.433  1.00  0.00    -0.296 A  
HETATM   10  C   UNL     1     -11.341  15.211  72.053  1.00  0.00    -0.358 A  
HETATM   11  C   UNL     1     -10.281  18.036  67.879  1.00  0.00    -0.386 A  
HETATM   12  C   UNL     1     -12.149  15.515  73.146  1.00  0.00    -0.591 A  
HETATM   13  C   UNL     1     -13.515  15.685  72.959  1.00  0.00    -0.654 A  
HETATM   14  C   UNL     1      -8.888  18.045  67.910  1.00  0.00    -0.269 A  
HETATM   15  C   UNL     1      -8.200  16.983  68.493  1.00  0.00    -0.259 A  
HETATM   16  C   UNL     1     -14.018  15.557  71.677  1.00  0.00    -0.446 A  
HETATM   17  N   UNL     1     -13.260  15.263  70.599  1.00  0.00    -0.369 NA 
HETATM   18  C   UNL     1      -8.904  15.907  69.039  1.00  0.00    -0.243 A  
ENDBRANCH   4   5
ENDBRANCH   2   4
TORSDOF 2
ENDMDL
MODEL        7
REMARK 921   NORMALIZED FREE ENERGY PREDICTED BY IDOCK:   -5.75 KCAL/MOL
REMARK 922        TOTAL FREE ENERGY PREDICTED BY IDOCK:   -6.60 KCAL/MOL
REMARK 923 INTER-LIGAND FREE ENERGY PREDICTED BY IDOCK:   -6.44 KCAL/MOL
REMARK 924 INTRA-LIGAND FREE ENERGY PREDICTED BY IDOCK:   -0.16 KCAL/MOL
REMARK 927      BINDING AFFINITY PREDICTED BY RF-SCORE:    0.00 PKD
ROOT
HETATM    1  C   UNL     1     -11.438   9.181  70.984  1.00  0.00    -0.306 C  
HETATM    2  N   UNL     1     -12.789   9.687  71.229  1.00  0.00    -0.342 NA 
HETATM    3  C   UNL     1     -13.336   9.074  72.443  1.00  0.00    -0.460 C  
ENDROOT
BRANCH   2   4
HETATM    4  C   UNL     1     -12.816  11.156  71.363  1.00  0.00    -0.439 C  
BRANCH   4   5
HETATM    5  C   UNL     1     -11.837  11.898  70.444  1.00  0.00    -0.329 C  
HETATM    6  C   UNL     1     -12.376  13.235  69.884  1.00  0.00    -0.228 C  
HETATM    7  C   UNL     1     -12.603  14.274  70.979  1.00  0.00    -0.428 A  
HETATM    8  C   UNL     1     -11.480  13.761  68.762  1.00  0.00    -0.303 A  
HETATM    9  C   UNL     1     -11.543  14.737  71.774  1.00  0.00    -0.244 A  
HETATM   10  C   UNL     1     -12.020  14.577  67.767  1.00  0.00    -0.345 A  
HETATM   11  C   UNL     1     -11.767  15.662  72.795  1.00  0.00    -0.537 A  
HETATM   12  C   UNL     1     -11.200  15.006  66.726  1.00  0.00    -0.322 A  
HETATM   13  C   UNL     1      -9.866  14.621  66.705  1.00  0.00    -0.262 A  
HETATM   14  C   UNL     1     -13.053  16.146  73.028  1.00  0.00    -0.486 A  
HETATM   15  C   UNL     1     -14.114  15.704  72.241  1.00  0.00    -0.564 A  
HETATM   16  C   UNL     1      -9.400  13.828  67.739  1.00  0.00    -0.213 A  
HETATM   17  N   UNL     1     -10.171  13.398  68.761  1.00  0.00    -0.174 NA 
HETATM   18  C   UNL     1     -13.893  14.772  71.225  1.00  0.00    -0.460 A  
ENDBRANCH   4   5
ENDBRANCH   2   4
TORSDOF 2
ENDMDL
MODEL        8
REMARK 921   NORMALIZED FREE ENERGY PREDICTED BY IDOCK:   -5.65 KCAL/MOL
REMARK 922        TOTAL FREE ENERGY PREDICTED BY IDOCK:   -6.49 KCAL/MOL
REMARK 923 INTER-LIGAND FREE ENERGY PREDICTED BY IDOCK:   -6.31 KCAL/MOL
REMARK 924 INTRA-LIGAND FREE ENERGY PREDICTED BY IDOCK:   -0.17 KCAL/MOL
REMARK 927      BINDING AFFINITY PREDICTED BY RF-SCORE:    0.00 PKD
ROOT
HETATM    1  C   UNL     1     -12.467  14.874  73.331  1.00  0.00    -0.446 C  
HETATM    2  N   UNL     1     -13.285  14.310  72.256  1.00  0.00    -0.382 NA 
HETATM    3  C   UNL     1     -14.357  15.246  71.905  1.00  0.00    -0.589 C  
ENDROOT
BRANCH   2   4
HETATM    4  C   UNL     1     -12.487  14.001  71.054  1.00  0.00    -0.371 C  
BRANCH   4   5
HETATM    5  C   UNL     1     -11.863  15.224  70.370  1.00  0.00    -0.361 C  
HETATM    6  C   UNL     1     -10.639  14.903  69.482  1.00  0.00    -0.242 C  
HETATM    7  C   UNL     1     -11.007  14.042  68.276  1.00  0.00    -0.272 A  
HETATM    8  C   UNL     1      -9.901  16.181  69.080  1.00  0.00    -0.245 A  
HETATM    9  C   UNL     1     -11.914  14.498  67.307  1.00  0.00    -0.375 A  
HETATM   10  C   UNL     1      -8.536  16.135  68.796  1.00  0.00    -0.236 A  
HETATM   11  C   UNL     1     -12.269  13.689  66.226  1.00  0.00    -0.484 A  
HETATM   12  C   UNL     1      -7.871  17.318  68.479  1.00  0.00    -0.266 A  
HETATM   13  C   UNL     1      -8.581  18.511  68.446  1.00  0.00    -0.355 A  
HETATM   14  C   UNL     1     -11.712  12.419  66.092  1.00  0.00    -0.460 A  
HETATM   15  C   UNL     1     -10.802  11.956  67.039  1.00  0.00    -0.303 A  
HETATM   16  C   UNL     1      -9.936  18.471  68.719  1.00  0.00    -0.380 A  
HETATM   17  N   UNL     1     -10.607  17.341  69.028  1.00  0.00    -0.301 NA 
HETATM   18  C   UNL     1     -10.452  12.760  68.126  1.00  0.00    -0.244 A  
ENDBRANCH   4   5
ENDBRANCH   2   4
TORSDOF 2
ENDMDL
MODEL        9
REMARK 921   NORMALIZED FREE ENERGY PREDICTED BY IDOCK:   -5.62 KCAL/MOL
REMARK 922        TOTAL FREE ENERGY PREDICTED BY IDOCK:   -6.45 KCAL/MOL
REMARK 923 INTER-LIGAND FREE ENERGY PREDICTED BY IDOCK:   -6.30 KCAL/MOL
REMARK 924 INTRA-LIGAND FREE ENERGY PREDICTED BY IDOCK:   -0.15 KCAL/MOL
REMARK 927      BINDING AFFINITY PREDICTED BY RF-SCORE:    0.00 PKD
ROOT
HETATM    1  C   UNL     1     -11.414  15.460  71.810  1.00  0.00    -0.422 C  
HETATM    2  N   UNL     1     -12.228  14.921  70.718  1.00  0.00    -0.300 NA 
HETATM    3  C   UNL     1     -13.646  15.174  70.986  1.00  0.00    -0.409 C  
ENDROOT
BRANCH   2   4
HETATM    4  C   UNL     1     -11.861  15.503  69.413  1.00  0.00    -0.374 C  
BRANCH   4   5
HETATM    5  C   UNL     1     -11.632  14.475  68.297  1.00  0.00    -0.358 C  
HETATM    6  C   UNL     1     -11.507  15.088  66.882  1.00  0.00    -0.266 C  
HETATM    7  C   UNL     1     -10.266  15.965  66.738  1.00  0.00    -0.283 A  
HETATM    8  C   UNL     1     -11.579  14.003  65.807  1.00  0.00    -0.339 A  
HETATM    9  C   UNL     1      -8.977  15.436  66.904  1.00  0.00    -0.273 A  
HETATM   10  C   UNL     1     -12.049  14.320  64.532  1.00  0.00    -0.499 A  
HETATM   11  C   UNL     1      -7.851  16.255  66.803  1.00  0.00    -0.300 A  
HETATM   12  C   UNL     1     -12.154  13.308  63.579  1.00  0.00    -0.550 A  
HETATM   13  C   UNL     1     -11.783  12.013  63.916  1.00  0.00    -0.537 A  
HETATM   14  C   UNL     1      -7.998  17.611  66.522  1.00  0.00    -0.302 A  
HETATM   15  C   UNL     1      -9.270  18.150  66.343  1.00  0.00    -0.267 A  
HETATM   16  C   UNL     1     -11.307  11.783  65.195  1.00  0.00    -0.218 A  
HETATM   17  N   UNL     1     -11.194  12.743  66.138  1.00  0.00    -0.287 NA 
HETATM   18  C   UNL     1     -10.398  17.334  66.453  1.00  0.00    -0.316 A  
ENDBRANCH   4   5
ENDBRANCH   2   4
TORSDOF 2
ENDMDL
MODEL       10
REMARK 921   NORMALIZED FREE ENERGY PREDICTED BY IDOCK:   -5.54 KCAL/MOL
REMARK 922        TOTAL FREE ENERGY PREDICTED BY IDOCK:   -6.37 KCAL/MOL
REMARK 923 INTER-LIGAND FREE ENERGY PREDICTED BY IDOCK:   -6.19 KCAL/MOL
REMARK 924 INTRA-LIGAND FREE ENERGY PREDICTED BY IDOCK:   -0.18 KCAL/MOL
REMARK 927      BINDING AFFINITY PREDICTED BY RF-SCORE:    0.00 PKD
ROOT
HETATM    1  C   UNL     1     -12.188  15.822  71.779  1.00  0.00    -0.452 C  
HETATM    2  N   UNL     1     -12.214  14.398  71.441  1.00  0.00    -0.350 NA 
HETATM    3  C   UNL     1     -13.360  13.755  72.090  1.00  0.00    -0.476 C  
ENDROOT
BRANCH   2   4
HETATM    4  C   UNL     1     -12.283  14.174  69.984  1.00  0.00    -0.357 C  
BRANCH   4   5
HETATM    5  C   UNL     1     -11.816  15.363  69.133  1.00  0.00    -0.357 C  
HETATM    6  C   UNL     1     -10.651  15.037  68.168  1.00  0.00    -0.248 C  
HETATM    7  C   UNL     1     -11.055  14.038  67.088  1.00  0.00    -0.313 A  
HETATM    8  C   UNL     1     -10.051  16.316  67.582  1.00  0.00    -0.260 A  
HETATM    9  C   UNL     1     -12.074  14.331  66.170  1.00  0.00    -0.424 A  
HETATM   10  C   UNL     1      -8.716  16.335  67.177  1.00  0.00    -0.213 A  
HETATM   11  C   UNL     1     -12.458  13.395  65.207  1.00  0.00    -0.532 A  
HETATM   12  C   UNL     1      -8.174  17.522  66.691  1.00  0.00    -0.288 A  
HETATM   13  C   UNL     1      -8.973  18.655  66.612  1.00  0.00    -0.307 A  
HETATM   14  C   UNL     1     -11.819  12.159  65.141  1.00  0.00    -0.356 A  
HETATM   15  C   UNL     1     -10.797  11.857  66.039  1.00  0.00    -0.342 A  
HETATM   16  C   UNL     1     -10.293  18.551  67.013  1.00  0.00    -0.399 A  
HETATM   17  N   UNL     1     -10.846  17.414  67.488  1.00  0.00    -0.269 NA 
HETATM   18  C   UNL     1     -10.419  12.788  67.009  1.00  0.00    -0.245 A  
ENDBRANCH   4   5
ENDBRANCH   2   4
TORSDOF 2
ENDMDL
MODEL       11
REMARK 921   NORMALIZED FREE ENERGY PREDICTED BY IDOCK:   -5.53 KCAL/MOL
REMARK 922        TOTAL FREE ENERGY PREDICTED BY IDOCK:   -6.35 KCAL/MOL
REMARK 923 INTER-LIGAND FREE ENERGY PREDICTED BY IDOCK:   -6.19 KCAL/MOL
REMARK 924 INTRA-LIGAND FREE ENERGY PREDICTED BY IDOCK:   -0.15 KCAL/MOL
REMARK 927      BINDING AFFINITY PREDICTED BY RF-SCORE:    0.00 PKD
ROOT
HETATM    1  C   UNL     1     -10.567  19.372  66.990  1.00  0.00    -0.478 C  
HETATM    2  N   UNL     1      -9.671  18.577  67.833  1.00  0.00    -0.303 NA 
HETATM    3  C   UNL     1      -8.792  19.466  68.596  1.00  0.00    -0.373 C  
ENDROOT
BRANCH   2   4
HETATM    4  C   UNL     1     -10.413  17.701  68.759  1.00  0.00    -0.287 C  
BRANCH   4   5
HETATM    5  C   UNL     1     -10.911  16.389  68.137  1.00  0.00    -0.346 C  
HETATM    6  C   UNL     1     -10.761  15.152  69.053  1.00  0.00    -0.239 C  
HETATM    7  C   UNL     1     -11.638  15.242  70.299  1.00  0.00    -0.332 A  
HETATM    8  C   UNL     1     -10.995  13.859  68.270  1.00  0.00    -0.255 A  
HETATM    9  C   UNL     1     -13.036  15.321  70.200  1.00  0.00    -0.128 A  
HETATM   10  C   UNL     1     -10.387  12.675  68.689  1.00  0.00    -0.192 A  
HETATM   11  C   UNL     1     -13.826  15.438  71.345  1.00  0.00    -0.577 A  
HETATM   12  C   UNL     1     -10.572  11.517  67.935  1.00  0.00    -0.224 A  
HETATM   13  C   UNL     1     -11.361  11.565  66.794  1.00  0.00    -0.309 A  
HETATM   14  C   UNL     1     -13.231  15.464  72.605  1.00  0.00    -0.567 A  
HETATM   15  C   UNL     1     -11.846  15.376  72.720  1.00  0.00    -0.563 A  
HETATM   16  C   UNL     1     -11.947  12.772  66.457  1.00  0.00    -0.358 A  
HETATM   17  N   UNL     1     -11.786  13.909  67.167  1.00  0.00    -0.389 NA 
HETATM   18  C   UNL     1     -11.053  15.269  71.575  1.00  0.00    -0.272 A  
ENDBRANCH   4   5
ENDBRANCH   2   4
TORSDOF 2
ENDMDL
MODEL       12
REMARK 921   NORMALIZED FREE ENERGY PREDICTED BY IDOCK:   -5.50 KCAL/MOL
REMARK 922        TOTAL FREE ENERGY PREDICTED BY IDOCK:   -6.32 KCAL/MOL
REMARK 923 INTER-LIGAND FREE ENERGY PREDICTED BY IDOCK:   -6.08 KCAL/MOL
REMARK 924 INTRA-LIGAND FREE ENERGY PREDICTED BY IDOCK:   -0.24 KCAL/MOL
REMARK 927      BINDING AFFINITY PREDICTED BY RF-SCORE:    0.00 PKD
ROOT
HETATM    1  C   UNL     1     -12.625  11.844  63.461  1.00  0.00    -0.459 C  
HETATM    2  N   UNL     1     -11.688  12.642  64.254  1.00  0.00    -0.354 NA 
HETATM    3  C   UNL     1     -10.350  12.571  63.661  1.00  0.00    -0.350 C  
ENDROOT
BRANCH   2   4
HETATM    4  C   UNL     1     -12.108  14.053  64.357  1.00  0.00    -0.458 C  
BRANCH   4   5
HETATM    5  C   UNL     1     -11.032  15.002  64.901  1.00  0.00    -0.427 C  
HETATM    6  C   UNL     1     -11.158  15.310  66.411  1.00  0.00    -0.273 C  
HETATM    7  C   UNL     1     -10.930  14.074  67.276  1.00  0.00    -0.303 A  
HETATM    8  C   UNL     1     -10.251  16.475  66.811  1.00  0.00    -0.295 A  
HETATM    9  C   UNL     1      -9.706  13.387  67.256  1.00  0.00    -0.232 A  
HETATM   10  C   UNL     1     -10.589  17.274  67.904  1.00  0.00    -0.384 A  
HETATM   11  C   UNL     1      -9.520  12.237  68.026  1.00  0.00    -0.206 A  
HETATM   12  C   UNL     1      -9.777  18.360  68.223  1.00  0.00    -0.366 A  
HETATM   13  C   UNL     1      -8.648  18.617  67.455  1.00  0.00    -0.284 A  
HETATM   14  C   UNL     1     -10.550  11.766  68.837  1.00  0.00    -0.211 A  
HETATM   15  C   UNL     1     -11.767  12.443  68.877  1.00  0.00    -0.372 A  
HETATM   16  C   UNL     1      -8.370  17.766  66.401  1.00  0.00    -0.248 A  
HETATM   17  N   UNL     1      -9.138  16.707  66.068  1.00  0.00    -0.478 NA 
HETATM   18  C   UNL     1     -11.959  13.587  68.100  1.00  0.00    -0.376 A  
ENDBRANCH   4   5
ENDBRANCH   2   4
TORSDOF 2
ENDMDL
MODEL       13
REMARK 921   NORMALIZED FREE ENERGY PREDICTED BY IDOCK:   -5.48 KCAL/MOL
REMARK 922        TOTAL FREE ENERGY PREDICTED BY IDOCK:   -6.29 KCAL/MOL
REMARK 923 INTER-LIGAND FREE ENERGY PREDICTED BY IDOCK:   -6.00 KCAL/MOL
REMARK 924 INTRA-LIGAND FREE ENERGY PREDICTED BY IDOCK:   -0.29 KCAL/MOL
REMARK 927      BINDING AFFINITY PREDICTED BY RF-SCORE:    0.00 PKD
ROOT
HETATM    1  C   UNL     1     -10.145  10.262  65.554  1.00  0.00    -0.281 C  
HETATM    2  N   UNL     1     -10.594  10.033  66.928  1.00  0.00    -0.220 NA 
HETATM    3  C   UNL     1     -10.410   8.623  67.282  1.00  0.00    -0.296 C  
ENDROOT
BRANCH   2   4
HETATM    4  C   UNL     1      -9.875  10.883  67.896  1.00  0.00    -0.172 C  
BRANCH   4   5
HETATM    5  C   UNL     1     -10.781  11.754  68.778  1.00  0.00    -0.255 C  
HETATM    6  C   UNL     1     -10.619  13.275  68.551  1.00  0.00    -0.270 C  
HETATM    7  C   UNL     1     -11.060  13.704  67.155  1.00  0.00    -0.311 A  
HETATM    8  C   UNL     1     -11.320  14.071  69.653  1.00  0.00    -0.214 A  
HETATM    9  C   UNL     1     -12.382  13.519  66.721  1.00  0.00    -0.326 A  
HETATM   10  C   UNL     1     -10.863  15.346  69.986  1.00  0.00    -0.320 A  
HETATM   11  C   UNL     1     -12.767  13.885  65.429  1.00  0.00    -0.525 A  
HETATM   12  C   UNL     1     -11.483  16.037  71.025  1.00  0.00    -0.460 A  
HETATM   13  C   UNL     1     -12.544  15.446  71.698  1.00  0.00    -0.458 A  
HETATM   14  C   UNL     1     -11.839  14.452  64.559  1.00  0.00    -0.463 A  
HETATM   15  C   UNL     1     -10.526  14.652  64.978  1.00  0.00    -0.447 A  
HETATM   16  C   UNL     1     -12.953  14.187  71.295  1.00  0.00    -0.356 A  
HETATM   17  N   UNL     1     -12.371  13.495  70.292  1.00  0.00    -0.322 NA 
HETATM   18  C   UNL     1     -10.136  14.278  66.266  1.00  0.00    -0.308 A  
ENDBRANCH   4   5
ENDBRANCH   2   4
TORSDOF 2
ENDMDL
MODEL       14
REMARK 921   NORMALIZED FREE ENERGY PREDICTED BY IDOCK:   -5.46 KCAL/MOL
REMARK 922        TOTAL FREE ENERGY PREDICTED BY IDOCK:   -6.27 KCAL/MOL
REMARK 923 INTER-LIGAND FREE ENERGY PREDICTED BY IDOCK:   -6.13 KCAL/MOL
REMARK 924 INTRA-LIGAND FREE ENERGY PREDICTED BY IDOCK:   -0.14 KCAL/MOL
REMARK 927      BINDING AFFINITY PREDICTED BY RF-SCORE:    0.00 PKD
ROOT
HETATM    1  C   UNL     1     -11.412  10.311  70.692  1.00  0.00    -0.349 C  
HETATM    2  N   UNL     1     -10.994  11.050  69.499  1.00  0.00    -0.250 NA 
HETATM    3  C   UNL     1     -11.229  10.235  68.304  1.00  0.00    -0.232 C  
ENDROOT
BRANCH   2   4
HETATM    4  C   UNL     1     -11.703  12.337  69.367  1.00  0.00    -0.330 C  
BRANCH   4   5
HETATM    5  C   UNL     1     -10.787  13.558  69.216  1.00  0.00    -0.107 C  
HETATM    6  C   UNL     1     -11.520  14.918  69.284  1.00  0.00    -0.324 C  
HETATM    7  C   UNL     1     -12.137  15.176  70.656  1.00  0.00    -0.378 A  
HETATM    8  C   UNL     1     -10.605  16.058  68.835  1.00  0.00    -0.257 A  
HETATM    9  C   UNL     1     -11.340  15.256  71.809  1.00  0.00    -0.445 A  
HETATM   10  C   UNL     1     -11.156  17.214  68.282  1.00  0.00    -0.118 A  
HETATM   11  C   UNL     1     -11.918  15.459  73.064  1.00  0.00    -0.557 A  
HETATM   12  C   UNL     1     -10.305  18.222  67.833  1.00  0.00    -0.417 A  
HETATM   13  C   UNL     1      -8.931  18.057  67.953  1.00  0.00    -0.265 A  
HETATM   14  C   UNL     1     -13.299  15.598  73.181  1.00  0.00    -0.660 A  
HETATM   15  C   UNL     1     -14.103  15.532  72.046  1.00  0.00    -0.598 A  
HETATM   16  C   UNL     1      -8.463  16.891  68.531  1.00  0.00    -0.258 A  
HETATM   17  N   UNL     1      -9.263  15.899  68.975  1.00  0.00    -0.227 NA 
HETATM   18  C   UNL     1     -13.527  15.320  70.791  1.00  0.00    -0.359 A  
ENDBRANCH   4   5
ENDBRANCH   2   4
TORSDOF 2
ENDMDL
MODEL       15
REMARK 921   NORMALIZED FREE ENERGY PREDICTED BY IDOCK:   -5.43 KCAL/MOL
REMARK 922        TOTAL FREE ENERGY PREDICTED BY IDOCK:   -6.24 KCAL/MOL
REMARK 923 INTER-LIGAND FREE ENERGY PREDICTED BY IDOCK:   -6.08 KCAL/MOL
REMARK 924 INTRA-LIGAND FREE ENERGY PREDICTED BY IDOCK:   -0.16 KCAL/MOL
REMARK 927      BINDING AFFINITY PREDICTED BY RF-SCORE:    0.00 PKD
ROOT
HETATM    1  C   UNL     1     -12.899  10.923  71.449  1.00  0.00    -0.449 C  
HETATM    2  N   UNL     1     -11.669  10.961  70.656  1.00  0.00    -0.340 NA 
HETATM    3  C   UNL     1     -11.059   9.629  70.624  1.00  0.00    -0.319 C  
ENDROOT
BRANCH   2   4
HETATM    4  C   UNL     1     -11.911  11.426  69.277  1.00  0.00    -0.349 C  
BRANCH   4   5
HETATM    5  C   UNL     1     -11.707  12.932  69.067  1.00  0.00    -0.375 C  
HETATM    6  C   UNL     1     -10.651  13.289  67.994  1.00  0.00    -0.249 C  
HETATM    7  C   UNL     1     -11.072  12.847  66.596  1.00  0.00    -0.316 A  
HETATM    8  C   UNL     1     -10.292  14.775  68.051  1.00  0.00    -0.237 A  
HETATM    9  C   UNL     1     -12.233  13.354  65.991  1.00  0.00    -0.491 A  
HETATM   10  C   UNL     1      -9.035  15.202  67.623  1.00  0.00    -0.183 A  
HETATM   11  C   UNL     1     -12.627  12.917  64.725  1.00  0.00    -0.493 A  
HETATM   12  C   UNL     1      -8.709  16.553  67.727  1.00  0.00    -0.197 A  
HETATM   13  C   UNL     1      -9.641  17.442  68.245  1.00  0.00    -0.292 A  
HETATM   14  C   UNL     1     -11.859  11.977  64.041  1.00  0.00    -0.500 A  
HETATM   15  C   UNL     1     -10.698  11.473  64.622  1.00  0.00    -0.379 A  
HETATM   16  C   UNL     1     -10.874  16.944  68.628  1.00  0.00    -0.314 A  
HETATM   17  N   UNL     1     -11.218  15.642  68.539  1.00  0.00    -0.323 NA 
HETATM   18  C   UNL     1     -10.308  11.902  65.893  1.00  0.00    -0.277 A  
ENDBRANCH   4   5
ENDBRANCH   2   4
TORSDOF 2
ENDMDL
MODEL       16
REMARK 921   NORMALIZED FREE ENERGY PREDICTED BY IDOCK:   -5.39 KCAL/MOL
REMARK 922        TOTAL FREE ENERGY PREDICTED BY IDOCK:   -6.20 KCAL/MOL
REMARK 923 INTER-LIGAND FREE ENERGY PREDICTED BY IDOCK:   -6.01 KCAL/MOL
REMARK 924 INTRA-LIGAND FREE ENERGY PREDICTED BY IDOCK:   -0.19 KCAL/MOL
REMARK 927      BINDING AFFINITY PREDICTED BY RF-SCORE:    0.00 PKD
ROOT
HETATM    1  C   UNL     1      -9.700   8.779  70.721  1.00  0.00    -0.208 C  
HETATM    2  N   UNL     1     -11.061   9.221  70.411  1.00  0.00    -0.246 NA 
HETATM    3  C   UNL     1     -11.824   9.384  71.652  1.00  0.00    -0.394 C  
ENDROOT
BRANCH   2   4
HETATM    4  C   UNL     1     -11.075  10.487  69.654  1.00  0.00    -0.283 C  
BRANCH   4   5
HETATM    5  C   UNL     1     -12.019  11.558  70.216  1.00  0.00    -0.455 C  
HETATM    6  C   UNL     1     -11.441  12.992  70.196  1.00  0.00    -0.009 C  
HETATM    7  C   UNL     1     -11.217  13.508  68.777  1.00  0.00    -0.311 A  
HETATM    8  C   UNL     1     -12.301  13.942  71.030  1.00  0.00    -0.376 A  
HETATM    9  C   UNL     1     -12.285  13.649  67.877  1.00  0.00    -0.185 A  
HETATM   10  C   UNL     1     -11.723  15.069  71.615  1.00  0.00    -0.439 A  
HETATM   11  C   UNL     1     -12.064  14.089  66.571  1.00  0.00    -0.488 A  
HETATM   12  C   UNL     1     -12.512  15.896  72.413  1.00  0.00    -0.558 A  
HETATM   13  C   UNL     1     -13.853  15.587  72.599  1.00  0.00    -0.654 A  
HETATM   14  C   UNL     1     -10.774  14.407  66.150  1.00  0.00    -0.304 A  
HETATM   15  C   UNL     1      -9.705  14.283  67.035  1.00  0.00    -0.253 A  
HETATM   16  C   UNL     1     -14.356  14.464  71.968  1.00  0.00    -0.553 A  
HETATM   17  N   UNL     1     -13.617  13.644  71.191  1.00  0.00    -0.065 NA 
HETATM   18  C   UNL     1      -9.923  13.833  68.339  1.00  0.00    -0.229 A  
ENDBRANCH   4   5
ENDBRANCH   2   4
TORSDOF 2
ENDMDL
MODEL       17
REMARK 921   NORMALIZED FREE ENERGY PREDICTED BY IDOCK:   -5.31 KCAL/MOL
REMARK 922        TOTAL FREE ENERGY PREDICTED BY IDOCK:   -6.11 KCAL/MOL
REMARK 923 INTER-LIGAND FREE ENERGY PREDICTED BY IDOCK:   -5.96 KCAL/MOL
REMARK 924 INTRA-LIGAND FREE ENERGY PREDICTED BY IDOCK:   -0.15 KCAL/MOL
REMARK 927      BINDING AFFINITY PREDICTED BY RF-SCORE:    0.00 PKD
ROOT
HETATM    1  C   UNL     1     -12.392  14.295  64.777  1.00  0.00    -0.426 C  
HETATM    2  N   UNL     1     -12.569  12.850  64.935  1.00  0.00    -0.635 NA 
HETATM    3  C   UNL     1     -12.493  12.196  63.626  1.00  0.00    -0.549 C  
ENDROOT
BRANCH   2   4
HETATM    4  C   UNL     1     -11.562  12.263  65.839  1.00  0.00    -0.393 C  
BRANCH   4   5
HETATM    5  C   UNL     1     -11.755  12.611  67.322  1.00  0.00    -0.435 C  
HETATM    6  C   UNL     1     -11.632  11.404  68.281  1.00  0.00    -0.376 C  
HETATM    7  C   UNL     1     -10.224  10.814  68.294  1.00  0.00    -0.187 A  
HETATM    8  C   UNL     1     -12.123  11.766  69.683  1.00  0.00    -0.258 A  
HETATM    9  C   UNL     1      -9.119  11.578  68.699  1.00  0.00    -0.124 A  
HETATM   10  C   UNL     1     -12.633  10.771  70.518  1.00  0.00    -0.421 A  
HETATM   11  C   UNL     1      -7.831  11.039  68.675  1.00  0.00    -0.136 A  
HETATM   12  C   UNL     1     -13.121  11.127  71.774  1.00  0.00    -0.536 A  
HETATM   13  C   UNL     1     -13.082  12.458  72.168  1.00  0.00    -0.419 A  
HETATM   14  C   UNL     1      -7.633   9.725  68.257  1.00  0.00    -0.081 A  
HETATM   15  C   UNL     1      -8.721   8.950  67.862  1.00  0.00    -0.129 A  
HETATM   16  C   UNL     1     -12.542  13.382  71.292  1.00  0.00    -0.322 A  
HETATM   17  N   UNL     1     -12.062  13.067  70.070  1.00  0.00    -0.323 NA 
HETATM   18  C   UNL     1     -10.008   9.491  67.877  1.00  0.00    -0.209 A  
ENDBRANCH   4   5
ENDBRANCH   2   4
TORSDOF 2
ENDMDL
MODEL       18
REMARK 921   NORMALIZED FREE ENERGY PREDICTED BY IDOCK:   -5.30 KCAL/MOL
REMARK 922        TOTAL FREE ENERGY PREDICTED BY IDOCK:   -6.10 KCAL/MOL
REMARK 923 INTER-LIGAND FREE ENERGY PREDICTED BY IDOCK:   -5.83 KCAL/MOL
REMARK 924 INTRA-LIGAND FREE ENERGY PREDICTED BY IDOCK:   -0.27 KCAL/MOL
REMARK 927      BINDING AFFINITY PREDICTED BY RF-SCORE:    0.00 PKD
ROOT
HETATM    1  C   UNL     1     -10.245   9.285  68.512  1.00  0.00    -0.201 C  
HETATM    2  N   UNL     1     -10.664  10.632  68.121  1.00  0.00    -0.207 NA 
HETATM    3  C   UNL     1     -11.780  11.068  68.965  1.00  0.00    -0.333 C  
ENDROOT
BRANCH   2   4
HETATM    4  C   UNL     1      -9.561  11.607  68.218  1.00  0.00    -0.198 C  
BRANCH   4   5
HETATM    5  C   UNL     1     -10.004  13.076  68.205  1.00  0.00    -0.235 C  
HETATM    6  C   UNL     1      -9.756  13.805  66.864  1.00  0.00    -0.265 C  
HETATM    7  C   UNL     1     -10.597  13.231  65.728  1.00  0.00    -0.291 A  
HETATM    8  C   UNL     1      -9.942  15.315  67.018  1.00  0.00    -0.234 A  
HETATM    9  C   UNL     1     -12.000  13.253  65.777  1.00  0.00    -0.463 A  
HETATM   10  C   UNL     1      -9.255  16.189  66.174  1.00  0.00    -0.382 A  
HETATM   11  C   UNL     1     -12.759  12.694  64.747  1.00  0.00    -0.460 A  
HETATM   12  C   UNL     1      -9.399  17.562  66.362  1.00  0.00    -0.265 A  
HETATM   13  C   UNL     1     -10.225  18.029  67.375  1.00  0.00    -0.370 A  
HETATM   14  C   UNL     1     -12.127  12.117  63.648  1.00  0.00    -0.648 A  
HETATM   15  C   UNL     1     -10.736  12.097  63.579  1.00  0.00    -0.509 A  
HETATM   16  C   UNL     1     -10.888  17.100  68.156  1.00  0.00    -0.316 A  
HETATM   17  N   UNL     1     -10.769  15.764  67.998  1.00  0.00    -0.286 NA 
HETATM   18  C   UNL     1      -9.975  12.646  64.612  1.00  0.00    -0.168 A  
ENDBRANCH   4   5
ENDBRANCH   2   4
TORSDOF 2
ENDMDL
MODEL       19
REMARK 921   NORMALIZED FREE ENERGY PREDICTED BY IDOCK:   -5.30 KCAL/MOL
REMARK 922        TOTAL FREE ENERGY PREDICTED BY IDOCK:   -6.09 KCAL/MOL
REMARK 923 INTER-LIGAND FREE ENERGY PREDICTED BY IDOCK:   -5.85 KCAL/MOL
REMARK 924 INTRA-LIGAND FREE ENERGY PREDICTED BY IDOCK:   -0.25 KCAL/MOL
REMARK 927      BINDING AFFINITY PREDICTED BY RF-SCORE:    0.00 PKD
ROOT
HETATM    1  C   UNL     1     -10.647  16.944  69.253  1.00  0.00    -0.325 C  
HETATM    2  N   UNL     1     -10.355  15.638  69.847  1.00  0.00    -0.306 NA 
HETATM    3  C   UNL     1     -11.602  15.002  70.284  1.00  0.00    -0.288 C  
ENDROOT
BRANCH   2   4
HETATM    4  C   UNL     1      -9.649  14.746  68.909  1.00  0.00    -0.210 C  
BRANCH   4   5
HETATM    5  C   UNL     1     -10.500  14.256  67.729  1.00  0.00    -0.245 C  
HETATM    6  C   UNL     1     -10.207  12.802  67.292  1.00  0.00    -0.232 C  
HETATM    7  C   UNL     1     -10.576  11.786  68.368  1.00  0.00    -0.239 A  
HETATM    8  C   UNL     1     -10.866  12.491  65.947  1.00  0.00    -0.269 A  
HETATM    9  C   UNL     1     -11.898  11.655  68.822  1.00  0.00    -0.387 A  
HETATM   10  C   UNL     1     -10.313  11.521  65.111  1.00  0.00    -0.329 A  
HETATM   11  C   UNL     1     -12.219  10.746  69.832  1.00  0.00    -0.384 A  
HETATM   12  C   UNL     1     -10.899  11.285  63.869  1.00  0.00    -0.427 A  
HETATM   13  C   UNL     1     -12.022  12.012  63.496  1.00  0.00    -0.605 A  
HETATM   14  C   UNL     1     -11.226   9.945  70.392  1.00  0.00    -0.379 A  
HETATM   15  C   UNL     1      -9.911  10.055  69.945  1.00  0.00    -0.280 A  
HETATM   16  C   UNL     1     -12.523  12.941  64.390  1.00  0.00    -0.375 A  
HETATM   17  N   UNL     1     -11.977  13.191  65.599  1.00  0.00    -0.390 NA 
HETATM   18  C   UNL     1      -9.586  10.971  68.942  1.00  0.00    -0.174 A  
ENDBRANCH   4   5
ENDBRANCH   2   4
TORSDOF 2
ENDMDL
MODEL       20
REMARK 921   NORMALIZED FREE ENERGY PREDICTED BY IDOCK:   -5.24 KCAL/MOL
REMARK 922        TOTAL FREE ENERGY PREDICTED BY IDOCK:   -6.03 KCAL/MOL
REMARK 923 INTER-LIGAND FREE ENERGY PREDICTED BY IDOCK:   -5.86 KCAL/MOL
REMARK 924 INTRA-LIGAND FREE ENERGY PREDICTED BY IDOCK:   -0.17 KCAL/MOL
REMARK 927      BINDING AFFINITY PREDICTED BY RF-SCORE:    0.00 PKD
ROOT
HETATM    1  C   UNL     1     -10.249   9.228  70.210  1.00  0.00    -0.227 C  
HETATM    2  N   UNL     1     -11.396   9.901  69.597  1.00  0.00    -0.206 NA 
HETATM    3  C   UNL     1     -11.985  10.844  70.551  1.00  0.00    -0.371 C  
ENDROOT
BRANCH   2   4
HETATM    4  C   UNL     1     -11.024  10.617  68.362  1.00  0.00    -0.251 C  
BRANCH   4   5
HETATM    5  C   UNL     1     -11.223  12.137  68.420  1.00  0.00    -0.314 C  
HETATM    6  C   UNL     1     -10.452  12.924  67.335  1.00  0.00    -0.235 C  
HETATM    7  C   UNL     1     -10.950  12.611  65.926  1.00  0.00    -0.310 A  
HETATM    8  C   UNL     1     -10.459  14.424  67.634  1.00  0.00    -0.245 A  
HETATM    9  C   UNL     1     -12.274  12.882  65.546  1.00  0.00    -0.527 A  
HETATM   10  C   UNL     1      -9.418  15.229  67.172  1.00  0.00    -0.223 A  
HETATM   11  C   UNL     1     -12.728  12.560  64.266  1.00  0.00    -0.432 A  
HETATM   12  C   UNL     1      -9.417  16.584  67.496  1.00  0.00    -0.224 A  
HETATM   13  C   UNL     1     -10.452  17.103  68.263  1.00  0.00    -0.373 A  
HETATM   14  C   UNL     1     -11.862  11.977  63.344  1.00  0.00    -0.542 A  
HETATM   15  C   UNL     1     -10.542  11.712  63.702  1.00  0.00    -0.493 A  
HETATM   16  C   UNL     1     -11.459  16.244  68.665  1.00  0.00    -0.288 A  
HETATM   17  N   UNL     1     -11.487  14.928  68.366  1.00  0.00    -0.304 NA 
HETATM   18  C   UNL     1     -10.088  12.024  64.985  1.00  0.00    -0.293 A  
ENDBRANCH   4   5
ENDBRANCH   2   4
TORSDOF 2
ENDMDL
MODEL       21
REMARK 921   NORMALIZED FREE ENERGY PREDICTED BY IDOCK:   -5.18 KCAL/MOL
REMARK 922        TOTAL FREE ENERGY PREDICTED BY IDOCK:   -5.96 KCAL/MOL
REMARK 923 INTER-LIGAND FREE ENERGY PREDICTED BY IDOCK:   -5.75 KCAL/MOL
REMARK 924 INTRA-LIGAND FREE ENERGY PREDICTED BY IDOCK:   -0.21 KCAL/MOL
REMARK 927      BINDING AFFINITY PREDICTED BY RF-SCORE:    0.00 PKD
ROOT
HETATM    1  C   UNL     1      -8.706  16.422  68.740  1.00  0.00    -0.246 C  
HETATM    2  N   UNL     1      -9.582  15.935  67.674  1.00  0.00    -0.220 NA 
HETATM    3  C   UNL     1      -9.887  17.027  66.745  1.00  0.00    -0.278 C  
ENDROOT
BRANCH   2   4
HETATM    4  C   UNL     1      -8.982  14.809  66.933  1.00  0.00    -0.253 C  
BRANCH   4   5
HETATM    5  C   UNL     1      -9.096  13.450  67.635  1.00  0.00    -0.203 C  
HETATM    6  C   UNL     1     -10.518  12.841  67.620  1.00  0.00    -0.224 C  
HETATM    7  C   UNL     1     -10.984  12.489  66.211  1.00  0.00    -0.311 A  
HETATM    8  C   UNL     1     -10.616  11.654  68.579  1.00  0.00    -0.215 A  
HETATM    9  C   UNL     1     -10.295  11.548  65.430  1.00  0.00    -0.322 A  
HETATM   10  C   UNL     1     -11.844  11.324  69.153  1.00  0.00    -0.423 A  
HETATM   11  C   UNL     1     -10.710  11.258  64.129  1.00  0.00    -0.436 A  
HETATM   12  C   UNL     1     -11.905  10.270  70.062  1.00  0.00    -0.305 A  
HETATM   13  C   UNL     1     -10.747   9.567  70.369  1.00  0.00    -0.341 A  
HETATM   14  C   UNL     1     -11.828  11.895  63.596  1.00  0.00    -0.573 A  
HETATM   15  C   UNL     1     -12.530  12.823  64.361  1.00  0.00    -0.476 A  
HETATM   16  C   UNL     1      -9.572   9.941  69.742  1.00  0.00    -0.231 A  
HETATM   17  N   UNL     1      -9.483  10.957  68.858  1.00  0.00    -0.189 NA 
HETATM   18  C   UNL     1     -12.110  13.122  65.659  1.00  0.00    -0.501 A  
ENDBRANCH   4   5
ENDBRANCH   2   4
TORSDOF 2
ENDMDL
MODEL       22
REMARK 921   NORMALIZED FREE ENERGY PREDICTED BY IDOCK:   -5.14 KCAL/MOL
REMARK 922        TOTAL FREE ENERGY PREDICTED BY IDOCK:   -5.91 KCAL/MOL
REMARK 923 INTER-LIGAND FREE ENERGY PREDICTED BY IDOCK:   -5.69 KCAL/MOL
REMARK 924 INTRA-LIGAND FREE ENERGY PREDICTED BY IDOCK:   -0.22 KCAL/MOL
REMARK 927      BINDING AFFINITY PREDICTED BY RF-SCORE:    0.00 PKD
ROOT
HETATM    1  C   UNL     1      -9.963  10.151  66.523  1.00  0.00    -0.224 C  
HETATM    2  N   UNL     1      -8.666  10.649  66.987  1.00  0.00    -0.128 NA 
HETATM    3  C   UNL     1      -7.687  10.569  65.901  1.00  0.00    -0.148 C  
ENDROOT
BRANCH   2   4
HETATM    4  C   UNL     1      -8.748  12.039  67.477  1.00  0.00    -0.166 C  
BRANCH   4   5
HETATM    5  C   UNL     1      -9.925  12.314  68.422  1.00  0.00    -0.210 C  
HETATM    6  C   UNL     1     -10.475  13.758  68.352  1.00  0.00    -0.256 C  
HETATM    7  C   UNL     1     -11.100  14.077  66.997  1.00  0.00    -0.312 A  
HETATM    8  C   UNL     1     -11.430  14.039  69.513  1.00  0.00    -0.275 A  
HETATM    9  C   UNL     1     -12.207  13.358  66.519  1.00  0.00    -0.414 A  
HETATM   10  C   UNL     1     -11.590  15.343  69.981  1.00  0.00    -0.343 A  
HETATM   11  C   UNL     1     -12.750  13.635  65.263  1.00  0.00    -0.478 A  
HETATM   12  C   UNL     1     -12.427  15.572  71.071  1.00  0.00    -0.492 A  
HETATM   13  C   UNL     1     -13.088  14.502  71.660  1.00  0.00    -0.416 A  
HETATM   14  C   UNL     1     -12.202  14.643  64.473  1.00  0.00    -0.473 A  
HETATM   15  C   UNL     1     -11.110  15.373  64.937  1.00  0.00    -0.435 A  
HETATM   16  C   UNL     1     -12.894  13.242  71.124  1.00  0.00    -0.280 A  
HETATM   17  N   UNL     1     -12.090  12.990  70.070  1.00  0.00    -0.323 NA 
HETATM   18  C   UNL     1     -10.559  15.091  66.189  1.00  0.00    -0.314 A  
ENDBRANCH   4   5
ENDBRANCH   2   4
TORSDOF 2
ENDMDL
MODEL       23
REMARK 921   NORMALIZED FREE ENERGY PREDICTED BY IDOCK:   -5.13 KCAL/MOL
REMARK 922        TOTAL FREE ENERGY PREDICTED BY IDOCK:   -5.91 KCAL/MOL
REMARK 923 INTER-LIGAND FREE ENERGY PREDICTED BY IDOCK:   -5.70 KCAL/MOL
REMARK 924 INTRA-LIGAND FREE ENERGY PREDICTED BY IDOCK:   -0.20 KCAL/MOL
REMARK 927      BINDING AFFINITY PREDICTED BY RF-SCORE:    0.00 PKD
ROOT
HETATM    1  C   UNL     1     -12.175  15.023  64.207  1.00  0.00    -0.293 C  
HETATM    2  N   UNL     1     -12.747  13.690  64.407  1.00  0.00    -0.653 NA 
HETATM    3  C   UNL     1     -12.118  12.738  63.487  1.00  0.00    -0.559 C  
ENDROOT
BRANCH   2   4
HETATM    4  C   UNL     1     -12.583  13.217  65.795  1.00  0.00    -0.347 C  
BRANCH   4   5
HETATM    5  C   UNL     1     -11.194  12.648  66.116  1.00  0.00    -0.350 C  
HETATM    6  C   UNL     1     -10.473  13.350  67.290  1.00  0.00    -0.248 C  
HETATM    7  C   UNL     1     -11.193  13.146  68.619  1.00  0.00    -0.314 A  
HETATM    8  C   UNL     1      -9.002  12.937  67.356  1.00  0.00    -0.199 A  
HETATM    9  C   UNL     1     -11.373  11.863  69.159  1.00  0.00    -0.338 A  
HETATM   10  C   UNL     1      -8.060  13.805  67.909  1.00  0.00    -0.166 A  
HETATM   11  C   UNL     1     -12.063  11.684  70.360  1.00  0.00    -0.462 A  
HETATM   12  C   UNL     1      -6.718  13.431  67.917  1.00  0.00    -0.150 A  
HETATM   13  C   UNL     1      -6.349  12.204  67.382  1.00  0.00    -0.144 A  
HETATM   14  C   UNL     1     -12.572  12.787  71.043  1.00  0.00    -0.362 A  
HETATM   15  C   UNL     1     -12.392  14.068  70.526  1.00  0.00    -0.437 A  
HETATM   16  C   UNL     1      -7.344  11.390  66.871  1.00  0.00    -0.147 A  
HETATM   17  N   UNL     1      -8.652  11.725  66.851  1.00  0.00    -0.172 NA 
HETATM   18  C   UNL     1     -11.710  14.247  69.320  1.00  0.00    -0.363 A  
ENDBRANCH   4   5
ENDBRANCH   2   4
TORSDOF 2
ENDMDL
MODEL       24
REMARK 921   NORMALIZED FREE ENERGY PREDICTED BY IDOCK:   -5.09 KCAL/MOL
REMARK 922        TOTAL FREE ENERGY PREDICTED BY IDOCK:   -5.86 KCAL/MOL
REMARK 923 INTER-LIGAND FREE ENERGY PREDICTED BY IDOCK:   -5.67 KCAL/MOL
REMARK 924 INTRA-LIGAND FREE ENERGY PREDICTED BY IDOCK:   -0.19 KCAL/MOL
REMARK 927      BINDING AFFINITY PREDICTED BY RF-SCORE:    0.00 PKD
ROOT
HETATM    1  C   UNL     1     -12.223  14.646  64.381  1.00  0.00    -0.452 C  
HETATM    2  N   UNL     1     -12.648  13.258  64.573  1.00  0.00    -0.646 NA 
HETATM    3  C   UNL     1     -12.152  12.431  63.469  1.00  0.00    -0.558 C  
ENDROOT
BRANCH   2   4
HETATM    4  C   UNL     1     -12.174  12.705  65.856  1.00  0.00    -0.307 C  
BRANCH   4   5
HETATM    5  C   UNL     1     -10.784  13.191  66.287  1.00  0.00    -0.295 C  
HETATM    6  C   UNL     1     -10.692  13.628  67.768  1.00  0.00    -0.255 C  
HETATM    7  C   UNL     1     -10.912  12.464  68.730  1.00  0.00    -0.287 A  
HETATM    8  C   UNL     1      -9.381  14.368  68.041  1.00  0.00    -0.200 A  
HETATM    9  C   UNL     1     -10.056  11.353  68.737  1.00  0.00    -0.199 A  
HETATM   10  C   UNL     1      -9.317  15.309  69.069  1.00  0.00    -0.231 A  
HETATM   11  C   UNL     1     -10.286  10.278  69.598  1.00  0.00    -0.281 A  
HETATM   12  C   UNL     1      -8.129  16.008  69.271  1.00  0.00    -0.212 A  
HETATM   13  C   UNL     1      -7.037  15.748  68.454  1.00  0.00    -0.116 A  
HETATM   14  C   UNL     1     -11.369  10.307  70.474  1.00  0.00    -0.422 A  
HETATM   15  C   UNL     1     -12.223  11.408  70.488  1.00  0.00    -0.478 A  
HETATM   16  C   UNL     1      -7.173  14.785  67.470  1.00  0.00    -0.197 A  
HETATM   17  N   UNL     1      -8.311  14.092  67.251  1.00  0.00    -0.200 NA 
HETATM   18  C   UNL     1     -11.999  12.479  69.620  1.00  0.00    -0.339 A  
ENDBRANCH   4   5
ENDBRANCH   2   4
TORSDOF 2
ENDMDL
MODEL       25
REMARK 921   NORMALIZED FREE ENERGY PREDICTED BY IDOCK:   -5.08 KCAL/MOL
REMARK 922        TOTAL FREE ENERGY PREDICTED BY IDOCK:   -5.85 KCAL/MOL
REMARK 923 INTER-LIGAND FREE ENERGY PREDICTED BY IDOCK:   -5.67 KCAL/MOL
REMARK 924 INTRA-LIGAND FREE ENERGY PREDICTED BY IDOCK:   -0.18 KCAL/MOL
REMARK 927      BINDING AFFINITY PREDICTED BY RF-SCORE:    0.00 PKD
ROOT
HETATM    1  C   UNL     1      -5.433  15.342  68.124  1.00  0.00    -0.127 C  
HETATM    2  N   UNL     1      -5.913  14.088  67.540  1.00  0.00    -0.352 NA 
HETATM    3  C   UNL     1      -5.780  13.004  68.516  1.00  0.00    -0.068 C  
ENDROOT
BRANCH   2   4
HETATM    4  C   UNL     1      -7.317  14.184  67.096  1.00  0.00     0.167 C  
BRANCH   4   5
HETATM    5  C   UNL     1      -8.076  15.403  67.637  1.00  0.00    -0.166 C  
HETATM    6  C   UNL     1      -9.063  16.037  66.630  1.00  0.00    -0.282 C  
HETATM    7  C   UNL     1     -10.216  15.101  66.279  1.00  0.00    -0.300 A  
HETATM    8  C   UNL     1      -9.552  17.400  67.124  1.00  0.00    -0.265 A  
HETATM    9  C   UNL     1     -11.109  14.645  67.262  1.00  0.00    -0.331 A  
HETATM   10  C   UNL     1      -9.955  18.368  66.204  1.00  0.00    -0.330 A  
HETATM   11  C   UNL     1     -12.139  13.762  66.936  1.00  0.00    -0.454 A  
HETATM   12  C   UNL     1     -10.350  19.620  66.671  1.00  0.00    -0.598 A  
HETATM   13  C   UNL     1     -10.342  19.873  68.036  1.00  0.00    -0.547 A  
HETATM   14  C   UNL     1     -12.300  13.331  65.621  1.00  0.00    -0.521 A  
HETATM   15  C   UNL     1     -11.429  13.782  64.632  1.00  0.00    -0.385 A  
HETATM   16  C   UNL     1      -9.949  18.854  68.885  1.00  0.00    -0.378 A  
HETATM   17  N   UNL     1      -9.561  17.632  68.463  1.00  0.00    -0.303 NA 
HETATM   18  C   UNL     1     -10.391  14.659  64.957  1.00  0.00    -0.432 A  
ENDBRANCH   4   5
ENDBRANCH   2   4
TORSDOF 2
ENDMDL
MODEL       26
REMARK 921   NORMALIZED FREE ENERGY PREDICTED BY IDOCK:   -5.01 KCAL/MOL
REMARK 922        TOTAL FREE ENERGY PREDICTED BY IDOCK:   -5.77 KCAL/MOL
REMARK 923 INTER-LIGAND FREE ENERGY PREDICTED BY IDOCK:   -5.61 KCAL/MOL
REMARK 924 INTRA-LIGAND FREE ENERGY PREDICTED BY IDOCK:   -0.16 KCAL/MOL
REMARK 927      BINDING AFFINITY PREDICTED BY RF-SCORE:    0.00 PKD
ROOT
HETATM    1  C   UNL     1     -12.454   9.015  71.862  1.00  0.00    -0.384 C  
HETATM    2  N   UNL     1     -12.654  10.117  70.918  1.00  0.00    -0.347 NA 
HETATM    3  C   UNL     1     -12.996  11.340  71.649  1.00  0.00    -0.432 C  
ENDROOT
BRANCH   2   4
HETATM    4  C   UNL     1     -11.461  10.357  70.084  1.00  0.00    -0.319 C  
BRANCH   4   5
HETATM    5  C   UNL     1     -11.750  11.020  68.731  1.00  0.00    -0.383 C  
HETATM    6  C   UNL     1     -10.489  11.482  67.964  1.00  0.00    -0.214 C  
HETATM    7  C   UNL     1      -9.607  10.311  67.540  1.00  0.00    -0.180 A  
HETATM    8  C   UNL     1     -10.862  12.385  66.787  1.00  0.00    -0.248 A  
HETATM    9  C   UNL     1     -10.085   9.317  66.672  1.00  0.00    -0.341 A  
HETATM   10  C   UNL     1      -9.953  13.338  66.329  1.00  0.00    -0.291 A  
HETATM   11  C   UNL     1      -9.280   8.232  66.317  1.00  0.00    -0.258 A  
HETATM   12  C   UNL     1     -10.329  14.185  65.288  1.00  0.00    -0.409 A  
HETATM   13  C   UNL     1     -11.593  14.055  64.726  1.00  0.00    -0.387 A  
HETATM   14  C   UNL     1      -7.982   8.134  66.815  1.00  0.00    -0.103 A  
HETATM   15  C   UNL     1      -7.489   9.118  67.668  1.00  0.00    -0.084 A  
HETATM   16  C   UNL     1     -12.429  13.071  65.222  1.00  0.00    -0.499 A  
HETATM   17  N   UNL     1     -12.092  12.237  66.229  1.00  0.00    -0.620 NA 
HETATM   18  C   UNL     1      -8.296  10.199  68.032  1.00  0.00    -0.117 A  
ENDBRANCH   4   5
ENDBRANCH   2   4
TORSDOF 2
ENDMDL
MODEL       27
REMARK 921   NORMALIZED FREE ENERGY PREDICTED BY IDOCK:   -5.01 KCAL/MOL
REMARK 922        TOTAL FREE ENERGY PREDICTED BY IDOCK:   -5.77 KCAL/MOL
REMARK 923 INTER-LIGAND FREE ENERGY PREDICTED BY IDOCK:   -5.59 KCAL/MOL
REMARK 924 INTRA-LIGAND FREE ENERGY PREDICTED BY IDOCK:   -0.18 KCAL/MOL
REMARK 927      BINDING AFFINITY PREDICTED BY RF-SCORE:    0.00 PKD
ROOT
HETATM    1  C   UNL     1     -10.498  11.913  64.080  1.00  0.00    -0.349 C  
HETATM    2  N   UNL     1     -10.743  13.339  64.308  1.00  0.00    -0.409 NA 
HETATM    3  C   UNL     1     -12.139  13.658  63.996  1.00  0.00    -0.425 C  
ENDROOT
BRANCH   2   4
HETATM    4  C   UNL     1     -10.444  13.739  65.696  1.00  0.00    -0.305 C  
BRANCH   4   5
HETATM    5  C   UNL     1      -9.673  15.059  65.828  1.00  0.00    -0.375 C  
HETATM    6  C   UNL     1     -10.435  16.169  66.589  1.00  0.00    -0.300 C  
HETATM    7  C   UNL     1     -10.669  15.813  68.054  1.00  0.00    -0.296 A  
HETATM    8  C   UNL     1      -9.741  17.522  66.424  1.00  0.00    -0.288 A  
HETATM    9  C   UNL     1      -9.595  15.592  68.930  1.00  0.00    -0.224 A  
HETATM   10  C   UNL     1     -10.486  18.699  66.509  1.00  0.00    -0.465 A  
HETATM   11  C   UNL     1      -9.821  15.234  70.261  1.00  0.00     0.161 A  
HETATM   12  C   UNL     1      -9.846  19.920  66.307  1.00  0.00    -0.570 A  
HETATM   13  C   UNL     1      -8.484  19.940  66.035  1.00  0.00    -0.291 A  
HETATM   14  C   UNL     1     -11.124  15.103  70.736  1.00  0.00    -0.293 A  
HETATM   15  C   UNL     1     -12.201  15.329  69.883  1.00  0.00    -0.357 A  
HETATM   16  C   UNL     1      -7.812  18.732  65.988  1.00  0.00    -0.171 A  
HETATM   17  N   UNL     1      -8.405  17.534  66.179  1.00  0.00    -0.489 NA 
HETATM   18  C   UNL     1     -11.977  15.679  68.549  1.00  0.00    -0.145 A  
ENDBRANCH   4   5
ENDBRANCH   2   4
TORSDOF 2
ENDMDL
MODEL       28
REMARK 921   NORMALIZED FREE ENERGY PREDICTED BY IDOCK:   -5.00 KCAL/MOL
REMARK 922        TOTAL FREE ENERGY PREDICTED BY IDOCK:   -5.76 KCAL/MOL
REMARK 923 INTER-LIGAND FREE ENERGY PREDICTED BY IDOCK:   -5.55 KCAL/MOL
REMARK 924 INTRA-LIGAND FREE ENERGY PREDICTED BY IDOCK:   -0.21 KCAL/MOL
REMARK 927      BINDING AFFINITY PREDICTED BY RF-SCORE:    0.00 PKD
ROOT
HETATM    1  C   UNL     1     -12.576  11.991  63.563  1.00  0.00    -0.507 C  
HETATM    2  N   UNL     1     -11.334  12.122  64.328  1.00  0.00    -0.338 NA 
HETATM    3  C   UNL     1     -10.193  11.747  63.489  1.00  0.00    -0.450 C  
ENDROOT
BRANCH   2   4
HETATM    4  C   UNL     1     -11.141  13.491  64.842  1.00  0.00    -0.346 C  
BRANCH   4   5
HETATM    5  C   UNL     1     -11.416  13.654  66.343  1.00  0.00    -0.358 C  
HETATM    6  C   UNL     1     -10.934  12.469  67.212  1.00  0.00    -0.300 C  
HETATM    7  C   UNL     1      -9.415  12.322  67.202  1.00  0.00    -0.196 A  
HETATM    8  C   UNL     1     -11.498  12.564  68.631  1.00  0.00    -0.306 A  
HETATM    9  C   UNL     1      -8.581  13.346  67.678  1.00  0.00    -0.193 A  
HETATM   10  C   UNL     1     -11.684  11.403  69.383  1.00  0.00    -0.406 A  
HETATM   11  C   UNL     1      -7.192  13.214  67.632  1.00  0.00    -0.160 A  
HETATM   12  C   UNL     1     -12.245  11.505  70.654  1.00  0.00    -0.473 A  
HETATM   13  C   UNL     1     -12.598  12.754  71.146  1.00  0.00    -0.365 A  
HETATM   14  C   UNL     1      -6.617  12.052  67.121  1.00  0.00    -0.143 A  
HETATM   15  C   UNL     1      -7.431  11.022  66.655  1.00  0.00    -0.146 A  
HETATM   16  C   UNL     1     -12.363  13.859  70.348  1.00  0.00    -0.363 A  
HETATM   17  N   UNL     1     -11.821  13.792  69.113  1.00  0.00    -0.334 NA 
HETATM   18  C   UNL     1      -8.821  11.156  66.691  1.00  0.00    -0.168 A  
ENDBRANCH   4   5
ENDBRANCH   2   4
TORSDOF 2
ENDMDL
MODEL       29
REMARK 921   NORMALIZED FREE ENERGY PREDICTED BY IDOCK:   -5.00 KCAL/MOL
REMARK 922        TOTAL FREE ENERGY PREDICTED BY IDOCK:   -5.76 KCAL/MOL
REMARK 923 INTER-LIGAND FREE ENERGY PREDICTED BY IDOCK:   -5.59 KCAL/MOL
REMARK 924 INTRA-LIGAND FREE ENERGY PREDICTED BY IDOCK:   -0.17 KCAL/MOL
REMARK 927      BINDING AFFINITY PREDICTED BY RF-SCORE:    0.00 PKD
ROOT
HETATM    1  C   UNL     1     -13.740  13.389  72.303  1.00  0.00    -0.607 C  
HETATM    2  N   UNL     1     -12.568  13.060  71.490  1.00  0.00    -0.242 NA 
HETATM    3  C   UNL     1     -12.738  11.735  70.889  1.00  0.00    -0.235 C  
ENDROOT
BRANCH   2   4
HETATM    4  C   UNL     1     -12.330  14.057  70.430  1.00  0.00    -0.359 C  
BRANCH   4   5
HETATM    5  C   UNL     1     -12.214  13.470  69.016  1.00  0.00    -0.224 C  
HETATM    6  C   UNL     1     -11.625  14.444  67.968  1.00  0.00    -0.357 C  
HETATM    7  C   UNL     1     -10.171  14.803  68.262  1.00  0.00    -0.227 A  
HETATM    8  C   UNL     1     -11.815  13.903  66.550  1.00  0.00    -0.414 A  
HETATM    9  C   UNL     1      -9.170  13.820  68.290  1.00  0.00    -0.204 A  
HETATM   10  C   UNL     1     -11.899  14.789  65.475  1.00  0.00    -0.231 A  
HETATM   11  C   UNL     1      -7.849  14.155  68.593  1.00  0.00    -0.137 A  
HETATM   12  C   UNL     1     -12.121  14.281  64.197  1.00  0.00    -0.423 A  
HETATM   13  C   UNL     1     -12.245  12.909  64.020  1.00  0.00    -0.500 A  
HETATM   14  C   UNL     1      -7.509  15.480  68.859  1.00  0.00    -0.158 A  
HETATM   15  C   UNL     1      -8.489  16.469  68.825  1.00  0.00    -0.248 A  
HETATM   16  C   UNL     1     -12.129  12.095  65.133  1.00  0.00    -0.218 A  
HETATM   17  N   UNL     1     -11.914  12.559  66.383  1.00  0.00    -0.577 NA 
HETATM   18  C   UNL     1      -9.812  16.134  68.531  1.00  0.00    -0.226 A  
ENDBRANCH   4   5
ENDBRANCH   2   4
TORSDOF 2
ENDMDL
MODEL       30
REMARK 921   NORMALIZED FREE ENERGY PREDICTED BY IDOCK:   -5.00 KCAL/MOL
REMARK 922        TOTAL FREE ENERGY PREDICTED BY IDOCK:   -5.76 KCAL/MOL
REMARK 923 INTER-LIGAND FREE ENERGY PREDICTED BY IDOCK:   -5.73 KCAL/MOL
REMARK 924 INTRA-LIGAND FREE ENERGY PREDICTED BY IDOCK:   -0.02 KCAL/MOL
REMARK 927      BINDING AFFINITY PREDICTED BY RF-SCORE:    0.00 PKD
ROOT
HETATM    1  C   UNL     1     -10.406  12.332  63.524  1.00  0.00    -0.410 C  
HETATM    2  N   UNL     1     -11.734  12.938  63.409  1.00  0.00    -0.515 NA 
HETATM    3  C   UNL     1     -12.754  11.888  63.351  1.00  0.00    -0.366 C  
ENDROOT
BRANCH   2   4
HETATM    4  C   UNL     1     -12.026  13.850  64.531  1.00  0.00    -0.437 C  
BRANCH   4   5
HETATM    5  C   UNL     1     -12.168  13.159  65.894  1.00  0.00    -0.497 C  
HETATM    6  C   UNL     1     -10.857  13.083  66.710  1.00  0.00    -0.285 C  
HETATM    7  C   UNL     1     -10.350  14.461  67.126  1.00  0.00    -0.262 A  
HETATM    8  C   UNL     1     -11.006  12.135  67.902  1.00  0.00    -0.229 A  
HETATM    9  C   UNL     1     -11.117  15.300  67.950  1.00  0.00    -0.321 A  
HETATM   10  C   UNL     1      -9.885  11.482  68.414  1.00  0.00    -0.204 A  
HETATM   11  C   UNL     1     -10.659  16.572  68.296  1.00  0.00    -0.326 A  
HETATM   12  C   UNL     1     -10.047  10.585  69.468  1.00  0.00    -0.208 A  
HETATM   13  C   UNL     1     -11.317  10.368  69.989  1.00  0.00    -0.384 A  
HETATM   14  C   UNL     1      -9.423  17.019  67.834  1.00  0.00    -0.245 A  
HETATM   15  C   UNL     1      -8.645  16.195  67.024  1.00  0.00    -0.233 A  
HETATM   16  C   UNL     1     -12.375  11.070  69.440  1.00  0.00    -0.153 A  
HETATM   17  N   UNL     1     -12.247  11.945  68.420  1.00  0.00    -0.352 NA 
HETATM   18  C   UNL     1      -9.106  14.925  66.669  1.00  0.00    -0.309 A  
ENDBRANCH   4   5
ENDBRANCH   2   4
TORSDOF 2
ENDMDL
MODEL       31
REMARK 921   NORMALIZED FREE ENERGY PREDICTED BY IDOCK:   -4.99 KCAL/MOL
REMARK 922        TOTAL FREE ENERGY PREDICTED BY IDOCK:   -5.75 KCAL/MOL
REMARK 923 INTER-LIGAND FREE ENERGY PREDICTED BY IDOCK:   -5.60 KCAL/MOL
REMARK 924 INTRA-LIGAND FREE ENERGY PREDICTED BY IDOCK:   -0.14 KCAL/MOL
REMARK 927      BINDING AFFINITY PREDICTED BY RF-SCORE:    0.00 PKD
ROOT
HETATM    1  C   UNL     1     -12.270  14.343  64.562  1.00  0.00    -0.463 C  
HETATM    2  N   UNL     1     -12.493  12.919  64.817  1.00  0.00    -0.566 NA 
HETATM    3  C   UNL     1     -12.565  12.193  63.547  1.00  0.00    -0.506 C  
ENDROOT
BRANCH   2   4
HETATM    4  C   UNL     1     -11.433  12.334  65.661  1.00  0.00    -0.368 C  
BRANCH   4   5
HETATM    5  C   UNL     1     -11.908  11.846  67.036  1.00  0.00    -0.192 C  
HETATM    6  C   UNL     1     -10.779  11.683  68.080  1.00  0.00    -0.246 C  
HETATM    7  C   UNL     1     -10.129  13.015  68.445  1.00  0.00    -0.225 A  
HETATM    8  C   UNL     1     -11.275  10.922  69.311  1.00  0.00    -0.265 A  
HETATM    9  C   UNL     1     -10.873  14.051  69.031  1.00  0.00    -0.268 A  
HETATM   10  C   UNL     1     -10.375  10.183  70.079  1.00  0.00    -0.301 A  
HETATM   11  C   UNL     1     -10.276  15.277  69.329  1.00  0.00    -0.250 A  
HETATM   12  C   UNL     1     -10.853   9.457  71.168  1.00  0.00    -0.427 A  
HETATM   13  C   UNL     1     -12.209   9.492  71.468  1.00  0.00    -0.468 A  
HETATM   14  C   UNL     1      -8.924  15.480  69.057  1.00  0.00    -0.237 A  
HETATM   15  C   UNL     1      -8.170  14.458  68.486  1.00  0.00    -0.151 A  
HETATM   16  C   UNL     1     -13.033  10.265  70.671  1.00  0.00    -0.266 A  
HETATM   17  N   UNL     1     -12.598  10.979  69.611  1.00  0.00    -0.225 NA 
HETATM   18  C   UNL     1      -8.767  13.234  68.178  1.00  0.00    -0.179 A  
ENDBRANCH   4   5
ENDBRANCH   2   4
TORSDOF 2
ENDMDL
MODEL       32
REMARK 921   NORMALIZED FREE ENERGY PREDICTED BY IDOCK:   -4.98 KCAL/MOL
REMARK 922        TOTAL FREE ENERGY PREDICTED BY IDOCK:   -5.74 KCAL/MOL
REMARK 923 INTER-LIGAND FREE ENERGY PREDICTED BY IDOCK:   -5.55 KCAL/MOL
REMARK 924 INTRA-LIGAND FREE ENERGY PREDICTED BY IDOCK:   -0.19 KCAL/MOL
REMARK 927      BINDING AFFINITY PREDICTED BY RF-SCORE:    0.00 PKD
ROOT
HETATM    1  C   UNL     1     -11.433  15.601  64.206  1.00  0.00    -0.193 C  
HETATM    2  N   UNL     1     -12.488  14.590  64.304  1.00  0.00    -0.710 NA 
HETATM    3  C   UNL     1     -12.037  13.341  63.685  1.00  0.00    -0.485 C  
ENDROOT
BRANCH   2   4
HETATM    4  C   UNL     1     -12.883  14.335  65.702  1.00  0.00    -0.296 C  
BRANCH   4   5
HETATM    5  C   UNL     1     -12.374  13.006  66.277  1.00  0.00    -0.278 C  
HETATM    6  C   UNL     1     -11.089  13.129  67.128  1.00  0.00    -0.305 C  
HETATM    7  C   UNL     1     -11.312  13.938  68.402  1.00  0.00    -0.316 A  
HETATM    8  C   UNL     1     -10.485  11.753  67.412  1.00  0.00    -0.211 A  
HETATM    9  C   UNL     1     -12.228  13.519  69.380  1.00  0.00    -0.278 A  
HETATM   10  C   UNL     1      -9.114  11.630  67.637  1.00  0.00    -0.174 A  
HETATM   11  C   UNL     1     -12.450  14.285  70.526  1.00  0.00    -0.428 A  
HETATM   12  C   UNL     1      -8.574  10.362  67.845  1.00  0.00    -0.118 A  
HETATM   13  C   UNL     1      -9.411   9.254  67.833  1.00  0.00    -0.154 A  
HETATM   14  C   UNL     1     -11.749  15.474  70.717  1.00  0.00    -0.397 A  
HETATM   15  C   UNL     1     -10.828  15.898  69.762  1.00  0.00    -0.328 A  
HETATM   16  C   UNL     1     -10.763   9.461  67.625  1.00  0.00    -0.230 A  
HETATM   17  N   UNL     1     -11.314  10.676  67.420  1.00  0.00    -0.416 NA 
HETATM   18  C   UNL     1     -10.613  15.138  68.610  1.00  0.00    -0.234 A  
ENDBRANCH   4   5
ENDBRANCH   2   4
TORSDOF 2
ENDMDL
MODEL       33
REMARK 921   NORMALIZED FREE ENERGY PREDICTED BY IDOCK:   -4.98 KCAL/MOL
REMARK 922        TOTAL FREE ENERGY PREDICTED BY IDOCK:   -5.74 KCAL/MOL
REMARK 923 INTER-LIGAND FREE ENERGY PREDICTED BY IDOCK:   -5.57 KCAL/MOL
REMARK 924 INTRA-LIGAND FREE ENERGY PREDICTED BY IDOCK:   -0.17 KCAL/MOL
REMARK 927      BINDING AFFINITY PREDICTED BY RF-SCORE:    0.00 PKD
ROOT
HETATM    1  C   UNL     1     -11.073   6.558  66.970  1.00  0.00    -0.339 C  
HETATM    2  N   UNL     1     -10.329   6.001  68.101  1.00  0.00    -0.182 NA 
HETATM    3  C   UNL     1      -8.927   6.423  68.029  1.00  0.00    -0.115 C  
ENDROOT
BRANCH   2   4
HETATM    4  C   UNL     1     -10.901   6.411  69.398  1.00  0.00    -0.321 C  
BRANCH   4   5
HETATM    5  C   UNL     1     -11.023   7.928  69.591  1.00  0.00    -0.114 C  
HETATM    6  C   UNL     1     -11.523   8.354  70.991  1.00  0.00    -0.302 C  
HETATM    7  C   UNL     1     -10.534   7.992  72.096  1.00  0.00    -0.329 A  
HETATM    8  C   UNL     1     -11.899   9.837  71.011  1.00  0.00    -0.356 A  
HETATM    9  C   UNL     1      -9.235   8.526  72.113  1.00  0.00    -0.336 A  
HETATM   10  C   UNL     1     -12.859  10.297  71.913  1.00  0.00    -0.528 A  
HETATM   11  C   UNL     1      -8.327   8.161  73.109  1.00  0.00    -0.266 A  
HETATM   12  C   UNL     1     -13.225  11.641  71.884  1.00  0.00    -0.475 A  
HETATM   13  C   UNL     1     -12.622  12.492  70.966  1.00  0.00    -0.350 A  
HETATM   14  C   UNL     1      -8.710   7.269  74.109  1.00  0.00    -0.253 A  
HETATM   15  C   UNL     1      -9.998   6.739  74.112  1.00  0.00    -0.373 A  
HETATM   16  C   UNL     1     -11.664  11.964  70.119  1.00  0.00    -0.253 A  
HETATM   17  N   UNL     1     -11.290  10.667  70.125  1.00  0.00    -0.308 NA 
HETATM   18  C   UNL     1     -10.904   7.095  73.111  1.00  0.00    -0.373 A  
ENDBRANCH   4   5
ENDBRANCH   2   4
TORSDOF 2
ENDMDL
MODEL       34
REMARK 921   NORMALIZED FREE ENERGY PREDICTED BY IDOCK:   -4.95 KCAL/MOL
REMARK 922        TOTAL FREE ENERGY PREDICTED BY IDOCK:   -5.71 KCAL/MOL
REMARK 923 INTER-LIGAND FREE ENERGY PREDICTED BY IDOCK:   -5.35 KCAL/MOL
REMARK 924 INTRA-LIGAND FREE ENERGY PREDICTED BY IDOCK:   -0.36 KCAL/MOL
REMARK 927      BINDING AFFINITY PREDICTED BY RF-SCORE:    0.00 PKD
ROOT
HETATM    1  C   UNL     1      -9.073  19.155  67.896  1.00  0.00    -0.302 C  
HETATM    2  N   UNL     1      -9.194  18.361  66.671  1.00  0.00    -0.297 NA 
HETATM    3  C   UNL     1      -7.941  17.643  66.421  1.00  0.00    -0.274 C  
ENDROOT
BRANCH   2   4
HETATM    4  C   UNL     1     -10.309  17.399  66.741  1.00  0.00    -0.305 C  
BRANCH   4   5
HETATM    5  C   UNL     1     -10.740  17.022  68.166  1.00  0.00    -0.374 C  
HETATM    6  C   UNL     1     -10.671  15.508  68.473  1.00  0.00    -0.259 C  
HETATM    7  C   UNL     1      -9.242  14.974  68.443  1.00  0.00    -0.193 A  
HETATM    8  C   UNL     1     -11.386  15.183  69.786  1.00  0.00    -0.285 A  
HETATM    9  C   UNL     1      -8.265  15.459  69.325  1.00  0.00    -0.252 A  
HETATM   10  C   UNL     1     -11.939  13.917  69.980  1.00  0.00    -0.404 A  
HETATM   11  C   UNL     1      -6.952  14.987  69.265  1.00  0.00    -0.156 A  
HETATM   12  C   UNL     1     -12.628  13.654  71.162  1.00  0.00    -0.452 A  
HETATM   13  C   UNL     1     -12.742  14.652  72.121  1.00  0.00    -0.408 A  
HETATM   14  C   UNL     1      -6.602  14.014  68.332  1.00  0.00    -0.106 A  
HETATM   15  C   UNL     1      -7.563  13.514  67.456  1.00  0.00    -0.176 A  
HETATM   16  C   UNL     1     -12.147  15.874  71.864  1.00  0.00    -0.498 A  
HETATM   17  N   UNL     1     -11.474  16.157  70.729  1.00  0.00    -0.407 NA 
HETATM   18  C   UNL     1      -8.875  13.992  67.508  1.00  0.00    -0.199 A  
ENDBRANCH   4   5
ENDBRANCH   2   4
TORSDOF 2
ENDMDL
MODEL       35
REMARK 921   NORMALIZED FREE ENERGY PREDICTED BY IDOCK:   -4.95 KCAL/MOL
REMARK 922        TOTAL FREE ENERGY PREDICTED BY IDOCK:   -5.70 KCAL/MOL
REMARK 923 INTER-LIGAND FREE ENERGY PREDICTED BY IDOCK:   -5.51 KCAL/MOL
REMARK 924 INTRA-LIGAND FREE ENERGY PREDICTED BY IDOCK:   -0.19 KCAL/MOL
REMARK 927      BINDING AFFINITY PREDICTED BY RF-SCORE:    0.00 PKD
ROOT
HETATM    1  C   UNL     1      -7.565  15.744  67.301  1.00  0.00    -0.210 C  
HETATM    2  N   UNL     1      -8.304  15.868  68.558  1.00  0.00    -0.173 NA 
HETATM    3  C   UNL     1      -9.130  17.078  68.530  1.00  0.00    -0.259 C  
ENDROOT
BRANCH   2   4
HETATM    4  C   UNL     1      -9.157  14.694  68.819  1.00  0.00    -0.178 C  
BRANCH   4   5
HETATM    5  C   UNL     1     -10.122  14.340  67.680  1.00  0.00    -0.229 C  
HETATM    6  C   UNL     1     -10.000  12.886  67.168  1.00  0.00    -0.240 C  
HETATM    7  C   UNL     1     -10.401  11.862  68.227  1.00  0.00    -0.211 A  
HETATM    8  C   UNL     1     -10.767  12.698  65.858  1.00  0.00    -0.266 A  
HETATM    9  C   UNL     1     -11.699  11.838  68.760  1.00  0.00    -0.389 A  
HETATM   10  C   UNL     1     -10.363  11.718  64.951  1.00  0.00    -0.334 A  
HETATM   11  C   UNL     1     -12.045  10.919  69.753  1.00  0.00    -0.409 A  
HETATM   12  C   UNL     1     -11.044  11.594  63.742  1.00  0.00    -0.499 A  
HETATM   13  C   UNL     1     -12.111  12.441  63.471  1.00  0.00    -0.651 A  
HETATM   14  C   UNL     1     -11.102  10.004  70.216  1.00  0.00    -0.381 A  
HETATM   15  C   UNL     1      -9.813  10.008  69.689  1.00  0.00    -0.261 A  
HETATM   16  C   UNL     1     -12.464  13.373  64.430  1.00  0.00    -0.277 A  
HETATM   17  N   UNL     1     -11.824  13.515  65.610  1.00  0.00    -0.351 NA 
HETATM   18  C   UNL     1      -9.462  10.932  68.703  1.00  0.00    -0.192 A  
ENDBRANCH   4   5
ENDBRANCH   2   4
TORSDOF 2
ENDMDL
MODEL       36
REMARK 921   NORMALIZED FREE ENERGY PREDICTED BY IDOCK:   -4.95 KCAL/MOL
REMARK 922        TOTAL FREE ENERGY PREDICTED BY IDOCK:   -5.70 KCAL/MOL
REMARK 923 INTER-LIGAND FREE ENERGY PREDICTED BY IDOCK:   -5.51 KCAL/MOL
REMARK 924 INTRA-LIGAND FREE ENERGY PREDICTED BY IDOCK:   -0.19 KCAL/MOL
REMARK 927      BINDING AFFINITY PREDICTED BY RF-SCORE:    0.00 PKD
ROOT
HETATM    1  C   UNL     1      -9.505  11.491  66.968  1.00  0.00    -0.183 C  
HETATM    2  N   UNL     1     -10.328  12.685  67.175  1.00  0.00    -0.231 NA 
HETATM    3  C   UNL     1     -11.735  12.369  66.916  1.00  0.00    -0.362 C  
ENDROOT
BRANCH   2   4
HETATM    4  C   UNL     1     -10.186  13.227  68.540  1.00  0.00    -0.220 C  
BRANCH   4   5
HETATM    5  C   UNL     1      -9.659  14.667  68.603  1.00  0.00    -0.219 C  
HETATM    6  C   UNL     1     -10.761  15.747  68.702  1.00  0.00    -0.263 C  
HETATM    7  C   UNL     1     -11.545  15.659  70.008  1.00  0.00    -0.360 A  
HETATM    8  C   UNL     1     -10.185  17.143  68.463  1.00  0.00    -0.346 A  
HETATM    9  C   UNL     1     -10.912  15.825  71.249  1.00  0.00    -0.131 A  
HETATM   10  C   UNL     1     -11.000  18.153  67.951  1.00  0.00    -0.084 A  
HETATM   11  C   UNL     1     -11.632  15.709  72.440  1.00  0.00    -0.523 A  
HETATM   12  C   UNL     1     -10.445  19.405  67.694  1.00  0.00    -0.573 A  
HETATM   13  C   UNL     1      -9.100  19.622  67.961  1.00  0.00    -0.392 A  
HETATM   14  C   UNL     1     -12.998  15.437  72.405  1.00  0.00    -0.495 A  
HETATM   15  C   UNL     1     -13.644  15.280  71.181  1.00  0.00    -0.540 A  
HETATM   16  C   UNL     1      -8.363  18.577  68.488  1.00  0.00    -0.334 A  
HETATM   17  N   UNL     1      -8.873  17.354  68.747  1.00  0.00    -0.256 NA 
HETATM   18  C   UNL     1     -12.923  15.386  69.989  1.00  0.00     0.002 A  
ENDBRANCH   4   5
ENDBRANCH   2   4
TORSDOF 2
ENDMDL
MODEL       37
REMARK 921   NORMALIZED FREE ENERGY PREDICTED BY IDOCK:   -4.93 KCAL/MOL
REMARK 922        TOTAL FREE ENERGY PREDICTED BY IDOCK:   -5.68 KCAL/MOL
REMARK 923 INTER-LIGAND FREE ENERGY PREDICTED BY IDOCK:   -5.52 KCAL/MOL
REMARK 924 INTRA-LIGAND FREE ENERGY PREDICTED BY IDOCK:   -0.16 KCAL/MOL
REMARK 927      BINDING AFFINITY PREDICTED BY RF-SCORE:    0.00 PKD
ROOT
HETATM    1  C   UNL     1     -12.504  14.386  71.009  1.00  0.00    -0.355 C  
HETATM    2  N   UNL     1     -11.846  13.398  70.153  1.00  0.00    -0.301 NA 
HETATM    3  C   UNL     1     -12.260  12.048  70.546  1.00  0.00    -0.325 C  
ENDROOT
BRANCH   2   4
HETATM    4  C   UNL     1     -12.150  13.611  68.725  1.00  0.00    -0.297 C  
BRANCH   4   5
HETATM    5  C   UNL     1     -11.348  12.725  67.762  1.00  0.00    -0.342 C  
HETATM    6  C   UNL     1     -11.020  13.391  66.406  1.00  0.00    -0.297 C  
HETATM    7  C   UNL     1     -10.086  14.588  66.558  1.00  0.00    -0.280 A  
HETATM    8  C   UNL     1     -10.490  12.364  65.404  1.00  0.00    -0.277 A  
HETATM    9  C   UNL     1      -8.795  14.441  67.090  1.00  0.00    -0.244 A  
HETATM   10  C   UNL     1     -10.665  12.575  64.036  1.00  0.00    -0.449 A  
HETATM   11  C   UNL     1      -7.961  15.548  67.256  1.00  0.00    -0.233 A  
HETATM   12  C   UNL     1     -10.220  11.605  63.140  1.00  0.00    -0.396 A  
HETATM   13  C   UNL     1      -9.606  10.458  63.626  1.00  0.00    -0.364 A  
HETATM   14  C   UNL     1      -8.401  16.816  66.881  1.00  0.00    -0.241 A  
HETATM   15  C   UNL     1      -9.675  16.977  66.341  1.00  0.00    -0.310 A  
HETATM   16  C   UNL     1      -9.451  10.333  64.995  1.00  0.00    -0.257 A  
HETATM   17  N   UNL     1      -9.872  11.255  65.886  1.00  0.00    -0.222 NA 
HETATM   18  C   UNL     1     -10.514  15.872  66.183  1.00  0.00    -0.336 A  
ENDBRANCH   4   5
ENDBRANCH   2   4
TORSDOF 2
ENDMDL
MODEL       38
REMARK 921   NORMALIZED FREE ENERGY PREDICTED BY IDOCK:   -4.93 KCAL/MOL
REMARK 922        TOTAL FREE ENERGY PREDICTED BY IDOCK:   -5.68 KCAL/MOL
REMARK 923 INTER-LIGAND FREE ENERGY PREDICTED BY IDOCK:   -5.43 KCAL/MOL
REMARK 924 INTRA-LIGAND FREE ENERGY PREDICTED BY IDOCK:   -0.25 KCAL/MOL
REMARK 927      BINDING AFFINITY PREDICTED BY RF-SCORE:    0.00 PKD
ROOT
HETATM    1  C   UNL     1     -10.527  19.935  66.448  1.00  0.00    -0.475 C  
HETATM    2  N   UNL     1      -9.593  19.060  67.160  1.00  0.00    -0.306 NA 
HETATM    3  C   UNL     1      -8.478  19.850  67.689  1.00  0.00    -0.326 C  
ENDROOT
BRANCH   2   4
HETATM    4  C   UNL     1     -10.247  18.330  68.262  1.00  0.00    -0.385 C  
BRANCH   4   5
HETATM    5  C   UNL     1     -10.784  16.944  67.879  1.00  0.00    -0.344 C  
HETATM    6  C   UNL     1      -9.881  16.158  66.900  1.00  0.00    -0.247 C  
HETATM    7  C   UNL     1      -8.533  15.795  67.517  1.00  0.00    -0.183 A  
HETATM    8  C   UNL     1     -10.611  14.936  66.341  1.00  0.00    -0.307 A  
HETATM    9  C   UNL     1      -8.450  14.978  68.655  1.00  0.00    -0.168 A  
HETATM   10  C   UNL     1     -10.262  14.432  65.087  1.00  0.00    -0.420 A  
HETATM   11  C   UNL     1      -7.214  14.680  69.231  1.00  0.00    -0.156 A  
HETATM   12  C   UNL     1     -10.972  13.349  64.573  1.00  0.00    -0.404 A  
HETATM   13  C   UNL     1     -12.001  12.791  65.320  1.00  0.00    -0.473 A  
HETATM   14  C   UNL     1      -6.043  15.185  68.670  1.00  0.00    -0.086 A  
HETATM   15  C   UNL     1      -6.107  15.989  67.534  1.00  0.00    -0.189 A  
HETATM   16  C   UNL     1     -12.273  13.335  66.563  1.00  0.00    -0.327 A  
HETATM   17  N   UNL     1     -11.603  14.383  67.087  1.00  0.00    -0.369 NA 
HETATM   18  C   UNL     1      -7.344  16.296  66.962  1.00  0.00    -0.264 A  
ENDBRANCH   4   5
ENDBRANCH   2   4
TORSDOF 2
ENDMDL
MODEL       39
REMARK 921   NORMALIZED FREE ENERGY PREDICTED BY IDOCK:   -4.92 KCAL/MOL
REMARK 922        TOTAL FREE ENERGY PREDICTED BY IDOCK:   -5.67 KCAL/MOL
REMARK 923 INTER-LIGAND FREE ENERGY PREDICTED BY IDOCK:   -5.33 KCAL/MOL
REMARK 924 INTRA-LIGAND FREE ENERGY PREDICTED BY IDOCK:   -0.34 KCAL/MOL
REMARK 927      BINDING AFFINITY PREDICTED BY RF-SCORE:    0.00 PKD
ROOT
HETATM    1  C   UNL     1     -10.271  18.395  68.515  1.00  0.00    -0.364 C  
HETATM    2  N   UNL     1     -10.626  18.476  67.097  1.00  0.00    -0.411 NA 
HETATM    3  C   UNL     1     -10.482  19.857  66.629  1.00  0.00    -0.460 C  
ENDROOT
BRANCH   2   4
HETATM    4  C   UNL     1      -9.798  17.583  66.265  1.00  0.00    -0.285 C  
BRANCH   4   5
HETATM    5  C   UNL     1     -10.562  16.419  65.622  1.00  0.00    -0.337 C  
HETATM    6  C   UNL     1     -10.232  15.031  66.220  1.00  0.00    -0.306 C  
HETATM    7  C   UNL     1     -10.672  14.907  67.676  1.00  0.00    -0.270 A  
HETATM    8  C   UNL     1     -10.795  13.909  65.346  1.00  0.00    -0.319 A  
HETATM    9  C   UNL     1     -12.021  15.030  68.042  1.00  0.00    -0.167 A  
HETATM   10  C   UNL     1     -10.180  12.657  65.343  1.00  0.00    -0.301 A  
HETATM   11  C   UNL     1     -12.408  14.949  69.381  1.00  0.00    -0.168 A  
HETATM   12  C   UNL     1     -10.677  11.662  64.503  1.00  0.00    -0.378 A  
HETATM   13  C   UNL     1     -11.774  11.935  63.697  1.00  0.00    -0.572 A  
HETATM   14  C   UNL     1     -11.453  14.731  70.371  1.00  0.00    -0.303 A  
HETATM   15  C   UNL     1     -10.111  14.596  70.024  1.00  0.00     0.334 A  
HETATM   16  C   UNL     1     -12.341  13.194  63.773  1.00  0.00    -0.383 A  
HETATM   17  N   UNL     1     -11.882  14.177  64.576  1.00  0.00    -0.419 NA 
HETATM   18  C   UNL     1      -9.721  14.687  68.686  1.00  0.00    -0.220 A  
ENDBRANCH   4   5
ENDBRANCH   2   4
TORSDOF 2
ENDMDL
MODEL       40
REMARK 921   NORMALIZED FREE ENERGY PREDICTED BY IDOCK:   -4.85 KCAL/MOL
REMARK 922        TOTAL FREE ENERGY PREDICTED BY IDOCK:   -5.59 KCAL/MOL
REMARK 923 INTER-LIGAND FREE ENERGY PREDICTED BY IDOCK:   -5.40 KCAL/MOL
REMARK 924 INTRA-LIGAND FREE ENERGY PREDICTED BY IDOCK:   -0.19 KCAL/MOL
REMARK 927      BINDING AFFINITY PREDICTED BY RF-SCORE:    0.00 PKD
ROOT
HETATM    1  C   UNL     1     -12.804  12.857  71.634  1.00  0.00    -0.268 C  
HETATM    2  N   UNL     1     -12.716  14.226  71.122  1.00  0.00    -0.339 NA 
HETATM    3  C   UNL     1     -11.845  15.024  71.990  1.00  0.00    -0.384 C  
ENDROOT
BRANCH   2   4
HETATM    4  C   UNL     1     -12.207  14.270  69.738  1.00  0.00    -0.339 C  
BRANCH   4   5
HETATM    5  C   UNL     1     -11.167  13.191  69.406  1.00  0.00    -0.210 C  
HETATM    6  C   UNL     1     -11.439  12.428  68.088  1.00  0.00    -0.370 C  
HETATM    7  C   UNL     1     -11.334  13.330  66.862  1.00  0.00    -0.351 A  
HETATM    8  C   UNL     1     -10.546  11.191  67.977  1.00  0.00    -0.198 A  
HETATM    9  C   UNL     1     -10.134  13.982  66.539  1.00  0.00    -0.287 A  
HETATM   10  C   UNL     1     -10.972  10.092  67.230  1.00  0.00    -0.250 A  
HETATM   11  C   UNL     1     -10.058  14.832  65.434  1.00  0.00    -0.406 A  
HETATM   12  C   UNL     1     -10.168   8.956  67.180  1.00  0.00    -0.339 A  
HETATM   13  C   UNL     1      -8.960   8.944  67.866  1.00  0.00    -0.142 A  
HETATM   14  C   UNL     1     -11.179  15.033  64.630  1.00  0.00    -0.342 A  
HETATM   15  C   UNL     1     -12.375  14.385  64.932  1.00  0.00    -0.414 A  
HETATM   16  C   UNL     1      -8.599  10.080  68.567  1.00  0.00    -0.119 A  
HETATM   17  N   UNL     1      -9.357  11.195  68.633  1.00  0.00    -0.189 NA 
HETATM   18  C   UNL     1     -12.455  13.542  66.042  1.00  0.00    -0.456 A  
ENDBRANCH   4   5
ENDBRANCH   2   4
TORSDOF 2
ENDMDL
MODEL       41
REMARK 921   NORMALIZED FREE ENERGY PREDICTED BY IDOCK:   -4.83 KCAL/MOL
REMARK 922        TOTAL FREE ENERGY PREDICTED BY IDOCK:   -5.57 KCAL/MOL
REMARK 923 INTER-LIGAND FREE ENERGY PREDICTED BY IDOCK:   -5.38 KCAL/MOL
REMARK 924 INTRA-LIGAND FREE ENERGY PREDICTED BY IDOCK:   -0.19 KCAL/MOL
REMARK 927      BINDING AFFINITY PREDICTED BY RF-SCORE:    0.00 PKD
ROOT
HETATM    1  C   UNL     1     -12.884  13.423  71.490  1.00  0.00    -0.337 C  
HETATM    2  N   UNL     1     -13.033  14.696  70.781  1.00  0.00    -0.356 NA 
HETATM    3  C   UNL     1     -12.359  15.761  71.528  1.00  0.00    -0.455 C  
ENDROOT
BRANCH   2   4
HETATM    4  C   UNL     1     -12.490  14.634  69.410  1.00  0.00    -0.069 C  
BRANCH   4   5
HETATM    5  C   UNL     1     -11.536  15.780  69.049  1.00  0.00    -0.406 C  
HETATM    6  C   UNL     1     -10.154  15.320  68.531  1.00  0.00    -0.222 C  
HETATM    7  C   UNL     1     -10.250  14.581  67.199  1.00  0.00    -0.260 A  
HETATM    8  C   UNL     1      -9.171  16.491  68.476  1.00  0.00    -0.230 A  
HETATM    9  C   UNL     1     -10.757  15.211  66.052  1.00  0.00    -0.333 A  
HETATM   10  C   UNL     1      -7.802  16.254  68.599  1.00  0.00    -0.202 A  
HETATM   11  C   UNL     1     -10.872  14.515  64.847  1.00  0.00    -0.436 A  
HETATM   12  C   UNL     1      -6.925  17.337  68.596  1.00  0.00    -0.220 A  
HETATM   13  C   UNL     1      -7.431  18.623  68.463  1.00  0.00    -0.326 A  
HETATM   14  C   UNL     1     -10.469  13.183  64.769  1.00  0.00    -0.390 A  
HETATM   15  C   UNL     1      -9.953  12.547  65.896  1.00  0.00    -0.269 A  
HETATM   16  C   UNL     1      -8.800  18.774  68.325  1.00  0.00    -0.333 A  
HETATM   17  N   UNL     1      -9.672  17.744  68.324  1.00  0.00    -0.304 NA 
HETATM   18  C   UNL     1      -9.847  13.239  67.104  1.00  0.00    -0.237 A  
ENDBRANCH   4   5
ENDBRANCH   2   4
TORSDOF 2
ENDMDL
MODEL       42
REMARK 921   NORMALIZED FREE ENERGY PREDICTED BY IDOCK:   -4.82 KCAL/MOL
REMARK 922        TOTAL FREE ENERGY PREDICTED BY IDOCK:   -5.56 KCAL/MOL
REMARK 923 INTER-LIGAND FREE ENERGY PREDICTED BY IDOCK:   -5.26 KCAL/MOL
REMARK 924 INTRA-LIGAND FREE ENERGY PREDICTED BY IDOCK:   -0.30 KCAL/MOL
REMARK 927      BINDING AFFINITY PREDICTED BY RF-SCORE:    0.00 PKD
ROOT
HETATM    1  C   UNL     1     -10.016  12.178  65.830  1.00  0.00    -0.245 C  
HETATM    2  N   UNL     1     -10.419  13.347  65.046  1.00  0.00    -0.346 NA 
HETATM    3  C   UNL     1     -11.138  12.914  63.845  1.00  0.00    -0.411 C  
ENDROOT
BRANCH   2   4
HETATM    4  C   UNL     1     -11.268  14.270  65.823  1.00  0.00    -0.317 C  
BRANCH   4   5
HETATM    5  C   UNL     1     -10.773  15.722  65.850  1.00  0.00    -0.320 C  
HETATM    6  C   UNL     1     -10.281  16.203  67.235  1.00  0.00    -0.277 C  
HETATM    7  C   UNL     1      -9.034  15.455  67.700  1.00  0.00    -0.185 A  
HETATM    8  C   UNL     1     -10.089  17.720  67.253  1.00  0.00    -0.337 A  
HETATM    9  C   UNL     1      -7.838  15.511  66.969  1.00  0.00    -0.260 A  
HETATM   10  C   UNL     1     -10.211  18.422  68.452  1.00  0.00    -0.407 A  
HETATM   11  C   UNL     1      -6.713  14.795  67.385  1.00  0.00    -0.060 A  
HETATM   12  C   UNL     1     -10.081  19.809  68.441  1.00  0.00    -0.568 A  
HETATM   13  C   UNL     1      -9.825  20.460  67.241  1.00  0.00    -0.597 A  
HETATM   14  C   UNL     1      -6.766  14.025  68.545  1.00  0.00    -0.099 A  
HETATM   15  C   UNL     1      -7.943  13.968  69.287  1.00  0.00     0.247 A  
HETATM   16  C   UNL     1      -9.696  19.692  66.098  1.00  0.00    -0.406 A  
HETATM   17  N   UNL     1      -9.817  18.347  66.078  1.00  0.00    -0.525 NA 
HETATM   18  C   UNL     1      -9.072  14.675  68.867  1.00  0.00    -0.148 A  
ENDBRANCH   4   5
ENDBRANCH   2   4
TORSDOF 2
ENDMDL
MODEL       43
REMARK 921   NORMALIZED FREE ENERGY PREDICTED BY IDOCK:   -4.80 KCAL/MOL
REMARK 922        TOTAL FREE ENERGY PREDICTED BY IDOCK:   -5.54 KCAL/MOL
REMARK 923 INTER-LIGAND FREE ENERGY PREDICTED BY IDOCK:   -5.26 KCAL/MOL
REMARK 924 INTRA-LIGAND FREE ENERGY PREDICTED BY IDOCK:   -0.28 KCAL/MOL
REMARK 927      BINDING AFFINITY PREDICTED BY RF-SCORE:    0.00 PKD
ROOT
HETATM    1  C   UNL     1      -6.917  10.099  68.134  1.00  0.00    -0.075 C  
HETATM    2  N   UNL     1      -8.223  10.566  68.603  1.00  0.00    -0.122 NA 
HETATM    3  C   UNL     1      -8.632   9.793  69.779  1.00  0.00    -0.201 C  
ENDROOT
BRANCH   2   4
HETATM    4  C   UNL     1      -8.213  12.003  68.936  1.00  0.00     0.131 C  
BRANCH   4   5
HETATM    5  C   UNL     1      -9.016  12.887  67.973  1.00  0.00    -0.196 C  
HETATM    6  C   UNL     1     -10.454  12.389  67.699  1.00  0.00    -0.229 C  
HETATM    7  C   UNL     1     -11.332  12.434  68.947  1.00  0.00    -0.342 A  
HETATM    8  C   UNL     1     -11.079  13.139  66.522  1.00  0.00    -0.294 A  
HETATM    9  C   UNL     1     -11.600  13.644  69.605  1.00  0.00    -0.342 A  
HETATM   10  C   UNL     1     -12.068  12.524  65.753  1.00  0.00    -0.443 A  
HETATM   11  C   UNL     1     -12.376  13.670  70.765  1.00  0.00    -0.446 A  
HETATM   12  C   UNL     1     -12.591  13.204  64.655  1.00  0.00    -0.384 A  
HETATM   13  C   UNL     1     -12.125  14.478  64.356  1.00  0.00    -0.492 A  
HETATM   14  C   UNL     1     -12.905  12.486  71.276  1.00  0.00    -0.337 A  
HETATM   15  C   UNL     1     -12.657  11.278  70.629  1.00  0.00    -0.377 A  
HETATM   16  C   UNL     1     -11.158  15.028  65.179  1.00  0.00    -0.401 A  
HETATM   17  N   UNL     1     -10.633  14.393  66.249  1.00  0.00    -0.286 NA 
HETATM   18  C   UNL     1     -11.873  11.250  69.474  1.00  0.00    -0.427 A  
ENDBRANCH   4   5
ENDBRANCH   2   4
TORSDOF 2
ENDMDL
MODEL       44
REMARK 921   NORMALIZED FREE ENERGY PREDICTED BY IDOCK:   -4.79 KCAL/MOL
REMARK 922        TOTAL FREE ENERGY PREDICTED BY IDOCK:   -5.53 KCAL/MOL
REMARK 923 INTER-LIGAND FREE ENERGY PREDICTED BY IDOCK:   -5.35 KCAL/MOL
REMARK 924 INTRA-LIGAND FREE ENERGY PREDICTED BY IDOCK:   -0.18 KCAL/MOL
REMARK 927      BINDING AFFINITY PREDICTED BY RF-SCORE:    0.00 PKD
ROOT
HETATM    1  C   UNL     1     -13.544  13.313  72.408  1.00  0.00    -0.594 C  
HETATM    2  N   UNL     1     -13.157  12.729  71.122  1.00  0.00    -0.150 NA 
HETATM    3  C   UNL     1     -12.115  13.550  70.499  1.00  0.00    -0.335 C  
ENDROOT
BRANCH   2   4
HETATM    4  C   UNL     1     -12.674  11.343  71.265  1.00  0.00    -0.393 C  
BRANCH   4   5
HETATM    5  C   UNL     1     -12.068  10.743  69.990  1.00  0.00    -0.423 C  
HETATM    6  C   UNL     1     -10.739   9.983  70.211  1.00  0.00    -0.367 C  
HETATM    7  C   UNL     1     -10.919   8.736  71.071  1.00  0.00    -0.328 A  
HETATM    8  C   UNL     1     -10.054   9.677  68.878  1.00  0.00    -0.187 A  
HETATM    9  C   UNL     1     -11.751   7.683  70.659  1.00  0.00    -0.214 A  
HETATM   10  C   UNL     1      -8.667   9.537  68.826  1.00  0.00    -0.128 A  
HETATM   11  C   UNL     1     -11.935   6.560  71.470  1.00  0.00    -0.383 A  
HETATM   12  C   UNL     1      -8.056   9.306  67.595  1.00  0.00    -0.104 A  
HETATM   13  C   UNL     1      -8.840   9.212  66.452  1.00  0.00    -0.165 A  
HETATM   14  C   UNL     1     -11.280   6.470  72.696  1.00  0.00    -0.284 A  
HETATM   15  C   UNL     1     -10.443   7.502  73.114  1.00  0.00    -0.419 A  
HETATM   16  C   UNL     1     -10.210   9.342  66.589  1.00  0.00    -0.253 A  
HETATM   17  N   UNL     1     -10.829   9.565  67.768  1.00  0.00    -0.248 NA 
HETATM   18  C   UNL     1     -10.265   8.630  72.309  1.00  0.00    -0.372 A  
ENDBRANCH   4   5
ENDBRANCH   2   4
TORSDOF 2
ENDMDL
MODEL       45
REMARK 921   NORMALIZED FREE ENERGY PREDICTED BY IDOCK:   -4.76 KCAL/MOL
REMARK 922        TOTAL FREE ENERGY PREDICTED BY IDOCK:   -5.49 KCAL/MOL
REMARK 923 INTER-LIGAND FREE ENERGY PREDICTED BY IDOCK:   -5.29 KCAL/MOL
REMARK 924 INTRA-LIGAND FREE ENERGY PREDICTED BY IDOCK:   -0.20 KCAL/MOL
REMARK 927      BINDING AFFINITY PREDICTED BY RF-SCORE:    0.00 PKD
ROOT
HETATM    1  C   UNL     1      -6.063  16.504  69.776  1.00  0.00    -0.215 C  
HETATM    2  N   UNL     1      -6.960  16.276  68.642  1.00  0.00    -0.140 NA 
HETATM    3  C   UNL     1      -6.178  16.147  67.410  1.00  0.00    -0.166 C  
ENDROOT
BRANCH   2   4
HETATM    4  C   UNL     1      -7.794  15.073  68.826  1.00  0.00    -0.151 C  
BRANCH   4   5
HETATM    5  C   UNL     1      -8.556  14.626  67.571  1.00  0.00    -0.196 C  
HETATM    6  C   UNL     1      -9.997  15.178  67.469  1.00  0.00    -0.225 C  
HETATM    7  C   UNL     1     -10.027  16.695  67.311  1.00  0.00    -0.270 A  
HETATM    8  C   UNL     1     -10.781  14.463  66.368  1.00  0.00    -0.306 A  
HETATM    9  C   UNL     1      -9.433  17.324  66.206  1.00  0.00    -0.256 A  
HETATM   10  C   UNL     1     -12.170  14.365  66.457  1.00  0.00    -0.358 A  
HETATM   11  C   UNL     1      -9.438  18.715  66.088  1.00  0.00    -0.185 A  
HETATM   12  C   UNL     1     -12.863  13.667  65.469  1.00  0.00    -0.443 A  
HETATM   13  C   UNL     1     -12.160  13.094  64.418  1.00  0.00    -0.471 A  
HETATM   14  C   UNL     1     -10.048  19.496  67.068  1.00  0.00    -0.509 A  
HETATM   15  C   UNL     1     -10.651  18.887  68.165  1.00  0.00    -0.305 A  
HETATM   16  C   UNL     1     -10.786  13.253  64.390  1.00  0.00    -0.415 A  
HETATM   17  N   UNL     1     -10.088  13.923  65.331  1.00  0.00    -0.323 NA 
HETATM   18  C   UNL     1     -10.639  17.496  68.290  1.00  0.00    -0.354 A  
ENDBRANCH   4   5
ENDBRANCH   2   4
TORSDOF 2
ENDMDL
MODEL       46
REMARK 921   NORMALIZED FREE ENERGY PREDICTED BY IDOCK:   -4.75 KCAL/MOL
REMARK 922        TOTAL FREE ENERGY PREDICTED BY IDOCK:   -5.48 KCAL/MOL
REMARK 923 INTER-LIGAND FREE ENERGY PREDICTED BY IDOCK:   -5.33 KCAL/MOL
REMARK 924 INTRA-LIGAND FREE ENERGY PREDICTED BY IDOCK:   -0.16 KCAL/MOL
REMARK 927      BINDING AFFINITY PREDICTED BY RF-SCORE:    0.00 PKD
ROOT
HETATM    1  C   UNL     1     -11.841  16.179  71.661  1.00  0.00    -0.487 C  
HETATM    2  N   UNL     1     -12.447  14.950  71.145  1.00  0.00    -0.303 NA 
HETATM    3  C   UNL     1     -13.896  14.983  71.360  1.00  0.00    -0.479 C  
ENDROOT
BRANCH   2   4
HETATM    4  C   UNL     1     -12.166  14.753  69.710  1.00  0.00    -0.294 C  
BRANCH   4   5
HETATM    5  C   UNL     1     -10.674  14.675  69.356  1.00  0.00    -0.237 C  
HETATM    6  C   UNL     1     -10.315  13.558  68.349  1.00  0.00    -0.249 C  
HETATM    7  C   UNL     1     -10.935  13.794  66.975  1.00  0.00    -0.297 A  
HETATM    8  C   UNL     1      -8.802  13.351  68.276  1.00  0.00    -0.172 A  
HETATM    9  C   UNL     1     -10.617  14.933  66.219  1.00  0.00    -0.309 A  
HETATM   10  C   UNL     1      -8.288  12.105  67.917  1.00  0.00    -0.161 A  
HETATM   11  C   UNL     1     -11.216  15.157  64.978  1.00  0.00    -0.414 A  
HETATM   12  C   UNL     1      -6.907  11.922  67.903  1.00  0.00    -0.083 A  
HETATM   13  C   UNL     1      -6.075  12.982  68.237  1.00  0.00    -0.086 A  
HETATM   14  C   UNL     1     -12.132  14.238  64.469  1.00  0.00    -0.499 A  
HETATM   15  C   UNL     1     -12.450  13.097  65.202  1.00  0.00    -0.539 A  
HETATM   16  C   UNL     1      -6.660  14.193  68.562  1.00  0.00    -0.096 A  
HETATM   17  N   UNL     1      -7.994  14.400  68.583  1.00  0.00    -0.142 NA 
HETATM   18  C   UNL     1     -11.859  12.877  66.448  1.00  0.00    -0.478 A  
ENDBRANCH   4   5
ENDBRANCH   2   4
TORSDOF 2
ENDMDL
MODEL       47
REMARK 921   NORMALIZED FREE ENERGY PREDICTED BY IDOCK:   -4.73 KCAL/MOL
REMARK 922        TOTAL FREE ENERGY PREDICTED BY IDOCK:   -5.46 KCAL/MOL
REMARK 923 INTER-LIGAND FREE ENERGY PREDICTED BY IDOCK:   -5.28 KCAL/MOL
REMARK 924 INTRA-LIGAND FREE ENERGY PREDICTED BY IDOCK:   -0.18 KCAL/MOL
REMARK 927      BINDING AFFINITY PREDICTED BY RF-SCORE:    0.00 PKD
ROOT
HETATM    1  C   UNL     1     -10.097   5.994  74.250  1.00  0.00    -0.297 C  
HETATM    2  N   UNL     1      -8.861   6.739  74.004  1.00  0.00    -0.152 NA 
HETATM    3  C   UNL     1      -7.923   5.907  73.246  1.00  0.00    -0.109 C  
ENDROOT
BRANCH   2   4
HETATM    4  C   UNL     1      -9.107   7.997  73.274  1.00  0.00    -0.282 C  
BRANCH   4   5
HETATM    5  C   UNL     1      -9.036   7.873  71.746  1.00  0.00    -0.188 C  
HETATM    6  C   UNL     1     -10.390   7.556  71.068  1.00  0.00    -0.204 C  
HETATM    7  C   UNL     1     -11.398   8.691  71.228  1.00  0.00    -0.341 A  
HETATM    8  C   UNL     1     -10.191   7.158  69.605  1.00  0.00    -0.208 A  
HETATM    9  C   UNL     1     -11.144   9.969  70.709  1.00  0.00    -0.407 A  
HETATM   10  C   UNL     1     -11.116   6.319  68.983  1.00  0.00    -0.446 A  
HETATM   11  C   UNL     1     -12.058  11.009  70.890  1.00  0.00    -0.444 A  
HETATM   12  C   UNL     1     -10.892   5.927  67.664  1.00  0.00    -0.331 A  
HETATM   13  C   UNL     1      -9.763   6.385  66.999  1.00  0.00    -0.182 A  
HETATM   14  C   UNL     1     -13.245  10.780  71.583  1.00  0.00    -0.487 A  
HETATM   15  C   UNL     1     -13.518   9.514  72.096  1.00  0.00    -0.535 A  
HETATM   16  C   UNL     1      -8.905   7.231  67.678  1.00  0.00    -0.123 A  
HETATM   17  N   UNL     1      -9.095   7.628  68.954  1.00  0.00    -0.141 NA 
HETATM   18  C   UNL     1     -12.600   8.476  71.923  1.00  0.00    -0.400 A  
ENDBRANCH   4   5
ENDBRANCH   2   4
TORSDOF 2
ENDMDL
MODEL       48
REMARK 921   NORMALIZED FREE ENERGY PREDICTED BY IDOCK:   -4.73 KCAL/MOL
REMARK 922        TOTAL FREE ENERGY PREDICTED BY IDOCK:   -5.46 KCAL/MOL
REMARK 923 INTER-LIGAND FREE ENERGY PREDICTED BY IDOCK:   -5.15 KCAL/MOL
REMARK 924 INTRA-LIGAND FREE ENERGY PREDICTED BY IDOCK:   -0.30 KCAL/MOL
REMARK 927      BINDING AFFINITY PREDICTED BY RF-SCORE:    0.00 PKD
ROOT
HETATM    1  C   UNL     1     -12.609  12.094  63.422  1.00  0.00    -0.463 C  
HETATM    2  N   UNL     1     -11.664  13.189  63.652  1.00  0.00    -0.466 NA 
HETATM    3  C   UNL     1     -12.242  14.151  64.595  1.00  0.00    -0.445 C  
ENDROOT
BRANCH   2   4
HETATM    4  C   UNL     1     -10.370  12.707  64.169  1.00  0.00    -0.387 C  
BRANCH   4   5
HETATM    5  C   UNL     1     -10.460  11.449  65.044  1.00  0.00    -0.361 C  
HETATM    6  C   UNL     1      -9.652  11.528  66.360  1.00  0.00    -0.230 C  
HETATM    7  C   UNL     1     -10.193  12.592  67.311  1.00  0.00    -0.227 A  
HETATM    8  C   UNL     1      -9.548  10.154  67.024  1.00  0.00    -0.171 A  
HETATM    9  C   UNL     1     -11.500  12.519  67.817  1.00  0.00    -0.378 A  
HETATM   10  C   UNL     1      -8.460   9.861  67.846  1.00  0.00    -0.121 A  
HETATM   11  C   UNL     1     -11.997  13.516  68.659  1.00  0.00    -0.378 A  
HETATM   12  C   UNL     1      -8.358   8.588  68.403  1.00  0.00    -0.124 A  
HETATM   13  C   UNL     1      -9.342   7.645  68.135  1.00  0.00    -0.146 A  
HETATM   14  C   UNL     1     -11.189  14.593  69.017  1.00  0.00    -0.287 A  
HETATM   15  C   UNL     1      -9.886  14.675  68.532  1.00  0.00    -0.228 A  
HETATM   16  C   UNL     1     -10.400   8.019  67.327  1.00  0.00    -0.301 A  
HETATM   17  N   UNL     1     -10.526   9.245  66.774  1.00  0.00    -0.226 NA 
HETATM   18  C   UNL     1      -9.390  13.684  67.682  1.00  0.00    -0.215 A  
ENDBRANCH   4   5
ENDBRANCH   2   4
TORSDOF 2
ENDMDL
MODEL       49
REMARK 921   NORMALIZED FREE ENERGY PREDICTED BY IDOCK:   -4.70 KCAL/MOL
REMARK 922        TOTAL FREE ENERGY PREDICTED BY IDOCK:   -5.42 KCAL/MOL
REMARK 923 INTER-LIGAND FREE ENERGY PREDICTED BY IDOCK:   -5.23 KCAL/MOL
REMARK 924 INTRA-LIGAND FREE ENERGY PREDICTED BY IDOCK:   -0.19 KCAL/MOL
REMARK 927      BINDING AFFINITY PREDICTED BY RF-SCORE:    0.00 PKD
ROOT
HETATM    1  C   UNL     1     -11.312  16.174  64.470  1.00  0.00    -0.267 C  
HETATM    2  N   UNL     1     -10.191  16.702  65.250  1.00  0.00    -0.605 NA 
HETATM    3  C   UNL     1     -10.656  17.795  66.109  1.00  0.00    -0.235 C  
ENDROOT
BRANCH   2   4
HETATM    4  C   UNL     1      -9.552  15.662  66.078  1.00  0.00    -0.351 C  
BRANCH   4   5
HETATM    5  C   UNL     1      -9.916  15.718  67.568  1.00  0.00    -0.236 C  
HETATM    6  C   UNL     1     -11.083  14.789  67.975  1.00  0.00    -0.294 C  
HETATM    7  C   UNL     1     -10.736  13.312  67.808  1.00  0.00    -0.256 A  
HETATM    8  C   UNL     1     -11.577  15.114  69.385  1.00  0.00    -0.323 A  
HETATM    9  C   UNL     1      -9.681  12.728  68.526  1.00  0.00    -0.129 A  
HETATM   10  C   UNL     1     -12.900  14.844  69.737  1.00  0.00     0.057 A  
HETATM   11  C   UNL     1      -9.350  11.384  68.341  1.00  0.00    -0.194 A  
HETATM   12  C   UNL     1     -13.345  15.193  71.011  1.00  0.00    -0.504 A  
HETATM   13  C   UNL     1     -12.463  15.791  71.902  1.00  0.00    -0.527 A  
HETATM   14  C   UNL     1     -10.077  10.603  67.445  1.00  0.00    -0.231 A  
HETATM   15  C   UNL     1     -11.134  11.166  66.733  1.00  0.00    -0.280 A  
HETATM   16  C   UNL     1     -11.162  16.006  71.485  1.00  0.00    -0.114 A  
HETATM   17  N   UNL     1     -10.703  15.680  70.258  1.00  0.00    -0.329 NA 
HETATM   18  C   UNL     1     -11.460  12.512  66.910  1.00  0.00    -0.416 A  
ENDBRANCH   4   5
ENDBRANCH   2   4
TORSDOF 2
ENDMDL
MODEL       50
REMARK 921   NORMALIZED FREE ENERGY PREDICTED BY IDOCK:   -4.70 KCAL/MOL
REMARK 922        TOTAL FREE ENERGY PREDICTED BY IDOCK:   -5.42 KCAL/MOL
REMARK 923 INTER-LIGAND FREE ENERGY PREDICTED BY IDOCK:   -5.11 KCAL/MOL
REMARK 924 INTRA-LIGAND FREE ENERGY PREDICTED BY IDOCK:   -0.31 KCAL/MOL
REMARK 927      BINDING AFFINITY PREDICTED BY RF-SCORE:    0.00 PKD
ROOT
HETATM    1  C   UNL     1      -6.929  14.674  69.378  1.00  0.00    -0.163 C  
HETATM    2  N   UNL     1      -6.771  13.755  68.249  1.00  0.00    -0.095 NA 
HETATM    3  C   UNL     1      -5.461  13.102  68.321  1.00  0.00    -0.089 C  
ENDROOT
BRANCH   2   4
HETATM    4  C   UNL     1      -7.832  12.730  68.214  1.00  0.00    -0.141 C  
BRANCH   4   5
HETATM    5  C   UNL     1      -8.587  12.637  66.882  1.00  0.00    -0.151 C  
HETATM    6  C   UNL     1      -9.970  13.329  66.883  1.00  0.00    -0.250 C  
HETATM    7  C   UNL     1      -9.863  14.841  67.060  1.00  0.00    -0.240 A  
HETATM    8  C   UNL     1     -10.776  12.945  65.641  1.00  0.00    -0.274 A  
HETATM    9  C   UNL     1      -9.180  15.636  66.127  1.00  0.00    -0.378 A  
HETATM   10  C   UNL     1     -12.171  12.959  65.687  1.00  0.00    -0.519 A  
HETATM   11  C   UNL     1      -9.059  17.014  66.317  1.00  0.00    -0.279 A  
HETATM   12  C   UNL     1     -12.888  12.559  64.562  1.00  0.00    -0.352 A  
HETATM   13  C   UNL     1     -12.202  12.164  63.420  1.00  0.00    -0.635 A  
HETATM   14  C   UNL     1      -9.632  17.617  67.435  1.00  0.00    -0.267 A  
HETATM   15  C   UNL     1     -10.322  16.843  68.364  1.00  0.00    -0.338 A  
HETATM   16  C   UNL     1     -10.819  12.198  63.447  1.00  0.00    -0.414 A  
HETATM   17  N   UNL     1     -10.098  12.581  64.522  1.00  0.00    -0.278 NA 
HETATM   18  C   UNL     1     -10.436  15.463  68.181  1.00  0.00    -0.247 A  
ENDBRANCH   4   5
ENDBRANCH   2   4
TORSDOF 2
ENDMDL
MODEL       51
REMARK 921   NORMALIZED FREE ENERGY PREDICTED BY IDOCK:   -4.67 KCAL/MOL
REMARK 922        TOTAL FREE ENERGY PREDICTED BY IDOCK:   -5.39 KCAL/MOL
REMARK 923 INTER-LIGAND FREE ENERGY PREDICTED BY IDOCK:   -5.19 KCAL/MOL
REMARK 924 INTRA-LIGAND FREE ENERGY PREDICTED BY IDOCK:   -0.20 KCAL/MOL
REMARK 927      BINDING AFFINITY PREDICTED BY RF-SCORE:    0.00 PKD
ROOT
HETATM    1  C   UNL     1     -11.141   9.180  71.124  1.00  0.00    -0.323 C  
HETATM    2  N   UNL     1     -12.230  10.056  70.685  1.00  0.00    -0.281 NA 
HETATM    3  C   UNL     1     -13.190  10.238  71.776  1.00  0.00    -0.430 C  
ENDROOT
BRANCH   2   4
HETATM    4  C   UNL     1     -11.736  11.372  70.237  1.00  0.00    -0.306 C  
BRANCH   4   5
HETATM    5  C   UNL     1     -11.960  11.664  68.747  1.00  0.00    -0.326 C  
HETATM    6  C   UNL     1     -10.755  12.326  68.039  1.00  0.00    -0.245 C  
HETATM    7  C   UNL     1      -9.539  11.406  67.981  1.00  0.00    -0.184 A  
HETATM    8  C   UNL     1     -11.151  12.852  66.658  1.00  0.00    -0.284 A  
HETATM    9  C   UNL     1      -9.588  10.175  67.309  1.00  0.00    -0.189 A  
HETATM   10  C   UNL     1     -10.461  13.928  66.101  1.00  0.00    -0.297 A  
HETATM   11  C   UNL     1      -8.480   9.326  67.292  1.00  0.00    -0.125 A  
HETATM   12  C   UNL     1     -10.868  14.425  64.864  1.00  0.00    -0.430 A  
HETATM   13  C   UNL     1     -11.942  13.834  64.211  1.00  0.00    -0.481 A  
HETATM   14  C   UNL     1      -7.303   9.702  67.936  1.00  0.00    -0.082 A  
HETATM   15  C   UNL     1      -7.235  10.924  68.599  1.00  0.00    -0.088 A  
HETATM   16  C   UNL     1     -12.561  12.756  64.820  1.00  0.00    -0.446 A  
HETATM   17  N   UNL     1     -12.189  12.254  66.016  1.00  0.00    -0.597 NA 
HETATM   18  C   UNL     1      -8.345  11.771  68.626  1.00  0.00    -0.079 A  
ENDBRANCH   4   5
ENDBRANCH   2   4
TORSDOF 2
ENDMDL
MODEL       52
REMARK 921   NORMALIZED FREE ENERGY PREDICTED BY IDOCK:   -4.65 KCAL/MOL
REMARK 922        TOTAL FREE ENERGY PREDICTED BY IDOCK:   -5.37 KCAL/MOL
REMARK 923 INTER-LIGAND FREE ENERGY PREDICTED BY IDOCK:   -5.19 KCAL/MOL
REMARK 924 INTRA-LIGAND FREE ENERGY PREDICTED BY IDOCK:   -0.18 KCAL/MOL
REMARK 927      BINDING AFFINITY PREDICTED BY RF-SCORE:    0.00 PKD
ROOT
HETATM    1  C   UNL     1     -11.120  10.002  70.225  1.00  0.00    -0.318 C  
HETATM    2  N   UNL     1     -12.214  10.903  69.856  1.00  0.00    -0.342 NA 
HETATM    3  C   UNL     1     -12.643  11.668  71.030  1.00  0.00    -0.331 C  
ENDROOT
BRANCH   2   4
HETATM    4  C   UNL     1     -11.828  11.831  68.776  1.00  0.00    -0.320 C  
BRANCH   4   5
HETATM    5  C   UNL     1     -10.512  11.477  68.070  1.00  0.00    -0.214 C  
HETATM    6  C   UNL     1     -10.644  11.269  66.543  1.00  0.00    -0.315 C  
HETATM    7  C   UNL     1     -11.038  12.551  65.814  1.00  0.00    -0.343 A  
HETATM    8  C   UNL     1      -9.377  10.637  65.964  1.00  0.00    -0.186 A  
HETATM    9  C   UNL     1     -10.217  13.689  65.848  1.00  0.00    -0.318 A  
HETATM   10  C   UNL     1      -9.454   9.862  64.807  1.00  0.00    -0.356 A  
HETATM   11  C   UNL     1     -10.603  14.867  65.206  1.00  0.00    -0.421 A  
HETATM   12  C   UNL     1      -8.298   9.255  64.322  1.00  0.00    -0.180 A  
HETATM   13  C   UNL     1      -7.097   9.440  64.994  1.00  0.00    -0.101 A  
HETATM   14  C   UNL     1     -11.810  14.919  64.511  1.00  0.00    -0.404 A  
HETATM   15  C   UNL     1     -12.630  13.795  64.458  1.00  0.00    -0.249 A  
HETATM   16  C   UNL     1      -7.098  10.240  66.122  1.00  0.00    -0.121 A  
HETATM   17  N   UNL     1      -8.202  10.841  66.615  1.00  0.00    -0.134 NA 
HETATM   18  C   UNL     1     -12.250  12.619  65.108  1.00  0.00    -0.539 A  
ENDBRANCH   4   5
ENDBRANCH   2   4
TORSDOF 2
ENDMDL
MODEL       53
REMARK 921   NORMALIZED FREE ENERGY PREDICTED BY IDOCK:   -4.62 KCAL/MOL
REMARK 922        TOTAL FREE ENERGY PREDICTED BY IDOCK:   -5.33 KCAL/MOL
REMARK 923 INTER-LIGAND FREE ENERGY PREDICTED BY IDOCK:   -5.15 KCAL/MOL
REMARK 924 INTRA-LIGAND FREE ENERGY PREDICTED BY IDOCK:   -0.19 KCAL/MOL
REMARK 927      BINDING AFFINITY PREDICTED BY RF-SCORE:    0.00 PKD
ROOT
HETATM    1  C   UNL     1      -6.978   6.908  72.585  1.00  0.00    -0.070 C  
HETATM    2  N   UNL     1      -7.993   7.107  73.621  1.00  0.00    -0.106 NA 
HETATM    3  C   UNL     1      -7.572   8.177  74.528  1.00  0.00    -0.224 C  
ENDROOT
BRANCH   2   4
HETATM    4  C   UNL     1      -9.313   7.434  73.050  1.00  0.00    -0.178 C  
BRANCH   4   5
HETATM    5  C   UNL     1      -9.268   8.369  71.833  1.00  0.00    -0.306 C  
HETATM    6  C   UNL     1     -10.293   8.025  70.727  1.00  0.00    -0.214 C  
HETATM    7  C   UNL     1     -11.735   8.211  71.193  1.00  0.00    -0.309 A  
HETATM    8  C   UNL     1      -9.994   8.798  69.442  1.00  0.00    -0.196 A  
HETATM    9  C   UNL     1     -12.210   9.466  71.603  1.00  0.00    -0.467 A  
HETATM   10  C   UNL     1     -10.377   8.270  68.209  1.00  0.00    -0.242 A  
HETATM   11  C   UNL     1     -13.521   9.618  72.059  1.00  0.00    -0.514 A  
HETATM   12  C   UNL     1     -10.053   8.965  67.046  1.00  0.00    -0.331 A  
HETATM   13  C   UNL     1      -9.364  10.167  67.140  1.00  0.00    -0.176 A  
HETATM   14  C   UNL     1     -14.378   8.520  72.100  1.00  0.00    -0.529 A  
HETATM   15  C   UNL     1     -13.924   7.270  71.687  1.00  0.00    -0.488 A  
HETATM   16  C   UNL     1      -9.037  10.635  68.400  1.00  0.00    -0.156 A  
HETATM   17  N   UNL     1      -9.339   9.984  69.544  1.00  0.00    -0.220 NA 
HETATM   18  C   UNL     1     -12.610   7.114  71.239  1.00  0.00    -0.421 A  
ENDBRANCH   4   5
ENDBRANCH   2   4
TORSDOF 2
ENDMDL
MODEL       54
REMARK 921   NORMALIZED FREE ENERGY PREDICTED BY IDOCK:   -4.59 KCAL/MOL
REMARK 922        TOTAL FREE ENERGY PREDICTED BY IDOCK:   -5.30 KCAL/MOL
REMARK 923 INTER-LIGAND FREE ENERGY PREDICTED BY IDOCK:   -5.16 KCAL/MOL
REMARK 924 INTRA-LIGAND FREE ENERGY PREDICTED BY IDOCK:   -0.15 KCAL/MOL
REMARK 927      BINDING AFFINITY PREDICTED BY RF-SCORE:    0.00 PKD
ROOT
HETATM    1  C   UNL     1     -12.361  14.279  64.764  1.00  0.00    -0.426 C  
HETATM    2  N   UNL     1     -12.402  12.821  64.626  1.00  0.00    -0.467 NA 
HETATM    3  C   UNL     1     -12.280  12.454  63.212  1.00  0.00    -0.418 C  
ENDROOT
BRANCH   2   4
HETATM    4  C   UNL     1     -11.334  12.161  65.401  1.00  0.00    -0.338 C  
BRANCH   4   5
HETATM    5  C   UNL     1     -11.623  12.030  66.902  1.00  0.00    -0.389 C  
HETATM    6  C   UNL     1     -10.551  11.243  67.691  1.00  0.00    -0.252 C  
HETATM    7  C   UNL     1      -9.202  11.956  67.708  1.00  0.00    -0.184 A  
HETATM    8  C   UNL     1     -11.045  10.901  69.098  1.00  0.00    -0.245 A  
HETATM    9  C   UNL     1      -9.060  13.229  68.282  1.00  0.00    -0.184 A  
HETATM   10  C   UNL     1     -10.547   9.776  69.755  1.00  0.00    -0.285 A  
HETATM   11  C   UNL     1      -7.828  13.887  68.262  1.00  0.00    -0.146 A  
HETATM   12  C   UNL     1     -11.045   9.453  71.015  1.00  0.00    -0.414 A  
HETATM   13  C   UNL     1     -12.017  10.261  71.591  1.00  0.00    -0.246 A  
HETATM   14  C   UNL     1      -6.720  13.276  67.680  1.00  0.00    -0.171 A  
HETATM   15  C   UNL     1      -6.842  12.009  67.116  1.00  0.00    -0.136 A  
HETATM   16  C   UNL     1     -12.445  11.371  70.885  1.00  0.00    -0.379 A  
HETATM   17  N   UNL     1     -11.981  11.708  69.664  1.00  0.00    -0.322 NA 
HETATM   18  C   UNL     1      -8.075  11.353  67.126  1.00  0.00    -0.155 A  
ENDBRANCH   4   5
ENDBRANCH   2   4
TORSDOF 2
ENDMDL
MODEL       55
REMARK 921   NORMALIZED FREE ENERGY PREDICTED BY IDOCK:   -4.56 KCAL/MOL
REMARK 922        TOTAL FREE ENERGY PREDICTED BY IDOCK:   -5.27 KCAL/MOL
REMARK 923 INTER-LIGAND FREE ENERGY PREDICTED BY IDOCK:   -5.12 KCAL/MOL
REMARK 924 INTRA-LIGAND FREE ENERGY PREDICTED BY IDOCK:   -0.16 KCAL/MOL
REMARK 927      BINDING AFFINITY PREDICTED BY RF-SCORE:    0.00 PKD
ROOT
HETATM    1  C   UNL     1     -11.032   9.815  71.034  1.00  0.00    -0.332 C  
HETATM    2  N   UNL     1     -12.346  10.295  70.601  1.00  0.00    -0.317 NA 
HETATM    3  C   UNL     1     -13.001  11.007  71.702  1.00  0.00    -0.456 C  
ENDROOT
BRANCH   2   4
HETATM    4  C   UNL     1     -12.253  11.182  69.426  1.00  0.00    -0.259 C  
BRANCH   4   5
HETATM    5  C   UNL     1     -11.202  10.761  68.389  1.00  0.00    -0.345 C  
HETATM    6  C   UNL     1     -11.225  11.591  67.085  1.00  0.00    -0.365 C  
HETATM    7  C   UNL     1     -10.845  13.051  67.318  1.00  0.00    -0.270 A  
HETATM    8  C   UNL     1     -10.368  10.934  66.001  1.00  0.00    -0.245 A  
HETATM    9  C   UNL     1      -9.583  13.402  67.824  1.00  0.00    -0.213 A  
HETATM   10  C   UNL     1     -10.669  11.146  64.655  1.00  0.00    -0.350 A  
HETATM   11  C   UNL     1      -9.258  14.738  68.066  1.00  0.00    -0.194 A  
HETATM   12  C   UNL     1      -9.908  10.500  63.683  1.00  0.00    -0.354 A  
HETATM   13  C   UNL     1      -8.866   9.669  64.074  1.00  0.00    -0.256 A  
HETATM   14  C   UNL     1     -10.185  15.742  67.793  1.00  0.00    -0.251 A  
HETATM   15  C   UNL     1     -11.437  15.411  67.281  1.00  0.00    -0.166 A  
HETATM   16  C   UNL     1      -8.618   9.527  65.427  1.00  0.00    -0.155 A  
HETATM   17  N   UNL     1      -9.337  10.140  66.391  1.00  0.00    -0.164 NA 
HETATM   18  C   UNL     1     -11.768  14.074  67.047  1.00  0.00    -0.425 A  
ENDBRANCH   4   5
ENDBRANCH   2   4
TORSDOF 2
ENDMDL
MODEL       56
REMARK 921   NORMALIZED FREE ENERGY PREDICTED BY IDOCK:   -4.55 KCAL/MOL
REMARK 922        TOTAL FREE ENERGY PREDICTED BY IDOCK:   -5.25 KCAL/MOL
REMARK 923 INTER-LIGAND FREE ENERGY PREDICTED BY IDOCK:   -4.98 KCAL/MOL
REMARK 924 INTRA-LIGAND FREE ENERGY PREDICTED BY IDOCK:   -0.27 KCAL/MOL
REMARK 927      BINDING AFFINITY PREDICTED BY RF-SCORE:    0.00 PKD
ROOT
HETATM    1  C   UNL     1      -5.936  12.804  67.984  1.00  0.00    -0.101 C  
HETATM    2  N   UNL     1      -7.153  13.424  68.512  1.00  0.00    -0.101 NA 
HETATM    3  C   UNL     1      -6.805  14.369  69.577  1.00  0.00    -0.133 C  
ENDROOT
BRANCH   2   4
HETATM    4  C   UNL     1      -7.920  14.123  67.464  1.00  0.00    -0.188 C  
BRANCH   4   5
HETATM    5  C   UNL     1      -8.130  15.621  67.717  1.00  0.00    -0.158 C  
HETATM    6  C   UNL     1      -9.597  16.091  67.582  1.00  0.00    -0.218 C  
HETATM    7  C   UNL     1     -10.503  15.479  68.646  1.00  0.00    -0.237 A  
HETATM    8  C   UNL     1      -9.684  17.618  67.554  1.00  0.00    -0.280 A  
HETATM    9  C   UNL     1     -10.283  15.715  70.012  1.00  0.00    -0.277 A  
HETATM   10  C   UNL     1     -10.745  18.241  66.896  1.00  0.00    -0.272 A  
HETATM   11  C   UNL     1     -11.098  15.122  70.979  1.00  0.00    -0.283 A  
HETATM   12  C   UNL     1     -10.780  19.633  66.839  1.00  0.00    -0.570 A  
HETATM   13  C   UNL     1      -9.767  20.367  67.442  1.00  0.00    -0.597 A  
HETATM   14  C   UNL     1     -12.152  14.296  70.592  1.00  0.00    -0.417 A  
HETATM   15  C   UNL     1     -12.390  14.061  69.241  1.00  0.00    -0.210 A  
HETATM   16  C   UNL     1      -8.761  19.676  68.093  1.00  0.00    -0.312 A  
HETATM   17  N   UNL     1      -8.700  18.329  68.165  1.00  0.00    -0.274 NA 
HETATM   18  C   UNL     1     -11.570  14.646  68.272  1.00  0.00    -0.353 A  
ENDBRANCH   4   5
ENDBRANCH   2   4
TORSDOF 2
ENDMDL
MODEL       57
REMARK 921   NORMALIZED FREE ENERGY PREDICTED BY IDOCK:   -4.53 KCAL/MOL
REMARK 922        TOTAL FREE ENERGY PREDICTED BY IDOCK:   -5.24 KCAL/MOL
REMARK 923 INTER-LIGAND FREE ENERGY PREDICTED BY IDOCK:   -5.05 KCAL/MOL
REMARK 924 INTRA-LIGAND FREE ENERGY PREDICTED BY IDOCK:   -0.19 KCAL/MOL
REMARK 927      BINDING AFFINITY PREDICTED BY RF-SCORE:    0.00 PKD
ROOT
HETATM    1  C   UNL     1      -6.326  14.679  68.744  1.00  0.00    -0.087 C  
HETATM    2  N   UNL     1      -6.771  13.504  67.993  1.00  0.00    -0.119 NA 
HETATM    3  C   UNL     1      -6.867  12.349  68.889  1.00  0.00    -0.099 C  
ENDROOT
BRANCH   2   4
HETATM    4  C   UNL     1      -8.072  13.727  67.334  1.00  0.00    -0.177 C  
BRANCH   4   5
HETATM    5  C   UNL     1      -9.292  13.502  68.238  1.00  0.00    -0.205 C  
HETATM    6  C   UNL     1     -10.404  14.566  68.085  1.00  0.00    -0.232 C  
HETATM    7  C   UNL     1     -11.048  14.538  66.702  1.00  0.00    -0.333 A  
HETATM    8  C   UNL     1     -11.435  14.448  69.209  1.00  0.00    -0.285 A  
HETATM    9  C   UNL     1     -11.719  13.397  66.235  1.00  0.00    -0.405 A  
HETATM   10  C   UNL     1     -12.157  15.573  69.609  1.00  0.00    -0.352 A  
HETATM   11  C   UNL     1     -12.276  13.370  64.955  1.00  0.00    -0.463 A  
HETATM   12  C   UNL     1     -13.056  15.457  70.667  1.00  0.00    -0.405 A  
HETATM   13  C   UNL     1     -13.219  14.228  71.292  1.00  0.00    -0.412 A  
HETATM   14  C   UNL     1     -12.181  14.488  64.129  1.00  0.00    -0.372 A  
HETATM   15  C   UNL     1     -11.528  15.632  64.581  1.00  0.00    -0.306 A  
HETATM   16  C   UNL     1     -12.481  13.155  70.824  1.00  0.00    -0.308 A  
HETATM   17  N   UNL     1     -11.604  13.237  69.801  1.00  0.00    -0.260 NA 
HETATM   18  C   UNL     1     -10.962  15.657  65.858  1.00  0.00    -0.231 A  
ENDBRANCH   4   5
ENDBRANCH   2   4
TORSDOF 2
ENDMDL
MODEL       58
REMARK 921   NORMALIZED FREE ENERGY PREDICTED BY IDOCK:   -4.48 KCAL/MOL
REMARK 922        TOTAL FREE ENERGY PREDICTED BY IDOCK:   -5.17 KCAL/MOL
REMARK 923 INTER-LIGAND FREE ENERGY PREDICTED BY IDOCK:   -5.01 KCAL/MOL
REMARK 924 INTRA-LIGAND FREE ENERGY PREDICTED BY IDOCK:   -0.17 KCAL/MOL
REMARK 927      BINDING AFFINITY PREDICTED BY RF-SCORE:    0.00 PKD
ROOT
HETATM    1  C   UNL     1     -12.833  13.816  70.936  1.00  0.00    -0.271 C  
HETATM    2  N   UNL     1     -12.911  15.251  70.653  1.00  0.00    -0.408 NA 
HETATM    3  C   UNL     1     -12.412  16.010  71.802  1.00  0.00    -0.401 C  
ENDROOT
BRANCH   2   4
HETATM    4  C   UNL     1     -12.147  15.621  69.447  1.00  0.00    -0.266 C  
BRANCH   4   5
HETATM    5  C   UNL     1     -10.623  15.537  69.605  1.00  0.00    -0.285 C  
HETATM    6  C   UNL     1      -9.829  15.877  68.322  1.00  0.00    -0.217 C  
HETATM    7  C   UNL     1     -10.005  17.333  67.899  1.00  0.00    -0.297 A  
HETATM    8  C   UNL     1      -8.357  15.488  68.469  1.00  0.00    -0.161 A  
HETATM    9  C   UNL     1      -9.605  18.387  68.735  1.00  0.00    -0.345 A  
HETATM   10  C   UNL     1      -7.608  15.167  67.337  1.00  0.00    -0.232 A  
HETATM   11  C   UNL     1      -9.801  19.715  68.352  1.00  0.00    -0.531 A  
HETATM   12  C   UNL     1      -6.282  14.768  67.495  1.00  0.00    -0.019 A  
HETATM   13  C   UNL     1      -5.736  14.707  68.770  1.00  0.00    -0.086 A  
HETATM   14  C   UNL     1     -10.389  20.007  67.123  1.00  0.00    -0.554 A  
HETATM   15  C   UNL     1     -10.781  18.973  66.277  1.00  0.00    -0.406 A  
HETATM   16  C   UNL     1      -6.537  15.061  69.840  1.00  0.00    -0.170 A  
HETATM   17  N   UNL     1      -7.824  15.451  69.718  1.00  0.00    -0.148 NA 
HETATM   18  C   UNL     1     -10.594  17.643  66.662  1.00  0.00    -0.211 A  
ENDBRANCH   4   5
ENDBRANCH   2   4
TORSDOF 2
ENDMDL
MODEL       59
REMARK 921   NORMALIZED FREE ENERGY PREDICTED BY IDOCK:   -4.44 KCAL/MOL
REMARK 922        TOTAL FREE ENERGY PREDICTED BY IDOCK:   -5.14 KCAL/MOL
REMARK 923 INTER-LIGAND FREE ENERGY PREDICTED BY IDOCK:   -4.98 KCAL/MOL
REMARK 924 INTRA-LIGAND FREE ENERGY PREDICTED BY IDOCK:   -0.16 KCAL/MOL
REMARK 927      BINDING AFFINITY PREDICTED BY RF-SCORE:    0.00 PKD
ROOT
HETATM    1  C   UNL     1     -13.473   9.381  71.566  1.00  0.00    -0.373 C  
HETATM    2  N   UNL     1     -12.210   8.842  72.074  1.00  0.00    -0.361 NA 
HETATM    3  C   UNL     1     -12.196   7.385  71.925  1.00  0.00    -0.310 C  
ENDROOT
BRANCH   2   4
HETATM    4  C   UNL     1     -11.042   9.421  71.383  1.00  0.00    -0.380 C  
BRANCH   4   5
HETATM    5  C   UNL     1     -11.388  10.338  70.203  1.00  0.00    -0.388 C  
HETATM    6  C   UNL     1     -10.208  10.612  69.241  1.00  0.00    -0.235 C  
HETATM    7  C   UNL     1      -9.747   9.351  68.514  1.00  0.00    -0.160 A  
HETATM    8  C   UNL     1     -10.540  11.751  68.276  1.00  0.00    -0.211 A  
HETATM    9  C   UNL     1     -10.612   8.644  67.664  1.00  0.00    -0.272 A  
HETATM   10  C   UNL     1      -9.513  12.529  67.741  1.00  0.00    -0.197 A  
HETATM   11  C   UNL     1     -10.191   7.473  67.031  1.00  0.00    -0.368 A  
HETATM   12  C   UNL     1      -9.839  13.593  66.902  1.00  0.00    -0.261 A  
HETATM   13  C   UNL     1     -11.172  13.849  66.611  1.00  0.00    -0.328 A  
HETATM   14  C   UNL     1      -8.895   7.001  67.228  1.00  0.00    -0.119 A  
HETATM   15  C   UNL     1      -8.021   7.697  68.059  1.00  0.00    -0.122 A  
HETATM   16  C   UNL     1     -12.131  13.019  67.163  1.00  0.00    -0.264 A  
HETATM   17  N   UNL     1     -11.846  11.981  67.978  1.00  0.00    -0.498 NA 
HETATM   18  C   UNL     1      -8.444   8.863  68.702  1.00  0.00    -0.128 A  
ENDBRANCH   4   5
ENDBRANCH   2   4
TORSDOF 2
ENDMDL
MODEL       60
REMARK 921   NORMALIZED FREE ENERGY PREDICTED BY IDOCK:   -4.40 KCAL/MOL
REMARK 922        TOTAL FREE ENERGY PREDICTED BY IDOCK:   -5.09 KCAL/MOL
REMARK 923 INTER-LIGAND FREE ENERGY PREDICTED BY IDOCK:   -4.94 KCAL/MOL
REMARK 924 INTRA-LIGAND FREE ENERGY PREDICTED BY IDOCK:   -0.15 KCAL/MOL
REMARK 927      BINDING AFFINITY PREDICTED BY RF-SCORE:    0.00 PKD
ROOT
HETATM    1  C   UNL     1     -12.672  14.246  70.370  1.00  0.00    -0.295 C  
HETATM    2  N   UNL     1     -12.428  13.065  71.201  1.00  0.00    -0.335 NA 
HETATM    3  C   UNL     1     -13.527  12.896  72.156  1.00  0.00    -0.522 C  
ENDROOT
BRANCH   2   4
HETATM    4  C   UNL     1     -12.281  11.839  70.394  1.00  0.00    -0.330 C  
BRANCH   4   5
HETATM    5  C   UNL     1     -11.809  10.610  71.181  1.00  0.00    -0.339 C  
HETATM    6  C   UNL     1     -11.474   9.381  70.304  1.00  0.00    -0.223 C  
HETATM    7  C   UNL     1     -10.277   9.628  69.391  1.00  0.00    -0.220 A  
HETATM    8  C   UNL     1     -11.302   8.125  71.160  1.00  0.00    -0.269 A  
HETATM    9  C   UNL     1      -9.009   9.921  69.917  1.00  0.00    -0.231 A  
HETATM   10  C   UNL     1     -11.561   6.869  70.611  1.00  0.00    -0.402 A  
HETATM   11  C   UNL     1      -7.928  10.179  69.072  1.00  0.00    -0.115 A  
HETATM   12  C   UNL     1     -11.447   5.741  71.420  1.00  0.00    -0.095 A  
HETATM   13  C   UNL     1     -11.070   5.890  72.749  1.00  0.00    -0.321 A  
HETATM   14  C   UNL     1      -8.096  10.135  67.690  1.00  0.00    -0.109 A  
HETATM   15  C   UNL     1      -9.346   9.836  67.152  1.00  0.00    -0.169 A  
HETATM   16  C   UNL     1     -10.810   7.167  73.213  1.00  0.00    -0.338 A  
HETATM   17  N   UNL     1     -10.913   8.278  72.453  1.00  0.00    -0.348 NA 
HETATM   18  C   UNL     1     -10.431   9.587  67.995  1.00  0.00    -0.279 A  
ENDBRANCH   4   5
ENDBRANCH   2   4
TORSDOF 2
ENDMDL
MODEL       61
REMARK 921   NORMALIZED FREE ENERGY PREDICTED BY IDOCK:   -4.40 KCAL/MOL
REMARK 922        TOTAL FREE ENERGY PREDICTED BY IDOCK:   -5.09 KCAL/MOL
REMARK 923 INTER-LIGAND FREE ENERGY PREDICTED BY IDOCK:   -4.92 KCAL/MOL
REMARK 924 INTRA-LIGAND FREE ENERGY PREDICTED BY IDOCK:   -0.17 KCAL/MOL
REMARK 927      BINDING AFFINITY PREDICTED BY RF-SCORE:    0.00 PKD
ROOT
HETATM    1  C   UNL     1     -11.664   9.531  71.646  1.00  0.00    -0.390 C  
HETATM    2  N   UNL     1     -12.745  10.302  71.030  1.00  0.00    -0.368 NA 
HETATM    3  C   UNL     1     -13.159  11.382  71.930  1.00  0.00    -0.400 C  
ENDROOT
BRANCH   2   4
HETATM    4  C   UNL     1     -12.349  10.870  69.727  1.00  0.00    -0.256 C  
BRANCH   4   5
HETATM    5  C   UNL     1     -10.976  10.409  69.220  1.00  0.00    -0.287 C  
HETATM    6  C   UNL     1     -10.797  10.504  67.687  1.00  0.00    -0.355 C  
HETATM    7  C   UNL     1     -10.831  11.946  67.187  1.00  0.00    -0.301 A  
HETATM    8  C   UNL     1      -9.540   9.761  67.234  1.00  0.00    -0.157 A  
HETATM    9  C   UNL     1      -9.881  12.886  67.615  1.00  0.00    -0.211 A  
HETATM   10  C   UNL     1      -9.472   9.233  65.945  1.00  0.00    -0.325 A  
HETATM   11  C   UNL     1      -9.941  14.211  67.178  1.00  0.00    -0.255 A  
HETATM   12  C   UNL     1      -8.338   8.517  65.566  1.00  0.00    -0.163 A  
HETATM   13  C   UNL     1      -7.300   8.353  66.475  1.00  0.00    -0.081 A  
HETATM   14  C   UNL     1     -10.944  14.610  66.297  1.00  0.00    -0.327 A  
HETATM   15  C   UNL     1     -11.887  13.686  65.854  1.00  0.00    -0.406 A  
HETATM   16  C   UNL     1      -7.434   8.925  67.727  1.00  0.00    -0.093 A  
HETATM   17  N   UNL     1      -8.520   9.623  68.121  1.00  0.00    -0.118 NA 
HETATM   18  C   UNL     1     -11.835  12.363  66.298  1.00  0.00    -0.431 A  
ENDBRANCH   4   5
ENDBRANCH   2   4
TORSDOF 2
ENDMDL
MODEL       62
REMARK 921   NORMALIZED FREE ENERGY PREDICTED BY IDOCK:   -4.37 KCAL/MOL
REMARK 922        TOTAL FREE ENERGY PREDICTED BY IDOCK:   -5.06 KCAL/MOL
REMARK 923 INTER-LIGAND FREE ENERGY PREDICTED BY IDOCK:   -4.88 KCAL/MOL
REMARK 924 INTRA-LIGAND FREE ENERGY PREDICTED BY IDOCK:   -0.18 KCAL/MOL
REMARK 927      BINDING AFFINITY PREDICTED BY RF-SCORE:    0.00 PKD
ROOT
HETATM    1  C   UNL     1     -10.430   8.639  70.408  1.00  0.00    -0.208 C  
HETATM    2  N   UNL     1      -9.807   9.153  69.187  1.00  0.00    -0.167 NA 
HETATM    3  C   UNL     1     -10.347   8.450  68.021  1.00  0.00    -0.215 C  
ENDROOT
BRANCH   2   4
HETATM    4  C   UNL     1     -10.013  10.605  69.027  1.00  0.00    -0.213 C  
BRANCH   4   5
HETATM    5  C   UNL     1     -10.115  11.080  67.572  1.00  0.00    -0.208 C  
HETATM    6  C   UNL     1     -10.979  12.347  67.373  1.00  0.00    -0.296 C  
HETATM    7  C   UNL     1     -10.372  13.575  68.045  1.00  0.00    -0.241 A  
HETATM    8  C   UNL     1     -11.276  12.582  65.891  1.00  0.00    -0.320 A  
HETATM    9  C   UNL     1      -9.112  14.063  67.666  1.00  0.00    -0.192 A  
HETATM   10  C   UNL     1     -12.434  13.263  65.514  1.00  0.00    -0.531 A  
HETATM   11  C   UNL     1      -8.551  15.167  68.311  1.00  0.00    -0.164 A  
HETATM   12  C   UNL     1     -12.712  13.425  64.159  1.00  0.00    -0.078 A  
HETATM   13  C   UNL     1     -11.830  12.914  63.216  1.00  0.00    -0.469 A  
HETATM   14  C   UNL     1      -9.248  15.806  69.334  1.00  0.00    -0.263 A  
HETATM   15  C   UNL     1     -10.505  15.342  69.714  1.00  0.00    -0.287 A  
HETATM   16  C   UNL     1     -10.693  12.269  63.669  1.00  0.00    -0.467 A  
HETATM   17  N   UNL     1     -10.397  12.098  64.975  1.00  0.00    -0.279 NA 
HETATM   18  C   UNL     1     -11.063  14.231  69.077  1.00  0.00    -0.284 A  
ENDBRANCH   4   5
ENDBRANCH   2   4
TORSDOF 2
ENDMDL
MODEL       63
REMARK 921   NORMALIZED FREE ENERGY PREDICTED BY IDOCK:   -4.37 KCAL/MOL
REMARK 922        TOTAL FREE ENERGY PREDICTED BY IDOCK:   -5.06 KCAL/MOL
REMARK 923 INTER-LIGAND FREE ENERGY PREDICTED BY IDOCK:   -4.77 KCAL/MOL
REMARK 924 INTRA-LIGAND FREE ENERGY PREDICTED BY IDOCK:   -0.29 KCAL/MOL
REMARK 927      BINDING AFFINITY PREDICTED BY RF-SCORE:    0.00 PKD
ROOT
HETATM    1  C   UNL     1      -9.474   5.825  66.614  1.00  0.00    -0.149 C  
HETATM    2  N   UNL     1      -9.499   6.912  67.595  1.00  0.00    -0.123 NA 
HETATM    3  C   UNL     1      -8.199   7.588  67.619  1.00  0.00    -0.118 C  
ENDROOT
BRANCH   2   4
HETATM    4  C   UNL     1     -10.561   7.895  67.308  1.00  0.00    -0.295 C  
BRANCH   4   5
HETATM    5  C   UNL     1     -10.168   9.355  67.569  1.00  0.00    -0.288 C  
HETATM    6  C   UNL     1     -11.005  10.054  68.665  1.00  0.00    -0.247 C  
HETATM    7  C   UNL     1     -10.789   9.436  70.044  1.00  0.00    -0.271 A  
HETATM    8  C   UNL     1     -10.763  11.564  68.661  1.00  0.00    -0.207 A  
HETATM    9  C   UNL     1      -9.523   9.434  70.650  1.00  0.00    -0.325 A  
HETATM   10  C   UNL     1     -11.758  12.428  69.119  1.00  0.00    -0.376 A  
HETATM   11  C   UNL     1      -9.329   8.836  71.896  1.00  0.00    -0.343 A  
HETATM   12  C   UNL     1     -11.538  13.803  69.062  1.00  0.00    -0.356 A  
HETATM   13  C   UNL     1     -10.334  14.281  68.561  1.00  0.00    -0.244 A  
HETATM   14  C   UNL     1     -10.401   8.242  72.560  1.00  0.00    -0.401 A  
HETATM   15  C   UNL     1     -11.666   8.245  71.977  1.00  0.00    -0.407 A  
HETATM   16  C   UNL     1      -9.389  13.360  68.147  1.00  0.00    -0.217 A  
HETATM   17  N   UNL     1      -9.574  12.023  68.190  1.00  0.00    -0.195 NA 
HETATM   18  C   UNL     1     -11.860   8.835  70.725  1.00  0.00    -0.209 A  
ENDBRANCH   4   5
ENDBRANCH   2   4
TORSDOF 2
ENDMDL
MODEL       64
REMARK 921   NORMALIZED FREE ENERGY PREDICTED BY IDOCK:   -4.33 KCAL/MOL
REMARK 922        TOTAL FREE ENERGY PREDICTED BY IDOCK:   -5.01 KCAL/MOL
REMARK 923 INTER-LIGAND FREE ENERGY PREDICTED BY IDOCK:   -4.76 KCAL/MOL
REMARK 924 INTRA-LIGAND FREE ENERGY PREDICTED BY IDOCK:   -0.25 KCAL/MOL
REMARK 927      BINDING AFFINITY PREDICTED BY RF-SCORE:    0.00 PKD
ROOT
HETATM    1  C   UNL     1      -6.901  11.108  69.439  1.00  0.00    -0.125 C  
HETATM    2  N   UNL     1      -7.671  11.819  68.416  1.00  0.00    -0.124 NA 
HETATM    3  C   UNL     1      -7.493  13.264  68.576  1.00  0.00    -0.115 C  
ENDROOT
BRANCH   2   4
HETATM    4  C   UNL     1      -7.278  11.421  67.051  1.00  0.00    -0.141 C  
BRANCH   4   5
HETATM    5  C   UNL     1      -7.722  10.010  66.644  1.00  0.00    -0.104 C  
HETATM    6  C   UNL     1      -9.247   9.770  66.734  1.00  0.00    -0.179 C  
HETATM    7  C   UNL     1     -10.029  10.625  65.742  1.00  0.00    -0.315 A  
HETATM    8  C   UNL     1      -9.577   8.282  66.605  1.00  0.00    -0.233 A  
HETATM    9  C   UNL     1      -9.831  10.499  64.358  1.00  0.00    -0.405 A  
HETATM   10  C   UNL     1     -10.733   7.773  67.197  1.00  0.00    -0.337 A  
HETATM   11  C   UNL     1     -10.527  11.311  63.460  1.00  0.00    -0.457 A  
HETATM   12  C   UNL     1     -10.992   6.407  67.110  1.00  0.00    -0.476 A  
HETATM   13  C   UNL     1     -10.101   5.586  66.431  1.00  0.00    -0.220 A  
HETATM   14  C   UNL     1     -11.441  12.251  63.933  1.00  0.00    -0.512 A  
HETATM   15  C   UNL     1     -11.657  12.381  65.303  1.00  0.00    -0.419 A  
HETATM   16  C   UNL     1      -8.988   6.169  65.853  1.00  0.00    -0.121 A  
HETATM   17  N   UNL     1      -8.712   7.489  65.920  1.00  0.00    -0.160 NA 
HETATM   18  C   UNL     1     -10.954  11.577  66.203  1.00  0.00    -0.320 A  
ENDBRANCH   4   5
ENDBRANCH   2   4
TORSDOF 2
ENDMDL
MODEL       65
REMARK 921   NORMALIZED FREE ENERGY PREDICTED BY IDOCK:   -4.30 KCAL/MOL
REMARK 922        TOTAL FREE ENERGY PREDICTED BY IDOCK:   -4.98 KCAL/MOL
REMARK 923 INTER-LIGAND FREE ENERGY PREDICTED BY IDOCK:   -4.72 KCAL/MOL
REMARK 924 INTRA-LIGAND FREE ENERGY PREDICTED BY IDOCK:   -0.26 KCAL/MOL
REMARK 927      BINDING AFFINITY PREDICTED BY RF-SCORE:    0.00 PKD
ROOT
HETATM    1  C   UNL     1      -9.642   9.217  66.026  1.00  0.00    -0.270 C  
HETATM    2  N   UNL     1     -10.027   9.375  67.430  1.00  0.00    -0.186 NA 
HETATM    3  C   UNL     1     -10.861  10.570  67.584  1.00  0.00    -0.300 C  
ENDROOT
BRANCH   2   4
HETATM    4  C   UNL     1     -10.753   8.197  67.942  1.00  0.00    -0.070 C  
BRANCH   4   5
HETATM    5  C   UNL     1     -10.065   7.482  69.113  1.00  0.00    -0.192 C  
HETATM    6  C   UNL     1     -10.149   8.237  70.460  1.00  0.00    -0.210 C  
HETATM    7  C   UNL     1     -11.581   8.344  70.976  1.00  0.00    -0.307 A  
HETATM    8  C   UNL     1      -9.203   7.623  71.493  1.00  0.00    -0.135 A  
HETATM    9  C   UNL     1     -12.334   7.198  71.277  1.00  0.00    -0.418 A  
HETATM   10  C   UNL     1      -8.690   8.414  72.521  1.00  0.00    -0.277 A  
HETATM   11  C   UNL     1     -13.655   7.307  71.717  1.00  0.00    -0.386 A  
HETATM   12  C   UNL     1      -7.791   7.850  73.424  1.00  0.00    -0.209 A  
HETATM   13  C   UNL     1      -7.434   6.515  73.286  1.00  0.00    -0.085 A  
HETATM   14  C   UNL     1     -14.236   8.563  71.874  1.00  0.00    -0.536 A  
HETATM   15  C   UNL     1     -13.499   9.710  71.591  1.00  0.00    -0.455 A  
HETATM   16  C   UNL     1      -8.003   5.791  72.254  1.00  0.00    -0.107 A  
HETATM   17  N   UNL     1      -8.876   6.311  71.365  1.00  0.00    -0.138 NA 
HETATM   18  C   UNL     1     -12.181   9.603  71.142  1.00  0.00    -0.437 A  
ENDBRANCH   4   5
ENDBRANCH   2   4
TORSDOF 2
ENDMDL
MODEL       66
REMARK 921   NORMALIZED FREE ENERGY PREDICTED BY IDOCK:   -4.29 KCAL/MOL
REMARK 922        TOTAL FREE ENERGY PREDICTED BY IDOCK:   -4.97 KCAL/MOL
REMARK 923 INTER-LIGAND FREE ENERGY PREDICTED BY IDOCK:   -4.65 KCAL/MOL
REMARK 924 INTRA-LIGAND FREE ENERGY PREDICTED BY IDOCK:   -0.31 KCAL/MOL
REMARK 927      BINDING AFFINITY PREDICTED BY RF-SCORE:    0.00 PKD
ROOT
HETATM    1  C   UNL     1      -8.715   7.126  67.339  1.00  0.00    -0.120 C  
HETATM    2  N   UNL     1     -10.090   7.627  67.401  1.00  0.00    -0.198 NA 
HETATM    3  C   UNL     1     -10.957   6.621  68.020  1.00  0.00    -0.249 C  
ENDROOT
BRANCH   2   4
HETATM    4  C   UNL     1     -10.185   8.892  68.154  1.00  0.00    -0.201 C  
BRANCH   4   5
HETATM    5  C   UNL     1     -10.861  10.040  67.392  1.00  0.00    -0.313 C  
HETATM    6  C   UNL     1      -9.881  11.087  66.815  1.00  0.00    -0.229 C  
HETATM    7  C   UNL     1      -8.978  10.502  65.732  1.00  0.00    -0.199 A  
HETATM    8  C   UNL     1     -10.628  12.333  66.337  1.00  0.00    -0.242 A  
HETATM    9  C   UNL     1      -9.512   9.971  64.548  1.00  0.00    -0.359 A  
HETATM   10  C   UNL     1      -9.979  13.568  66.322  1.00  0.00    -0.302 A  
HETATM   11  C   UNL     1      -8.679   9.407  63.580  1.00  0.00    -0.221 A  
HETATM   12  C   UNL     1     -10.691  14.701  65.930  1.00  0.00    -0.312 A  
HETATM   13  C   UNL     1     -12.023  14.574  65.557  1.00  0.00    -0.312 A  
HETATM   14  C   UNL     1      -7.300   9.379  63.776  1.00  0.00    -0.108 A  
HETATM   15  C   UNL     1      -6.754   9.913  64.940  1.00  0.00    -0.123 A  
HETATM   16  C   UNL     1     -12.589  13.312  65.579  1.00  0.00    -0.446 A  
HETATM   17  N   UNL     1     -11.924  12.198  65.954  1.00  0.00    -0.571 NA 
HETATM   18  C   UNL     1      -7.586  10.468  65.915  1.00  0.00    -0.148 A  
ENDBRANCH   4   5
ENDBRANCH   2   4
TORSDOF 2
ENDMDL
MODEL       67
REMARK 921   NORMALIZED FREE ENERGY PREDICTED BY IDOCK:   -4.29 KCAL/MOL
REMARK 922        TOTAL FREE ENERGY PREDICTED BY IDOCK:   -4.97 KCAL/MOL
REMARK 923 INTER-LIGAND FREE ENERGY PREDICTED BY IDOCK:   -4.79 KCAL/MOL
REMARK 924 INTRA-LIGAND FREE ENERGY PREDICTED BY IDOCK:   -0.18 KCAL/MOL
REMARK 927      BINDING AFFINITY PREDICTED BY RF-SCORE:    0.00 PKD
ROOT
HETATM    1  C   UNL     1      -7.271   3.700  71.921  1.00  0.00    -0.050 C  
HETATM    2  N   UNL     1      -8.686   4.075  71.983  1.00  0.00    -0.104 NA 
HETATM    3  C   UNL     1      -8.990   4.648  73.297  1.00  0.00    -0.112 C  
ENDROOT
BRANCH   2   4
HETATM    4  C   UNL     1      -9.051   5.039  70.927  1.00  0.00    -0.143 C  
BRANCH   4   5
HETATM    5  C   UNL     1     -10.462   5.627  71.060  1.00  0.00    -0.316 C  
HETATM    6  C   UNL     1     -10.571   7.118  70.667  1.00  0.00    -0.243 C  
HETATM    7  C   UNL     1     -10.289   7.350  69.185  1.00  0.00    -0.208 A  
HETATM    8  C   UNL     1     -11.915   7.704  71.101  1.00  0.00    -0.297 A  
HETATM    9  C   UNL     1     -11.090   6.764  68.192  1.00  0.00    -0.229 A  
HETATM   10  C   UNL     1     -12.023   9.067  71.375  1.00  0.00    -0.400 A  
HETATM   11  C   UNL     1     -10.803   6.955  66.839  1.00  0.00    -0.380 A  
HETATM   12  C   UNL     1     -13.244   9.574  71.816  1.00  0.00    -0.505 A  
HETATM   13  C   UNL     1     -14.325   8.714  71.966  1.00  0.00    -0.512 A  
HETATM   14  C   UNL     1      -9.719   7.746  66.460  1.00  0.00    -0.265 A  
HETATM   15  C   UNL     1      -8.922   8.343  67.433  1.00  0.00    -0.143 A  
HETATM   16  C   UNL     1     -14.143   7.379  71.654  1.00  0.00    -0.421 A  
HETATM   17  N   UNL     1     -12.974   6.860  71.224  1.00  0.00    -0.315 NA 
HETATM   18  C   UNL     1      -9.202   8.145  68.787  1.00  0.00    -0.144 A  
ENDBRANCH   4   5
ENDBRANCH   2   4
TORSDOF 2
ENDMDL
MODEL       68
REMARK 921   NORMALIZED FREE ENERGY PREDICTED BY IDOCK:   -4.28 KCAL/MOL
REMARK 922        TOTAL FREE ENERGY PREDICTED BY IDOCK:   -4.95 KCAL/MOL
REMARK 923 INTER-LIGAND FREE ENERGY PREDICTED BY IDOCK:   -4.62 KCAL/MOL
REMARK 924 INTRA-LIGAND FREE ENERGY PREDICTED BY IDOCK:   -0.33 KCAL/MOL
REMARK 927      BINDING AFFINITY PREDICTED BY RF-SCORE:    0.00 PKD
ROOT
HETATM    1  C   UNL     1      -6.331   9.452  68.270  1.00  0.00    -0.053 C  
HETATM    2  N   UNL     1      -6.973  10.754  68.462  1.00  0.00    -0.065 NA 
HETATM    3  C   UNL     1      -6.205  11.547  69.425  1.00  0.00    -0.094 C  
ENDROOT
BRANCH   2   4
HETATM    4  C   UNL     1      -7.100  11.501  67.196  1.00  0.00    -0.140 C  
BRANCH   4   5
HETATM    5  C   UNL     1      -8.539  11.876  66.818  1.00  0.00    -0.181 C  
HETATM    6  C   UNL     1      -9.141  11.025  65.676  1.00  0.00    -0.223 C  
HETATM    7  C   UNL     1      -9.308   9.560  66.070  1.00  0.00    -0.273 A  
HETATM    8  C   UNL     1     -10.443  11.640  65.160  1.00  0.00    -0.279 A  
HETATM    9  C   UNL     1     -10.140   9.184  67.136  1.00  0.00    -0.301 A  
HETATM   10  C   UNL     1     -10.844  11.413  63.843  1.00  0.00    -0.463 A  
HETATM   11  C   UNL     1     -10.260   7.844  67.510  1.00  0.00    -0.308 A  
HETATM   12  C   UNL     1     -12.007  12.022  63.377  1.00  0.00    -0.571 A  
HETATM   13  C   UNL     1     -12.744  12.831  64.232  1.00  0.00    -0.338 A  
HETATM   14  C   UNL     1      -9.559   6.860  66.814  1.00  0.00    -0.215 A  
HETATM   15  C   UNL     1      -8.738   7.216  65.747  1.00  0.00    -0.125 A  
HETATM   16  C   UNL     1     -12.291  12.990  65.530  1.00  0.00    -0.472 A  
HETATM   17  N   UNL     1     -11.169  12.413  66.009  1.00  0.00    -0.318 NA 
HETATM   18  C   UNL     1      -8.610   8.557  65.378  1.00  0.00    -0.202 A  
ENDBRANCH   4   5
ENDBRANCH   2   4
TORSDOF 2
ENDMDL
MODEL       69
REMARK 921   NORMALIZED FREE ENERGY PREDICTED BY IDOCK:   -4.21 KCAL/MOL
REMARK 922        TOTAL FREE ENERGY PREDICTED BY IDOCK:   -4.88 KCAL/MOL
REMARK 923 INTER-LIGAND FREE ENERGY PREDICTED BY IDOCK:   -4.68 KCAL/MOL
REMARK 924 INTRA-LIGAND FREE ENERGY PREDICTED BY IDOCK:   -0.20 KCAL/MOL
REMARK 927      BINDING AFFINITY PREDICTED BY RF-SCORE:    0.00 PKD
ROOT
HETATM    1  C   UNL     1     -10.204  14.448  69.076  1.00  0.00    -0.179 C  
HETATM    2  N   UNL     1     -11.192  13.518  69.626  1.00  0.00    -0.129 NA 
HETATM    3  C   UNL     1     -12.399  14.251  70.016  1.00  0.00    -0.346 C  
ENDROOT
BRANCH   2   4
HETATM    4  C   UNL     1     -11.548  12.455  68.666  1.00  0.00    -0.319 C  
BRANCH   4   5
HETATM    5  C   UNL     1     -10.371  11.922  67.838  1.00  0.00    -0.212 C  
HETATM    6  C   UNL     1     -10.682  11.737  66.334  1.00  0.00    -0.306 C  
HETATM    7  C   UNL     1     -10.964  13.062  65.632  1.00  0.00    -0.296 A  
HETATM    8  C   UNL     1      -9.579  10.935  65.641  1.00  0.00    -0.224 A  
HETATM    9  C   UNL     1      -9.993  14.074  65.571  1.00  0.00    -0.302 A  
HETATM   10  C   UNL     1      -9.879  10.180  64.506  1.00  0.00    -0.334 A  
HETATM   11  C   UNL     1     -10.273  15.296  64.956  1.00  0.00    -0.324 A  
HETATM   12  C   UNL     1      -8.872   9.418  63.917  1.00  0.00    -0.205 A  
HETATM   13  C   UNL     1      -7.596   9.432  64.465  1.00  0.00    -0.110 A  
HETATM   14  C   UNL     1     -11.523  15.518  64.382  1.00  0.00    -0.264 A  
HETATM   15  C   UNL     1     -12.494  14.520  64.425  1.00  0.00    -0.335 A  
HETATM   16  C   UNL     1      -7.374  10.223  65.578  1.00  0.00    -0.149 A  
HETATM   17  N   UNL     1      -8.329  10.972  66.170  1.00  0.00    -0.169 NA 
HETATM   18  C   UNL     1     -12.219  13.301  65.048  1.00  0.00    -0.477 A  
ENDBRANCH   4   5
ENDBRANCH   2   4
TORSDOF 2
ENDMDL
MODEL       70
REMARK 921   NORMALIZED FREE ENERGY PREDICTED BY IDOCK:   -4.20 KCAL/MOL
REMARK 922        TOTAL FREE ENERGY PREDICTED BY IDOCK:   -4.87 KCAL/MOL
REMARK 923 INTER-LIGAND FREE ENERGY PREDICTED BY IDOCK:   -4.65 KCAL/MOL
REMARK 924 INTRA-LIGAND FREE ENERGY PREDICTED BY IDOCK:   -0.21 KCAL/MOL
REMARK 927      BINDING AFFINITY PREDICTED BY RF-SCORE:    0.00 PKD
ROOT
HETATM    1  C   UNL     1     -14.017   8.743  71.842  1.00  0.00    -0.436 C  
HETATM    2  N   UNL     1     -12.857   9.495  71.359  1.00  0.00    -0.341 NA 
HETATM    3  C   UNL     1     -13.027  10.918  71.665  1.00  0.00    -0.464 C  
ENDROOT
BRANCH   2   4
HETATM    4  C   UNL     1     -11.595   9.010  71.950  1.00  0.00    -0.370 C  
BRANCH   4   5
HETATM    5  C   UNL     1     -10.864   7.952  71.113  1.00  0.00    -0.257 C  
HETATM    6  C   UNL     1     -10.988   8.150  69.584  1.00  0.00    -0.094 C  
HETATM    7  C   UNL     1     -10.308   9.430  69.107  1.00  0.00    -0.221 A  
HETATM    8  C   UNL     1     -10.496   6.915  68.829  1.00  0.00    -0.205 A  
HETATM    9  C   UNL     1      -8.929   9.630  69.281  1.00  0.00    -0.173 A  
HETATM   10  C   UNL     1     -11.009   6.623  67.565  1.00  0.00    -0.416 A  
HETATM   11  C   UNL     1      -8.323  10.819  68.871  1.00  0.00    -0.147 A  
HETATM   12  C   UNL     1     -10.585   5.467  66.913  1.00  0.00    -0.348 A  
HETATM   13  C   UNL     1      -9.658   4.638  67.530  1.00  0.00    -0.198 A  
HETATM   14  C   UNL     1      -9.084  11.820  68.271  1.00  0.00    -0.187 A  
HETATM   15  C   UNL     1     -10.452  11.633  68.083  1.00  0.00    -0.217 A  
HETATM   16  C   UNL     1      -9.180   5.006  68.775  1.00  0.00    -0.122 A  
HETATM   17  N   UNL     1      -9.572   6.120  69.430  1.00  0.00    -0.137 NA 
HETATM   18  C   UNL     1     -11.062  10.448  68.500  1.00  0.00    -0.318 A  
ENDBRANCH   4   5
ENDBRANCH   2   4
TORSDOF 2
ENDMDL
MODEL       71
REMARK 921   NORMALIZED FREE ENERGY PREDICTED BY IDOCK:   -4.19 KCAL/MOL
REMARK 922        TOTAL FREE ENERGY PREDICTED BY IDOCK:   -4.85 KCAL/MOL
REMARK 923 INTER-LIGAND FREE ENERGY PREDICTED BY IDOCK:   -4.68 KCAL/MOL
REMARK 924 INTRA-LIGAND FREE ENERGY PREDICTED BY IDOCK:   -0.17 KCAL/MOL
REMARK 927      BINDING AFFINITY PREDICTED BY RF-SCORE:    0.00 PKD
ROOT
HETATM    1  C   UNL     1     -11.056   9.697  71.146  1.00  0.00    -0.374 C  
HETATM    2  N   UNL     1     -12.265  10.231  70.515  1.00  0.00    -0.299 NA 
HETATM    3  C   UNL     1     -12.896  11.210  71.404  1.00  0.00    -0.439 C  
ENDROOT
BRANCH   2   4
HETATM    4  C   UNL     1     -11.979  10.860  69.211  1.00  0.00    -0.310 C  
BRANCH   4   5
HETATM    5  C   UNL     1     -10.498  11.177  68.966  1.00  0.00    -0.233 C  
HETATM    6  C   UNL     1     -10.084  11.177  67.476  1.00  0.00    -0.210 C  
HETATM    7  C   UNL     1     -10.762  12.292  66.685  1.00  0.00    -0.276 A  
HETATM    8  C   UNL     1      -8.561  11.204  67.330  1.00  0.00    -0.137 A  
HETATM    9  C   UNL     1     -10.556  13.643  67.009  1.00  0.00    -0.274 A  
HETATM   10  C   UNL     1      -7.963  10.656  66.195  1.00  0.00    -0.151 A  
HETATM   11  C   UNL     1     -11.208  14.654  66.300  1.00  0.00    -0.340 A  
HETATM   12  C   UNL     1      -6.573  10.645  66.102  1.00  0.00    -0.130 A  
HETATM   13  C   UNL     1      -5.816  11.186  67.133  1.00  0.00    -0.072 A  
HETATM   14  C   UNL     1     -12.064  14.329  65.250  1.00  0.00    -0.400 A  
HETATM   15  C   UNL     1     -12.271  12.994  64.910  1.00  0.00    -0.490 A  
HETATM   16  C   UNL     1      -6.484  11.730  68.216  1.00  0.00    -0.051 A  
HETATM   17  N   UNL     1      -7.829  11.755  68.333  1.00  0.00    -0.135 NA 
HETATM   18  C   UNL     1     -11.627  11.981  65.624  1.00  0.00    -0.356 A  
ENDBRANCH   4   5
ENDBRANCH   2   4
TORSDOF 2
ENDMDL
MODEL       72
REMARK 921   NORMALIZED FREE ENERGY PREDICTED BY IDOCK:   -4.18 KCAL/MOL
REMARK 922        TOTAL FREE ENERGY PREDICTED BY IDOCK:   -4.85 KCAL/MOL
REMARK 923 INTER-LIGAND FREE ENERGY PREDICTED BY IDOCK:   -4.69 KCAL/MOL
REMARK 924 INTRA-LIGAND FREE ENERGY PREDICTED BY IDOCK:   -0.15 KCAL/MOL
REMARK 927      BINDING AFFINITY PREDICTED BY RF-SCORE:    0.00 PKD
ROOT
HETATM    1  C   UNL     1     -10.668  13.745  68.315  1.00  0.00    -0.253 C  
HETATM    2  N   UNL     1     -11.645  13.241  67.347  1.00  0.00    -0.331 NA 
HETATM    3  C   UNL     1     -11.966  14.290  66.376  1.00  0.00    -0.419 C  
ENDROOT
BRANCH   2   4
HETATM    4  C   UNL     1     -11.156  12.044  66.637  1.00  0.00    -0.310 C  
BRANCH   4   5
HETATM    5  C   UNL     1     -10.857  10.842  67.544  1.00  0.00    -0.342 C  
HETATM    6  C   UNL     1     -10.451   9.557  66.785  1.00  0.00    -0.263 C  
HETATM    7  C   UNL     1      -9.124   9.712  66.049  1.00  0.00    -0.212 A  
HETATM    8  C   UNL     1     -10.460   8.344  67.717  1.00  0.00    -0.220 A  
HETATM    9  C   UNL     1      -7.935   9.987  66.742  1.00  0.00    -0.114 A  
HETATM   10  C   UNL     1     -10.690   7.070  67.196  1.00  0.00    -0.433 A  
HETATM   11  C   UNL     1      -6.732  10.161  66.055  1.00  0.00    -0.106 A  
HETATM   12  C   UNL     1     -10.743   5.983  68.067  1.00  0.00    -0.359 A  
HETATM   13  C   UNL     1     -10.559   6.190  69.428  1.00  0.00    -0.349 A  
HETATM   14  C   UNL     1      -6.699  10.049  64.667  1.00  0.00    -0.128 A  
HETATM   15  C   UNL     1      -7.868   9.766  63.965  1.00  0.00    -0.141 A  
HETATM   16  C   UNL     1     -10.315   7.480  69.864  1.00  0.00    -0.223 A  
HETATM   17  N   UNL     1     -10.257   8.551  69.044  1.00  0.00    -0.204 NA 
HETATM   18  C   UNL     1      -9.074   9.601  64.649  1.00  0.00    -0.286 A  
ENDBRANCH   4   5
ENDBRANCH   2   4
TORSDOF 2
ENDMDL
MODEL       73
REMARK 921   NORMALIZED FREE ENERGY PREDICTED BY IDOCK:   -4.18 KCAL/MOL
REMARK 922        TOTAL FREE ENERGY PREDICTED BY IDOCK:   -4.84 KCAL/MOL
REMARK 923 INTER-LIGAND FREE ENERGY PREDICTED BY IDOCK:   -4.67 KCAL/MOL
REMARK 924 INTRA-LIGAND FREE ENERGY PREDICTED BY IDOCK:   -0.17 KCAL/MOL
REMARK 927      BINDING AFFINITY PREDICTED BY RF-SCORE:    0.00 PKD
ROOT
HETATM    1  C   UNL     1      -9.743   4.765  68.406  1.00  0.00    -0.146 C  
HETATM    2  N   UNL     1      -9.684   5.750  67.324  1.00  0.00    -0.122 NA 
HETATM    3  C   UNL     1      -9.684   5.065  66.029  1.00  0.00    -0.180 C  
ENDROOT
BRANCH   2   4
HETATM    4  C   UNL     1     -10.809   6.703  67.379  1.00  0.00    -0.363 C  
BRANCH   4   5
HETATM    5  C   UNL     1     -10.429   8.158  67.070  1.00  0.00    -0.396 C  
HETATM    6  C   UNL     1     -10.999   9.191  68.069  1.00  0.00    -0.032 C  
HETATM    7  C   UNL     1     -10.419   9.024  69.471  1.00  0.00    -0.223 A  
HETATM    8  C   UNL     1     -10.833  10.616  67.539  1.00  0.00    -0.296 A  
HETATM    9  C   UNL     1      -9.044   9.165  69.712  1.00  0.00    -0.173 A  
HETATM   10  C   UNL     1     -11.722  11.614  67.940  1.00  0.00    -0.329 A  
HETATM   11  C   UNL     1      -8.520   8.976  70.992  1.00  0.00    -0.254 A  
HETATM   12  C   UNL     1     -11.585  12.895  67.409  1.00  0.00    -0.414 A  
HETATM   13  C   UNL     1     -10.566  13.151  66.501  1.00  0.00    -0.290 A  
HETATM   14  C   UNL     1      -9.367   8.656  72.052  1.00  0.00    -0.362 A  
HETATM   15  C   UNL     1     -10.735   8.522  71.832  1.00  0.00    -0.394 A  
HETATM   16  C   UNL     1      -9.712  12.114  66.169  1.00  0.00    -0.240 A  
HETATM   17  N   UNL     1      -9.820  10.864  66.668  1.00  0.00    -0.192 NA 
HETATM   18  C   UNL     1     -11.260   8.702  70.550  1.00  0.00    -0.266 A  
ENDBRANCH   4   5
ENDBRANCH   2   4
TORSDOF 2
ENDMDL
MODEL       74
REMARK 921   NORMALIZED FREE ENERGY PREDICTED BY IDOCK:   -4.18 KCAL/MOL
REMARK 922        TOTAL FREE ENERGY PREDICTED BY IDOCK:   -4.84 KCAL/MOL
REMARK 923 INTER-LIGAND FREE ENERGY PREDICTED BY IDOCK:   -4.69 KCAL/MOL
REMARK 924 INTRA-LIGAND FREE ENERGY PREDICTED BY IDOCK:   -0.15 KCAL/MOL
REMARK 927      BINDING AFFINITY PREDICTED BY RF-SCORE:    0.00 PKD
ROOT
HETATM    1  C   UNL     1      -5.444  12.438  70.351  1.00  0.00    -0.150 C  
HETATM    2  N   UNL     1      -6.215  12.965  69.223  1.00  0.00    -0.098 NA 
HETATM    3  C   UNL     1      -5.328  13.192  68.079  1.00  0.00    -0.106 C  
ENDROOT
BRANCH   2   4
HETATM    4  C   UNL     1      -7.309  12.057  68.827  1.00  0.00    -0.098 C  
BRANCH   4   5
HETATM    5  C   UNL     1      -8.569  12.764  68.309  1.00  0.00    -0.166 C  
HETATM    6  C   UNL     1      -9.614  11.818  67.672  1.00  0.00    -0.184 C  
HETATM    7  C   UNL     1     -10.212  10.847  68.686  1.00  0.00    -0.201 A  
HETATM    8  C   UNL     1     -10.686  12.611  66.924  1.00  0.00    -0.242 A  
HETATM    9  C   UNL     1     -10.929  11.308  69.800  1.00  0.00    -0.170 A  
HETATM   10  C   UNL     1     -11.358  12.027  65.849  1.00  0.00    -0.391 A  
HETATM   11  C   UNL     1     -11.444  10.412  70.739  1.00  0.00    -0.422 A  
HETATM   12  C   UNL     1     -12.297  12.782  65.149  1.00  0.00    -0.555 A  
HETATM   13  C   UNL     1     -12.549  14.090  65.539  1.00  0.00    -0.543 A  
HETATM   14  C   UNL     1     -11.258   9.042  70.570  1.00  0.00    -0.301 A  
HETATM   15  C   UNL     1     -10.558   8.567  69.463  1.00  0.00    -0.215 A  
HETATM   16  C   UNL     1     -11.857  14.590  66.628  1.00  0.00    -0.366 A  
HETATM   17  N   UNL     1     -10.943  13.884  67.325  1.00  0.00    -0.286 NA 
HETATM   18  C   UNL     1     -10.034   9.462  68.528  1.00  0.00    -0.190 A  
ENDBRANCH   4   5
ENDBRANCH   2   4
TORSDOF 2
ENDMDL
MODEL       75
REMARK 921   NORMALIZED FREE ENERGY PREDICTED BY IDOCK:   -4.17 KCAL/MOL
REMARK 922        TOTAL FREE ENERGY PREDICTED BY IDOCK:   -4.83 KCAL/MOL
REMARK 923 INTER-LIGAND FREE ENERGY PREDICTED BY IDOCK:   -4.86 KCAL/MOL
REMARK 924 INTRA-LIGAND FREE ENERGY PREDICTED BY IDOCK:    0.03 KCAL/MOL
REMARK 927      BINDING AFFINITY PREDICTED BY RF-SCORE:    0.00 PKD
ROOT
HETATM    1  C   UNL     1     -12.463  12.752  70.556  1.00  0.00    -0.202 C  
HETATM    2  N   UNL     1     -12.163  14.043  69.933  1.00  0.00    -0.334 NA 
HETATM    3  C   UNL     1     -11.821  15.023  70.967  1.00  0.00    -0.323 C  
ENDROOT
BRANCH   2   4
HETATM    4  C   UNL     1     -11.060  13.946  68.959  1.00  0.00    -0.268 C  
BRANCH   4   5
HETATM    5  C   UNL     1     -10.878  15.187  68.075  1.00  0.00    -0.284 C  
HETATM    6  C   UNL     1      -9.877  16.226  68.632  1.00  0.00    -0.230 C  
HETATM    7  C   UNL     1      -8.450  15.687  68.686  1.00  0.00    -0.179 A  
HETATM    8  C   UNL     1      -9.971  17.546  67.864  1.00  0.00    -0.312 A  
HETATM    9  C   UNL     1      -7.781  15.285  67.520  1.00  0.00    -0.200 A  
HETATM   10  C   UNL     1      -9.626  18.742  68.495  1.00  0.00    -0.413 A  
HETATM   11  C   UNL     1      -6.488  14.761  67.584  1.00  0.00    -0.162 A  
HETATM   12  C   UNL     1      -9.765  19.939  67.795  1.00  0.00    -0.516 A  
HETATM   13  C   UNL     1     -10.234  19.914  66.488  1.00  0.00    -0.611 A  
HETATM   14  C   UNL     1      -5.842  14.644  68.813  1.00  0.00    -0.085 A  
HETATM   15  C   UNL     1      -6.489  15.049  69.978  1.00  0.00    -0.160 A  
HETATM   16  C   UNL     1     -10.534  18.686  65.926  1.00  0.00    -0.356 A  
HETATM   17  N   UNL     1     -10.410  17.511  66.579  1.00  0.00    -0.339 NA 
HETATM   18  C   UNL     1      -7.786  15.564  69.917  1.00  0.00     0.112 A  
ENDBRANCH   4   5
ENDBRANCH   2   4
TORSDOF 2
ENDMDL
MODEL       76
REMARK 921   NORMALIZED FREE ENERGY PREDICTED BY IDOCK:   -4.14 KCAL/MOL
REMARK 922        TOTAL FREE ENERGY PREDICTED BY IDOCK:   -4.79 KCAL/MOL
REMARK 923 INTER-LIGAND FREE ENERGY PREDICTED BY IDOCK:   -4.62 KCAL/MOL
REMARK 924 INTRA-LIGAND FREE ENERGY PREDICTED BY IDOCK:   -0.17 KCAL/MOL
REMARK 927      BINDING AFFINITY PREDICTED BY RF-SCORE:    0.00 PKD
ROOT
HETATM    1  C   UNL     1      -7.024  11.231  68.699  1.00  0.00    -0.084 C  
HETATM    2  N   UNL     1      -8.239  10.416  68.741  1.00  0.00    -0.120 NA 
HETATM    3  C   UNL     1      -8.287   9.537  67.570  1.00  0.00    -0.125 C  
ENDROOT
BRANCH   2   4
HETATM    4  C   UNL     1      -8.321   9.605  69.971  1.00  0.00    -0.182 C  
BRANCH   4   5
HETATM    5  C   UNL     1      -9.706   9.582  70.630  1.00  0.00    -0.311 C  
HETATM    6  C   UNL     1     -10.217   8.167  70.992  1.00  0.00    -0.221 C  
HETATM    7  C   UNL     1      -9.365   7.500  72.067  1.00  0.00    -0.165 A  
HETATM    8  C   UNL     1     -11.701   8.198  71.362  1.00  0.00    -0.285 A  
HETATM    9  C   UNL     1      -9.237   8.062  73.347  1.00  0.00    -0.332 A  
HETATM   10  C   UNL     1     -12.488   7.062  71.170  1.00  0.00    -0.407 A  
HETATM   11  C   UNL     1      -8.427   7.461  74.313  1.00  0.00    -0.251 A  
HETATM   12  C   UNL     1     -13.848   7.124  71.467  1.00  0.00    -0.421 A  
HETATM   13  C   UNL     1     -14.386   8.308  71.954  1.00  0.00    -0.564 A  
HETATM   14  C   UNL     1      -7.745   6.283  74.016  1.00  0.00    -0.091 A  
HETATM   15  C   UNL     1      -7.869   5.707  72.754  1.00  0.00    -0.102 A  
HETATM   16  C   UNL     1     -13.536   9.383  72.137  1.00  0.00    -0.457 A  
HETATM   17  N   UNL     1     -12.215   9.353  71.859  1.00  0.00    -0.374 NA 
HETATM   18  C   UNL     1      -8.671   6.312  71.784  1.00  0.00    -0.133 A  
ENDBRANCH   4   5
ENDBRANCH   2   4
TORSDOF 2
ENDMDL
MODEL       77
REMARK 921   NORMALIZED FREE ENERGY PREDICTED BY IDOCK:   -4.11 KCAL/MOL
REMARK 922        TOTAL FREE ENERGY PREDICTED BY IDOCK:   -4.77 KCAL/MOL
REMARK 923 INTER-LIGAND FREE ENERGY PREDICTED BY IDOCK:   -4.47 KCAL/MOL
REMARK 924 INTRA-LIGAND FREE ENERGY PREDICTED BY IDOCK:   -0.30 KCAL/MOL
REMARK 927      BINDING AFFINITY PREDICTED BY RF-SCORE:    0.00 PKD
ROOT
HETATM    1  C   UNL     1     -12.054  10.550  71.152  1.00  0.00    -0.370 C  
HETATM    2  N   UNL     1     -11.165  10.461  69.992  1.00  0.00    -0.295 NA 
HETATM    3  C   UNL     1     -10.535   9.139  69.951  1.00  0.00    -0.223 C  
ENDROOT
BRANCH   2   4
HETATM    4  C   UNL     1     -11.880  10.706  68.725  1.00  0.00    -0.107 C  
BRANCH   4   5
HETATM    5  C   UNL     1     -11.514  12.025  68.030  1.00  0.00    -0.392 C  
HETATM    6  C   UNL     1     -10.018  12.159  67.665  1.00  0.00    -0.199 C  
HETATM    7  C   UNL     1      -9.582  11.139  66.617  1.00  0.00    -0.215 A  
HETATM    8  C   UNL     1      -9.680  13.594  67.255  1.00  0.00    -0.243 A  
HETATM    9  C   UNL     1     -10.157  11.119  65.337  1.00  0.00    -0.317 A  
HETATM   10  C   UNL     1      -8.384  14.080  67.434  1.00  0.00    -0.207 A  
HETATM   11  C   UNL     1      -9.775  10.160  64.397  1.00  0.00    -0.345 A  
HETATM   12  C   UNL     1      -8.107  15.404  67.101  1.00  0.00    -0.249 A  
HETATM   13  C   UNL     1      -9.121  16.205  66.591  1.00  0.00    -0.282 A  
HETATM   14  C   UNL     1      -8.803   9.215  64.720  1.00  0.00    -0.200 A  
HETATM   15  C   UNL     1      -8.215   9.228  65.982  1.00  0.00    -0.111 A  
HETATM   16  C   UNL     1     -10.374  15.643  66.423  1.00  0.00    -0.296 A  
HETATM   17  N   UNL     1     -10.671  14.364  66.737  1.00  0.00    -0.289 NA 
HETATM   18  C   UNL     1      -8.602  10.181  66.927  1.00  0.00    -0.127 A  
ENDBRANCH   4   5
ENDBRANCH   2   4
TORSDOF 2
ENDMDL
MODEL       78
REMARK 921   NORMALIZED FREE ENERGY PREDICTED BY IDOCK:   -4.11 KCAL/MOL
REMARK 922        TOTAL FREE ENERGY PREDICTED BY IDOCK:   -4.77 KCAL/MOL
REMARK 923 INTER-LIGAND FREE ENERGY PREDICTED BY IDOCK:   -4.55 KCAL/MOL
REMARK 924 INTRA-LIGAND FREE ENERGY PREDICTED BY IDOCK:   -0.22 KCAL/MOL
REMARK 927      BINDING AFFINITY PREDICTED BY RF-SCORE:    0.00 PKD
ROOT
HETATM    1  C   UNL     1      -6.605   8.481  72.312  1.00  0.00    -0.084 C  
HETATM    2  N   UNL     1      -7.130   7.192  71.858  1.00  0.00    -0.071 NA 
HETATM    3  C   UNL     1      -7.991   6.616  72.894  1.00  0.00    -0.103 C  
ENDROOT
BRANCH   2   4
HETATM    4  C   UNL     1      -7.887   7.313  70.598  1.00  0.00    -0.094 C  
BRANCH   4   5
HETATM    5  C   UNL     1      -9.412   7.254  70.760  1.00  0.00    -0.164 C  
HETATM    6  C   UNL     1     -10.127   8.611  70.566  1.00  0.00    -0.228 C  
HETATM    7  C   UNL     1     -10.000   9.135  69.139  1.00  0.00    -0.189 A  
HETATM    8  C   UNL     1     -11.583   8.535  71.030  1.00  0.00    -0.279 A  
HETATM    9  C   UNL     1     -10.516   8.415  68.051  1.00  0.00    -0.242 A  
HETATM   10  C   UNL     1     -12.229   9.686  71.479  1.00  0.00    -0.483 A  
HETATM   11  C   UNL     1     -10.365   8.888  66.745  1.00  0.00    -0.317 A  
HETATM   12  C   UNL     1     -13.539   9.588  71.944  1.00  0.00    -0.468 A  
HETATM   13  C   UNL     1     -14.173   8.353  71.941  1.00  0.00    -0.541 A  
HETATM   14  C   UNL     1      -9.706  10.093  66.512  1.00  0.00    -0.252 A  
HETATM   15  C   UNL     1      -9.197  10.825  67.583  1.00  0.00    -0.152 A  
HETATM   16  C   UNL     1     -13.472   7.262  71.460  1.00  0.00    -0.363 A  
HETATM   17  N   UNL     1     -12.203   7.326  71.004  1.00  0.00    -0.329 NA 
HETATM   18  C   UNL     1      -9.340  10.349  68.888  1.00  0.00    -0.190 A  
ENDBRANCH   4   5
ENDBRANCH   2   4
TORSDOF 2
ENDMDL
MODEL       79
REMARK 921   NORMALIZED FREE ENERGY PREDICTED BY IDOCK:   -4.10 KCAL/MOL
REMARK 922        TOTAL FREE ENERGY PREDICTED BY IDOCK:   -4.76 KCAL/MOL
REMARK 923 INTER-LIGAND FREE ENERGY PREDICTED BY IDOCK:   -4.45 KCAL/MOL
REMARK 924 INTRA-LIGAND FREE ENERGY PREDICTED BY IDOCK:   -0.31 KCAL/MOL
REMARK 927      BINDING AFFINITY PREDICTED BY RF-SCORE:    0.00 PKD
ROOT
HETATM    1  C   UNL     1     -10.165  11.957  63.998  1.00  0.00    -0.361 C  
HETATM    2  N   UNL     1      -9.787  10.579  63.675  1.00  0.00    -0.320 NA 
HETATM    3  C   UNL     1      -9.168  10.534  62.348  1.00  0.00    -0.272 C  
ENDROOT
BRANCH   2   4
HETATM    4  C   UNL     1      -8.861  10.010  64.672  1.00  0.00    -0.200 C  
BRANCH   4   5
HETATM    5  C   UNL     1      -9.517   9.065  65.688  1.00  0.00    -0.273 C  
HETATM    6  C   UNL     1      -9.246   9.430  67.166  1.00  0.00    -0.159 C  
HETATM    7  C   UNL     1      -9.868  10.767  67.558  1.00  0.00    -0.197 A  
HETATM    8  C   UNL     1      -9.673   8.295  68.098  1.00  0.00    -0.158 A  
HETATM    9  C   UNL     1     -11.255  10.971  67.494  1.00  0.00    -0.372 A  
HETATM   10  C   UNL     1      -9.044   8.137  69.333  1.00  0.00    -0.148 A  
HETATM   11  C   UNL     1     -11.810  12.210  67.822  1.00  0.00    -0.327 A  
HETATM   12  C   UNL     1      -9.412   7.068  70.148  1.00  0.00    -0.162 A  
HETATM   13  C   UNL     1     -10.401   6.192  69.718  1.00  0.00    -0.269 A  
HETATM   14  C   UNL     1     -10.986  13.257  68.231  1.00  0.00    -0.280 A  
HETATM   15  C   UNL     1      -9.609  13.067  68.310  1.00  0.00    -0.213 A  
HETATM   16  C   UNL     1     -10.992   6.429  68.490  1.00  0.00    -0.319 A  
HETATM   17  N   UNL     1     -10.656   7.455  67.680  1.00  0.00    -0.243 NA 
HETATM   18  C   UNL     1      -9.051  11.832  67.973  1.00  0.00    -0.180 A  
ENDBRANCH   4   5
ENDBRANCH   2   4
TORSDOF 2
ENDMDL
MODEL       80
REMARK 921   NORMALIZED FREE ENERGY PREDICTED BY IDOCK:   -4.10 KCAL/MOL
REMARK 922        TOTAL FREE ENERGY PREDICTED BY IDOCK:   -4.75 KCAL/MOL
REMARK 923 INTER-LIGAND FREE ENERGY PREDICTED BY IDOCK:   -4.45 KCAL/MOL
REMARK 924 INTRA-LIGAND FREE ENERGY PREDICTED BY IDOCK:   -0.30 KCAL/MOL
REMARK 927      BINDING AFFINITY PREDICTED BY RF-SCORE:    0.00 PKD
ROOT
HETATM    1  C   UNL     1     -10.997   6.361  67.126  1.00  0.00    -0.399 C  
HETATM    2  N   UNL     1     -10.052   7.401  67.537  1.00  0.00    -0.174 NA 
HETATM    3  C   UNL     1      -9.226   6.910  68.644  1.00  0.00    -0.130 C  
ENDROOT
BRANCH   2   4
HETATM    4  C   UNL     1      -9.183   7.832  66.426  1.00  0.00    -0.180 C  
BRANCH   4   5
HETATM    5  C   UNL     1      -9.683   9.067  65.666  1.00  0.00    -0.178 C  
HETATM    6  C   UNL     1      -9.950  10.301  66.559  1.00  0.00    -0.280 C  
HETATM    7  C   UNL     1      -8.674  10.842  67.198  1.00  0.00    -0.131 A  
HETATM    8  C   UNL     1     -10.717  11.379  65.792  1.00  0.00    -0.251 A  
HETATM    9  C   UNL     1      -7.612  11.318  66.414  1.00  0.00    -0.072 A  
HETATM   10  C   UNL     1     -11.535  12.274  66.482  1.00  0.00    -0.438 A  
HETATM   11  C   UNL     1      -6.436  11.779  67.008  1.00  0.00    -0.147 A  
HETATM   12  C   UNL     1     -12.264  13.217  65.761  1.00  0.00    -0.510 A  
HETATM   13  C   UNL     1     -12.154  13.252  64.377  1.00  0.00    -0.471 A  
HETATM   14  C   UNL     1      -6.310  11.782  68.396  1.00  0.00    -0.051 A  
HETATM   15  C   UNL     1      -7.359  11.322  69.189  1.00  0.00    -0.104 A  
HETATM   16  C   UNL     1     -11.305  12.345  63.768  1.00  0.00    -0.464 A  
HETATM   17  N   UNL     1     -10.587  11.421  64.440  1.00  0.00    -0.321 NA 
HETATM   18  C   UNL     1      -8.532  10.852  68.596  1.00  0.00    -0.152 A  
ENDBRANCH   4   5
ENDBRANCH   2   4
TORSDOF 2
ENDMDL
MODEL       81
REMARK 921   NORMALIZED FREE ENERGY PREDICTED BY IDOCK:   -4.10 KCAL/MOL
REMARK 922        TOTAL FREE ENERGY PREDICTED BY IDOCK:   -4.75 KCAL/MOL
REMARK 923 INTER-LIGAND FREE ENERGY PREDICTED BY IDOCK:   -4.58 KCAL/MOL
REMARK 924 INTRA-LIGAND FREE ENERGY PREDICTED BY IDOCK:   -0.17 KCAL/MOL
REMARK 927      BINDING AFFINITY PREDICTED BY RF-SCORE:    0.00 PKD
ROOT
HETATM    1  C   UNL     1      -5.852  14.785  68.098  1.00  0.00    -0.138 C  
HETATM    2  N   UNL     1      -6.088  13.439  67.571  1.00  0.00    -0.313 NA 
HETATM    3  C   UNL     1      -5.532  12.442  68.489  1.00  0.00    -0.055 C  
ENDROOT
BRANCH   2   4
HETATM    4  C   UNL     1      -7.523  13.170  67.360  1.00  0.00    -0.124 C  
BRANCH   4   5
HETATM    5  C   UNL     1      -7.842  11.749  66.876  1.00  0.00    -0.141 C  
HETATM    6  C   UNL     1      -9.318  11.328  67.065  1.00  0.00    -0.183 C  
HETATM    7  C   UNL     1     -10.273  12.155  66.209  1.00  0.00    -0.249 A  
HETATM    8  C   UNL     1      -9.492   9.825  66.841  1.00  0.00    -0.160 A  
HETATM    9  C   UNL     1     -10.182  12.153  64.809  1.00  0.00    -0.310 A  
HETATM   10  C   UNL     1     -10.529   9.143  67.479  1.00  0.00    -0.335 A  
HETATM   11  C   UNL     1     -11.039  12.940  64.037  1.00  0.00    -0.455 A  
HETATM   12  C   UNL     1     -10.642   7.766  67.302  1.00  0.00    -0.376 A  
HETATM   13  C   UNL     1      -9.728   7.105  66.491  1.00  0.00    -0.199 A  
HETATM   14  C   UNL     1     -12.006  13.731  64.655  1.00  0.00    -0.445 A  
HETATM   15  C   UNL     1     -12.115  13.736  66.043  1.00  0.00    -0.470 A  
HETATM   16  C   UNL     1      -8.741   7.854  65.877  1.00  0.00    -0.154 A  
HETATM   17  N   UNL     1      -8.607   9.189  66.029  1.00  0.00    -0.140 NA 
HETATM   18  C   UNL     1     -11.253  12.957  66.817  1.00  0.00    -0.337 A  
ENDBRANCH   4   5
ENDBRANCH   2   4
TORSDOF 2
ENDMDL
MODEL       82
REMARK 921   NORMALIZED FREE ENERGY PREDICTED BY IDOCK:   -4.09 KCAL/MOL
REMARK 922        TOTAL FREE ENERGY PREDICTED BY IDOCK:   -4.75 KCAL/MOL
REMARK 923 INTER-LIGAND FREE ENERGY PREDICTED BY IDOCK:   -4.51 KCAL/MOL
REMARK 924 INTRA-LIGAND FREE ENERGY PREDICTED BY IDOCK:   -0.23 KCAL/MOL
REMARK 927      BINDING AFFINITY PREDICTED BY RF-SCORE:    0.00 PKD
ROOT
HETATM    1  C   UNL     1      -7.327  12.837  67.590  1.00  0.00    -0.144 C  
HETATM    2  N   UNL     1      -7.479  11.387  67.733  1.00  0.00    -0.095 NA 
HETATM    3  C   UNL     1      -6.340  10.706  67.111  1.00  0.00    -0.070 C  
ENDROOT
BRANCH   2   4
HETATM    4  C   UNL     1      -7.588  10.977  69.146  1.00  0.00    -0.113 C  
BRANCH   4   5
HETATM    5  C   UNL     1      -8.695   9.953  69.430  1.00  0.00    -0.186 C  
HETATM    6  C   UNL     1     -10.038  10.575  69.880  1.00  0.00    -0.048 C  
HETATM    7  C   UNL     1     -10.684  11.416  68.783  1.00  0.00    -0.240 A  
HETATM    8  C   UNL     1     -10.983   9.503  70.424  1.00  0.00    -0.278 A  
HETATM    9  C   UNL     1     -11.063  10.847  67.558  1.00  0.00    -0.375 A  
HETATM   10  C   UNL     1     -11.952   9.846  71.367  1.00  0.00    -0.489 A  
HETATM   11  C   UNL     1     -11.623  11.632  66.548  1.00  0.00    -0.166 A  
HETATM   12  C   UNL     1     -12.773   8.847  71.888  1.00  0.00    -0.436 A  
HETATM   13  C   UNL     1     -12.614   7.538  71.451  1.00  0.00    -0.382 A  
HETATM   14  C   UNL     1     -11.823  12.995  66.756  1.00  0.00    -0.451 A  
HETATM   15  C   UNL     1     -11.463  13.574  67.970  1.00  0.00    -0.342 A  
HETATM   16  C   UNL     1     -11.644   7.282  70.498  1.00  0.00    -0.258 A  
HETATM   17  N   UNL     1     -10.836   8.229  69.976  1.00  0.00    -0.247 NA 
HETATM   18  C   UNL     1     -10.894  12.791  68.978  1.00  0.00    -0.192 A  
ENDBRANCH   4   5
ENDBRANCH   2   4
TORSDOF 2
ENDMDL
MODEL       83
REMARK 921   NORMALIZED FREE ENERGY PREDICTED BY IDOCK:   -4.09 KCAL/MOL
REMARK 922        TOTAL FREE ENERGY PREDICTED BY IDOCK:   -4.74 KCAL/MOL
REMARK 923 INTER-LIGAND FREE ENERGY PREDICTED BY IDOCK:   -4.55 KCAL/MOL
REMARK 924 INTRA-LIGAND FREE ENERGY PREDICTED BY IDOCK:   -0.19 KCAL/MOL
REMARK 927      BINDING AFFINITY PREDICTED BY RF-SCORE:    0.00 PKD
ROOT
HETATM    1  C   UNL     1      -8.759   5.807  66.346  1.00  0.00    -0.128 C  
HETATM    2  N   UNL     1      -8.598   7.262  66.398  1.00  0.00    -0.131 NA 
HETATM    3  C   UNL     1      -7.964   7.734  65.164  1.00  0.00    -0.129 C  
ENDROOT
BRANCH   2   4
HETATM    4  C   UNL     1      -9.885   7.956  66.589  1.00  0.00    -0.241 C  
BRANCH   4   5
HETATM    5  C   UNL     1     -10.478   7.825  67.999  1.00  0.00    -0.244 C  
HETATM    6  C   UNL     1      -9.867   8.791  69.040  1.00  0.00    -0.183 C  
HETATM    7  C   UNL     1     -10.171  10.252  68.724  1.00  0.00    -0.205 A  
HETATM    8  C   UNL     1     -10.286   8.404  70.459  1.00  0.00    -0.196 A  
HETATM    9  C   UNL     1     -11.490  10.728  68.677  1.00  0.00    -0.365 A  
HETATM   10  C   UNL     1      -9.463   8.726  71.539  1.00  0.00    -0.341 A  
HETATM   11  C   UNL     1     -11.759  12.059  68.354  1.00  0.00    -0.390 A  
HETATM   12  C   UNL     1      -9.837   8.322  72.819  1.00  0.00    -0.333 A  
HETATM   13  C   UNL     1     -11.021   7.618  72.992  1.00  0.00    -0.457 A  
HETATM   14  C   UNL     1     -10.710  12.937  68.086  1.00  0.00    -0.258 A  
HETATM   15  C   UNL     1      -9.394  12.484  68.140  1.00  0.00    -0.210 A  
HETATM   16  C   UNL     1     -11.793   7.355  71.875  1.00  0.00    -0.297 A  
HETATM   17  N   UNL     1     -11.456   7.734  70.624  1.00  0.00    -0.271 NA 
HETATM   18  C   UNL     1      -9.124  11.150  68.454  1.00  0.00    -0.168 A  
ENDBRANCH   4   5
ENDBRANCH   2   4
TORSDOF 2
ENDMDL
MODEL       84
REMARK 921   NORMALIZED FREE ENERGY PREDICTED BY IDOCK:   -4.04 KCAL/MOL
REMARK 922        TOTAL FREE ENERGY PREDICTED BY IDOCK:   -4.69 KCAL/MOL
REMARK 923 INTER-LIGAND FREE ENERGY PREDICTED BY IDOCK:   -4.44 KCAL/MOL
REMARK 924 INTRA-LIGAND FREE ENERGY PREDICTED BY IDOCK:   -0.26 KCAL/MOL
REMARK 927      BINDING AFFINITY PREDICTED BY RF-SCORE:    0.00 PKD
ROOT
HETATM    1  C   UNL     1      -9.359   5.460  66.027  1.00  0.00    -0.156 C  
HETATM    2  N   UNL     1      -9.136   5.456  67.474  1.00  0.00    -0.108 NA 
HETATM    3  C   UNL     1      -8.314   6.608  67.853  1.00  0.00    -0.119 C  
ENDROOT
BRANCH   2   4
HETATM    4  C   UNL     1     -10.402   5.482  68.231  1.00  0.00    -0.173 C  
BRANCH   4   5
HETATM    5  C   UNL     1     -10.693   6.811  68.942  1.00  0.00    -0.276 C  
HETATM    6  C   UNL     1     -11.264   6.657  70.371  1.00  0.00    -0.398 C  
HETATM    7  C   UNL     1     -10.264   6.018  71.331  1.00  0.00    -0.253 A  
HETATM    8  C   UNL     1     -11.801   7.991  70.894  1.00  0.00    -0.224 A  
HETATM    9  C   UNL     1      -9.033   6.630  71.611  1.00  0.00    -0.141 A  
HETATM   10  C   UNL     1     -12.823   8.004  71.843  1.00  0.00    -0.343 A  
HETATM   11  C   UNL     1      -8.111   6.020  72.465  1.00  0.00    -0.105 A  
HETATM   12  C   UNL     1     -13.332   9.229  72.271  1.00  0.00    -0.547 A  
HETATM   13  C   UNL     1     -12.807  10.405  71.752  1.00  0.00    -0.561 A  
HETATM   14  C   UNL     1      -8.414   4.796  73.059  1.00  0.00    -0.103 A  
HETATM   15  C   UNL     1      -9.636   4.182  72.799  1.00  0.00    -0.170 A  
HETATM   16  C   UNL     1     -11.780  10.308  70.829  1.00  0.00    -0.360 A  
HETATM   17  N   UNL     1     -11.267   9.137  70.397  1.00  0.00    -0.247 NA 
HETATM   18  C   UNL     1     -10.556   4.786  71.938  1.00  0.00    -0.150 A  
ENDBRANCH   4   5
ENDBRANCH   2   4
TORSDOF 2
ENDMDL
MODEL       85
REMARK 921   NORMALIZED FREE ENERGY PREDICTED BY IDOCK:   -4.04 KCAL/MOL
REMARK 922        TOTAL FREE ENERGY PREDICTED BY IDOCK:   -4.69 KCAL/MOL
REMARK 923 INTER-LIGAND FREE ENERGY PREDICTED BY IDOCK:   -4.35 KCAL/MOL
REMARK 924 INTRA-LIGAND FREE ENERGY PREDICTED BY IDOCK:   -0.33 KCAL/MOL
REMARK 927      BINDING AFFINITY PREDICTED BY RF-SCORE:    0.00 PKD
ROOT
HETATM    1  C   UNL     1      -9.685  11.795  66.740  1.00  0.00    -0.197 C  
HETATM    2  N   UNL     1     -10.233  12.259  68.016  1.00  0.00    -0.201 NA 
HETATM    3  C   UNL     1     -10.745  13.624  67.869  1.00  0.00    -0.247 C  
ENDROOT
BRANCH   2   4
HETATM    4  C   UNL     1     -11.308  11.378  68.512  1.00  0.00    -0.271 C  
BRANCH   4   5
HETATM    5  C   UNL     1     -10.931  10.539  69.740  1.00  0.00    -0.350 C  
HETATM    6  C   UNL     1     -10.985   9.011  69.509  1.00  0.00    -0.118 C  
HETATM    7  C   UNL     1      -9.945   8.540  68.495  1.00  0.00    -0.201 A  
HETATM    8  C   UNL     1     -10.890   8.252  70.833  1.00  0.00    -0.230 A  
HETATM    9  C   UNL     1      -8.572   8.716  68.726  1.00  0.00    -0.130 A  
HETATM   10  C   UNL     1     -11.465   6.986  70.951  1.00  0.00    -0.349 A  
HETATM   11  C   UNL     1      -7.631   8.312  67.777  1.00  0.00    -0.102 A  
HETATM   12  C   UNL     1     -11.412   6.331  72.179  1.00  0.00    -0.354 A  
HETATM   13  C   UNL     1     -10.783   6.946  73.254  1.00  0.00    -0.349 A  
HETATM   14  C   UNL     1      -8.050   7.714  66.590  1.00  0.00    -0.119 A  
HETATM   15  C   UNL     1      -9.408   7.523  66.351  1.00  0.00    -0.211 A  
HETATM   16  C   UNL     1     -10.219   8.193  73.052  1.00  0.00    -0.203 A  
HETATM   17  N   UNL     1     -10.255   8.852  71.874  1.00  0.00    -0.343 NA 
HETATM   18  C   UNL     1     -10.352   7.935  67.295  1.00  0.00    -0.377 A  
ENDBRANCH   4   5
ENDBRANCH   2   4
TORSDOF 2
ENDMDL
MODEL       86
REMARK 921   NORMALIZED FREE ENERGY PREDICTED BY IDOCK:   -4.01 KCAL/MOL
REMARK 922        TOTAL FREE ENERGY PREDICTED BY IDOCK:   -4.66 KCAL/MOL
REMARK 923 INTER-LIGAND FREE ENERGY PREDICTED BY IDOCK:   -4.42 KCAL/MOL
REMARK 924 INTRA-LIGAND FREE ENERGY PREDICTED BY IDOCK:   -0.24 KCAL/MOL
REMARK 927      BINDING AFFINITY PREDICTED BY RF-SCORE:    0.00 PKD
ROOT
HETATM    1  C   UNL     1     -11.671   9.358  71.620  1.00  0.00    -0.398 C  
HETATM    2  N   UNL     1     -11.078   8.020  71.594  1.00  0.00    -0.244 NA 
HETATM    3  C   UNL     1     -11.003   7.485  72.956  1.00  0.00    -0.390 C  
ENDROOT
BRANCH   2   4
HETATM    4  C   UNL     1     -11.841   7.090  70.740  1.00  0.00    -0.355 C  
BRANCH   4   5
HETATM    5  C   UNL     1     -10.978   6.136  69.904  1.00  0.00    -0.458 C  
HETATM    6  C   UNL     1     -10.817   6.554  68.423  1.00  0.00    -0.357 C  
HETATM    7  C   UNL     1     -10.048   7.863  68.270  1.00  0.00    -0.225 A  
HETATM    8  C   UNL     1     -10.207   5.421  67.597  1.00  0.00    -0.186 A  
HETATM    9  C   UNL     1      -8.723   7.985  68.717  1.00  0.00    -0.131 A  
HETATM   10  C   UNL     1     -10.481   5.332  66.232  1.00  0.00    -0.311 A  
HETATM   11  C   UNL     1      -8.040   9.198  68.602  1.00  0.00    -0.102 A  
HETATM   12  C   UNL     1      -9.956   4.265  65.505  1.00  0.00    -0.233 A  
HETATM   13  C   UNL     1      -9.166   3.323  66.152  1.00  0.00    -0.155 A  
HETATM   14  C   UNL     1      -8.669  10.301  68.028  1.00  0.00    -0.122 A  
HETATM   15  C   UNL     1      -9.980  10.193  67.570  1.00  0.00    -0.231 A  
HETATM   16  C   UNL     1      -8.923   3.493  67.502  1.00  0.00    -0.145 A  
HETATM   17  N   UNL     1      -9.417   4.516  68.232  1.00  0.00    -0.141 NA 
HETATM   18  C   UNL     1     -10.668   8.984  67.692  1.00  0.00    -0.232 A  
ENDBRANCH   4   5
ENDBRANCH   2   4
TORSDOF 2
ENDMDL
MODEL       87
REMARK 921   NORMALIZED FREE ENERGY PREDICTED BY IDOCK:   -4.01 KCAL/MOL
REMARK 922        TOTAL FREE ENERGY PREDICTED BY IDOCK:   -4.65 KCAL/MOL
REMARK 923 INTER-LIGAND FREE ENERGY PREDICTED BY IDOCK:   -4.40 KCAL/MOL
REMARK 924 INTRA-LIGAND FREE ENERGY PREDICTED BY IDOCK:   -0.25 KCAL/MOL
REMARK 927      BINDING AFFINITY PREDICTED BY RF-SCORE:    0.00 PKD
ROOT
HETATM    1  C   UNL     1      -8.342   8.285  65.324  1.00  0.00    -0.166 C  
HETATM    2  N   UNL     1      -8.719   9.082  66.493  1.00  0.00    -0.126 NA 
HETATM    3  C   UNL     1      -8.321  10.478  66.291  1.00  0.00    -0.152 C  
ENDROOT
BRANCH   2   4
HETATM    4  C   UNL     1     -10.167   9.015  66.767  1.00  0.00    -0.271 C  
BRANCH   4   5
HETATM    5  C   UNL     1     -10.663  10.009  67.826  1.00  0.00    -0.333 C  
HETATM    6  C   UNL     1     -10.940   9.380  69.211  1.00  0.00    -0.137 C  
HETATM    7  C   UNL     1      -9.670   8.850  69.872  1.00  0.00    -0.185 A  
HETATM    8  C   UNL     1     -11.701  10.353  70.113  1.00  0.00    -0.312 A  
HETATM    9  C   UNL     1      -8.603   9.704  70.187  1.00  0.00    -0.243 A  
HETATM   10  C   UNL     1     -12.528   9.861  71.124  1.00  0.00    -0.464 A  
HETATM   11  C   UNL     1      -7.432   9.203  70.761  1.00  0.00    -0.133 A  
HETATM   12  C   UNL     1     -13.252  10.760  71.903  1.00  0.00    -0.524 A  
HETATM   13  C   UNL     1     -13.129  12.123  71.664  1.00  0.00    -0.413 A  
HETATM   14  C   UNL     1      -7.319   7.842  71.039  1.00  0.00    -0.062 A  
HETATM   15  C   UNL     1      -8.374   6.983  70.743  1.00  0.00    -0.129 A  
HETATM   16  C   UNL     1     -12.273  12.533  70.657  1.00  0.00    -0.276 A  
HETATM   17  N   UNL     1     -11.559  11.685  69.887  1.00  0.00    -0.302 NA 
HETATM   18  C   UNL     1      -9.542   7.481  70.160  1.00  0.00    -0.168 A  
ENDBRANCH   4   5
ENDBRANCH   2   4
TORSDOF 2
ENDMDL
MODEL       88
REMARK 921   NORMALIZED FREE ENERGY PREDICTED BY IDOCK:   -3.99 KCAL/MOL
REMARK 922        TOTAL FREE ENERGY PREDICTED BY IDOCK:   -4.63 KCAL/MOL
REMARK 923 INTER-LIGAND FREE ENERGY PREDICTED BY IDOCK:   -4.44 KCAL/MOL
REMARK 924 INTRA-LIGAND FREE ENERGY PREDICTED BY IDOCK:   -0.20 KCAL/MOL
REMARK 927      BINDING AFFINITY PREDICTED BY RF-SCORE:    0.00 PKD
ROOT
HETATM    1  C   UNL     1      -8.788  16.655  66.176  1.00  0.00    -0.288 C  
HETATM    2  N   UNL     1      -9.855  16.561  67.175  1.00  0.00    -0.249 NA 
HETATM    3  C   UNL     1     -10.201  17.900  67.658  1.00  0.00    -0.365 C  
ENDROOT
BRANCH   2   4
HETATM    4  C   UNL     1     -11.061  15.902  66.638  1.00  0.00    -0.045 C  
BRANCH   4   5
HETATM    5  C   UNL     1     -11.089  14.378  66.817  1.00  0.00    -0.323 C  
HETATM    6  C   UNL     1     -10.426  13.877  68.121  1.00  0.00    -0.246 C  
HETATM    7  C   UNL     1     -11.176  14.337  69.368  1.00  0.00    -0.313 A  
HETATM    8  C   UNL     1     -10.229  12.360  68.089  1.00  0.00    -0.225 A  
HETATM    9  C   UNL     1     -12.509  13.960  69.596  1.00  0.00    -0.192 A  
HETATM   10  C   UNL     1      -9.199  11.778  68.828  1.00  0.00    -0.009 A  
HETATM   11  C   UNL     1     -13.196  14.415  70.723  1.00  0.00    -0.288 A  
HETATM   12  C   UNL     1      -9.004  10.401  68.747  1.00  0.00    -0.157 A  
HETATM   13  C   UNL     1      -9.842   9.640  67.943  1.00  0.00    -0.182 A  
HETATM   14  C   UNL     1     -12.557  15.243  71.644  1.00  0.00    -0.446 A  
HETATM   15  C   UNL     1     -11.231  15.617  71.438  1.00  0.00    -0.392 A  
HETATM   16  C   UNL     1     -10.854  10.288  67.258  1.00  0.00    -0.250 A  
HETATM   17  N   UNL     1     -11.066  11.620  67.316  1.00  0.00    -0.273 NA 
HETATM   18  C   UNL     1     -10.545  15.171  70.306  1.00  0.00    -0.195 A  
ENDBRANCH   4   5
ENDBRANCH   2   4
TORSDOF 2
ENDMDL
MODEL       89
REMARK 921   NORMALIZED FREE ENERGY PREDICTED BY IDOCK:   -3.97 KCAL/MOL
REMARK 922        TOTAL FREE ENERGY PREDICTED BY IDOCK:   -4.61 KCAL/MOL
REMARK 923 INTER-LIGAND FREE ENERGY PREDICTED BY IDOCK:   -4.38 KCAL/MOL
REMARK 924 INTRA-LIGAND FREE ENERGY PREDICTED BY IDOCK:   -0.22 KCAL/MOL
REMARK 927      BINDING AFFINITY PREDICTED BY RF-SCORE:    0.00 PKD
ROOT
HETATM    1  C   UNL     1     -10.520   5.468  66.716  1.00  0.00    -0.296 C  
HETATM    2  N   UNL     1     -11.126   6.542  67.506  1.00  0.00    -0.349 NA 
HETATM    3  C   UNL     1     -11.088   6.192  68.929  1.00  0.00    -0.345 C  
ENDROOT
BRANCH   2   4
HETATM    4  C   UNL     1     -10.447   7.835  67.298  1.00  0.00    -0.322 C  
BRANCH   4   5
HETATM    5  C   UNL     1      -9.258   8.091  68.233  1.00  0.00    -0.134 C  
HETATM    6  C   UNL     1      -9.182   9.532  68.787  1.00  0.00    -0.140 C  
HETATM    7  C   UNL     1     -10.357   9.867  69.701  1.00  0.00    -0.265 A  
HETATM    8  C   UNL     1      -7.832   9.791  69.459  1.00  0.00    -0.128 A  
HETATM    9  C   UNL     1     -10.585   9.149  70.885  1.00  0.00    -0.341 A  
HETATM   10  C   UNL     1      -7.320  11.088  69.512  1.00  0.00    -0.064 A  
HETATM   11  C   UNL     1     -11.683   9.441  71.697  1.00  0.00    -0.468 A  
HETATM   12  C   UNL     1      -6.067  11.297  70.084  1.00  0.00    -0.149 A  
HETATM   13  C   UNL     1      -5.361  10.215  70.594  1.00  0.00    -0.059 A  
HETATM   14  C   UNL     1     -12.561  10.463  71.342  1.00  0.00    -0.539 A  
HETATM   15  C   UNL     1     -12.343  11.192  70.175  1.00  0.00    -0.373 A  
HETATM   16  C   UNL     1      -5.945   8.963  70.523  1.00  0.00    -0.033 A  
HETATM   17  N   UNL     1      -7.157   8.731  69.975  1.00  0.00    -0.046 NA 
HETATM   18  C   UNL     1     -11.250  10.895  69.358  1.00  0.00    -0.335 A  
ENDBRANCH   4   5
ENDBRANCH   2   4
TORSDOF 2
ENDMDL
MODEL       90
REMARK 921   NORMALIZED FREE ENERGY PREDICTED BY IDOCK:   -3.91 KCAL/MOL
REMARK 922        TOTAL FREE ENERGY PREDICTED BY IDOCK:   -4.54 KCAL/MOL
REMARK 923 INTER-LIGAND FREE ENERGY PREDICTED BY IDOCK:   -4.36 KCAL/MOL
REMARK 924 INTRA-LIGAND FREE ENERGY PREDICTED BY IDOCK:   -0.18 KCAL/MOL
REMARK 927      BINDING AFFINITY PREDICTED BY RF-SCORE:    0.00 PKD
ROOT
HETATM    1  C   UNL     1      -8.366   5.369  67.518  1.00  0.00    -0.103 C  
HETATM    2  N   UNL     1      -9.488   6.248  67.183  1.00  0.00    -0.121 NA 
HETATM    3  C   UNL     1     -10.478   5.508  66.395  1.00  0.00    -0.236 C  
ENDROOT
BRANCH   2   4
HETATM    4  C   UNL     1     -10.133   6.807  68.385  1.00  0.00    -0.162 C  
BRANCH   4   5
HETATM    5  C   UNL     1     -10.173   5.857  69.590  1.00  0.00    -0.281 C  
HETATM    6  C   UNL     1     -10.037   6.559  70.961  1.00  0.00    -0.208 C  
HETATM    7  C   UNL     1     -11.221   7.474  71.264  1.00  0.00    -0.274 A  
HETATM    8  C   UNL     1      -9.789   5.542  72.076  1.00  0.00    -0.166 A  
HETATM    9  C   UNL     1     -12.525   6.967  71.364  1.00  0.00    -0.413 A  
HETATM   10  C   UNL     1      -9.096   5.926  73.224  1.00  0.00    -0.133 A  
HETATM   11  C   UNL     1     -13.605   7.818  71.608  1.00  0.00    -0.416 A  
HETATM   12  C   UNL     1      -8.836   4.973  74.207  1.00  0.00    -0.112 A  
HETATM   13  C   UNL     1      -9.278   3.669  74.027  1.00  0.00    -0.098 A  
HETATM   14  C   UNL     1     -13.393   9.186  71.769  1.00  0.00    -0.469 A  
HETATM   15  C   UNL     1     -12.103   9.703  71.684  1.00  0.00    -0.481 A  
HETATM   16  C   UNL     1      -9.976   3.372  72.870  1.00  0.00    -0.149 A  
HETATM   17  N   UNL     1     -10.243   4.273  71.901  1.00  0.00    -0.165 NA 
HETATM   18  C   UNL     1     -11.023   8.854  71.430  1.00  0.00    -0.380 A  
ENDBRANCH   4   5
ENDBRANCH   2   4
TORSDOF 2
ENDMDL
MODEL       91
REMARK 921   NORMALIZED FREE ENERGY PREDICTED BY IDOCK:   -3.89 KCAL/MOL
REMARK 922        TOTAL FREE ENERGY PREDICTED BY IDOCK:   -4.53 KCAL/MOL
REMARK 923 INTER-LIGAND FREE ENERGY PREDICTED BY IDOCK:   -4.38 KCAL/MOL
REMARK 924 INTRA-LIGAND FREE ENERGY PREDICTED BY IDOCK:   -0.15 KCAL/MOL
REMARK 927      BINDING AFFINITY PREDICTED BY RF-SCORE:    0.00 PKD
ROOT
HETATM    1  C   UNL     1      -9.926   6.655  74.225  1.00  0.00    -0.345 C  
HETATM    2  N   UNL     1      -8.819   7.584  73.992  1.00  0.00    -0.231 NA 
HETATM    3  C   UNL     1      -7.583   7.032  74.552  1.00  0.00    -0.118 C  
ENDROOT
BRANCH   2   4
HETATM    4  C   UNL     1      -8.626   7.869  72.557  1.00  0.00    -0.152 C  
BRANCH   4   5
HETATM    5  C   UNL     1      -9.655   8.836  71.955  1.00  0.00    -0.372 C  
HETATM    6  C   UNL     1      -9.431   9.153  70.458  1.00  0.00    -0.291 C  
HETATM    7  C   UNL     1      -9.620   7.926  69.570  1.00  0.00    -0.160 A  
HETATM    8  C   UNL     1     -10.297  10.332  70.011  1.00  0.00    -0.202 A  
HETATM    9  C   UNL     1     -10.850   7.255  69.509  1.00  0.00    -0.224 A  
HETATM   10  C   UNL     1      -9.883  11.135  68.948  1.00  0.00    -0.176 A  
HETATM   11  C   UNL     1     -11.002   6.113  68.719  1.00  0.00    -0.421 A  
HETATM   12  C   UNL     1     -10.660  12.233  68.588  1.00  0.00    -0.249 A  
HETATM   13  C   UNL     1     -11.831  12.499  69.286  1.00  0.00    -0.360 A  
HETATM   14  C   UNL     1      -9.929   5.635  67.970  1.00  0.00    -0.178 A  
HETATM   15  C   UNL     1      -8.704   6.297  68.011  1.00  0.00    -0.114 A  
HETATM   16  C   UNL     1     -12.185  11.644  70.314  1.00  0.00    -0.318 A  
HETATM   17  N   UNL     1     -11.452  10.573  70.685  1.00  0.00    -0.336 NA 
HETATM   18  C   UNL     1      -8.547   7.433  68.808  1.00  0.00    -0.129 A  
ENDBRANCH   4   5
ENDBRANCH   2   4
TORSDOF 2
ENDMDL
MODEL       92
REMARK 921   NORMALIZED FREE ENERGY PREDICTED BY IDOCK:   -3.87 KCAL/MOL
REMARK 922        TOTAL FREE ENERGY PREDICTED BY IDOCK:   -4.50 KCAL/MOL
REMARK 923 INTER-LIGAND FREE ENERGY PREDICTED BY IDOCK:   -4.33 KCAL/MOL
REMARK 924 INTRA-LIGAND FREE ENERGY PREDICTED BY IDOCK:   -0.16 KCAL/MOL
REMARK 927      BINDING AFFINITY PREDICTED BY RF-SCORE:    0.00 PKD
ROOT
HETATM    1  C   UNL     1      -7.275   9.538  67.812  1.00  0.00    -0.082 C  
HETATM    2  N   UNL     1      -6.989  10.921  67.427  1.00  0.00    -0.081 NA 
HETATM    3  C   UNL     1      -5.978  10.941  66.366  1.00  0.00    -0.131 C  
ENDROOT
BRANCH   2   4
HETATM    4  C   UNL     1      -8.199  11.631  66.970  1.00  0.00    -0.170 C  
BRANCH   4   5
HETATM    5  C   UNL     1      -8.351  13.054  67.522  1.00  0.00    -0.184 C  
HETATM    6  C   UNL     1      -8.870  14.086  66.493  1.00  0.00    -0.048 C  
HETATM    7  C   UNL     1     -10.297  13.787  66.041  1.00  0.00    -0.311 A  
HETATM    8  C   UNL     1      -8.715  15.513  67.020  1.00  0.00    -0.231 A  
HETATM    9  C   UNL     1     -11.363  13.777  66.954  1.00  0.00    -0.345 A  
HETATM   10  C   UNL     1      -8.569  16.572  66.124  1.00  0.00    -0.334 A  
HETATM   11  C   UNL     1     -12.659  13.469  66.536  1.00  0.00    -0.181 A  
HETATM   12  C   UNL     1      -8.379  17.859  66.623  1.00  0.00    -0.286 A  
HETATM   13  C   UNL     1      -8.348  18.059  67.997  1.00  0.00    -0.263 A  
HETATM   14  C   UNL     1     -12.909  13.180  65.196  1.00  0.00    -0.367 A  
HETATM   15  C   UNL     1     -11.864  13.196  64.275  1.00  0.00    -0.462 A  
HETATM   16  C   UNL     1      -8.521  16.961  68.820  1.00  0.00    -0.244 A  
HETATM   17  N   UNL     1      -8.707  15.704  68.365  1.00  0.00    -0.173 NA 
HETATM   18  C   UNL     1     -10.566  13.494  64.694  1.00  0.00    -0.441 A  
ENDBRANCH   4   5
ENDBRANCH   2   4
TORSDOF 2
ENDMDL
MODEL       93
REMARK 921   NORMALIZED FREE ENERGY PREDICTED BY IDOCK:   -3.86 KCAL/MOL
REMARK 922        TOTAL FREE ENERGY PREDICTED BY IDOCK:   -4.49 KCAL/MOL
REMARK 923 INTER-LIGAND FREE ENERGY PREDICTED BY IDOCK:   -4.18 KCAL/MOL
REMARK 924 INTRA-LIGAND FREE ENERGY PREDICTED BY IDOCK:   -0.31 KCAL/MOL
REMARK 927      BINDING AFFINITY PREDICTED BY RF-SCORE:    0.00 PKD
ROOT
HETATM    1  C   UNL     1     -10.618  17.518  66.179  1.00  0.00    -0.211 C  
HETATM    2  N   UNL     1      -9.296  17.246  66.746  1.00  0.00    -0.250 NA 
HETATM    3  C   UNL     1      -8.637  18.508  67.094  1.00  0.00    -0.269 C  
ENDROOT
BRANCH   2   4
HETATM    4  C   UNL     1      -9.371  16.383  67.941  1.00  0.00    -0.214 C  
BRANCH   4   5
HETATM    5  C   UNL     1      -8.653  15.034  67.800  1.00  0.00    -0.165 C  
HETATM    6  C   UNL     1      -9.582  13.803  67.915  1.00  0.00    -0.222 C  
HETATM    7  C   UNL     1     -10.588  13.726  66.770  1.00  0.00    -0.273 A  
HETATM    8  C   UNL     1      -8.770  12.515  68.063  1.00  0.00    -0.186 A  
HETATM    9  C   UNL     1     -10.166  13.605  65.437  1.00  0.00    -0.330 A  
HETATM   10  C   UNL     1      -9.321  11.419  68.726  1.00  0.00    -0.115 A  
HETATM   11  C   UNL     1     -11.094  13.569  64.395  1.00  0.00    -0.397 A  
HETATM   12  C   UNL     1      -8.549  10.271  68.893  1.00  0.00    -0.150 A  
HETATM   13  C   UNL     1      -7.254  10.241  68.391  1.00  0.00    -0.080 A  
HETATM   14  C   UNL     1     -12.458  13.641  64.672  1.00  0.00    -0.359 A  
HETATM   15  C   UNL     1     -12.893  13.750  65.990  1.00  0.00    -0.294 A  
HETATM   16  C   UNL     1      -6.787  11.361  67.727  1.00  0.00    -0.075 A  
HETATM   17  N   UNL     1      -7.512  12.486  67.549  1.00  0.00    -0.140 NA 
HETATM   18  C   UNL     1     -11.966  13.795  67.034  1.00  0.00    -0.452 A  
ENDBRANCH   4   5
ENDBRANCH   2   4
TORSDOF 2
ENDMDL
MODEL       94
REMARK 921   NORMALIZED FREE ENERGY PREDICTED BY IDOCK:   -3.86 KCAL/MOL
REMARK 922        TOTAL FREE ENERGY PREDICTED BY IDOCK:   -4.49 KCAL/MOL
REMARK 923 INTER-LIGAND FREE ENERGY PREDICTED BY IDOCK:   -4.26 KCAL/MOL
REMARK 924 INTRA-LIGAND FREE ENERGY PREDICTED BY IDOCK:   -0.23 KCAL/MOL
REMARK 927      BINDING AFFINITY PREDICTED BY RF-SCORE:    0.00 PKD
ROOT
HETATM    1  C   UNL     1     -10.075  12.018  64.756  1.00  0.00    -0.257 C  
HETATM    2  N   UNL     1     -10.318  10.602  64.474  1.00  0.00    -0.339 NA 
HETATM    3  C   UNL     1      -9.520  10.182  63.319  1.00  0.00    -0.257 C  
ENDROOT
BRANCH   2   4
HETATM    4  C   UNL     1     -10.000   9.743  65.631  1.00  0.00    -0.282 C  
BRANCH   4   5
HETATM    5  C   UNL     1     -10.735  10.118  66.925  1.00  0.00    -0.231 C  
HETATM    6  C   UNL     1      -9.940   9.823  68.219  1.00  0.00    -0.175 C  
HETATM    7  C   UNL     1      -8.681  10.677  68.334  1.00  0.00    -0.141 A  
HETATM    8  C   UNL     1     -10.837   9.940  69.452  1.00  0.00    -0.237 A  
HETATM    9  C   UNL     1      -8.754  12.077  68.392  1.00  0.00    -0.147 A  
HETATM   10  C   UNL     1     -10.539   9.205  70.600  1.00  0.00    -0.305 A  
HETATM   11  C   UNL     1      -7.593  12.850  68.463  1.00  0.00    -0.120 A  
HETATM   12  C   UNL     1     -11.394   9.288  71.697  1.00  0.00    -0.467 A  
HETATM   13  C   UNL     1     -12.516  10.103  71.627  1.00  0.00    -0.506 A  
HETATM   14  C   UNL     1      -6.344  12.232  68.490  1.00  0.00    -0.057 A  
HETATM   15  C   UNL     1      -6.255  10.843  68.444  1.00  0.00    -0.046 A  
HETATM   16  C   UNL     1     -12.731  10.817  70.462  1.00  0.00    -0.305 A  
HETATM   17  N   UNL     1     -11.921  10.757  69.384  1.00  0.00    -0.303 NA 
HETATM   18  C   UNL     1      -7.415  10.069  68.363  1.00  0.00    -0.082 A  
ENDBRANCH   4   5
ENDBRANCH   2   4
TORSDOF 2
ENDMDL
MODEL       95
REMARK 921   NORMALIZED FREE ENERGY PREDICTED BY IDOCK:   -3.86 KCAL/MOL
REMARK 922        TOTAL FREE ENERGY PREDICTED BY IDOCK:   -4.49 KCAL/MOL
REMARK 923 INTER-LIGAND FREE ENERGY PREDICTED BY IDOCK:   -4.25 KCAL/MOL
REMARK 924 INTRA-LIGAND FREE ENERGY PREDICTED BY IDOCK:   -0.23 KCAL/MOL
REMARK 927      BINDING AFFINITY PREDICTED BY RF-SCORE:    0.00 PKD
ROOT
HETATM    1  C   UNL     1      -8.232   5.145  73.943  1.00  0.00    -0.108 C  
HETATM    2  N   UNL     1      -9.686   5.155  74.110  1.00  0.00    -0.145 NA 
HETATM    3  C   UNL     1     -10.149   6.525  74.342  1.00  0.00    -0.348 C  
ENDROOT
BRANCH   2   4
HETATM    4  C   UNL     1     -10.383   4.590  72.938  1.00  0.00    -0.184 C  
BRANCH   4   5
HETATM    5  C   UNL     1      -9.687   4.849  71.595  1.00  0.00    -0.231 C  
HETATM    6  C   UNL     1     -10.577   5.544  70.539  1.00  0.00    -0.339 C  
HETATM    7  C   UNL     1     -10.969   6.960  70.950  1.00  0.00    -0.290 A  
HETATM    8  C   UNL     1      -9.925   5.499  69.156  1.00  0.00    -0.190 A  
HETATM    9  C   UNL     1      -9.998   7.952  71.158  1.00  0.00    -0.198 A  
HETATM   10  C   UNL     1     -10.722   5.527  68.011  1.00  0.00    -0.165 A  
HETATM   11  C   UNL     1     -10.364   9.235  71.567  1.00  0.00    -0.364 A  
HETATM   12  C   UNL     1     -10.112   5.436  66.762  1.00  0.00    -0.246 A  
HETATM   13  C   UNL     1      -8.730   5.329  66.683  1.00  0.00    -0.113 A  
HETATM   14  C   UNL     1     -11.708   9.549  71.761  1.00  0.00    -0.411 A  
HETATM   15  C   UNL     1     -12.685   8.579  71.548  1.00  0.00    -0.340 A  
HETATM   16  C   UNL     1      -8.008   5.329  67.863  1.00  0.00    -0.095 A  
HETATM   17  N   UNL     1      -8.571   5.416  69.087  1.00  0.00    -0.102 NA 
HETATM   18  C   UNL     1     -12.319   7.292  71.148  1.00  0.00    -0.381 A  
ENDBRANCH   4   5
ENDBRANCH   2   4
TORSDOF 2
ENDMDL
MODEL       96
REMARK 921   NORMALIZED FREE ENERGY PREDICTED BY IDOCK:   -3.85 KCAL/MOL
REMARK 922        TOTAL FREE ENERGY PREDICTED BY IDOCK:   -4.48 KCAL/MOL
REMARK 923 INTER-LIGAND FREE ENERGY PREDICTED BY IDOCK:   -4.17 KCAL/MOL
REMARK 924 INTRA-LIGAND FREE ENERGY PREDICTED BY IDOCK:   -0.31 KCAL/MOL
REMARK 927      BINDING AFFINITY PREDICTED BY RF-SCORE:    0.00 PKD
ROOT
HETATM    1  C   UNL     1      -8.807   8.973  65.347  1.00  0.00    -0.197 C  
HETATM    2  N   UNL     1      -9.231  10.095  66.188  1.00  0.00    -0.154 NA 
HETATM    3  C   UNL     1      -9.484  11.272  65.352  1.00  0.00    -0.225 C  
ENDROOT
BRANCH   2   4
HETATM    4  C   UNL     1     -10.440   9.776  66.971  1.00  0.00    -0.227 C  
BRANCH   4   5
HETATM    5  C   UNL     1     -10.169   9.367  68.425  1.00  0.00    -0.224 C  
HETATM    6  C   UNL     1     -10.739   7.983  68.814  1.00  0.00    -0.078 C  
HETATM    7  C   UNL     1     -10.066   6.844  68.055  1.00  0.00    -0.193 A  
HETATM    8  C   UNL     1     -10.693   7.778  70.330  1.00  0.00    -0.236 A  
HETATM    9  C   UNL     1      -8.690   6.599  68.179  1.00  0.00    -0.117 A  
HETATM   10  C   UNL     1     -11.615   6.930  70.943  1.00  0.00    -0.384 A  
HETATM   11  C   UNL     1      -8.079   5.575  67.453  1.00  0.00    -0.101 A  
HETATM   12  C   UNL     1     -11.590   6.793  72.330  1.00  0.00    -0.311 A  
HETATM   13  C   UNL     1     -10.645   7.496  73.067  1.00  0.00    -0.422 A  
HETATM   14  C   UNL     1      -8.838   4.773  66.603  1.00  0.00    -0.110 A  
HETATM   15  C   UNL     1     -10.207   4.996  66.476  1.00  0.00    -0.307 A  
HETATM   16  C   UNL     1      -9.752   8.300  72.383  1.00  0.00    -0.303 A  
HETATM   17  N   UNL     1      -9.752   8.452  71.041  1.00  0.00    -0.166 NA 
HETATM   18  C   UNL     1     -10.818   6.026  67.194  1.00  0.00    -0.414 A  
ENDBRANCH   4   5
ENDBRANCH   2   4
TORSDOF 2
ENDMDL
MODEL       97
REMARK 921   NORMALIZED FREE ENERGY PREDICTED BY IDOCK:   -3.80 KCAL/MOL
REMARK 922        TOTAL FREE ENERGY PREDICTED BY IDOCK:   -4.41 KCAL/MOL
REMARK 923 INTER-LIGAND FREE ENERGY PREDICTED BY IDOCK:   -4.15 KCAL/MOL
REMARK 924 INTRA-LIGAND FREE ENERGY PREDICTED BY IDOCK:   -0.27 KCAL/MOL
REMARK 927      BINDING AFFINITY PREDICTED BY RF-SCORE:    0.00 PKD
ROOT
HETATM    1  C   UNL     1     -12.417  11.007  70.436  1.00  0.00    -0.313 C  
HETATM    2  N   UNL     1     -11.824  11.489  69.187  1.00  0.00    -0.324 NA 
HETATM    3  C   UNL     1     -11.838  12.954  69.165  1.00  0.00    -0.303 C  
ENDROOT
BRANCH   2   4
HETATM    4  C   UNL     1     -10.442  11.006  69.006  1.00  0.00    -0.216 C  
BRANCH   4   5
HETATM    5  C   UNL     1     -10.330   9.617  68.363  1.00  0.00    -0.233 C  
HETATM    6  C   UNL     1      -9.379   8.647  69.103  1.00  0.00    -0.153 C  
HETATM    7  C   UNL     1      -9.884   8.290  70.498  1.00  0.00    -0.197 A  
HETATM    8  C   UNL     1      -9.091   7.407  68.254  1.00  0.00    -0.128 A  
HETATM    9  C   UNL     1     -11.111   7.636  70.682  1.00  0.00    -0.269 A  
HETATM   10  C   UNL     1      -7.894   6.712  68.424  1.00  0.00    -0.107 A  
HETATM   11  C   UNL     1     -11.580   7.344  71.965  1.00  0.00    -0.321 A  
HETATM   12  C   UNL     1      -7.627   5.614  67.608  1.00  0.00    -0.089 A  
HETATM   13  C   UNL     1      -8.561   5.232  66.653  1.00  0.00    -0.110 A  
HETATM   14  C   UNL     1     -10.820   7.692  73.080  1.00  0.00    -0.440 A  
HETATM   15  C   UNL     1      -9.594   8.332  72.914  1.00  0.00    -0.320 A  
HETATM   16  C   UNL     1      -9.734   5.960  66.561  1.00  0.00    -0.155 A  
HETATM   17  N   UNL     1     -10.019   7.027  67.337  1.00  0.00    -0.154 NA 
HETATM   18  C   UNL     1      -9.129   8.633  71.632  1.00  0.00    -0.318 A  
ENDBRANCH   4   5
ENDBRANCH   2   4
TORSDOF 2
ENDMDL
MODEL       98
REMARK 921   NORMALIZED FREE ENERGY PREDICTED BY IDOCK:   -3.77 KCAL/MOL
REMARK 922        TOTAL FREE ENERGY PREDICTED BY IDOCK:   -4.38 KCAL/MOL
REMARK 923 INTER-LIGAND FREE ENERGY PREDICTED BY IDOCK:   -4.22 KCAL/MOL
REMARK 924 INTRA-LIGAND FREE ENERGY PREDICTED BY IDOCK:   -0.16 KCAL/MOL
REMARK 927      BINDING AFFINITY PREDICTED BY RF-SCORE:    0.00 PKD
ROOT
HETATM    1  C   UNL     1      -6.573   7.271  72.397  1.00  0.00    -0.052 C  
HETATM    2  N   UNL     1      -5.928   8.181  71.448  1.00  0.00    -0.034 NA 
HETATM    3  C   UNL     1      -5.372   7.417  70.329  1.00  0.00    -0.023 C  
ENDROOT
BRANCH   2   4
HETATM    4  C   UNL     1      -6.863   9.200  70.934  1.00  0.00    -0.096 C  
BRANCH   4   5
HETATM    5  C   UNL     1      -8.335   8.957  71.296  1.00  0.00    -0.223 C  
HETATM    6  C   UNL     1      -9.345   9.702  70.393  1.00  0.00    -0.268 C  
HETATM    7  C   UNL     1      -9.308   9.208  68.950  1.00  0.00    -0.146 A  
HETATM    8  C   UNL     1     -10.753   9.653  70.989  1.00  0.00    -0.323 A  
HETATM    9  C   UNL     1      -9.612   7.876  68.629  1.00  0.00    -0.155 A  
HETATM   10  C   UNL     1     -11.665  10.669  70.700  1.00  0.00    -0.454 A  
HETATM   11  C   UNL     1      -9.542   7.426  67.309  1.00  0.00    -0.191 A  
HETATM   12  C   UNL     1     -12.926  10.633  71.291  1.00  0.00    -0.513 A  
HETATM   13  C   UNL     1     -13.250   9.585  72.144  1.00  0.00    -0.539 A  
HETATM   14  C   UNL     1      -9.181   8.305  66.290  1.00  0.00    -0.258 A  
HETATM   15  C   UNL     1      -8.887   9.633  66.591  1.00  0.00    -0.153 A  
HETATM   16  C   UNL     1     -12.299   8.605  72.363  1.00  0.00    -0.357 A  
HETATM   17  N   UNL     1     -11.070   8.614  71.805  1.00  0.00    -0.301 NA 
HETATM   18  C   UNL     1      -8.947  10.083  67.912  1.00  0.00    -0.131 A  
ENDBRANCH   4   5
ENDBRANCH   2   4
TORSDOF 2
ENDMDL
MODEL       99
REMARK 921   NORMALIZED FREE ENERGY PREDICTED BY IDOCK:   -3.75 KCAL/MOL
REMARK 922        TOTAL FREE ENERGY PREDICTED BY IDOCK:   -4.36 KCAL/MOL
REMARK 923 INTER-LIGAND FREE ENERGY PREDICTED BY IDOCK:   -4.08 KCAL/MOL
REMARK 924 INTRA-LIGAND FREE ENERGY PREDICTED BY IDOCK:   -0.28 KCAL/MOL
REMARK 927      BINDING AFFINITY PREDICTED BY RF-SCORE:    0.00 PKD
ROOT
HETATM    1  C   UNL     1     -11.303   8.778  72.000  1.00  0.00    -0.371 C  
HETATM    2  N   UNL     1     -11.844   9.507  70.851  1.00  0.00    -0.296 NA 
HETATM    3  C   UNL     1     -13.056  10.228  71.248  1.00  0.00    -0.398 C  
ENDROOT
BRANCH   2   4
HETATM    4  C   UNL     1     -10.867  10.457  70.286  1.00  0.00    -0.242 C  
BRANCH   4   5
HETATM    5  C   UNL     1     -10.702  10.374  68.763  1.00  0.00    -0.255 C  
HETATM    6  C   UNL     1      -9.477   9.553  68.298  1.00  0.00    -0.143 C  
HETATM    7  C   UNL     1      -9.594   8.077  68.665  1.00  0.00    -0.150 A  
HETATM    8  C   UNL     1      -9.212   9.761  66.806  1.00  0.00    -0.148 A  
HETATM    9  C   UNL     1     -10.639   7.283  68.167  1.00  0.00    -0.228 A  
HETATM   10  C   UNL     1      -7.919   9.614  66.303  1.00  0.00    -0.108 A  
HETATM   11  C   UNL     1     -10.756   5.942  68.537  1.00  0.00    -0.327 A  
HETATM   12  C   UNL     1      -7.687   9.856  64.951  1.00  0.00    -0.134 A  
HETATM   13  C   UNL     1      -8.747  10.227  64.133  1.00  0.00    -0.214 A  
HETATM   14  C   UNL     1      -9.823   5.372  69.400  1.00  0.00    -0.252 A  
HETATM   15  C   UNL     1      -8.774   6.143  69.895  1.00  0.00    -0.136 A  
HETATM   16  C   UNL     1     -10.004  10.331  64.702  1.00  0.00    -0.307 A  
HETATM   17  N   UNL     1     -10.258  10.103  66.009  1.00  0.00    -0.243 NA 
HETATM   18  C   UNL     1      -8.660   7.488  69.533  1.00  0.00    -0.133 A  
ENDBRANCH   4   5
ENDBRANCH   2   4
TORSDOF 2
ENDMDL
MODEL      100
REMARK 921   NORMALIZED FREE ENERGY PREDICTED BY IDOCK:   -3.74 KCAL/MOL
REMARK 922        TOTAL FREE ENERGY PREDICTED BY IDOCK:   -4.36 KCAL/MOL
REMARK 923 INTER-LIGAND FREE ENERGY PREDICTED BY IDOCK:   -4.09 KCAL/MOL
REMARK 924 INTRA-LIGAND FREE ENERGY PREDICTED BY IDOCK:   -0.26 KCAL/MOL
REMARK 927      BINDING AFFINITY PREDICTED BY RF-SCORE:    0.00 PKD
ROOT
HETATM    1  C   UNL     1      -6.791   8.879  62.599  1.00  0.00    -0.093 C  
HETATM    2  N   UNL     1      -7.722   8.708  63.716  1.00  0.00    -0.128 NA 
HETATM    3  C   UNL     1      -7.769   7.298  64.110  1.00  0.00    -0.120 C  
ENDROOT
BRANCH   2   4
HETATM    4  C   UNL     1      -7.349   9.534  64.880  1.00  0.00    -0.111 C  
BRANCH   4   5
HETATM    5  C   UNL     1      -8.163  10.826  65.033  1.00  0.00    -0.005 C  
HETATM    6  C   UNL     1      -9.658  10.604  65.361  1.00  0.00    -0.282 C  
HETATM    7  C   UNL     1      -9.862   9.960  66.729  1.00  0.00    -0.256 A  
HETATM    8  C   UNL     1     -10.453  11.901  65.204  1.00  0.00    -0.287 A  
HETATM    9  C   UNL     1      -9.434  10.596  67.904  1.00  0.00    -0.168 A  
HETATM   10  C   UNL     1     -11.811  11.850  64.890  1.00  0.00    -0.236 A  
HETATM   11  C   UNL     1      -9.596   9.982  69.148  1.00  0.00    -0.217 A  
HETATM   12  C   UNL     1     -12.507  13.042  64.703  1.00  0.00    -0.460 A  
HETATM   13  C   UNL     1     -11.839  14.251  64.843  1.00  0.00    -0.414 A  
HETATM   14  C   UNL     1     -10.200   8.730  69.234  1.00  0.00    -0.215 A  
HETATM   15  C   UNL     1     -10.640   8.090  68.078  1.00  0.00    -0.190 A  
HETATM   16  C   UNL     1     -10.497  14.219  65.177  1.00  0.00    -0.411 A  
HETATM   17  N   UNL     1      -9.796  13.080  65.364  1.00  0.00    -0.173 NA 
HETATM   18  C   UNL     1     -10.470   8.698  66.832  1.00  0.00    -0.329 A  
ENDBRANCH   4   5
ENDBRANCH   2   4
TORSDOF 2
ENDMDL
MODEL      101
REMARK 921   NORMALIZED FREE ENERGY PREDICTED BY IDOCK:   -3.70 KCAL/MOL
REMARK 922        TOTAL FREE ENERGY PREDICTED BY IDOCK:   -4.31 KCAL/MOL
REMARK 923 INTER-LIGAND FREE ENERGY PREDICTED BY IDOCK:   -4.17 KCAL/MOL
REMARK 924 INTRA-LIGAND FREE ENERGY PREDICTED BY IDOCK:   -0.14 KCAL/MOL
REMARK 927      BINDING AFFINITY PREDICTED BY RF-SCORE:    0.00 PKD
ROOT
HETATM    1  C   UNL     1     -11.281  16.674  64.645  1.00  0.00    -0.015 C  
HETATM    2  N   UNL     1     -10.330  17.354  65.526  1.00  0.00    -0.644 NA 
HETATM    3  C   UNL     1     -10.656  18.780  65.602  1.00  0.00    -0.154 C  
ENDROOT
BRANCH   2   4
HETATM    4  C   UNL     1     -10.320  16.777  66.883  1.00  0.00    -0.294 C  
BRANCH   4   5
HETATM    5  C   UNL     1      -9.243  15.708  67.116  1.00  0.00    -0.226 C  
HETATM    6  C   UNL     1      -8.976  15.386  68.605  1.00  0.00    -0.191 C  
HETATM    7  C   UNL     1     -10.182  14.746  69.286  1.00  0.00    -0.193 A  
HETATM    8  C   UNL     1      -7.706  14.549  68.765  1.00  0.00    -0.140 A  
HETATM    9  C   UNL     1     -10.699  13.518  68.846  1.00  0.00    -0.228 A  
HETATM   10  C   UNL     1      -6.974  14.618  69.950  1.00  0.00    -0.099 A  
HETATM   11  C   UNL     1     -11.824  12.958  69.456  1.00  0.00    -0.383 A  
HETATM   12  C   UNL     1      -5.793  13.886  70.059  1.00  0.00    -0.135 A  
HETATM   13  C   UNL     1      -5.378  13.099  68.993  1.00  0.00    -0.069 A  
HETATM   14  C   UNL     1     -12.439  13.612  70.521  1.00  0.00    -0.394 A  
HETATM   15  C   UNL     1     -11.932  14.827  70.976  1.00  0.00    -0.389 A  
HETATM   16  C   UNL     1      -6.170  13.067  67.859  1.00  0.00    -0.134 A  
HETATM   17  N   UNL     1      -7.317  13.765  67.725  1.00  0.00    -0.147 NA 
HETATM   18  C   UNL     1     -10.812  15.393  70.362  1.00  0.00    -0.333 A  
ENDBRANCH   4   5
ENDBRANCH   2   4
TORSDOF 2
ENDMDL
MODEL      102
REMARK 921   NORMALIZED FREE ENERGY PREDICTED BY IDOCK:   -3.67 KCAL/MOL
REMARK 922        TOTAL FREE ENERGY PREDICTED BY IDOCK:   -4.28 KCAL/MOL
REMARK 923 INTER-LIGAND FREE ENERGY PREDICTED BY IDOCK:   -3.85 KCAL/MOL
REMARK 924 INTRA-LIGAND FREE ENERGY PREDICTED BY IDOCK:   -0.42 KCAL/MOL
REMARK 927      BINDING AFFINITY PREDICTED BY RF-SCORE:    0.00 PKD
ROOT
HETATM    1  C   UNL     1      -8.867   7.218  65.797  1.00  0.00    -0.066 C  
HETATM    2  N   UNL     1      -7.586   7.838  66.141  1.00  0.00    -0.085 NA 
HETATM    3  C   UNL     1      -7.521   9.188  65.575  1.00  0.00    -0.089 C  
ENDROOT
BRANCH   2   4
HETATM    4  C   UNL     1      -7.375   7.904  67.599  1.00  0.00    -0.096 C  
BRANCH   4   5
HETATM    5  C   UNL     1      -8.627   7.620  68.439  1.00  0.00    -0.124 C  
HETATM    6  C   UNL     1      -9.081   8.802  69.328  1.00  0.00    -0.145 C  
HETATM    7  C   UNL     1      -9.539  10.003  68.506  1.00  0.00    -0.157 A  
HETATM    8  C   UNL     1     -10.136   8.354  70.340  1.00  0.00    -0.187 A  
HETATM    9  C   UNL     1     -10.629   9.910  67.627  1.00  0.00    -0.325 A  
HETATM   10  C   UNL     1     -10.268   9.033  71.552  1.00  0.00    -0.414 A  
HETATM   11  C   UNL     1     -11.019  11.006  66.854  1.00  0.00    -0.311 A  
HETATM   12  C   UNL     1     -11.201   8.580  72.482  1.00  0.00    -0.336 A  
HETATM   13  C   UNL     1     -11.982   7.473  72.181  1.00  0.00    -0.323 A  
HETATM   14  C   UNL     1     -10.333  12.214  66.960  1.00  0.00    -0.232 A  
HETATM   15  C   UNL     1      -9.255  12.326  67.836  1.00  0.00    -0.190 A  
HETATM   16  C   UNL     1     -11.806   6.866  70.950  1.00  0.00    -0.376 A  
HETATM   17  N   UNL     1     -10.911   7.283  70.029  1.00  0.00    -0.257 NA 
HETATM   18  C   UNL     1      -8.858  11.228  68.602  1.00  0.00    -0.141 A  
ENDBRANCH   4   5
ENDBRANCH   2   4
TORSDOF 2
ENDMDL
MODEL      103
REMARK 921   NORMALIZED FREE ENERGY PREDICTED BY IDOCK:   -3.67 KCAL/MOL
REMARK 922        TOTAL FREE ENERGY PREDICTED BY IDOCK:   -4.28 KCAL/MOL
REMARK 923 INTER-LIGAND FREE ENERGY PREDICTED BY IDOCK:   -4.12 KCAL/MOL
REMARK 924 INTRA-LIGAND FREE ENERGY PREDICTED BY IDOCK:   -0.15 KCAL/MOL
REMARK 927      BINDING AFFINITY PREDICTED BY RF-SCORE:    0.00 PKD
ROOT
HETATM    1  C   UNL     1     -12.563  12.237  63.522  1.00  0.00    -0.476 C  
HETATM    2  N   UNL     1     -11.605  12.996  64.328  1.00  0.00    -0.362 NA 
HETATM    3  C   UNL     1     -12.318  13.969  65.160  1.00  0.00    -0.453 C  
ENDROOT
BRANCH   2   4
HETATM    4  C   UNL     1     -10.784  12.120  65.185  1.00  0.00    -0.292 C  
BRANCH   4   5
HETATM    5  C   UNL     1     -10.005  11.035  64.430  1.00  0.00    -0.368 C  
HETATM    6  C   UNL     1      -8.770  10.493  65.186  1.00  0.00    -0.197 C  
HETATM    7  C   UNL     1      -9.151   9.752  66.464  1.00  0.00    -0.182 A  
HETATM    8  C   UNL     1      -7.889   9.648  64.264  1.00  0.00    -0.130 A  
HETATM    9  C   UNL     1      -9.953   8.601  66.426  1.00  0.00    -0.331 A  
HETATM   10  C   UNL     1      -6.521   9.542  64.517  1.00  0.00    -0.093 A  
HETATM   11  C   UNL     1     -10.323   7.949  67.604  1.00  0.00    -0.307 A  
HETATM   12  C   UNL     1      -5.727   8.808  63.638  1.00  0.00    -0.071 A  
HETATM   13  C   UNL     1      -6.313   8.193  62.540  1.00  0.00    -0.087 A  
HETATM   14  C   UNL     1      -9.886   8.432  68.836  1.00  0.00    -0.184 A  
HETATM   15  C   UNL     1      -9.080   9.567  68.890  1.00  0.00    -0.141 A  
HETATM   16  C   UNL     1      -7.680   8.328  62.370  1.00  0.00    -0.128 A  
HETATM   17  N   UNL     1      -8.474   9.033  63.204  1.00  0.00    -0.198 NA 
HETATM   18  C   UNL     1      -8.717  10.226  67.713  1.00  0.00    -0.121 A  
ENDBRANCH   4   5
ENDBRANCH   2   4
TORSDOF 2
ENDMDL
MODEL      104
REMARK 921   NORMALIZED FREE ENERGY PREDICTED BY IDOCK:   -3.65 KCAL/MOL
REMARK 922        TOTAL FREE ENERGY PREDICTED BY IDOCK:   -4.25 KCAL/MOL
REMARK 923 INTER-LIGAND FREE ENERGY PREDICTED BY IDOCK:   -4.10 KCAL/MOL
REMARK 924 INTRA-LIGAND FREE ENERGY PREDICTED BY IDOCK:   -0.15 KCAL/MOL
REMARK 927      BINDING AFFINITY PREDICTED BY RF-SCORE:    0.00 PKD
ROOT
HETATM    1  C   UNL     1     -10.824  14.071  64.682  1.00  0.00    -0.403 C  
HETATM    2  N   UNL     1     -11.239  12.672  64.807  1.00  0.00    -0.292 NA 
HETATM    3  C   UNL     1     -12.121  12.315  63.693  1.00  0.00    -0.554 C  
ENDROOT
BRANCH   2   4
HETATM    4  C   UNL     1     -10.087  11.752  64.839  1.00  0.00    -0.259 C  
BRANCH   4   5
HETATM    5  C   UNL     1     -10.356  10.416  65.544  1.00  0.00    -0.265 C  
HETATM    6  C   UNL     1      -9.096   9.548  65.769  1.00  0.00    -0.243 C  
HETATM    7  C   UNL     1      -8.107  10.199  66.732  1.00  0.00    -0.119 A  
HETATM    8  C   UNL     1      -9.475   8.130  66.197  1.00  0.00    -0.147 A  
HETATM    9  C   UNL     1      -8.463  10.482  68.059  1.00  0.00    -0.120 A  
HETATM   10  C   UNL     1      -8.619   7.066  65.912  1.00  0.00    -0.152 A  
HETATM   11  C   UNL     1      -7.561  11.109  68.922  1.00  0.00    -0.133 A  
HETATM   12  C   UNL     1      -9.004   5.774  66.266  1.00  0.00    -0.149 A  
HETATM   13  C   UNL     1     -10.224   5.576  66.901  1.00  0.00    -0.275 A  
HETATM   14  C   UNL     1      -6.287  11.449  68.473  1.00  0.00    -0.047 A  
HETATM   15  C   UNL     1      -5.914  11.165  67.161  1.00  0.00    -0.073 A  
HETATM   16  C   UNL     1     -11.007   6.685  67.167  1.00  0.00    -0.408 A  
HETATM   17  N   UNL     1     -10.660   7.947  66.836  1.00  0.00    -0.331 NA 
HETATM   18  C   UNL     1      -6.818  10.547  66.294  1.00  0.00    -0.127 A  
ENDBRANCH   4   5
ENDBRANCH   2   4
TORSDOF 2
ENDMDL
MODEL      105
REMARK 921   NORMALIZED FREE ENERGY PREDICTED BY IDOCK:   -3.65 KCAL/MOL
REMARK 922        TOTAL FREE ENERGY PREDICTED BY IDOCK:   -4.25 KCAL/MOL
REMARK 923 INTER-LIGAND FREE ENERGY PREDICTED BY IDOCK:   -3.97 KCAL/MOL
REMARK 924 INTRA-LIGAND FREE ENERGY PREDICTED BY IDOCK:   -0.28 KCAL/MOL
REMARK 927      BINDING AFFINITY PREDICTED BY RF-SCORE:    0.00 PKD
ROOT
HETATM    1  C   UNL     1      -8.278   7.627  64.894  1.00  0.00    -0.095 C  
HETATM    2  N   UNL     1      -8.369   8.855  65.686  1.00  0.00    -0.130 NA 
HETATM    3  C   UNL     1      -7.610   9.924  65.032  1.00  0.00    -0.134 C  
ENDROOT
BRANCH   2   4
HETATM    4  C   UNL     1      -9.766   9.288  65.879  1.00  0.00    -0.285 C  
BRANCH   4   5
HETATM    5  C   UNL     1      -9.932  10.776  66.216  1.00  0.00    -0.272 C  
HETATM    6  C   UNL     1     -10.265  11.060  67.699  1.00  0.00    -0.211 C  
HETATM    7  C   UNL     1      -9.125  10.669  68.636  1.00  0.00    -0.170 A  
HETATM    8  C   UNL     1     -10.704  12.513  67.894  1.00  0.00    -0.217 A  
HETATM    9  C   UNL     1      -7.862  11.272  68.536  1.00  0.00    -0.138 A  
HETATM   10  C   UNL     1     -11.559  12.844  68.946  1.00  0.00    -0.360 A  
HETATM   11  C   UNL     1      -6.817  10.882  69.375  1.00  0.00    -0.114 A  
HETATM   12  C   UNL     1     -11.987  14.164  69.078  1.00  0.00    -0.376 A  
HETATM   13  C   UNL     1     -11.548  15.118  68.169  1.00  0.00    -0.358 A  
HETATM   14  C   UNL     1      -7.024   9.892  70.334  1.00  0.00    -0.145 A  
HETATM   15  C   UNL     1      -8.275   9.292  70.453  1.00  0.00    -0.199 A  
HETATM   16  C   UNL     1     -10.685  14.714  67.166  1.00  0.00    -0.292 A  
HETATM   17  N   UNL     1     -10.253  13.444  67.014  1.00  0.00    -0.247 NA 
HETATM   18  C   UNL     1      -9.319   9.674  69.608  1.00  0.00    -0.226 A  
ENDBRANCH   4   5
ENDBRANCH   2   4
TORSDOF 2
ENDMDL
MODEL      106
REMARK 921   NORMALIZED FREE ENERGY PREDICTED BY IDOCK:   -3.64 KCAL/MOL
REMARK 922        TOTAL FREE ENERGY PREDICTED BY IDOCK:   -4.24 KCAL/MOL
REMARK 923 INTER-LIGAND FREE ENERGY PREDICTED BY IDOCK:   -3.97 KCAL/MOL
REMARK 924 INTRA-LIGAND FREE ENERGY PREDICTED BY IDOCK:   -0.26 KCAL/MOL
REMARK 927      BINDING AFFINITY PREDICTED BY RF-SCORE:    0.00 PKD
ROOT
HETATM    1  C   UNL     1      -6.286  14.920  70.348  1.00  0.00    -0.127 C  
HETATM    2  N   UNL     1      -6.836  15.475  69.110  1.00  0.00    -0.143 NA 
HETATM    3  C   UNL     1      -6.010  16.598  68.660  1.00  0.00    -0.134 C  
ENDROOT
BRANCH   2   4
HETATM    4  C   UNL     1      -6.922  14.465  68.038  1.00  0.00    -0.143 C  
BRANCH   4   5
HETATM    5  C   UNL     1      -8.054  13.444  68.212  1.00  0.00    -0.152 C  
HETATM    6  C   UNL     1      -9.443  14.071  68.476  1.00  0.00    -0.191 C  
HETATM    7  C   UNL     1      -9.951  14.879  67.285  1.00  0.00    -0.230 A  
HETATM    8  C   UNL     1     -10.447  13.009  68.928  1.00  0.00    -0.084 A  
HETATM    9  C   UNL     1     -10.175  14.276  66.038  1.00  0.00    -0.327 A  
HETATM   10  C   UNL     1     -11.526  13.373  69.735  1.00  0.00    -0.236 A  
HETATM   11  C   UNL     1     -10.607  15.031  64.946  1.00  0.00    -0.400 A  
HETATM   12  C   UNL     1     -12.402  12.384  70.178  1.00  0.00    -0.209 A  
HETATM   13  C   UNL     1     -12.189  11.065  69.800  1.00  0.00    -0.388 A  
HETATM   14  C   UNL     1     -10.834  16.398  65.090  1.00  0.00    -0.289 A  
HETATM   15  C   UNL     1     -10.627  17.011  66.324  1.00  0.00    -0.185 A  
HETATM   16  C   UNL     1     -11.109  10.788  68.981  1.00  0.00    -0.253 A  
HETATM   17  N   UNL     1     -10.244  11.724  68.536  1.00  0.00    -0.209 NA 
HETATM   18  C   UNL     1     -10.185  16.258  67.415  1.00  0.00    -0.275 A  
ENDBRANCH   4   5
ENDBRANCH   2   4
TORSDOF 2
ENDMDL
MODEL      107
REMARK 921   NORMALIZED FREE ENERGY PREDICTED BY IDOCK:   -3.62 KCAL/MOL
REMARK 922        TOTAL FREE ENERGY PREDICTED BY IDOCK:   -4.22 KCAL/MOL
REMARK 923 INTER-LIGAND FREE ENERGY PREDICTED BY IDOCK:   -4.04 KCAL/MOL
REMARK 924 INTRA-LIGAND FREE ENERGY PREDICTED BY IDOCK:   -0.18 KCAL/MOL
REMARK 927      BINDING AFFINITY PREDICTED BY RF-SCORE:    0.00 PKD
ROOT
HETATM    1  C   UNL     1     -10.906   4.342  64.969  1.00  0.00    -0.071 C  
HETATM    2  N   UNL     1     -10.783   4.595  66.406  1.00  0.00    -0.063 NA 
HETATM    3  C   UNL     1      -9.655   3.834  66.949  1.00  0.00    -0.179 C  
ENDROOT
BRANCH   2   4
HETATM    4  C   UNL     1     -10.601   6.028  66.704  1.00  0.00    -0.245 C  
BRANCH   4   5
HETATM    5  C   UNL     1     -11.056   6.452  68.107  1.00  0.00    -0.358 C  
HETATM    6  C   UNL     1     -10.065   7.381  68.845  1.00  0.00    -0.188 C  
HETATM    7  C   UNL     1      -9.917   8.736  68.158  1.00  0.00    -0.206 A  
HETATM    8  C   UNL     1     -10.436   7.516  70.323  1.00  0.00    -0.222 A  
HETATM    9  C   UNL     1     -11.014   9.598  68.007  1.00  0.00    -0.197 A  
HETATM   10  C   UNL     1      -9.446   7.798  71.264  1.00  0.00    -0.173 A  
HETATM   11  C   UNL     1     -10.875  10.821  67.347  1.00  0.00    -0.345 A  
HETATM   12  C   UNL     1      -9.795   7.869  72.611  1.00  0.00    -0.316 A  
HETATM   13  C   UNL     1     -11.117   7.667  72.985  1.00  0.00    -0.437 A  
HETATM   14  C   UNL     1      -9.635  11.203  66.840  1.00  0.00    -0.208 A  
HETATM   15  C   UNL     1      -8.534  10.363  66.990  1.00  0.00    -0.127 A  
HETATM   16  C   UNL     1     -12.044   7.413  71.990  1.00  0.00    -0.289 A  
HETATM   17  N   UNL     1     -11.735   7.339  70.677  1.00  0.00    -0.296 NA 
HETATM   18  C   UNL     1      -8.673   9.135  67.642  1.00  0.00    -0.120 A  
ENDBRANCH   4   5
ENDBRANCH   2   4
TORSDOF 2
ENDMDL
MODEL      108
REMARK 921   NORMALIZED FREE ENERGY PREDICTED BY IDOCK:   -3.58 KCAL/MOL
REMARK 922        TOTAL FREE ENERGY PREDICTED BY IDOCK:   -4.17 KCAL/MOL
REMARK 923 INTER-LIGAND FREE ENERGY PREDICTED BY IDOCK:   -3.99 KCAL/MOL
REMARK 924 INTRA-LIGAND FREE ENERGY PREDICTED BY IDOCK:   -0.18 KCAL/MOL
REMARK 927      BINDING AFFINITY PREDICTED BY RF-SCORE:    0.00 PKD
ROOT
HETATM    1  C   UNL     1     -12.264   8.422  72.438  1.00  0.00    -0.367 C  
HETATM    2  N   UNL     1     -11.110   7.538  72.265  1.00  0.00    -0.255 NA 
HETATM    3  C   UNL     1     -10.511   7.245  73.570  1.00  0.00    -0.374 C  
ENDROOT
BRANCH   2   4
HETATM    4  C   UNL     1     -11.473   6.276  71.594  1.00  0.00    -0.296 C  
BRANCH   4   5
HETATM    5  C   UNL     1     -10.287   5.353  71.284  1.00  0.00    -0.296 C  
HETATM    6  C   UNL     1     -10.224   4.866  69.817  1.00  0.00    -0.284 C  
HETATM    7  C   UNL     1      -9.977   6.009  68.836  1.00  0.00    -0.192 A  
HETATM    8  C   UNL     1      -9.208   3.734  69.658  1.00  0.00    -0.152 A  
HETATM    9  C   UNL     1      -8.807   6.783  68.900  1.00  0.00    -0.128 A  
HETATM   10  C   UNL     1      -9.371   2.793  68.642  1.00  0.00    -0.240 A  
HETATM   11  C   UNL     1      -8.607   7.848  68.019  1.00  0.00    -0.126 A  
HETATM   12  C   UNL     1      -8.463   1.740  68.543  1.00  0.00    -0.084 A  
HETATM   13  C   UNL     1      -7.414   1.657  69.449  1.00  0.00    -0.042 A  
HETATM   14  C   UNL     1      -9.567   8.145  67.054  1.00  0.00    -0.253 A  
HETATM   15  C   UNL     1     -10.728   7.380  66.971  1.00  0.00    -0.389 A  
HETATM   16  C   UNL     1      -7.308   2.642  70.415  1.00  0.00    -0.037 A  
HETATM   17  N   UNL     1      -8.172   3.672  70.535  1.00  0.00    -0.053 NA 
HETATM   18  C   UNL     1     -10.935   6.320  67.857  1.00  0.00    -0.421 A  
ENDBRANCH   4   5
ENDBRANCH   2   4
TORSDOF 2
ENDMDL
MODEL      109
REMARK 921   NORMALIZED FREE ENERGY PREDICTED BY IDOCK:   -3.57 KCAL/MOL
REMARK 922        TOTAL FREE ENERGY PREDICTED BY IDOCK:   -4.16 KCAL/MOL
REMARK 923 INTER-LIGAND FREE ENERGY PREDICTED BY IDOCK:   -3.95 KCAL/MOL
REMARK 924 INTRA-LIGAND FREE ENERGY PREDICTED BY IDOCK:   -0.21 KCAL/MOL
REMARK 927      BINDING AFFINITY PREDICTED BY RF-SCORE:    0.00 PKD
ROOT
HETATM    1  C   UNL     1     -11.997  11.041  69.736  1.00  0.00    -0.356 C  
HETATM    2  N   UNL     1     -11.519  12.211  68.996  1.00  0.00    -0.274 NA 
HETATM    3  C   UNL     1     -11.497  13.380  69.879  1.00  0.00    -0.111 C  
ENDROOT
BRANCH   2   4
HETATM    4  C   UNL     1     -10.174  11.997  68.428  1.00  0.00    -0.209 C  
BRANCH   4   5
HETATM    5  C   UNL     1     -10.164  11.578  66.951  1.00  0.00    -0.249 C  
HETATM    6  C   UNL     1      -9.070  10.547  66.588  1.00  0.00    -0.172 C  
HETATM    7  C   UNL     1      -9.287   9.203  67.277  1.00  0.00    -0.166 A  
HETATM    8  C   UNL     1      -8.930  10.407  65.071  1.00  0.00    -0.195 A  
HETATM    9  C   UNL     1     -10.443   8.443  67.042  1.00  0.00    -0.375 A  
HETATM   10  C   UNL     1      -7.710  10.016  64.520  1.00  0.00    -0.145 A  
HETATM   11  C   UNL     1     -10.647   7.231  67.704  1.00  0.00    -0.316 A  
HETATM   12  C   UNL     1      -7.588   9.941  63.134  1.00  0.00    -0.135 A  
HETATM   13  C   UNL     1      -8.682  10.248  62.335  1.00  0.00    -0.251 A  
HETATM   14  C   UNL     1      -9.692   6.755  68.600  1.00  0.00    -0.131 A  
HETATM   15  C   UNL     1      -8.534   7.492  68.836  1.00  0.00    -0.129 A  
HETATM   16  C   UNL     1      -9.864  10.607  62.958  1.00  0.00    -0.273 A  
HETATM   17  N   UNL     1     -10.012  10.688  64.298  1.00  0.00    -0.332 NA 
HETATM   18  C   UNL     1      -8.332   8.710  68.182  1.00  0.00    -0.127 A  
ENDBRANCH   4   5
ENDBRANCH   2   4
TORSDOF 2
ENDMDL
MODEL      110
REMARK 921   NORMALIZED FREE ENERGY PREDICTED BY IDOCK:   -3.56 KCAL/MOL
REMARK 922        TOTAL FREE ENERGY PREDICTED BY IDOCK:   -4.15 KCAL/MOL
REMARK 923 INTER-LIGAND FREE ENERGY PREDICTED BY IDOCK:   -3.97 KCAL/MOL
REMARK 924 INTRA-LIGAND FREE ENERGY PREDICTED BY IDOCK:   -0.18 KCAL/MOL
REMARK 927      BINDING AFFINITY PREDICTED BY RF-SCORE:    0.00 PKD
ROOT
HETATM    1  C   UNL     1     -14.151   8.922  72.420  1.00  0.00    -0.420 C  
HETATM    2  N   UNL     1     -13.143   8.738  71.373  1.00  0.00    -0.295 NA 
HETATM    3  C   UNL     1     -12.215   9.871  71.373  1.00  0.00    -0.408 C  
ENDROOT
BRANCH   2   4
HETATM    4  C   UNL     1     -12.389   7.481  71.543  1.00  0.00    -0.339 C  
BRANCH   4   5
HETATM    5  C   UNL     1     -11.918   6.836  70.233  1.00  0.00    -0.294 C  
HETATM    6  C   UNL     1     -10.381   6.776  70.068  1.00  0.00    -0.225 C  
HETATM    7  C   UNL     1      -9.721   5.868  71.102  1.00  0.00    -0.209 A  
HETATM    8  C   UNL     1      -9.997   6.402  68.636  1.00  0.00    -0.146 A  
HETATM    9  C   UNL     1     -10.026   4.499  71.168  1.00  0.00    -0.257 A  
HETATM   10  C   UNL     1      -8.775   6.824  68.112  1.00  0.00    -0.122 A  
HETATM   11  C   UNL     1      -9.442   3.684  72.139  1.00  0.00    -0.196 A  
HETATM   12  C   UNL     1      -8.464   6.515  66.789  1.00  0.00    -0.113 A  
HETATM   13  C   UNL     1      -9.370   5.789  66.027  1.00  0.00    -0.134 A  
HETATM   14  C   UNL     1      -8.536   4.223  73.050  1.00  0.00    -0.094 A  
HETATM   15  C   UNL     1      -8.215   5.577  72.991  1.00  0.00    -0.119 A  
HETATM   16  C   UNL     1     -10.551   5.388  66.626  1.00  0.00    -0.294 A  
HETATM   17  N   UNL     1     -10.880   5.672  67.904  1.00  0.00    -0.169 NA 
HETATM   18  C   UNL     1      -8.805   6.396  72.026  1.00  0.00    -0.134 A  
ENDBRANCH   4   5
ENDBRANCH   2   4
TORSDOF 2
ENDMDL
MODEL      111
REMARK 921   NORMALIZED FREE ENERGY PREDICTED BY IDOCK:   -3.56 KCAL/MOL
REMARK 922        TOTAL FREE ENERGY PREDICTED BY IDOCK:   -4.15 KCAL/MOL
REMARK 923 INTER-LIGAND FREE ENERGY PREDICTED BY IDOCK:   -3.88 KCAL/MOL
REMARK 924 INTRA-LIGAND FREE ENERGY PREDICTED BY IDOCK:   -0.27 KCAL/MOL
REMARK 927      BINDING AFFINITY PREDICTED BY RF-SCORE:    0.00 PKD
ROOT
HETATM    1  C   UNL     1      -5.713   7.861  69.730  1.00  0.00    -0.023 C  
HETATM    2  N   UNL     1      -7.164   7.924  69.550  1.00  0.00    -0.079 NA 
HETATM    3  C   UNL     1      -7.724   6.570  69.564  1.00  0.00    -0.100 C  
ENDROOT
BRANCH   2   4
HETATM    4  C   UNL     1      -7.818   8.739  70.592  1.00  0.00    -0.107 C  
BRANCH   4   5
HETATM    5  C   UNL     1      -8.593   9.952  70.061  1.00  0.00    -0.196 C  
HETATM    6  C   UNL     1      -9.881   9.595  69.282  1.00  0.00    -0.195 C  
HETATM    7  C   UNL     1     -10.932   8.936  70.170  1.00  0.00    -0.245 A  
HETATM    8  C   UNL     1     -10.429  10.816  68.541  1.00  0.00    -0.187 A  
HETATM    9  C   UNL     1     -11.478   9.608  71.274  1.00  0.00    -0.463 A  
HETATM   10  C   UNL     1     -11.185  10.641  67.381  1.00  0.00    -0.280 A  
HETATM   11  C   UNL     1     -12.414   8.983  72.099  1.00  0.00    -0.450 A  
HETATM   12  C   UNL     1     -11.635  11.766  66.692  1.00  0.00    -0.273 A  
HETATM   13  C   UNL     1     -11.329  13.031  67.178  1.00  0.00    -0.348 A  
HETATM   14  C   UNL     1     -12.827   7.681  71.824  1.00  0.00    -0.357 A  
HETATM   15  C   UNL     1     -12.303   7.003  70.726  1.00  0.00    -0.307 A  
HETATM   16  C   UNL     1     -10.592  13.120  68.345  1.00  0.00    -0.251 A  
HETATM   17  N   UNL     1     -10.144  12.049  69.034  1.00  0.00     0.002 NA 
HETATM   18  C   UNL     1     -11.359   7.624  69.905  1.00  0.00    -0.017 A  
ENDBRANCH   4   5
ENDBRANCH   2   4
TORSDOF 2
ENDMDL
MODEL      112
REMARK 921   NORMALIZED FREE ENERGY PREDICTED BY IDOCK:   -3.55 KCAL/MOL
REMARK 922        TOTAL FREE ENERGY PREDICTED BY IDOCK:   -4.14 KCAL/MOL
REMARK 923 INTER-LIGAND FREE ENERGY PREDICTED BY IDOCK:   -3.91 KCAL/MOL
REMARK 924 INTRA-LIGAND FREE ENERGY PREDICTED BY IDOCK:   -0.23 KCAL/MOL
REMARK 927      BINDING AFFINITY PREDICTED BY RF-SCORE:    0.00 PKD
ROOT
HETATM    1  C   UNL     1     -12.073  12.252  63.484  1.00  0.00    -0.553 C  
HETATM    2  N   UNL     1     -11.186  11.387  64.265  1.00  0.00    -0.289 NA 
HETATM    3  C   UNL     1     -10.149  10.826  63.395  1.00  0.00    -0.284 C  
ENDROOT
BRANCH   2   4
HETATM    4  C   UNL     1     -10.554  12.108  65.386  1.00  0.00    -0.272 C  
BRANCH   4   5
HETATM    5  C   UNL     1     -10.842  11.513  66.771  1.00  0.00    -0.330 C  
HETATM    6  C   UNL     1      -9.931  10.324  67.156  1.00  0.00    -0.243 C  
HETATM    7  C   UNL     1      -8.470  10.737  67.307  1.00  0.00    -0.124 A  
HETATM    8  C   UNL     1     -10.463   9.605  68.397  1.00  0.00    -0.223 A  
HETATM    9  C   UNL     1      -8.077  11.683  68.267  1.00  0.00    -0.150 A  
HETATM   10  C   UNL     1     -10.183   8.252  68.590  1.00  0.00    -0.223 A  
HETATM   11  C   UNL     1      -6.742  12.079  68.374  1.00  0.00    -0.065 A  
HETATM   12  C   UNL     1     -10.717   7.602  69.701  1.00  0.00    -0.230 A  
HETATM   13  C   UNL     1     -11.506   8.315  70.593  1.00  0.00    -0.236 A  
HETATM   14  C   UNL     1      -5.780  11.524  67.531  1.00  0.00    -0.063 A  
HETATM   15  C   UNL     1      -6.153  10.576  66.581  1.00  0.00    -0.073 A  
HETATM   16  C   UNL     1     -11.721   9.659  70.344  1.00  0.00    -0.202 A  
HETATM   17  N   UNL     1     -11.217  10.315  69.277  1.00  0.00    -0.236 NA 
HETATM   18  C   UNL     1      -7.489  10.187  66.466  1.00  0.00    -0.109 A  
ENDBRANCH   4   5
ENDBRANCH   2   4
TORSDOF 2
ENDMDL
MODEL      113
REMARK 921   NORMALIZED FREE ENERGY PREDICTED BY IDOCK:   -3.53 KCAL/MOL
REMARK 922        TOTAL FREE ENERGY PREDICTED BY IDOCK:   -4.11 KCAL/MOL
REMARK 923 INTER-LIGAND FREE ENERGY PREDICTED BY IDOCK:   -3.81 KCAL/MOL
REMARK 924 INTRA-LIGAND FREE ENERGY PREDICTED BY IDOCK:   -0.31 KCAL/MOL
REMARK 927      BINDING AFFINITY PREDICTED BY RF-SCORE:    0.00 PKD
ROOT
HETATM    1  C   UNL     1     -10.635  18.171  67.567  1.00  0.00    -0.401 C  
HETATM    2  N   UNL     1      -9.294  18.178  66.978  1.00  0.00    -0.263 NA 
HETATM    3  C   UNL     1      -8.291  18.361  68.030  1.00  0.00    -0.272 C  
ENDROOT
BRANCH   2   4
HETATM    4  C   UNL     1      -9.009  16.937  66.233  1.00  0.00    -0.270 C  
BRANCH   4   5
HETATM    5  C   UNL     1      -9.726  15.691  66.769  1.00  0.00    -0.255 C  
HETATM    6  C   UNL     1      -8.822  14.444  66.907  1.00  0.00    -0.246 C  
HETATM    7  C   UNL     1      -7.729  14.633  67.955  1.00  0.00    -0.136 A  
HETATM    8  C   UNL     1      -9.656  13.187  67.157  1.00  0.00    -0.235 A  
HETATM    9  C   UNL     1      -8.046  14.870  69.302  1.00  0.00    -0.135 A  
HETATM   10  C   UNL     1      -9.170  11.941  66.759  1.00  0.00    -0.194 A  
HETATM   11  C   UNL     1      -7.038  15.074  70.247  1.00  0.00     0.159 A  
HETATM   12  C   UNL     1      -9.965  10.813  66.950  1.00  0.00    -0.240 A  
HETATM   13  C   UNL     1     -11.215  10.951  67.538  1.00  0.00    -0.364 A  
HETATM   14  C   UNL     1      -5.700  15.032  69.860  1.00  0.00    -0.121 A  
HETATM   15  C   UNL     1      -5.369  14.787  68.530  1.00  0.00    -0.102 A  
HETATM   16  C   UNL     1     -11.618  12.217  67.924  1.00  0.00    -0.354 A  
HETATM   17  N   UNL     1     -10.870  13.328  67.751  1.00  0.00    -0.247 NA 
HETATM   18  C   UNL     1      -6.376  14.591  67.581  1.00  0.00    -0.128 A  
ENDBRANCH   4   5
ENDBRANCH   2   4
TORSDOF 2
ENDMDL
MODEL      114
REMARK 921   NORMALIZED FREE ENERGY PREDICTED BY IDOCK:   -3.53 KCAL/MOL
REMARK 922        TOTAL FREE ENERGY PREDICTED BY IDOCK:   -4.11 KCAL/MOL
REMARK 923 INTER-LIGAND FREE ENERGY PREDICTED BY IDOCK:   -3.90 KCAL/MOL
REMARK 924 INTRA-LIGAND FREE ENERGY PREDICTED BY IDOCK:   -0.21 KCAL/MOL
REMARK 927      BINDING AFFINITY PREDICTED BY RF-SCORE:    0.00 PKD
ROOT
HETATM    1  C   UNL     1      -5.581  16.599  69.975  1.00  0.00    -0.211 C  
HETATM    2  N   UNL     1      -6.297  15.827  68.956  1.00  0.00    -0.120 NA 
HETATM    3  C   UNL     1      -5.533  15.831  67.705  1.00  0.00    -0.132 C  
ENDROOT
BRANCH   2   4
HETATM    4  C   UNL     1      -6.540  14.436  69.382  1.00  0.00    -0.137 C  
BRANCH   4   5
HETATM    5  C   UNL     1      -7.215  13.553  68.325  1.00  0.00    -0.111 C  
HETATM    6  C   UNL     1      -8.754  13.468  68.453  1.00  0.00    -0.140 C  
HETATM    7  C   UNL     1      -9.433  14.810  68.197  1.00  0.00    -0.208 A  
HETATM    8  C   UNL     1      -9.317  12.353  67.569  1.00  0.00    -0.181 A  
HETATM    9  C   UNL     1      -9.314  15.461  66.960  1.00  0.00    -0.238 A  
HETATM   10  C   UNL     1     -10.513  11.727  67.920  1.00  0.00    -0.219 A  
HETATM   11  C   UNL     1      -9.911  16.705  66.747  1.00  0.00    -0.284 A  
HETATM   12  C   UNL     1     -10.985  10.681  67.130  1.00  0.00    -0.312 A  
HETATM   13  C   UNL     1     -10.262  10.293  66.009  1.00  0.00    -0.298 A  
HETATM   14  C   UNL     1     -10.646  17.309  67.766  1.00  0.00    -0.367 A  
HETATM   15  C   UNL     1     -10.782  16.671  68.996  1.00  0.00    -0.343 A  
HETATM   16  C   UNL     1      -9.097  10.978  65.716  1.00  0.00    -0.202 A  
HETATM   17  N   UNL     1      -8.615  11.994  66.463  1.00  0.00    -0.147 NA 
HETATM   18  C   UNL     1     -10.178  15.431  69.213  1.00  0.00    -0.250 A  
ENDBRANCH   4   5
ENDBRANCH   2   4
TORSDOF 2
ENDMDL
MODEL      115
REMARK 921   NORMALIZED FREE ENERGY PREDICTED BY IDOCK:   -3.52 KCAL/MOL
REMARK 922        TOTAL FREE ENERGY PREDICTED BY IDOCK:   -4.11 KCAL/MOL
REMARK 923 INTER-LIGAND FREE ENERGY PREDICTED BY IDOCK:   -3.91 KCAL/MOL
REMARK 924 INTRA-LIGAND FREE ENERGY PREDICTED BY IDOCK:   -0.21 KCAL/MOL
REMARK 927      BINDING AFFINITY PREDICTED BY RF-SCORE:    0.00 PKD
ROOT
HETATM    1  C   UNL     1      -8.310  15.538  68.022  1.00  0.00    -0.142 C  
HETATM    2  N   UNL     1      -9.753  15.386  68.221  1.00  0.00    -0.207 NA 
HETATM    3  C   UNL     1     -10.470  15.884  67.045  1.00  0.00    -0.306 C  
ENDROOT
BRANCH   2   4
HETATM    4  C   UNL     1     -10.133  13.984  68.475  1.00  0.00    -0.236 C  
BRANCH   4   5
HETATM    5  C   UNL     1     -10.304  13.129  67.211  1.00  0.00    -0.243 C  
HETATM    6  C   UNL     1      -9.389  11.884  67.155  1.00  0.00    -0.180 C  
HETATM    7  C   UNL     1      -9.721  10.870  68.247  1.00  0.00    -0.171 A  
HETATM    8  C   UNL     1      -9.399  11.259  65.759  1.00  0.00    -0.223 A  
HETATM    9  C   UNL     1     -10.982  10.259  68.314  1.00  0.00    -0.315 A  
HETATM   10  C   UNL     1      -8.292  10.536  65.315  1.00  0.00    -0.155 A  
HETATM   11  C   UNL     1     -11.286   9.359  69.337  1.00  0.00    -0.019 A  
HETATM   12  C   UNL     1      -8.300  10.015  64.022  1.00  0.00    -0.170 A  
HETATM   13  C   UNL     1      -9.408  10.219  63.211  1.00  0.00    -0.340 A  
HETATM   14  C   UNL     1     -10.328   9.048  70.299  1.00  0.00    -0.243 A  
HETATM   15  C   UNL     1      -9.067   9.637  70.241  1.00  0.00    -0.272 A  
HETATM   16  C   UNL     1     -10.475  10.929  63.732  1.00  0.00    -0.259 A  
HETATM   17  N   UNL     1     -10.496  11.444  64.980  1.00  0.00    -0.290 NA 
HETATM   18  C   UNL     1      -8.765  10.546  69.224  1.00  0.00    -0.135 A  
ENDBRANCH   4   5
ENDBRANCH   2   4
TORSDOF 2
ENDMDL
MODEL      116
REMARK 921   NORMALIZED FREE ENERGY PREDICTED BY IDOCK:   -3.52 KCAL/MOL
REMARK 922        TOTAL FREE ENERGY PREDICTED BY IDOCK:   -4.11 KCAL/MOL
REMARK 923 INTER-LIGAND FREE ENERGY PREDICTED BY IDOCK:   -3.90 KCAL/MOL
REMARK 924 INTRA-LIGAND FREE ENERGY PREDICTED BY IDOCK:   -0.21 KCAL/MOL
REMARK 927      BINDING AFFINITY PREDICTED BY RF-SCORE:    0.00 PKD
ROOT
HETATM    1  C   UNL     1      -8.454   8.932  64.312  1.00  0.00    -0.149 C  
HETATM    2  N   UNL     1      -8.618   9.122  65.755  1.00  0.00    -0.144 NA 
HETATM    3  C   UNL     1      -8.354  10.520  66.104  1.00  0.00    -0.155 C  
ENDROOT
BRANCH   2   4
HETATM    4  C   UNL     1      -9.969   8.746  66.213  1.00  0.00    -0.245 C  
BRANCH   4   5
HETATM    5  C   UNL     1     -10.180   8.847  67.730  1.00  0.00    -0.283 C  
HETATM    6  C   UNL     1     -10.410   7.489  68.434  1.00  0.00    -0.226 C  
HETATM    7  C   UNL     1      -9.184   6.583  68.363  1.00  0.00    -0.121 A  
HETATM    8  C   UNL     1     -10.901   7.691  69.868  1.00  0.00    -0.235 A  
HETATM    9  C   UNL     1      -7.962   6.966  68.938  1.00  0.00    -0.116 A  
HETATM   10  C   UNL     1     -11.687   6.712  70.477  1.00  0.00    -0.453 A  
HETATM   11  C   UNL     1      -6.837   6.145  68.838  1.00  0.00    -0.066 A  
HETATM   12  C   UNL     1     -12.166   6.935  71.766  1.00  0.00    -0.396 A  
HETATM   13  C   UNL     1     -11.845   8.119  72.418  1.00  0.00    -0.448 A  
HETATM   14  C   UNL     1      -6.923   4.923  68.173  1.00  0.00    -0.061 A  
HETATM   15  C   UNL     1      -8.130   4.524  67.606  1.00  0.00    -0.099 A  
HETATM   16  C   UNL     1     -11.044   9.031  71.755  1.00  0.00    -0.374 A  
HETATM   17  N   UNL     1     -10.565   8.842  70.506  1.00  0.00    -0.207 NA 
HETATM   18  C   UNL     1      -9.254   5.348  67.697  1.00  0.00    -0.116 A  
ENDBRANCH   4   5
ENDBRANCH   2   4
TORSDOF 2
ENDMDL
MODEL      117
REMARK 921   NORMALIZED FREE ENERGY PREDICTED BY IDOCK:   -3.45 KCAL/MOL
REMARK 922        TOTAL FREE ENERGY PREDICTED BY IDOCK:   -4.03 KCAL/MOL
REMARK 923 INTER-LIGAND FREE ENERGY PREDICTED BY IDOCK:   -3.83 KCAL/MOL
REMARK 924 INTRA-LIGAND FREE ENERGY PREDICTED BY IDOCK:   -0.19 KCAL/MOL
REMARK 927      BINDING AFFINITY PREDICTED BY RF-SCORE:    0.00 PKD
ROOT
HETATM    1  C   UNL     1      -9.065  12.393  67.435  1.00  0.00    -0.183 C  
HETATM    2  N   UNL     1     -10.434  12.367  67.956  1.00  0.00    -0.211 NA 
HETATM    3  C   UNL     1     -11.388  12.410  66.845  1.00  0.00    -0.333 C  
ENDROOT
BRANCH   2   4
HETATM    4  C   UNL     1     -10.691  11.172  68.782  1.00  0.00    -0.199 C  
BRANCH   4   5
HETATM    5  C   UNL     1     -10.408   9.837  68.079  1.00  0.00    -0.250 C  
HETATM    6  C   UNL     1      -9.415   8.919  68.830  1.00  0.00    -0.144 C  
HETATM    7  C   UNL     1      -9.968   8.439  70.169  1.00  0.00    -0.190 A  
HETATM    8  C   UNL     1      -8.959   7.761  67.941  1.00  0.00    -0.125 A  
HETATM    9  C   UNL     1     -11.137   7.665  70.238  1.00  0.00    -0.256 A  
HETATM   10  C   UNL     1      -7.713   7.171  68.154  1.00  0.00    -0.117 A  
HETATM   11  C   UNL     1     -11.652   7.260  71.471  1.00  0.00    -0.306 A  
HETATM   12  C   UNL     1      -7.294   6.150  67.304  1.00  0.00    -0.077 A  
HETATM   13  C   UNL     1      -8.127   5.738  66.271  1.00  0.00    -0.107 A  
HETATM   14  C   UNL     1     -10.999   7.613  72.650  1.00  0.00    -0.405 A  
HETATM   15  C   UNL     1      -9.832   8.371  72.598  1.00  0.00    -0.329 A  
HETATM   16  C   UNL     1      -9.356   6.358  66.138  1.00  0.00    -0.076 A  
HETATM   17  N   UNL     1      -9.789   7.349  66.946  1.00  0.00    -0.199 NA 
HETATM   18  C   UNL     1      -9.320   8.785  71.366  1.00  0.00    -0.328 A  
ENDBRANCH   4   5
ENDBRANCH   2   4
TORSDOF 2
ENDMDL
MODEL      118
REMARK 921   NORMALIZED FREE ENERGY PREDICTED BY IDOCK:   -3.43 KCAL/MOL
REMARK 922        TOTAL FREE ENERGY PREDICTED BY IDOCK:   -4.00 KCAL/MOL
REMARK 923 INTER-LIGAND FREE ENERGY PREDICTED BY IDOCK:   -3.89 KCAL/MOL
REMARK 924 INTRA-LIGAND FREE ENERGY PREDICTED BY IDOCK:   -0.12 KCAL/MOL
REMARK 927      BINDING AFFINITY PREDICTED BY RF-SCORE:    0.00 PKD
ROOT
HETATM    1  C   UNL     1      -9.725  15.094  65.751  1.00  0.00    -0.344 C  
HETATM    2  N   UNL     1      -9.380  15.687  67.045  1.00  0.00    -0.219 NA 
HETATM    3  C   UNL     1      -9.990  14.907  68.125  1.00  0.00    -0.222 C  
ENDROOT
BRANCH   2   4
HETATM    4  C   UNL     1      -7.921  15.759  67.252  1.00  0.00    -0.186 C  
BRANCH   4   5
HETATM    5  C   UNL     1      -7.480  16.736  68.350  1.00  0.00    -0.202 C  
HETATM    6  C   UNL     1      -7.292  18.193  67.870  1.00  0.00    -0.225 C  
HETATM    7  C   UNL     1      -8.603  18.829  67.416  1.00  0.00    -0.289 A  
HETATM    8  C   UNL     1      -6.575  19.032  68.929  1.00  0.00    -0.277 A  
HETATM    9  C   UNL     1      -9.679  18.987  68.303  1.00  0.00    -0.419 A  
HETATM   10  C   UNL     1      -5.816  20.137  68.543  1.00  0.00    -0.291 A  
HETATM   11  C   UNL     1     -10.887  19.539  67.869  1.00  0.00    -0.304 A  
HETATM   12  C   UNL     1      -5.131  20.860  69.518  1.00  0.00    -0.394 A  
HETATM   13  C   UNL     1      -5.226  20.472  70.848  1.00  0.00    -0.278 A  
HETATM   14  C   UNL     1     -11.029  19.951  66.546  1.00  0.00    -0.168 A  
HETATM   15  C   UNL     1      -9.967  19.811  65.656  1.00  0.00    -0.203 A  
HETATM   16  C   UNL     1      -6.016  19.378  71.153  1.00  0.00     0.012 A  
HETATM   17  N   UNL     1      -6.691  18.659  70.231  1.00  0.00     0.382 NA 
HETATM   18  C   UNL     1      -8.762  19.250  66.086  1.00  0.00    -0.259 A  
ENDBRANCH   4   5
ENDBRANCH   2   4
TORSDOF 2
ENDMDL
MODEL      119
REMARK 921   NORMALIZED FREE ENERGY PREDICTED BY IDOCK:   -3.42 KCAL/MOL
REMARK 922        TOTAL FREE ENERGY PREDICTED BY IDOCK:   -3.99 KCAL/MOL
REMARK 923 INTER-LIGAND FREE ENERGY PREDICTED BY IDOCK:   -3.71 KCAL/MOL
REMARK 924 INTRA-LIGAND FREE ENERGY PREDICTED BY IDOCK:   -0.28 KCAL/MOL
REMARK 927      BINDING AFFINITY PREDICTED BY RF-SCORE:    0.00 PKD
ROOT
HETATM    1  C   UNL     1      -5.361  12.172  69.564  1.00  0.00    -0.070 C  
HETATM    2  N   UNL     1      -6.337  13.261  69.645  1.00  0.00    -0.110 NA 
HETATM    3  C   UNL     1      -5.799  14.347  70.468  1.00  0.00    -0.170 C  
ENDROOT
BRANCH   2   4
HETATM    4  C   UNL     1      -6.698  13.783  68.313  1.00  0.00    -0.109 C  
BRANCH   4   5
HETATM    5  C   UNL     1      -8.204  13.787  68.017  1.00  0.00    -0.164 C  
HETATM    6  C   UNL     1      -8.627  12.861  66.853  1.00  0.00    -0.132 C  
HETATM    7  C   UNL     1      -8.390  11.386  67.169  1.00  0.00    -0.155 A  
HETATM    8  C   UNL     1     -10.070  13.139  66.427  1.00  0.00    -0.281 A  
HETATM    9  C   UNL     1      -9.038  10.760  68.244  1.00  0.00    -0.157 A  
HETATM   10  C   UNL     1     -10.470  12.875  65.117  1.00  0.00    -0.326 A  
HETATM   11  C   UNL     1      -8.788   9.419  68.545  1.00  0.00    -0.128 A  
HETATM   12  C   UNL     1     -11.774  13.181  64.734  1.00  0.00    -0.387 A  
HETATM   13  C   UNL     1     -12.646  13.732  65.663  1.00  0.00    -0.551 A  
HETATM   14  C   UNL     1      -7.897   8.684  67.767  1.00  0.00    -0.103 A  
HETATM   15  C   UNL     1      -7.254   9.288  66.689  1.00  0.00    -0.082 A  
HETATM   16  C   UNL     1     -12.180  13.944  66.948  1.00  0.00    -0.377 A  
HETATM   17  N   UNL     1     -10.923  13.658  67.348  1.00  0.00    -0.272 NA 
HETATM   18  C   UNL     1      -7.495  10.632  66.393  1.00  0.00    -0.138 A  
ENDBRANCH   4   5
ENDBRANCH   2   4
TORSDOF 2
ENDMDL
MODEL      120
REMARK 921   NORMALIZED FREE ENERGY PREDICTED BY IDOCK:   -3.40 KCAL/MOL
REMARK 922        TOTAL FREE ENERGY PREDICTED BY IDOCK:   -3.98 KCAL/MOL
REMARK 923 INTER-LIGAND FREE ENERGY PREDICTED BY IDOCK:   -3.82 KCAL/MOL
REMARK 924 INTRA-LIGAND FREE ENERGY PREDICTED BY IDOCK:   -0.16 KCAL/MOL
REMARK 927      BINDING AFFINITY PREDICTED BY RF-SCORE:    0.00 PKD
ROOT
HETATM    1  C   UNL     1      -8.308  16.621  66.571  1.00  0.00    -0.287 C  
HETATM    2  N   UNL     1      -9.040  15.641  67.376  1.00  0.00    -0.191 NA 
HETATM    3  C   UNL     1     -10.399  16.127  67.633  1.00  0.00    -0.288 C  
ENDROOT
BRANCH   2   4
HETATM    4  C   UNL     1      -9.103  14.321  66.721  1.00  0.00    -0.249 C  
BRANCH   4   5
HETATM    5  C   UNL     1      -8.681  13.145  67.612  1.00  0.00    -0.192 C  
HETATM    6  C   UNL     1      -9.563  11.884  67.465  1.00  0.00    -0.175 C  
HETATM    7  C   UNL     1      -9.457  11.259  66.077  1.00  0.00    -0.240 A  
HETATM    8  C   UNL     1      -9.272  10.877  68.579  1.00  0.00    -0.181 A  
HETATM    9  C   UNL     1      -8.234  10.774  65.589  1.00  0.00    -0.127 A  
HETATM   10  C   UNL     1     -10.266   9.988  68.989  1.00  0.00    -0.216 A  
HETATM   11  C   UNL     1      -8.140  10.236  64.304  1.00  0.00    -0.143 A  
HETATM   12  C   UNL     1      -9.998   9.112  70.038  1.00  0.00    -0.223 A  
HETATM   13  C   UNL     1      -8.749   9.136  70.645  1.00  0.00    -0.272 A  
HETATM   14  C   UNL     1      -9.272  10.163  63.494  1.00  0.00    -0.322 A  
HETATM   15  C   UNL     1     -10.496  10.630  63.968  1.00  0.00    -0.150 A  
HETATM   16  C   UNL     1      -7.810  10.033  70.168  1.00  0.00    -0.123 A  
HETATM   17  N   UNL     1      -8.041  10.893  69.153  1.00  0.00    -0.133 NA 
HETATM   18  C   UNL     1     -10.589  11.178  65.249  1.00  0.00    -0.303 A  
ENDBRANCH   4   5
ENDBRANCH   2   4
TORSDOF 2
ENDMDL
MODEL      121
REMARK 921   NORMALIZED FREE ENERGY PREDICTED BY IDOCK:   -3.39 KCAL/MOL
REMARK 922        TOTAL FREE ENERGY PREDICTED BY IDOCK:   -3.96 KCAL/MOL
REMARK 923 INTER-LIGAND FREE ENERGY PREDICTED BY IDOCK:   -3.80 KCAL/MOL
REMARK 924 INTRA-LIGAND FREE ENERGY PREDICTED BY IDOCK:   -0.16 KCAL/MOL
REMARK 927      BINDING AFFINITY PREDICTED BY RF-SCORE:    0.00 PKD
ROOT
HETATM    1  C   UNL     1     -10.792   8.281  71.101  1.00  0.00    -0.233 C  
HETATM    2  N   UNL     1     -11.271   9.433  70.335  1.00  0.00    -0.254 NA 
HETATM    3  C   UNL     1     -12.110  10.280  71.187  1.00  0.00    -0.395 C  
ENDROOT
BRANCH   2   4
HETATM    4  C   UNL     1     -10.162  10.233  69.783  1.00  0.00    -0.220 C  
BRANCH   4   5
HETATM    5  C   UNL     1     -10.156  10.346  68.253  1.00  0.00    -0.174 C  
HETATM    6  C   UNL     1      -9.802  11.754  67.719  1.00  0.00    -0.186 C  
HETATM    7  C   UNL     1      -8.369  12.158  68.053  1.00  0.00    -0.167 A  
HETATM    8  C   UNL     1     -10.104  11.865  66.223  1.00  0.00    -0.220 A  
HETATM    9  C   UNL     1      -7.275  11.419  67.575  1.00  0.00    -0.107 A  
HETATM   10  C   UNL     1     -10.408  13.108  65.667  1.00  0.00    -0.291 A  
HETATM   11  C   UNL     1      -5.969  11.778  67.915  1.00  0.00    -0.050 A  
HETATM   12  C   UNL     1     -10.728  13.183  64.313  1.00  0.00    -0.431 A  
HETATM   13  C   UNL     1     -10.729  12.024  63.548  1.00  0.00    -0.513 A  
HETATM   14  C   UNL     1      -5.738  12.887  68.726  1.00  0.00    -0.068 A  
HETATM   15  C   UNL     1      -6.813  13.637  69.199  1.00  0.00    -0.095 A  
HETATM   16  C   UNL     1     -10.396  10.833  64.168  1.00  0.00    -0.311 A  
HETATM   17  N   UNL     1     -10.081  10.730  65.477  1.00  0.00    -0.261 NA 
HETATM   18  C   UNL     1      -8.120  13.274  68.868  1.00  0.00     0.171 A  
ENDBRANCH   4   5
ENDBRANCH   2   4
TORSDOF 2
ENDMDL
MODEL      122
REMARK 921   NORMALIZED FREE ENERGY PREDICTED BY IDOCK:   -3.38 KCAL/MOL
REMARK 922        TOTAL FREE ENERGY PREDICTED BY IDOCK:   -3.95 KCAL/MOL
REMARK 923 INTER-LIGAND FREE ENERGY PREDICTED BY IDOCK:   -3.78 KCAL/MOL
REMARK 924 INTRA-LIGAND FREE ENERGY PREDICTED BY IDOCK:   -0.17 KCAL/MOL
REMARK 927      BINDING AFFINITY PREDICTED BY RF-SCORE:    0.00 PKD
ROOT
HETATM    1  C   UNL     1      -7.685  10.270  68.404  1.00  0.00    -0.093 C  
HETATM    2  N   UNL     1      -8.926  10.988  68.700  1.00  0.00    -0.166 NA 
HETATM    3  C   UNL     1      -9.567  11.405  67.450  1.00  0.00    -0.174 C  
ENDROOT
BRANCH   2   4
HETATM    4  C   UNL     1      -9.867  10.170  69.488  1.00  0.00    -0.232 C  
BRANCH   4   5
HETATM    5  C   UNL     1      -9.295   8.834  69.979  1.00  0.00    -0.175 C  
HETATM    6  C   UNL     1      -9.686   8.467  71.430  1.00  0.00    -0.287 C  
HETATM    7  C   UNL     1     -11.184   8.224  71.584  1.00  0.00    -0.330 A  
HETATM    8  C   UNL     1      -8.851   7.293  71.944  1.00  0.00    -0.122 A  
HETATM    9  C   UNL     1     -11.831   7.198  70.877  1.00  0.00    -0.379 A  
HETATM   10  C   UNL     1      -8.609   7.159  73.311  1.00  0.00    -0.157 A  
HETATM   11  C   UNL     1     -13.209   7.006  70.999  1.00  0.00    -0.124 A  
HETATM   12  C   UNL     1      -7.805   6.111  73.755  1.00  0.00    -0.097 A  
HETATM   13  C   UNL     1      -7.272   5.221  72.832  1.00  0.00    -0.090 A  
HETATM   14  C   UNL     1     -13.956   7.829  71.839  1.00  0.00    -0.419 A  
HETATM   15  C   UNL     1     -13.328   8.844  72.556  1.00  0.00    -0.451 A  
HETATM   16  C   UNL     1      -7.575   5.410  71.495  1.00  0.00    -0.103 A  
HETATM   17  N   UNL     1      -8.350   6.415  71.036  1.00  0.00    -0.122 NA 
HETATM   18  C   UNL     1     -11.951   9.044  72.428  1.00  0.00    -0.255 A  
ENDBRANCH   4   5
ENDBRANCH   2   4
TORSDOF 2
ENDMDL
MODEL      123
REMARK 921   NORMALIZED FREE ENERGY PREDICTED BY IDOCK:   -3.38 KCAL/MOL
REMARK 922        TOTAL FREE ENERGY PREDICTED BY IDOCK:   -3.94 KCAL/MOL
REMARK 923 INTER-LIGAND FREE ENERGY PREDICTED BY IDOCK:   -3.72 KCAL/MOL
REMARK 924 INTRA-LIGAND FREE ENERGY PREDICTED BY IDOCK:   -0.22 KCAL/MOL
REMARK 927      BINDING AFFINITY PREDICTED BY RF-SCORE:    0.00 PKD
ROOT
HETATM    1  C   UNL     1     -12.731  12.164  64.115  1.00  0.00    -0.311 C  
HETATM    2  N   UNL     1     -11.825  12.457  65.227  1.00  0.00    -0.396 NA 
HETATM    3  C   UNL     1     -10.678  11.547  65.186  1.00  0.00    -0.289 C  
ENDROOT
BRANCH   2   4
HETATM    4  C   UNL     1     -11.348  13.853  65.202  1.00  0.00    -0.318 C  
BRANCH   4   5
HETATM    5  C   UNL     1      -9.981  14.073  65.861  1.00  0.00    -0.325 C  
HETATM    6  C   UNL     1      -9.970  15.164  66.958  1.00  0.00    -0.242 C  
HETATM    7  C   UNL     1     -10.824  14.783  68.164  1.00  0.00    -0.256 A  
HETATM    8  C   UNL     1      -8.538  15.531  67.353  1.00  0.00    -0.178 A  
HETATM    9  C   UNL     1     -10.533  13.645  68.931  1.00  0.00    -0.167 A  
HETATM   10  C   UNL     1      -8.260  16.803  67.852  1.00  0.00    -0.189 A  
HETATM   11  C   UNL     1     -11.341  13.287  70.012  1.00  0.00     0.010 A  
HETATM   12  C   UNL     1      -6.943  17.136  68.160  1.00  0.00    -0.178 A  
HETATM   13  C   UNL     1      -5.940  16.193  67.972  1.00  0.00    -0.129 A  
HETATM   14  C   UNL     1     -12.444  14.070  70.348  1.00  0.00    -0.418 A  
HETATM   15  C   UNL     1     -12.740  15.209  69.603  1.00  0.00     0.017 A  
HETATM   16  C   UNL     1      -6.299  14.946  67.492  1.00  0.00    -0.043 A  
HETATM   17  N   UNL     1      -7.566  14.596  67.186  1.00  0.00    -0.131 NA 
HETATM   18  C   UNL     1     -11.938  15.563  68.516  1.00  0.00    -0.179 A  
ENDBRANCH   4   5
ENDBRANCH   2   4
TORSDOF 2
ENDMDL
MODEL      124
REMARK 921   NORMALIZED FREE ENERGY PREDICTED BY IDOCK:   -3.37 KCAL/MOL
REMARK 922        TOTAL FREE ENERGY PREDICTED BY IDOCK:   -3.94 KCAL/MOL
REMARK 923 INTER-LIGAND FREE ENERGY PREDICTED BY IDOCK:   -3.76 KCAL/MOL
REMARK 924 INTRA-LIGAND FREE ENERGY PREDICTED BY IDOCK:   -0.17 KCAL/MOL
REMARK 927      BINDING AFFINITY PREDICTED BY RF-SCORE:    0.00 PKD
ROOT
HETATM    1  C   UNL     1      -5.234   9.525  71.991  1.00  0.00    -0.077 C  
HETATM    2  N   UNL     1      -6.185  10.175  71.087  1.00  0.00    -0.318 NA 
HETATM    3  C   UNL     1      -5.510  10.543  69.840  1.00  0.00    -0.042 C  
ENDROOT
BRANCH   2   4
HETATM    4  C   UNL     1      -7.343   9.313  70.786  1.00  0.00    -0.123 C  
BRANCH   4   5
HETATM    5  C   UNL     1      -8.290   9.866  69.712  1.00  0.00    -0.196 C  
HETATM    6  C   UNL     1      -8.552   8.899  68.534  1.00  0.00    -0.133 C  
HETATM    7  C   UNL     1      -9.298   7.641  68.970  1.00  0.00    -0.146 A  
HETATM    8  C   UNL     1      -9.250   9.618  67.379  1.00  0.00    -0.130 A  
HETATM    9  C   UNL     1     -10.583   7.715  69.531  1.00  0.00    -0.227 A  
HETATM   10  C   UNL     1      -9.081   9.160  66.072  1.00  0.00    -0.245 A  
HETATM   11  C   UNL     1     -11.243   6.561  69.958  1.00  0.00    -0.453 A  
HETATM   12  C   UNL     1      -9.686   9.858  65.028  1.00  0.00    -0.359 A  
HETATM   13  C   UNL     1     -10.447  10.984  65.311  1.00  0.00    -0.316 A  
HETATM   14  C   UNL     1     -10.633   5.316  69.817  1.00  0.00    -0.283 A  
HETATM   15  C   UNL     1      -9.363   5.225  69.252  1.00  0.00    -0.167 A  
HETATM   16  C   UNL     1     -10.584  11.363  66.634  1.00  0.00    -0.258 A  
HETATM   17  N   UNL     1     -10.011  10.707  67.666  1.00  0.00    -0.166 NA 
HETATM   18  C   UNL     1      -8.698   6.379  68.833  1.00  0.00    -0.126 A  
ENDBRANCH   4   5
ENDBRANCH   2   4
TORSDOF 2
ENDMDL
MODEL      125
REMARK 921   NORMALIZED FREE ENERGY PREDICTED BY IDOCK:   -3.36 KCAL/MOL
REMARK 922        TOTAL FREE ENERGY PREDICTED BY IDOCK:   -3.93 KCAL/MOL
REMARK 923 INTER-LIGAND FREE ENERGY PREDICTED BY IDOCK:   -3.75 KCAL/MOL
REMARK 924 INTRA-LIGAND FREE ENERGY PREDICTED BY IDOCK:   -0.19 KCAL/MOL
REMARK 927      BINDING AFFINITY PREDICTED BY RF-SCORE:    0.00 PKD
ROOT
HETATM    1  C   UNL     1     -13.347   8.147  71.575  1.00  0.00    -0.284 C  
HETATM    2  N   UNL     1     -12.185   8.948  71.965  1.00  0.00    -0.361 NA 
HETATM    3  C   UNL     1     -11.148   8.076  72.523  1.00  0.00    -0.375 C  
ENDROOT
BRANCH   2   4
HETATM    4  C   UNL     1     -11.631   9.711  70.831  1.00  0.00    -0.344 C  
BRANCH   4   5
HETATM    5  C   UNL     1     -10.101   9.819  70.821  1.00  0.00    -0.200 C  
HETATM    6  C   UNL     1      -9.448   9.500  69.456  1.00  0.00    -0.195 C  
HETATM    7  C   UNL     1      -9.825  10.514  68.381  1.00  0.00    -0.171 A  
HETATM    8  C   UNL     1      -7.933   9.338  69.597  1.00  0.00    -0.096 A  
HETATM    9  C   UNL     1      -9.493  11.872  68.512  1.00  0.00    -0.151 A  
HETATM   10  C   UNL     1      -7.235   8.529  68.700  1.00  0.00    -0.080 A  
HETATM   11  C   UNL     1      -9.873  12.797  67.538  1.00  0.00    -0.211 A  
HETATM   12  C   UNL     1      -5.864   8.354  68.873  1.00  0.00    -0.040 A  
HETATM   13  C   UNL     1      -5.223   8.994  69.926  1.00  0.00    -0.029 A  
HETATM   14  C   UNL     1     -10.579  12.376  66.413  1.00  0.00    -0.271 A  
HETATM   15  C   UNL     1     -10.906  11.030  66.262  1.00  0.00    -0.234 A  
HETATM   16  C   UNL     1      -5.981   9.797  70.760  1.00  0.00    -0.086 A  
HETATM   17  N   UNL     1      -7.310   9.984  70.616  1.00  0.00    -0.306 NA 
HETATM   18  C   UNL     1     -10.536  10.105  67.240  1.00  0.00    -0.313 A  
ENDBRANCH   4   5
ENDBRANCH   2   4
TORSDOF 2
ENDMDL
MODEL      126
REMARK 921   NORMALIZED FREE ENERGY PREDICTED BY IDOCK:   -3.36 KCAL/MOL
REMARK 922        TOTAL FREE ENERGY PREDICTED BY IDOCK:   -3.93 KCAL/MOL
REMARK 923 INTER-LIGAND FREE ENERGY PREDICTED BY IDOCK:   -3.59 KCAL/MOL
REMARK 924 INTRA-LIGAND FREE ENERGY PREDICTED BY IDOCK:   -0.34 KCAL/MOL
REMARK 927      BINDING AFFINITY PREDICTED BY RF-SCORE:    0.00 PKD
ROOT
HETATM    1  C   UNL     1      -7.406   8.761  71.656  1.00  0.00    -0.069 C  
HETATM    2  N   UNL     1      -6.654   9.892  71.109  1.00  0.00    -0.324 NA 
HETATM    3  C   UNL     1      -5.286   9.877  71.633  1.00  0.00    -0.076 C  
ENDROOT
BRANCH   2   4
HETATM    4  C   UNL     1      -6.618   9.873  69.634  1.00  0.00    -0.056 C  
BRANCH   4   5
HETATM    5  C   UNL     1      -7.451  10.973  68.961  1.00  0.00    -0.129 C  
HETATM    6  C   UNL     1      -8.616  10.447  68.090  1.00  0.00    -0.125 C  
HETATM    7  C   UNL     1      -9.680   9.729  68.915  1.00  0.00    -0.172 A  
HETATM    8  C   UNL     1      -9.204  11.565  67.228  1.00  0.00    -0.167 A  
HETATM    9  C   UNL     1     -10.395  10.398  69.920  1.00  0.00    -0.231 A  
HETATM   10  C   UNL     1      -9.822  11.256  66.016  1.00  0.00    -0.267 A  
HETATM   11  C   UNL     1     -11.343   9.723  70.692  1.00  0.00    -0.401 A  
HETATM   12  C   UNL     1     -10.309  12.292  65.222  1.00  0.00    -0.311 A  
HETATM   13  C   UNL     1     -10.176  13.604  65.656  1.00  0.00    -0.316 A  
HETATM   14  C   UNL     1     -11.598   8.373  70.459  1.00  0.00    -0.136 A  
HETATM   15  C   UNL     1     -10.906   7.698  69.457  1.00  0.00    -0.171 A  
HETATM   16  C   UNL     1      -9.570  13.828  66.879  1.00  0.00    -0.262 A  
HETATM   17  N   UNL     1      -9.090  12.845  67.670  1.00  0.00    -0.184 NA 
HETATM   18  C   UNL     1      -9.950   8.369  68.691  1.00  0.00    -0.197 A  
ENDBRANCH   4   5
ENDBRANCH   2   4
TORSDOF 2
ENDMDL
MODEL      127
REMARK 921   NORMALIZED FREE ENERGY PREDICTED BY IDOCK:   -3.35 KCAL/MOL
REMARK 922        TOTAL FREE ENERGY PREDICTED BY IDOCK:   -3.92 KCAL/MOL
REMARK 923 INTER-LIGAND FREE ENERGY PREDICTED BY IDOCK:   -3.77 KCAL/MOL
REMARK 924 INTRA-LIGAND FREE ENERGY PREDICTED BY IDOCK:   -0.15 KCAL/MOL
REMARK 927      BINDING AFFINITY PREDICTED BY RF-SCORE:    0.00 PKD
ROOT
HETATM    1  C   UNL     1      -9.493  11.724  65.965  1.00  0.00    -0.230 C  
HETATM    2  N   UNL     1      -9.484  10.271  65.782  1.00  0.00    -0.189 NA 
HETATM    3  C   UNL     1      -8.631   9.920  64.643  1.00  0.00    -0.182 C  
ENDROOT
BRANCH   2   4
HETATM    4  C   UNL     1      -9.013   9.562  66.987  1.00  0.00    -0.134 C  
BRANCH   4   5
HETATM    5  C   UNL     1      -9.871   9.792  68.239  1.00  0.00    -0.167 C  
HETATM    6  C   UNL     1      -9.970   8.567  69.178  1.00  0.00    -0.194 C  
HETATM    7  C   UNL     1      -8.625   8.204  69.801  1.00  0.00    -0.133 A  
HETATM    8  C   UNL     1     -11.062   8.769  70.230  1.00  0.00    -0.222 A  
HETATM    9  C   UNL     1      -7.939   9.106  70.628  1.00  0.00    -0.177 A  
HETATM   10  C   UNL     1     -11.707   7.662  70.782  1.00  0.00    -0.260 A  
HETATM   11  C   UNL     1      -6.693   8.776  71.165  1.00  0.00    -0.075 A  
HETATM   12  C   UNL     1     -12.733   7.868  71.702  1.00  0.00    -0.352 A  
HETATM   13  C   UNL     1     -13.084   9.164  72.054  1.00  0.00    -0.497 A  
HETATM   14  C   UNL     1      -6.123   7.533  70.894  1.00  0.00    -0.035 A  
HETATM   15  C   UNL     1      -6.797   6.622  70.084  1.00  0.00    -0.061 A  
HETATM   16  C   UNL     1     -12.383  10.208  71.478  1.00  0.00    -0.408 A  
HETATM   17  N   UNL     1     -11.385  10.040  70.585  1.00  0.00    -0.323 NA 
HETATM   18  C   UNL     1      -8.039   6.955  69.537  1.00  0.00    -0.130 A  
ENDBRANCH   4   5
ENDBRANCH   2   4
TORSDOF 2
ENDMDL
MODEL      128
REMARK 921   NORMALIZED FREE ENERGY PREDICTED BY IDOCK:   -3.35 KCAL/MOL
REMARK 922        TOTAL FREE ENERGY PREDICTED BY IDOCK:   -3.92 KCAL/MOL
REMARK 923 INTER-LIGAND FREE ENERGY PREDICTED BY IDOCK:   -3.64 KCAL/MOL
REMARK 924 INTRA-LIGAND FREE ENERGY PREDICTED BY IDOCK:   -0.28 KCAL/MOL
REMARK 927      BINDING AFFINITY PREDICTED BY RF-SCORE:    0.00 PKD
ROOT
HETATM    1  C   UNL     1      -8.311  10.261  63.462  1.00  0.00    -0.169 C  
HETATM    2  N   UNL     1      -8.823  10.492  64.814  1.00  0.00    -0.190 NA 
HETATM    3  C   UNL     1     -10.282  10.621  64.776  1.00  0.00    -0.331 C  
ENDROOT
BRANCH   2   4
HETATM    4  C   UNL     1      -8.447   9.409  65.742  1.00  0.00    -0.132 C  
BRANCH   4   5
HETATM    5  C   UNL     1      -9.323   9.313  66.999  1.00  0.00    -0.183 C  
HETATM    6  C   UNL     1      -8.637   9.809  68.293  1.00  0.00    -0.119 C  
HETATM    7  C   UNL     1      -8.336  11.305  68.254  1.00  0.00    -0.150 A  
HETATM    8  C   UNL     1      -9.445   9.412  69.529  1.00  0.00    -0.180 A  
HETATM    9  C   UNL     1      -9.366  12.251  68.129  1.00  0.00    -0.205 A  
HETATM   10  C   UNL     1      -8.800   9.234  70.753  1.00  0.00    -0.282 A  
HETATM   11  C   UNL     1      -9.077  13.615  68.060  1.00  0.00    -0.192 A  
HETATM   12  C   UNL     1      -9.544   8.824  71.857  1.00  0.00    -0.372 A  
HETATM   13  C   UNL     1     -10.909   8.610  71.718  1.00  0.00    -0.395 A  
HETATM   14  C   UNL     1      -7.756  14.053  68.127  1.00  0.00    -0.143 A  
HETATM   15  C   UNL     1      -6.723  13.127  68.261  1.00  0.00    -0.101 A  
HETATM   16  C   UNL     1     -11.479   8.828  70.476  1.00  0.00    -0.196 A  
HETATM   17  N   UNL     1     -10.784   9.225  69.390  1.00  0.00    -0.224 NA 
HETATM   18  C   UNL     1      -7.010  11.762  68.321  1.00  0.00    -0.075 A  
ENDBRANCH   4   5
ENDBRANCH   2   4
TORSDOF 2
ENDMDL
MODEL      129
REMARK 921   NORMALIZED FREE ENERGY PREDICTED BY IDOCK:   -3.35 KCAL/MOL
REMARK 922        TOTAL FREE ENERGY PREDICTED BY IDOCK:   -3.92 KCAL/MOL
REMARK 923 INTER-LIGAND FREE ENERGY PREDICTED BY IDOCK:   -3.65 KCAL/MOL
REMARK 924 INTRA-LIGAND FREE ENERGY PREDICTED BY IDOCK:   -0.27 KCAL/MOL
REMARK 927      BINDING AFFINITY PREDICTED BY RF-SCORE:    0.00 PKD
ROOT
HETATM    1  C   UNL     1      -6.335   7.281  65.379  1.00  0.00    -0.038 C  
HETATM    2  N   UNL     1      -7.376   7.175  66.403  1.00  0.00    -0.078 NA 
HETATM    3  C   UNL     1      -7.679   5.764  66.657  1.00  0.00    -0.100 C  
ENDROOT
BRANCH   2   4
HETATM    4  C   UNL     1      -6.983   7.831  67.664  1.00  0.00    -0.081 C  
BRANCH   4   5
HETATM    5  C   UNL     1      -7.715   9.149  67.953  1.00  0.00    -0.093 C  
HETATM    6  C   UNL     1      -9.245   9.089  67.740  1.00  0.00    -0.152 C  
HETATM    7  C   UNL     1      -9.932   8.145  68.724  1.00  0.00    -0.198 A  
HETATM    8  C   UNL     1      -9.857  10.491  67.757  1.00  0.00    -0.165 A  
HETATM    9  C   UNL     1      -9.874   8.369  70.108  1.00  0.00    -0.183 A  
HETATM   10  C   UNL     1     -11.035  10.742  67.054  1.00  0.00    -0.292 A  
HETATM   11  C   UNL     1     -10.477   7.481  71.000  1.00  0.00    -0.222 A  
HETATM   12  C   UNL     1     -11.551  12.037  67.040  1.00  0.00    -0.387 A  
HETATM   13  C   UNL     1     -10.887  13.042  67.731  1.00  0.00    -0.257 A  
HETATM   14  C   UNL     1     -11.157   6.364  70.520  1.00  0.00    -0.388 A  
HETATM   15  C   UNL     1     -11.233   6.133  69.149  1.00  0.00    -0.409 A  
HETATM   16  C   UNL     1      -9.736  12.709  68.421  1.00  0.00    -0.187 A  
HETATM   17  N   UNL     1      -9.213  11.464  68.453  1.00  0.00    -0.179 NA 
HETATM   18  C   UNL     1     -10.622   7.015  68.255  1.00  0.00    -0.238 A  
ENDBRANCH   4   5
ENDBRANCH   2   4
TORSDOF 2
ENDMDL
MODEL      130
REMARK 921   NORMALIZED FREE ENERGY PREDICTED BY IDOCK:   -3.34 KCAL/MOL
REMARK 922        TOTAL FREE ENERGY PREDICTED BY IDOCK:   -3.91 KCAL/MOL
REMARK 923 INTER-LIGAND FREE ENERGY PREDICTED BY IDOCK:   -3.61 KCAL/MOL
REMARK 924 INTRA-LIGAND FREE ENERGY PREDICTED BY IDOCK:   -0.29 KCAL/MOL
REMARK 927      BINDING AFFINITY PREDICTED BY RF-SCORE:    0.00 PKD
ROOT
HETATM    1  C   UNL     1      -9.124   6.673  68.596  1.00  0.00    -0.126 C  
HETATM    2  N   UNL     1      -9.247   7.247  67.255  1.00  0.00    -0.128 NA 
HETATM    3  C   UNL     1      -9.283   6.174  66.257  1.00  0.00    -0.147 C  
ENDROOT
BRANCH   2   4
HETATM    4  C   UNL     1     -10.453   8.087  67.119  1.00  0.00    -0.338 C  
BRANCH   4   5
HETATM    5  C   UNL     1     -10.231   9.575  67.422  1.00  0.00    -0.285 C  
HETATM    6  C   UNL     1      -8.938  10.164  66.813  1.00  0.00    -0.147 C  
HETATM    7  C   UNL     1      -8.965  10.172  65.288  1.00  0.00    -0.218 A  
HETATM    8  C   UNL     1      -8.637  11.546  67.396  1.00  0.00    -0.145 A  
HETATM    9  C   UNL     1      -9.935  10.899  64.581  1.00  0.00    -0.369 A  
HETATM   10  C   UNL     1      -7.321  12.005  67.453  1.00  0.00    -0.150 A  
HETATM   11  C   UNL     1      -9.971  10.871  63.185  1.00  0.00    -0.368 A  
HETATM   12  C   UNL     1      -7.061  13.245  68.032  1.00  0.00    -0.122 A  
HETATM   13  C   UNL     1      -8.116  14.000  68.529  1.00  0.00    -0.139 A  
HETATM   14  C   UNL     1      -9.030  10.126  62.477  1.00  0.00    -0.284 A  
HETATM   15  C   UNL     1      -8.054   9.408  63.164  1.00  0.00    -0.153 A  
HETATM   16  C   UNL     1      -9.395  13.485  68.416  1.00  0.00    -0.171 A  
HETATM   17  N   UNL     1      -9.677  12.288  67.861  1.00  0.00    -0.196 NA 
HETATM   18  C   UNL     1      -8.022   9.427  64.560  1.00  0.00    -0.126 A  
ENDBRANCH   4   5
ENDBRANCH   2   4
TORSDOF 2
ENDMDL
MODEL      131
REMARK 921   NORMALIZED FREE ENERGY PREDICTED BY IDOCK:   -3.30 KCAL/MOL
REMARK 922        TOTAL FREE ENERGY PREDICTED BY IDOCK:   -3.86 KCAL/MOL
REMARK 923 INTER-LIGAND FREE ENERGY PREDICTED BY IDOCK:   -3.58 KCAL/MOL
REMARK 924 INTRA-LIGAND FREE ENERGY PREDICTED BY IDOCK:   -0.28 KCAL/MOL
REMARK 927      BINDING AFFINITY PREDICTED BY RF-SCORE:    0.00 PKD
ROOT
HETATM    1  C   UNL     1      -7.076  14.275  68.359  1.00  0.00    -0.105 C  
HETATM    2  N   UNL     1      -7.344  13.126  67.491  1.00  0.00    -0.152 NA 
HETATM    3  C   UNL     1      -6.238  12.169  67.582  1.00  0.00    -0.110 C  
ENDROOT
BRANCH   2   4
HETATM    4  C   UNL     1      -8.609  12.452  67.837  1.00  0.00    -0.171 C  
BRANCH   4   5
HETATM    5  C   UNL     1      -8.502  10.928  67.986  1.00  0.00    -0.130 C  
HETATM    6  C   UNL     1      -9.451  10.129  67.063  1.00  0.00    -0.197 C  
HETATM    7  C   UNL     1      -9.111  10.309  65.586  1.00  0.00    -0.208 A  
HETATM    8  C   UNL     1      -9.502   8.656  67.472  1.00  0.00    -0.149 A  
HETATM    9  C   UNL     1      -7.865   9.918  65.073  1.00  0.00    -0.131 A  
HETATM   10  C   UNL     1     -10.642   7.899  67.199  1.00  0.00    -0.383 A  
HETATM   11  C   UNL     1      -7.552  10.119  63.727  1.00  0.00    -0.133 A  
HETATM   12  C   UNL     1     -10.690   6.573  67.622  1.00  0.00    -0.381 A  
HETATM   13  C   UNL     1      -9.603   6.033  68.297  1.00  0.00    -0.126 A  
HETATM   14  C   UNL     1      -8.487  10.701  62.873  1.00  0.00    -0.187 A  
HETATM   15  C   UNL     1      -9.732  11.084  63.364  1.00  0.00    -0.383 A  
HETATM   16  C   UNL     1      -8.501   6.842  68.511  1.00  0.00    -0.123 A  
HETATM   17  N   UNL     1      -8.426   8.129  68.112  1.00  0.00    -0.126 NA 
HETATM   18  C   UNL     1     -10.043  10.893  64.712  1.00  0.00    -0.383 A  
ENDBRANCH   4   5
ENDBRANCH   2   4
TORSDOF 2
ENDMDL
MODEL      132
REMARK 921   NORMALIZED FREE ENERGY PREDICTED BY IDOCK:   -3.23 KCAL/MOL
REMARK 922        TOTAL FREE ENERGY PREDICTED BY IDOCK:   -3.78 KCAL/MOL
REMARK 923 INTER-LIGAND FREE ENERGY PREDICTED BY IDOCK:   -3.53 KCAL/MOL
REMARK 924 INTRA-LIGAND FREE ENERGY PREDICTED BY IDOCK:   -0.25 KCAL/MOL
REMARK 927      BINDING AFFINITY PREDICTED BY RF-SCORE:    0.00 PKD
ROOT
HETATM    1  C   UNL     1     -10.420   4.862  65.780  1.00  0.00    -0.186 C  
HETATM    2  N   UNL     1     -10.769   5.406  67.094  1.00  0.00    -0.197 NA 
HETATM    3  C   UNL     1      -9.736   5.048  68.069  1.00  0.00    -0.151 C  
ENDROOT
BRANCH   2   4
HETATM    4  C   UNL     1     -10.930   6.872  67.062  1.00  0.00    -0.334 C  
BRANCH   4   5
HETATM    5  C   UNL     1      -9.613   7.660  67.034  1.00  0.00    -0.228 C  
HETATM    6  C   UNL     1      -9.666   9.017  67.772  1.00  0.00    -0.190 C  
HETATM    7  C   UNL     1      -9.883   8.854  69.274  1.00  0.00    -0.176 A  
HETATM    8  C   UNL     1      -8.433   9.864  67.452  1.00  0.00    -0.118 A  
HETATM    9  C   UNL     1      -8.957   8.163  70.072  1.00  0.00    -0.143 A  
HETATM   10  C   UNL     1      -8.511  11.256  67.513  1.00  0.00    -0.131 A  
HETATM   11  C   UNL     1      -9.183   7.990  71.439  1.00  0.00    -0.180 A  
HETATM   12  C   UNL     1      -7.392  12.011  67.171  1.00  0.00    -0.134 A  
HETATM   13  C   UNL     1      -6.224  11.365  66.786  1.00  0.00    -0.141 A  
HETATM   14  C   UNL     1     -10.330   8.516  72.029  1.00  0.00    -0.408 A  
HETATM   15  C   UNL     1     -11.253   9.213  71.253  1.00  0.00    -0.407 A  
HETATM   16  C   UNL     1      -6.220   9.982  66.771  1.00  0.00    -0.068 A  
HETATM   17  N   UNL     1      -7.288   9.224  67.098  1.00  0.00    -0.090 NA 
HETATM   18  C   UNL     1     -11.034   9.379  69.884  1.00  0.00    -0.251 A  
ENDBRANCH   4   5
ENDBRANCH   2   4
TORSDOF 2
ENDMDL
MODEL      133
REMARK 921   NORMALIZED FREE ENERGY PREDICTED BY IDOCK:   -3.23 KCAL/MOL
REMARK 922        TOTAL FREE ENERGY PREDICTED BY IDOCK:   -3.78 KCAL/MOL
REMARK 923 INTER-LIGAND FREE ENERGY PREDICTED BY IDOCK:   -3.61 KCAL/MOL
REMARK 924 INTRA-LIGAND FREE ENERGY PREDICTED BY IDOCK:   -0.17 KCAL/MOL
REMARK 927      BINDING AFFINITY PREDICTED BY RF-SCORE:    0.00 PKD
ROOT
HETATM    1  C   UNL     1      -8.498   4.629  67.876  1.00  0.00    -0.102 C  
HETATM    2  N   UNL     1      -9.376   5.696  67.392  1.00  0.00    -0.112 NA 
HETATM    3  C   UNL     1     -10.520   5.114  66.685  1.00  0.00    -0.275 C  
ENDROOT
BRANCH   2   4
HETATM    4  C   UNL     1      -9.859   6.557  68.488  1.00  0.00    -0.138 C  
BRANCH   4   5
HETATM    5  C   UNL     1      -9.064   6.434  69.795  1.00  0.00    -0.141 C  
HETATM    6  C   UNL     1      -8.767   7.784  70.490  1.00  0.00    -0.140 C  
HETATM    7  C   UNL     1     -10.036   8.477  70.978  1.00  0.00    -0.255 A  
HETATM    8  C   UNL     1      -7.733   7.611  71.604  1.00  0.00    -0.086 A  
HETATM    9  C   UNL     1     -10.872   7.876  71.931  1.00  0.00    -0.295 A  
HETATM   10  C   UNL     1      -6.916   8.682  71.965  1.00  0.00    -0.081 A  
HETATM   11  C   UNL     1     -12.049   8.504  72.345  1.00  0.00    -0.436 A  
HETATM   12  C   UNL     1      -5.947   8.492  72.948  1.00  0.00    -0.079 A  
HETATM   13  C   UNL     1      -5.823   7.248  73.552  1.00  0.00    -0.053 A  
HETATM   14  C   UNL     1     -12.398   9.747  71.822  1.00  0.00    -0.470 A  
HETATM   15  C   UNL     1     -11.572  10.362  70.883  1.00  0.00    -0.428 A  
HETATM   16  C   UNL     1      -6.686   6.242  73.155  1.00  0.00    -0.074 A  
HETATM   17  N   UNL     1      -7.633   6.397  72.205  1.00  0.00    -0.096 NA 
HETATM   18  C   UNL     1     -10.400   9.731  70.460  1.00  0.00    -0.348 A  
ENDBRANCH   4   5
ENDBRANCH   2   4
TORSDOF 2
ENDMDL
MODEL      134
REMARK 921   NORMALIZED FREE ENERGY PREDICTED BY IDOCK:   -3.23 KCAL/MOL
REMARK 922        TOTAL FREE ENERGY PREDICTED BY IDOCK:   -3.78 KCAL/MOL
REMARK 923 INTER-LIGAND FREE ENERGY PREDICTED BY IDOCK:   -3.58 KCAL/MOL
REMARK 924 INTRA-LIGAND FREE ENERGY PREDICTED BY IDOCK:   -0.20 KCAL/MOL
REMARK 927      BINDING AFFINITY PREDICTED BY RF-SCORE:    0.00 PKD
ROOT
HETATM    1  C   UNL     1     -10.277   8.250  67.869  1.00  0.00    -0.220 C  
HETATM    2  N   UNL     1     -10.744   9.633  67.747  1.00  0.00    -0.267 NA 
HETATM    3  C   UNL     1     -10.917  10.216  69.080  1.00  0.00    -0.230 C  
ENDROOT
BRANCH   2   4
HETATM    4  C   UNL     1      -9.814  10.465  66.961  1.00  0.00    -0.191 C  
BRANCH   4   5
HETATM    5  C   UNL     1      -9.354  11.749  67.666  1.00  0.00    -0.180 C  
HETATM    6  C   UNL     1      -9.121  12.948  66.718  1.00  0.00    -0.211 C  
HETATM    7  C   UNL     1     -10.410  13.420  66.051  1.00  0.00    -0.297 A  
HETATM    8  C   UNL     1      -8.390  14.083  67.438  1.00  0.00    -0.196 A  
HETATM    9  C   UNL     1     -11.488  13.899  66.810  1.00  0.00    -0.369 A  
HETATM   10  C   UNL     1      -7.596  14.969  66.710  1.00  0.00     0.274 A  
HETATM   11  C   UNL     1     -12.676  14.296  66.192  1.00  0.00    -0.163 A  
HETATM   12  C   UNL     1      -6.899  15.966  67.389  1.00  0.00    -0.228 A  
HETATM   13  C   UNL     1      -7.016  16.061  68.770  1.00  0.00    -0.139 A  
HETATM   14  C   UNL     1     -12.795  14.232  64.805  1.00  0.00    -0.044 A  
HETATM   15  C   UNL     1     -11.730  13.770  64.037  1.00  0.00    -0.364 A  
HETATM   16  C   UNL     1      -7.840  15.157  69.417  1.00  0.00    -0.208 A  
HETATM   17  N   UNL     1      -8.527  14.181  68.786  1.00  0.00    -0.117 NA 
HETATM   18  C   UNL     1     -10.545  13.363  64.654  1.00  0.00    -0.431 A  
ENDBRANCH   4   5
ENDBRANCH   2   4
TORSDOF 2
ENDMDL
MODEL      135
REMARK 921   NORMALIZED FREE ENERGY PREDICTED BY IDOCK:   -3.22 KCAL/MOL
REMARK 922        TOTAL FREE ENERGY PREDICTED BY IDOCK:   -3.77 KCAL/MOL
REMARK 923 INTER-LIGAND FREE ENERGY PREDICTED BY IDOCK:   -3.60 KCAL/MOL
REMARK 924 INTRA-LIGAND FREE ENERGY PREDICTED BY IDOCK:   -0.18 KCAL/MOL
REMARK 927      BINDING AFFINITY PREDICTED BY RF-SCORE:    0.00 PKD
ROOT
HETATM    1  C   UNL     1     -11.657   6.455  70.211  1.00  0.00    -0.383 C  
HETATM    2  N   UNL     1     -10.405   6.404  70.968  1.00  0.00    -0.202 NA 
HETATM    3  C   UNL     1      -9.901   5.028  71.000  1.00  0.00    -0.198 C  
ENDROOT
BRANCH   2   4
HETATM    4  C   UNL     1      -9.376   7.294  70.399  1.00  0.00    -0.158 C  
BRANCH   4   5
HETATM    5  C   UNL     1      -9.904   8.308  69.375  1.00  0.00    -0.185 C  
HETATM    6  C   UNL     1      -9.201   8.250  67.999  1.00  0.00    -0.142 C  
HETATM    7  C   UNL     1      -9.456   6.933  67.272  1.00  0.00    -0.161 A  
HETATM    8  C   UNL     1      -9.566   9.465  67.145  1.00  0.00    -0.154 A  
HETATM    9  C   UNL     1     -10.754   6.539  66.913  1.00  0.00    -0.403 A  
HETATM   10  C   UNL     1      -8.677   9.921  66.171  1.00  0.00    -0.150 A  
HETATM   11  C   UNL     1     -10.980   5.316  66.279  1.00  0.00    -0.056 A  
HETATM   12  C   UNL     1      -9.005  11.059  65.436  1.00  0.00    -0.192 A  
HETATM   13  C   UNL     1     -10.209  11.706  65.682  1.00  0.00    -0.284 A  
HETATM   14  C   UNL     1      -9.908   4.476  65.982  1.00  0.00    -0.240 A  
HETATM   15  C   UNL     1      -8.612   4.857  66.321  1.00  0.00    -0.115 A  
HETATM   16  C   UNL     1     -11.046  11.180  66.650  1.00  0.00    -0.189 A  
HETATM   17  N   UNL     1     -10.755  10.080  67.377  1.00  0.00    -0.280 NA 
HETATM   18  C   UNL     1      -8.386   6.076  66.965  1.00  0.00    -0.105 A  
ENDBRANCH   4   5
ENDBRANCH   2   4
TORSDOF 2
ENDMDL
MODEL      136
REMARK 921   NORMALIZED FREE ENERGY PREDICTED BY IDOCK:   -3.21 KCAL/MOL
REMARK 922        TOTAL FREE ENERGY PREDICTED BY IDOCK:   -3.77 KCAL/MOL
REMARK 923 INTER-LIGAND FREE ENERGY PREDICTED BY IDOCK:   -3.61 KCAL/MOL
REMARK 924 INTRA-LIGAND FREE ENERGY PREDICTED BY IDOCK:   -0.16 KCAL/MOL
REMARK 927      BINDING AFFINITY PREDICTED BY RF-SCORE:    0.00 PKD
ROOT
HETATM    1  C   UNL     1      -6.063  16.504  69.776  1.00  0.00    -0.215 C  
HETATM    2  N   UNL     1      -6.960  16.276  68.642  1.00  0.00    -0.140 NA 
HETATM    3  C   UNL     1      -6.178  16.147  67.410  1.00  0.00    -0.166 C  
ENDROOT
BRANCH   2   4
HETATM    4  C   UNL     1      -7.794  15.073  68.826  1.00  0.00    -0.151 C  
BRANCH   4   5
HETATM    5  C   UNL     1      -8.556  14.626  67.571  1.00  0.00    -0.196 C  
HETATM    6  C   UNL     1      -9.677  13.596  67.839  1.00  0.00    -0.234 C  
HETATM    7  C   UNL     1     -10.809  14.176  68.683  1.00  0.00    -0.268 A  
HETATM    8  C   UNL     1     -10.183  12.982  66.533  1.00  0.00    -0.268 A  
HETATM    9  C   UNL     1     -11.566  15.268  68.233  1.00  0.00    -0.357 A  
HETATM   10  C   UNL     1     -10.733  11.700  66.535  1.00  0.00    -0.313 A  
HETATM   11  C   UNL     1     -12.576  15.812  69.028  1.00  0.00     0.524 A  
HETATM   12  C   UNL     1     -11.143  11.139  65.327  1.00  0.00    -0.076 A  
HETATM   13  C   UNL     1     -11.004  11.869  64.154  1.00  0.00    -0.430 A  
HETATM   14  C   UNL     1     -12.852  15.264  70.279  1.00  0.00    -0.298 A  
HETATM   15  C   UNL     1     -12.117  14.173  70.736  1.00  0.00    -0.419 A  
HETATM   16  C   UNL     1     -10.469  13.141  64.237  1.00  0.00    -0.389 A  
HETATM   17  N   UNL     1     -10.063  13.711  65.392  1.00  0.00    -0.295 NA 
HETATM   18  C   UNL     1     -11.099  13.633  69.946  1.00  0.00     0.086 A  
ENDBRANCH   4   5
ENDBRANCH   2   4
TORSDOF 2
ENDMDL
MODEL      137
REMARK 921   NORMALIZED FREE ENERGY PREDICTED BY IDOCK:   -3.21 KCAL/MOL
REMARK 922        TOTAL FREE ENERGY PREDICTED BY IDOCK:   -3.76 KCAL/MOL
REMARK 923 INTER-LIGAND FREE ENERGY PREDICTED BY IDOCK:   -3.60 KCAL/MOL
REMARK 924 INTRA-LIGAND FREE ENERGY PREDICTED BY IDOCK:   -0.16 KCAL/MOL
REMARK 927      BINDING AFFINITY PREDICTED BY RF-SCORE:    0.00 PKD
ROOT
HETATM    1  C   UNL     1     -11.019   6.239  67.021  1.00  0.00    -0.364 C  
HETATM    2  N   UNL     1     -10.339   6.097  68.311  1.00  0.00    -0.175 NA 
HETATM    3  C   UNL     1      -9.017   5.498  68.111  1.00  0.00    -0.108 C  
ENDROOT
BRANCH   2   4
HETATM    4  C   UNL     1     -10.195   7.390  69.007  1.00  0.00    -0.199 C  
BRANCH   4   5
HETATM    5  C   UNL     1     -10.498   8.619  68.140  1.00  0.00    -0.241 C  
HETATM    6  C   UNL     1      -9.981   9.955  68.725  1.00  0.00    -0.183 C  
HETATM    7  C   UNL     1      -8.457  10.006  68.793  1.00  0.00    -0.126 A  
HETATM    8  C   UNL     1     -10.569  11.148  67.971  1.00  0.00    -0.198 A  
HETATM    9  C   UNL     1      -7.673   9.913  67.633  1.00  0.00    -0.091 A  
HETATM   10  C   UNL     1     -10.719  12.374  68.620  1.00  0.00    -0.260 A  
HETATM   11  C   UNL     1      -6.279   9.927  67.710  1.00  0.00    -0.055 A  
HETATM   12  C   UNL     1     -11.302  13.436  67.932  1.00  0.00    -0.322 A  
HETATM   13  C   UNL     1     -11.713  13.254  66.618  1.00  0.00    -0.425 A  
HETATM   14  C   UNL     1      -5.650  10.048  68.948  1.00  0.00    -0.035 A  
HETATM   15  C   UNL     1      -6.414  10.153  70.108  1.00  0.00    -0.118 A  
HETATM   16  C   UNL     1     -11.511  12.015  66.037  1.00  0.00    -0.338 A  
HETATM   17  N   UNL     1     -10.949  10.968  66.678  1.00  0.00    -0.233 NA 
HETATM   18  C   UNL     1      -7.809  10.129  70.033  1.00  0.00    -0.131 A  
ENDBRANCH   4   5
ENDBRANCH   2   4
TORSDOF 2
ENDMDL
MODEL      138
REMARK 921   NORMALIZED FREE ENERGY PREDICTED BY IDOCK:   -3.17 KCAL/MOL
REMARK 922        TOTAL FREE ENERGY PREDICTED BY IDOCK:   -3.72 KCAL/MOL
REMARK 923 INTER-LIGAND FREE ENERGY PREDICTED BY IDOCK:   -3.54 KCAL/MOL
REMARK 924 INTRA-LIGAND FREE ENERGY PREDICTED BY IDOCK:   -0.18 KCAL/MOL
REMARK 927      BINDING AFFINITY PREDICTED BY RF-SCORE:    0.00 PKD
ROOT
HETATM    1  C   UNL     1      -6.521   3.577  68.697  1.00  0.00    -0.036 C  
HETATM    2  N   UNL     1      -7.546   3.277  69.699  1.00  0.00    -0.044 NA 
HETATM    3  C   UNL     1      -6.998   2.371  70.712  1.00  0.00    -0.033 C  
ENDROOT
BRANCH   2   4
HETATM    4  C   UNL     1      -8.058   4.496  70.351  1.00  0.00    -0.067 C  
BRANCH   4   5
HETATM    5  C   UNL     1      -7.930   5.773  69.510  1.00  0.00    -0.097 C  
HETATM    6  C   UNL     1      -9.281   6.398  69.090  1.00  0.00    -0.133 C  
HETATM    7  C   UNL     1     -10.081   6.908  70.285  1.00  0.00    -0.196 A  
HETATM    8  C   UNL     1      -9.080   7.475  68.023  1.00  0.00    -0.131 A  
HETATM    9  C   UNL     1      -9.579   7.919  71.119  1.00  0.00    -0.181 A  
HETATM   10  C   UNL     1     -10.103   7.757  67.118  1.00  0.00    -0.328 A  
HETATM   11  C   UNL     1     -10.304   8.355  72.230  1.00  0.00    -0.403 A  
HETATM   12  C   UNL     1      -9.884   8.707  66.123  1.00  0.00    -0.269 A  
HETATM   13  C   UNL     1      -8.658   9.357  66.059  1.00  0.00    -0.154 A  
HETATM   14  C   UNL     1     -11.547   7.794  72.515  1.00  0.00    -0.422 A  
HETATM   15  C   UNL     1     -12.065   6.797  71.691  1.00  0.00    -0.404 A  
HETATM   16  C   UNL     1      -7.701   9.037  67.006  1.00  0.00    -0.098 A  
HETATM   17  N   UNL     1      -7.886   8.122  67.981  1.00  0.00    -0.120 NA 
HETATM   18  C   UNL     1     -11.337   6.354  70.585  1.00  0.00    -0.419 A  
ENDBRANCH   4   5
ENDBRANCH   2   4
TORSDOF 2
ENDMDL
MODEL      139
REMARK 921   NORMALIZED FREE ENERGY PREDICTED BY IDOCK:   -3.16 KCAL/MOL
REMARK 922        TOTAL FREE ENERGY PREDICTED BY IDOCK:   -3.70 KCAL/MOL
REMARK 923 INTER-LIGAND FREE ENERGY PREDICTED BY IDOCK:   -3.55 KCAL/MOL
REMARK 924 INTRA-LIGAND FREE ENERGY PREDICTED BY IDOCK:   -0.15 KCAL/MOL
REMARK 927      BINDING AFFINITY PREDICTED BY RF-SCORE:    0.00 PKD
ROOT
HETATM    1  C   UNL     1      -7.656   9.806  68.071  1.00  0.00    -0.082 C  
HETATM    2  N   UNL     1      -7.007  10.948  67.424  1.00  0.00    -0.081 NA 
HETATM    3  C   UNL     1      -6.457  10.538  66.129  1.00  0.00    -0.122 C  
ENDROOT
BRANCH   2   4
HETATM    4  C   UNL     1      -7.936  12.077  67.230  1.00  0.00    -0.174 C  
BRANCH   4   5
HETATM    5  C   UNL     1      -7.358  13.451  67.596  1.00  0.00    -0.173 C  
HETATM    6  C   UNL     1      -8.138  14.649  67.007  1.00  0.00    -0.153 C  
HETATM    7  C   UNL     1      -9.550  14.759  67.577  1.00  0.00    -0.208 A  
HETATM    8  C   UNL     1      -7.347  15.949  67.162  1.00  0.00    -0.223 A  
HETATM    9  C   UNL     1      -9.768  14.960  68.948  1.00  0.00    -0.223 A  
HETATM   10  C   UNL     1      -7.544  16.994  66.260  1.00  0.00    -0.340 A  
HETATM   11  C   UNL     1     -11.064  15.025  69.463  1.00  0.00    -0.292 A  
HETATM   12  C   UNL     1      -6.779  18.151  66.387  1.00  0.00    -0.263 A  
HETATM   13  C   UNL     1      -5.846  18.242  67.412  1.00  0.00    -0.153 A  
HETATM   14  C   UNL     1     -12.160  14.902  68.612  1.00  0.00    -0.205 A  
HETATM   15  C   UNL     1     -11.961  14.713  67.246  1.00  0.00    -0.312 A  
HETATM   16  C   UNL     1      -5.723  17.171  68.279  1.00  0.00    -0.128 A  
HETATM   17  N   UNL     1      -6.451  16.038  68.180  1.00  0.00    -0.117 NA 
HETATM   18  C   UNL     1     -10.665  14.638  66.731  1.00  0.00    -0.301 A  
ENDBRANCH   4   5
ENDBRANCH   2   4
TORSDOF 2
ENDMDL
MODEL      140
REMARK 921   NORMALIZED FREE ENERGY PREDICTED BY IDOCK:   -3.16 KCAL/MOL
REMARK 922        TOTAL FREE ENERGY PREDICTED BY IDOCK:   -3.70 KCAL/MOL
REMARK 923 INTER-LIGAND FREE ENERGY PREDICTED BY IDOCK:   -3.44 KCAL/MOL
REMARK 924 INTRA-LIGAND FREE ENERGY PREDICTED BY IDOCK:   -0.26 KCAL/MOL
REMARK 927      BINDING AFFINITY PREDICTED BY RF-SCORE:    0.00 PKD
ROOT
HETATM    1  C   UNL     1     -13.801   7.334  71.539  1.00  0.00    -0.350 C  
HETATM    2  N   UNL     1     -12.446   7.837  71.307  1.00  0.00    -0.304 NA 
HETATM    3  C   UNL     1     -11.809   8.154  72.587  1.00  0.00    -0.326 C  
ENDROOT
BRANCH   2   4
HETATM    4  C   UNL     1     -11.614   6.869  70.567  1.00  0.00    -0.346 C  
BRANCH   4   5
HETATM    5  C   UNL     1     -11.035   7.400  69.249  1.00  0.00    -0.091 C  
HETATM    6  C   UNL     1      -9.991   8.528  69.419  1.00  0.00    -0.194 C  
HETATM    7  C   UNL     1      -8.727   8.046  70.127  1.00  0.00    -0.135 A  
HETATM    8  C   UNL     1      -9.686   9.200  68.080  1.00  0.00    -0.154 A  
HETATM    9  C   UNL     1      -7.925   7.035  69.576  1.00  0.00    -0.125 A  
HETATM   10  C   UNL     1      -9.259  10.528  68.051  1.00  0.00    -0.143 A  
HETATM   11  C   UNL     1      -6.790   6.578  70.248  1.00  0.00    -0.058 A  
HETATM   12  C   UNL     1      -9.034  11.139  66.819  1.00  0.00    -0.169 A  
HETATM   13  C   UNL     1      -9.230  10.413  65.652  1.00  0.00    -0.220 A  
HETATM   14  C   UNL     1      -6.434   7.136  71.474  1.00  0.00    -0.041 A  
HETATM   15  C   UNL     1      -7.213   8.148  72.029  1.00  0.00    -0.099 A  
HETATM   16  C   UNL     1      -9.635   9.095  65.764  1.00  0.00    -0.253 A  
HETATM   17  N   UNL     1      -9.860   8.477  66.943  1.00  0.00    -0.217 NA 
HETATM   18  C   UNL     1      -8.354   8.600  71.363  1.00  0.00    -0.217 A  
ENDBRANCH   4   5
ENDBRANCH   2   4
TORSDOF 2
ENDMDL
MODEL      141
REMARK 921   NORMALIZED FREE ENERGY PREDICTED BY IDOCK:   -3.14 KCAL/MOL
REMARK 922        TOTAL FREE ENERGY PREDICTED BY IDOCK:   -3.68 KCAL/MOL
REMARK 923 INTER-LIGAND FREE ENERGY PREDICTED BY IDOCK:   -3.47 KCAL/MOL
REMARK 924 INTRA-LIGAND FREE ENERGY PREDICTED BY IDOCK:   -0.21 KCAL/MOL
REMARK 927      BINDING AFFINITY PREDICTED BY RF-SCORE:    0.00 PKD
ROOT
HETATM    1  C   UNL     1     -13.622   9.340  72.455  1.00  0.00    -0.463 C  
HETATM    2  N   UNL     1     -12.754   8.242  72.023  1.00  0.00    -0.334 NA 
HETATM    3  C   UNL     1     -13.568   7.149  71.486  1.00  0.00    -0.319 C  
ENDROOT
BRANCH   2   4
HETATM    4  C   UNL     1     -11.775   8.674  71.008  1.00  0.00    -0.278 C  
BRANCH   4   5
HETATM    5  C   UNL     1     -11.156   7.532  70.191  1.00  0.00    -0.246 C  
HETATM    6  C   UNL     1      -9.610   7.509  70.198  1.00  0.00    -0.168 C  
HETATM    7  C   UNL     1      -9.040   7.226  71.585  1.00  0.00    -0.143 A  
HETATM    8  C   UNL     1      -9.071   6.544  69.140  1.00  0.00    -0.136 A  
HETATM    9  C   UNL     1      -9.317   6.024  72.254  1.00  0.00    -0.149 A  
HETATM   10  C   UNL     1      -7.811   6.761  68.581  1.00  0.00    -0.118 A  
HETATM   11  C   UNL     1      -8.819   5.790  73.537  1.00  0.00    -0.122 A  
HETATM   12  C   UNL     1      -7.358   5.900  67.583  1.00  0.00    -0.077 A  
HETATM   13  C   UNL     1      -8.163   4.844  67.176  1.00  0.00    -0.106 A  
HETATM   14  C   UNL     1      -8.024   6.749  74.163  1.00  0.00    -0.125 A  
HETATM   15  C   UNL     1      -7.731   7.942  73.507  1.00  0.00    -0.202 A  
HETATM   16  C   UNL     1      -9.390   4.684  67.794  1.00  0.00    -0.141 A  
HETATM   17  N   UNL     1      -9.855   5.501  68.762  1.00  0.00    -0.142 NA 
HETATM   18  C   UNL     1      -8.237   8.182  72.228  1.00  0.00    -0.205 A  
ENDBRANCH   4   5
ENDBRANCH   2   4
TORSDOF 2
ENDMDL
MODEL      142
REMARK 921   NORMALIZED FREE ENERGY PREDICTED BY IDOCK:   -3.06 KCAL/MOL
REMARK 922        TOTAL FREE ENERGY PREDICTED BY IDOCK:   -3.59 KCAL/MOL
REMARK 923 INTER-LIGAND FREE ENERGY PREDICTED BY IDOCK:   -3.27 KCAL/MOL
REMARK 924 INTRA-LIGAND FREE ENERGY PREDICTED BY IDOCK:   -0.32 KCAL/MOL
REMARK 927      BINDING AFFINITY PREDICTED BY RF-SCORE:    0.00 PKD
ROOT
HETATM    1  C   UNL     1      -9.998   7.495  73.439  1.00  0.00    -0.323 C  
HETATM    2  N   UNL     1     -10.050   6.049  73.213  1.00  0.00    -0.183 NA 
HETATM    3  C   UNL     1     -10.374   5.363  74.466  1.00  0.00    -0.245 C  
ENDROOT
BRANCH   2   4
HETATM    4  C   UNL     1     -11.038   5.684  72.180  1.00  0.00    -0.241 C  
BRANCH   4   5
HETATM    5  C   UNL     1     -10.459   4.913  70.986  1.00  0.00    -0.164 C  
HETATM    6  C   UNL     1     -10.251   5.768  69.714  1.00  0.00    -0.303 C  
HETATM    7  C   UNL     1      -9.195   6.852  69.910  1.00  0.00    -0.147 A  
HETATM    8  C   UNL     1      -9.959   4.884  68.501  1.00  0.00    -0.115 A  
HETATM    9  C   UNL     1      -7.865   6.525  70.219  1.00  0.00    -0.107 A  
HETATM   10  C   UNL     1     -10.293   5.330  67.221  1.00  0.00    -0.254 A  
HETATM   11  C   UNL     1      -6.915   7.526  70.429  1.00  0.00    -0.052 A  
HETATM   12  C   UNL     1     -10.065   4.491  66.132  1.00  0.00    -0.282 A  
HETATM   13  C   UNL     1      -9.504   3.238  66.343  1.00  0.00    -0.101 A  
HETATM   14  C   UNL     1      -7.277   8.867  70.320  1.00  0.00    -0.054 A  
HETATM   15  C   UNL     1      -8.590   9.208  70.003  1.00  0.00    -0.172 A  
HETATM   16  C   UNL     1      -9.182   2.877  67.639  1.00  0.00    -0.201 A  
HETATM   17  N   UNL     1      -9.391   3.669  68.712  1.00  0.00    -0.161 NA 
HETATM   18  C   UNL     1      -9.545   8.208  69.802  1.00  0.00    -0.171 A  
ENDBRANCH   4   5
ENDBRANCH   2   4
TORSDOF 2
ENDMDL
MODEL      143
REMARK 921   NORMALIZED FREE ENERGY PREDICTED BY IDOCK:   -3.06 KCAL/MOL
REMARK 922        TOTAL FREE ENERGY PREDICTED BY IDOCK:   -3.59 KCAL/MOL
REMARK 923 INTER-LIGAND FREE ENERGY PREDICTED BY IDOCK:   -3.41 KCAL/MOL
REMARK 924 INTRA-LIGAND FREE ENERGY PREDICTED BY IDOCK:   -0.18 KCAL/MOL
REMARK 927      BINDING AFFINITY PREDICTED BY RF-SCORE:    0.00 PKD
ROOT
HETATM    1  C   UNL     1      -8.221   3.418  66.838  1.00  0.00    -0.092 C  
HETATM    2  N   UNL     1      -7.835   4.663  67.504  1.00  0.00    -0.089 NA 
HETATM    3  C   UNL     1      -8.708   5.753  67.061  1.00  0.00    -0.109 C  
ENDROOT
BRANCH   2   4
HETATM    4  C   UNL     1      -7.894   4.548  68.973  1.00  0.00    -0.070 C  
BRANCH   4   5
HETATM    5  C   UNL     1      -8.507   5.762  69.684  1.00  0.00    -0.112 C  
HETATM    6  C   UNL     1      -9.699   5.425  70.610  1.00  0.00    -0.241 C  
HETATM    7  C   UNL     1      -9.284   4.562  71.799  1.00  0.00    -0.179 A  
HETATM    8  C   UNL     1     -10.434   6.694  71.043  1.00  0.00    -0.214 A  
HETATM    9  C   UNL     1      -8.349   5.020  72.740  1.00  0.00    -0.112 A  
HETATM   10  C   UNL     1     -11.788   6.634  71.371  1.00  0.00    -0.388 A  
HETATM   11  C   UNL     1      -7.952   4.208  73.804  1.00  0.00    -0.089 A  
HETATM   12  C   UNL     1     -12.453   7.809  71.716  1.00  0.00    -0.348 A  
HETATM   13  C   UNL     1     -11.754   9.009  71.733  1.00  0.00    -0.440 A  
HETATM   14  C   UNL     1      -8.493   2.933  73.949  1.00  0.00    -0.073 A  
HETATM   15  C   UNL     1      -9.430   2.467  73.030  1.00  0.00    -0.128 A  
HETATM   16  C   UNL     1     -10.408   8.982  71.416  1.00  0.00    -0.326 A  
HETATM   17  N   UNL     1      -9.737   7.860  71.078  1.00  0.00    -0.160 NA 
HETATM   18  C   UNL     1      -9.822   3.274  71.959  1.00  0.00    -0.240 A  
ENDBRANCH   4   5
ENDBRANCH   2   4
TORSDOF 2
ENDMDL
MODEL      144
REMARK 921   NORMALIZED FREE ENERGY PREDICTED BY IDOCK:   -3.02 KCAL/MOL
REMARK 922        TOTAL FREE ENERGY PREDICTED BY IDOCK:   -3.55 KCAL/MOL
REMARK 923 INTER-LIGAND FREE ENERGY PREDICTED BY IDOCK:   -3.27 KCAL/MOL
REMARK 924 INTRA-LIGAND FREE ENERGY PREDICTED BY IDOCK:   -0.28 KCAL/MOL
REMARK 927      BINDING AFFINITY PREDICTED BY RF-SCORE:    0.00 PKD
ROOT
HETATM    1  C   UNL     1     -12.567   8.355  72.389  1.00  0.00    -0.316 C  
HETATM    2  N   UNL     1     -11.411   7.545  71.999  1.00  0.00    -0.268 NA 
HETATM    3  C   UNL     1     -10.904   6.813  73.163  1.00  0.00    -0.284 C  
ENDROOT
BRANCH   2   4
HETATM    4  C   UNL     1     -11.739   6.593  70.921  1.00  0.00    -0.375 C  
BRANCH   4   5
HETATM    5  C   UNL     1     -10.998   6.842  69.601  1.00  0.00    -0.298 C  
HETATM    6  C   UNL     1      -9.479   6.561  69.659  1.00  0.00    -0.149 C  
HETATM    7  C   UNL     1      -9.171   5.086  69.900  1.00  0.00    -0.175 A  
HETATM    8  C   UNL     1      -8.771   7.108  68.418  1.00  0.00    -0.125 A  
HETATM    9  C   UNL     1      -9.579   4.099  68.989  1.00  0.00    -0.232 A  
HETATM   10  C   UNL     1      -7.429   7.481  68.492  1.00  0.00    -0.108 A  
HETATM   11  C   UNL     1      -9.322   2.749  69.235  1.00  0.00    -0.193 A  
HETATM   12  C   UNL     1      -6.815   8.023  67.365  1.00  0.00    -0.070 A  
HETATM   13  C   UNL     1      -7.548   8.171  66.194  1.00  0.00    -0.089 A  
HETATM   14  C   UNL     1      -8.640   2.369  70.390  1.00  0.00    -0.102 A  
HETATM   15  C   UNL     1      -8.218   3.336  71.298  1.00  0.00    -0.075 A  
HETATM   16  C   UNL     1      -8.868   7.757  66.195  1.00  0.00    -0.162 A  
HETATM   17  N   UNL     1      -9.489   7.229  67.271  1.00  0.00    -0.133 NA 
HETATM   18  C   UNL     1      -8.484   4.686  71.058  1.00  0.00    -0.115 A  
ENDBRANCH   4   5
ENDBRANCH   2   4
TORSDOF 2
ENDMDL
MODEL      145
REMARK 921   NORMALIZED FREE ENERGY PREDICTED BY IDOCK:   -3.02 KCAL/MOL
REMARK 922        TOTAL FREE ENERGY PREDICTED BY IDOCK:   -3.55 KCAL/MOL
REMARK 923 INTER-LIGAND FREE ENERGY PREDICTED BY IDOCK:   -3.37 KCAL/MOL
REMARK 924 INTRA-LIGAND FREE ENERGY PREDICTED BY IDOCK:   -0.18 KCAL/MOL
REMARK 927      BINDING AFFINITY PREDICTED BY RF-SCORE:    0.00 PKD
ROOT
HETATM    1  C   UNL     1      -5.907   8.184  74.281  1.00  0.00    -0.093 C  
HETATM    2  N   UNL     1      -6.132   8.288  72.838  1.00  0.00    -0.069 NA 
HETATM    3  C   UNL     1      -5.348   7.266  72.139  1.00  0.00    -0.036 C  
ENDROOT
BRANCH   2   4
HETATM    4  C   UNL     1      -7.558   8.143  72.487  1.00  0.00    -0.120 C  
BRANCH   4   5
HETATM    5  C   UNL     1      -7.817   7.660  71.054  1.00  0.00    -0.090 C  
HETATM    6  C   UNL     1      -9.150   6.897  70.869  1.00  0.00    -0.153 C  
HETATM    7  C   UNL     1     -10.366   7.788  71.107  1.00  0.00    -0.218 A  
HETATM    8  C   UNL     1      -9.198   6.200  69.508  1.00  0.00    -0.138 A  
HETATM    9  C   UNL     1     -10.605   8.920  70.313  1.00  0.00    -0.246 A  
HETATM   10  C   UNL     1      -9.973   5.051  69.345  1.00  0.00    -0.290 A  
HETATM   11  C   UNL     1     -11.702   9.747  70.562  1.00  0.00    -0.343 A  
HETATM   12  C   UNL     1      -9.967   4.401  68.112  1.00  0.00    -0.068 A  
HETATM   13  C   UNL     1      -9.198   4.914  67.075  1.00  0.00    -0.127 A  
HETATM   14  C   UNL     1     -12.582   9.446  71.600  1.00  0.00    -0.460 A  
HETATM   15  C   UNL     1     -12.364   8.320  72.390  1.00  0.00    -0.385 A  
HETATM   16  C   UNL     1      -8.474   6.069  67.310  1.00  0.00    -0.104 A  
HETATM   17  N   UNL     1      -8.461   6.720  68.492  1.00  0.00    -0.123 NA 
HETATM   18  C   UNL     1     -11.262   7.497  72.149  1.00  0.00    -0.313 A  
ENDBRANCH   4   5
ENDBRANCH   2   4
TORSDOF 2
ENDMDL
MODEL      146
REMARK 921   NORMALIZED FREE ENERGY PREDICTED BY IDOCK:   -2.98 KCAL/MOL
REMARK 922        TOTAL FREE ENERGY PREDICTED BY IDOCK:   -3.50 KCAL/MOL
REMARK 923 INTER-LIGAND FREE ENERGY PREDICTED BY IDOCK:   -3.26 KCAL/MOL
REMARK 924 INTRA-LIGAND FREE ENERGY PREDICTED BY IDOCK:   -0.25 KCAL/MOL
REMARK 927      BINDING AFFINITY PREDICTED BY RF-SCORE:    0.00 PKD
ROOT
HETATM    1  C   UNL     1      -6.226   4.818  73.427  1.00  0.00    -0.034 C  
HETATM    2  N   UNL     1      -7.602   5.229  73.143  1.00  0.00    -0.095 NA 
HETATM    3  C   UNL     1      -7.931   6.427  73.920  1.00  0.00    -0.100 C  
ENDROOT
BRANCH   2   4
HETATM    4  C   UNL     1      -7.817   5.496  71.708  1.00  0.00    -0.112 C  
BRANCH   4   5
HETATM    5  C   UNL     1      -7.575   6.952  71.286  1.00  0.00    -0.087 C  
HETATM    6  C   UNL     1      -8.583   7.489  70.244  1.00  0.00    -0.144 C  
HETATM    7  C   UNL     1     -10.003   7.571  70.797  1.00  0.00    -0.182 A  
HETATM    8  C   UNL     1      -8.109   8.821  69.659  1.00  0.00    -0.101 A  
HETATM    9  C   UNL     1     -10.309   8.389  71.896  1.00  0.00    -0.353 A  
HETATM   10  C   UNL     1      -8.504   9.194  68.374  1.00  0.00    -0.128 A  
HETATM   11  C   UNL     1     -11.605   8.430  72.415  1.00  0.00    -0.450 A  
HETATM   12  C   UNL     1      -8.024  10.388  67.839  1.00  0.00    -0.102 A  
HETATM   13  C   UNL     1      -7.172  11.181  68.597  1.00  0.00    -0.098 A  
HETATM   14  C   UNL     1     -12.614   7.664  71.835  1.00  0.00    -0.332 A  
HETATM   15  C   UNL     1     -12.328   6.856  70.738  1.00  0.00    -0.314 A  
HETATM   16  C   UNL     1      -6.843  10.751  69.871  1.00  0.00    -0.146 A  
HETATM   17  N   UNL     1      -7.294   9.601  70.415  1.00  0.00    -0.139 NA 
HETATM   18  C   UNL     1     -11.031   6.806  70.223  1.00  0.00    -0.339 A  
ENDBRANCH   4   5
ENDBRANCH   2   4
TORSDOF 2
ENDMDL
MODEL      147
REMARK 921   NORMALIZED FREE ENERGY PREDICTED BY IDOCK:   -2.92 KCAL/MOL
REMARK 922        TOTAL FREE ENERGY PREDICTED BY IDOCK:   -3.44 KCAL/MOL
REMARK 923 INTER-LIGAND FREE ENERGY PREDICTED BY IDOCK:   -3.02 KCAL/MOL
REMARK 924 INTRA-LIGAND FREE ENERGY PREDICTED BY IDOCK:   -0.42 KCAL/MOL
REMARK 927      BINDING AFFINITY PREDICTED BY RF-SCORE:    0.00 PKD
ROOT
HETATM    1  C   UNL     1     -10.563  14.346  65.774  1.00  0.00    -0.318 C  
HETATM    2  N   UNL     1     -11.692  13.491  66.147  1.00  0.00    -0.348 NA 
HETATM    3  C   UNL     1     -11.912  12.480  65.110  1.00  0.00    -0.434 C  
ENDROOT
BRANCH   2   4
HETATM    4  C   UNL     1     -11.480  12.827  67.447  1.00  0.00    -0.340 C  
BRANCH   4   5
HETATM    5  C   UNL     1     -10.029  12.850  67.946  1.00  0.00    -0.233 C  
HETATM    6  C   UNL     1      -9.407  11.450  68.163  1.00  0.00    -0.181 C  
HETATM    7  C   UNL     1      -9.260  10.672  66.858  1.00  0.00    -0.172 A  
HETATM    8  C   UNL     1      -8.088  11.549  68.931  1.00  0.00    -0.035 A  
HETATM    9  C   UNL     1      -8.458  11.151  65.811  1.00  0.00    -0.076 A  
HETATM   10  C   UNL     1      -7.657  10.476  69.711  1.00  0.00    -0.102 A  
HETATM   11  C   UNL     1      -8.358  10.447  64.609  1.00  0.00    -0.155 A  
HETATM   12  C   UNL     1      -6.478  10.603  70.443  1.00  0.00    -0.102 A  
HETATM   13  C   UNL     1      -5.756  11.787  70.373  1.00  0.00    -0.161 A  
HETATM   14  C   UNL     1      -9.050   9.249  64.442  1.00  0.00    -0.111 A  
HETATM   15  C   UNL     1      -9.842   8.755  65.476  1.00  0.00     0.259 A  
HETATM   16  C   UNL     1      -6.238  12.797  69.560  1.00  0.00    -0.120 A  
HETATM   17  N   UNL     1      -7.376  12.703  68.840  1.00  0.00    -0.063 NA 
HETATM   18  C   UNL     1      -9.951   9.462  66.675  1.00  0.00    -0.326 A  
ENDBRANCH   4   5
ENDBRANCH   2   4
TORSDOF 2
ENDMDL
MODEL      148
REMARK 921   NORMALIZED FREE ENERGY PREDICTED BY IDOCK:   -2.90 KCAL/MOL
REMARK 922        TOTAL FREE ENERGY PREDICTED BY IDOCK:   -3.42 KCAL/MOL
REMARK 923 INTER-LIGAND FREE ENERGY PREDICTED BY IDOCK:   -3.25 KCAL/MOL
REMARK 924 INTRA-LIGAND FREE ENERGY PREDICTED BY IDOCK:   -0.17 KCAL/MOL
REMARK 927      BINDING AFFINITY PREDICTED BY RF-SCORE:    0.00 PKD
ROOT
HETATM    1  C   UNL     1      -9.247  13.612  67.260  1.00  0.00    -0.232 C  
HETATM    2  N   UNL     1     -10.552  13.252  67.818  1.00  0.00    -0.238 NA 
HETATM    3  C   UNL     1     -11.618  13.722  66.929  1.00  0.00    -0.370 C  
ENDROOT
BRANCH   2   4
HETATM    4  C   UNL     1     -10.687  11.798  68.024  1.00  0.00    -0.208 C  
BRANCH   4   5
HETATM    5  C   UNL     1     -10.119  10.937  66.887  1.00  0.00    -0.253 C  
HETATM    6  C   UNL     1      -8.972   9.992  67.314  1.00  0.00    -0.144 C  
HETATM    7  C   UNL     1      -9.437   8.920  68.295  1.00  0.00    -0.150 A  
HETATM    8  C   UNL     1      -8.268   9.397  66.093  1.00  0.00    -0.111 A  
HETATM    9  C   UNL     1     -10.420   7.985  67.938  1.00  0.00    -0.259 A  
HETATM   10  C   UNL     1      -6.931   9.009  66.183  1.00  0.00    -0.085 A  
HETATM   11  C   UNL     1     -10.863   7.029  68.855  1.00  0.00    -0.203 A  
HETATM   12  C   UNL     1      -6.293   8.515  65.048  1.00  0.00    -0.060 A  
HETATM   13  C   UNL     1      -7.002   8.410  63.858  1.00  0.00    -0.079 A  
HETATM   14  C   UNL     1     -10.320   6.989  70.138  1.00  0.00    -0.213 A  
HETATM   15  C   UNL     1      -9.335   7.903  70.504  1.00  0.00    -0.162 A  
HETATM   16  C   UNL     1      -8.331   8.795  63.855  1.00  0.00    -0.141 A  
HETATM   17  N   UNL     1      -8.975   9.277  64.939  1.00  0.00    -0.200 NA 
HETATM   18  C   UNL     1      -8.898   8.866  69.591  1.00  0.00    -0.142 A  
ENDBRANCH   4   5
ENDBRANCH   2   4
TORSDOF 2
ENDMDL
MODEL      149
REMARK 921   NORMALIZED FREE ENERGY PREDICTED BY IDOCK:   -2.88 KCAL/MOL
REMARK 922        TOTAL FREE ENERGY PREDICTED BY IDOCK:   -3.39 KCAL/MOL
REMARK 923 INTER-LIGAND FREE ENERGY PREDICTED BY IDOCK:   -3.22 KCAL/MOL
REMARK 924 INTRA-LIGAND FREE ENERGY PREDICTED BY IDOCK:   -0.17 KCAL/MOL
REMARK 927      BINDING AFFINITY PREDICTED BY RF-SCORE:    0.00 PKD
ROOT
HETATM    1  C   UNL     1      -8.561   4.274  65.837  1.00  0.00    -0.114 C  
HETATM    2  N   UNL     1      -7.219   4.850  65.932  1.00  0.00    -0.075 NA 
HETATM    3  C   UNL     1      -6.853   5.468  64.655  1.00  0.00    -0.048 C  
ENDROOT
BRANCH   2   4
HETATM    4  C   UNL     1      -7.120   5.851  67.011  1.00  0.00    -0.070 C  
BRANCH   4   5
HETATM    5  C   UNL     1      -8.370   5.965  67.893  1.00  0.00    -0.111 C  
HETATM    6  C   UNL     1      -8.519   7.324  68.617  1.00  0.00    -0.129 C  
HETATM    7  C   UNL     1      -8.734   8.480  67.643  1.00  0.00    -0.136 A  
HETATM    8  C   UNL     1      -9.606   7.258  69.690  1.00  0.00    -0.155 A  
HETATM    9  C   UNL     1      -9.851   8.517  66.795  1.00  0.00    -0.327 A  
HETATM   10  C   UNL     1      -9.539   8.102  70.799  1.00  0.00    -0.185 A  
HETATM   11  C   UNL     1     -10.021   9.562  65.884  1.00  0.00    -0.342 A  
HETATM   12  C   UNL     1     -10.512   7.994  71.791  1.00  0.00    -0.287 A  
HETATM   13  C   UNL     1     -11.528   7.058  71.650  1.00  0.00    -0.299 A  
HETATM   14  C   UNL     1      -9.083  10.590  65.818  1.00  0.00    -0.204 A  
HETATM   15  C   UNL     1      -7.974  10.573  66.661  1.00  0.00    -0.125 A  
HETATM   16  C   UNL     1     -11.538   6.273  70.511  1.00  0.00    -0.287 A  
HETATM   17  N   UNL     1     -10.609   6.355  69.534  1.00  0.00    -0.227 NA 
HETATM   18  C   UNL     1      -7.798   9.524  67.566  1.00  0.00    -0.102 A  
ENDBRANCH   4   5
ENDBRANCH   2   4
TORSDOF 2
ENDMDL
MODEL      150
REMARK 921   NORMALIZED FREE ENERGY PREDICTED BY IDOCK:   -2.87 KCAL/MOL
REMARK 922        TOTAL FREE ENERGY PREDICTED BY IDOCK:   -3.39 KCAL/MOL
REMARK 923 INTER-LIGAND FREE ENERGY PREDICTED BY IDOCK:   -3.21 KCAL/MOL
REMARK 924 INTRA-LIGAND FREE ENERGY PREDICTED BY IDOCK:   -0.18 KCAL/MOL
REMARK 927      BINDING AFFINITY PREDICTED BY RF-SCORE:    0.00 PKD
ROOT
HETATM    1  C   UNL     1      -7.121  10.762  69.624  1.00  0.00    -0.136 C  
HETATM    2  N   UNL     1      -7.850   9.602  69.109  1.00  0.00    -0.085 NA 
HETATM    3  C   UNL     1      -6.936   8.466  68.962  1.00  0.00    -0.061 C  
ENDROOT
BRANCH   2   4
HETATM    4  C   UNL     1      -8.975   9.220  69.984  1.00  0.00    -0.198 C  
BRANCH   4   5
HETATM    5  C   UNL     1      -8.937   7.767  70.476  1.00  0.00    -0.150 C  
HETATM    6  C   UNL     1      -9.662   7.530  71.822  1.00  0.00    -0.187 C  
HETATM    7  C   UNL     1     -11.165   7.771  71.721  1.00  0.00    -0.298 A  
HETATM    8  C   UNL     1      -9.331   6.148  72.387  1.00  0.00    -0.145 A  
HETATM    9  C   UNL     1     -11.968   7.008  70.859  1.00  0.00    -0.409 A  
HETATM   10  C   UNL     1      -9.378   5.932  73.765  1.00  0.00    -0.131 A  
HETATM   11  C   UNL     1     -13.337   7.259  70.750  1.00  0.00     0.157 A  
HETATM   12  C   UNL     1      -9.026   4.680  74.265  1.00  0.00    -0.108 A  
HETATM   13  C   UNL     1      -8.646   3.676  73.384  1.00  0.00    -0.083 A  
HETATM   14  C   UNL     1     -13.924   8.268  71.511  1.00  0.00    -0.412 A  
HETATM   15  C   UNL     1     -13.143   9.027  72.379  1.00  0.00    -0.487 A  
HETATM   16  C   UNL     1      -8.644   3.962  72.031  1.00  0.00    -0.099 A  
HETATM   17  N   UNL     1      -8.981   5.165  71.518  1.00  0.00    -0.136 NA 
HETATM   18  C   UNL     1     -11.772   8.783  72.482  1.00  0.00    -0.241 A  
ENDBRANCH   4   5
ENDBRANCH   2   4
TORSDOF 2
ENDMDL
MODEL      151
REMARK 921   NORMALIZED FREE ENERGY PREDICTED BY IDOCK:   -2.87 KCAL/MOL
REMARK 922        TOTAL FREE ENERGY PREDICTED BY IDOCK:   -3.38 KCAL/MOL
REMARK 923 INTER-LIGAND FREE ENERGY PREDICTED BY IDOCK:   -3.14 KCAL/MOL
REMARK 924 INTRA-LIGAND FREE ENERGY PREDICTED BY IDOCK:   -0.24 KCAL/MOL
REMARK 927      BINDING AFFINITY PREDICTED BY RF-SCORE:    0.00 PKD
ROOT
HETATM    1  C   UNL     1     -11.177  10.372  69.225  1.00  0.00    -0.248 C  
HETATM    2  N   UNL     1     -11.543  11.000  67.954  1.00  0.00    -0.545 NA 
HETATM    3  C   UNL     1     -11.528  12.458  68.100  1.00  0.00    -0.318 C  
ENDROOT
BRANCH   2   4
HETATM    4  C   UNL     1     -10.638  10.605  66.858  1.00  0.00    -0.254 C  
BRANCH   4   5
HETATM    5  C   UNL     1     -10.386   9.094  66.751  1.00  0.00    -0.308 C  
HETATM    6  C   UNL     1      -8.944   8.715  66.340  1.00  0.00    -0.197 C  
HETATM    7  C   UNL     1      -7.916   9.114  67.396  1.00  0.00    -0.103 A  
HETATM    8  C   UNL     1      -8.851   7.234  65.969  1.00  0.00    -0.136 A  
HETATM    9  C   UNL     1      -7.962   8.582  68.693  1.00  0.00    -0.116 A  
HETATM   10  C   UNL     1      -7.876   6.805  65.068  1.00  0.00    -0.118 A  
HETATM   11  C   UNL     1      -7.037   8.980  69.661  1.00  0.00    -0.059 A  
HETATM   12  C   UNL     1      -7.838   5.460  64.704  1.00  0.00    -0.105 A  
HETATM   13  C   UNL     1      -8.762   4.579  65.251  1.00  0.00    -0.132 A  
HETATM   14  C   UNL     1      -6.046   9.905  69.339  1.00  0.00    -0.040 A  
HETATM   15  C   UNL     1      -5.980  10.434  68.053  1.00  0.00    -0.044 A  
HETATM   16  C   UNL     1      -9.684   5.079  66.153  1.00  0.00    -0.183 A  
HETATM   17  N   UNL     1      -9.745   6.375  66.524  1.00  0.00    -0.154 NA 
HETATM   18  C   UNL     1      -6.911  10.045  67.087  1.00  0.00    -0.082 A  
ENDBRANCH   4   5
ENDBRANCH   2   4
TORSDOF 2
ENDMDL
MODEL      152
REMARK 921   NORMALIZED FREE ENERGY PREDICTED BY IDOCK:   -2.87 KCAL/MOL
REMARK 922        TOTAL FREE ENERGY PREDICTED BY IDOCK:   -3.38 KCAL/MOL
REMARK 923 INTER-LIGAND FREE ENERGY PREDICTED BY IDOCK:   -3.25 KCAL/MOL
REMARK 924 INTRA-LIGAND FREE ENERGY PREDICTED BY IDOCK:   -0.14 KCAL/MOL
REMARK 927      BINDING AFFINITY PREDICTED BY RF-SCORE:    0.00 PKD
ROOT
HETATM    1  C   UNL     1      -5.725  12.471  67.555  1.00  0.00    -0.139 C  
HETATM    2  N   UNL     1      -5.671  11.806  68.859  1.00  0.00    -0.050 NA 
HETATM    3  C   UNL     1      -6.504  12.534  69.821  1.00  0.00    -0.018 C  
ENDROOT
BRANCH   2   4
HETATM    4  C   UNL     1      -6.116  10.402  68.785  1.00  0.00    -0.040 C  
BRANCH   4   5
HETATM    5  C   UNL     1      -7.410  10.100  69.552  1.00  0.00    -0.123 C  
HETATM    6  C   UNL     1      -8.681  10.072  68.672  1.00  0.00    -0.127 C  
HETATM    7  C   UNL     1      -8.662   8.930  67.659  1.00  0.00    -0.124 A  
HETATM    8  C   UNL     1      -9.945  10.063  69.533  1.00  0.00    -0.228 A  
HETATM    9  C   UNL     1      -8.608   7.591  68.074  1.00  0.00    -0.122 A  
HETATM   10  C   UNL     1     -11.133  10.594  69.029  1.00  0.00    -0.307 A  
HETATM   11  C   UNL     1      -8.556   6.555  67.139  1.00  0.00    -0.111 A  
HETATM   12  C   UNL     1     -12.261  10.621  69.847  1.00  0.00    -0.346 A  
HETATM   13  C   UNL     1     -12.181  10.114  71.137  1.00  0.00    -0.490 A  
HETATM   14  C   UNL     1      -8.570   6.845  65.776  1.00  0.00    -0.139 A  
HETATM   15  C   UNL     1      -8.635   8.168  65.348  1.00  0.00    -0.154 A  
HETATM   16  C   UNL     1     -10.973   9.585  71.555  1.00  0.00    -0.299 A  
HETATM   17  N   UNL     1      -9.864   9.545  70.787  1.00  0.00    -0.270 NA 
HETATM   18  C   UNL     1      -8.677   9.206  66.282  1.00  0.00    -0.159 A  
ENDBRANCH   4   5
ENDBRANCH   2   4
TORSDOF 2
ENDMDL
MODEL      153
REMARK 921   NORMALIZED FREE ENERGY PREDICTED BY IDOCK:   -2.86 KCAL/MOL
REMARK 922        TOTAL FREE ENERGY PREDICTED BY IDOCK:   -3.37 KCAL/MOL
REMARK 923 INTER-LIGAND FREE ENERGY PREDICTED BY IDOCK:   -3.03 KCAL/MOL
REMARK 924 INTRA-LIGAND FREE ENERGY PREDICTED BY IDOCK:   -0.33 KCAL/MOL
REMARK 927      BINDING AFFINITY PREDICTED BY RF-SCORE:    0.00 PKD
ROOT
HETATM    1  C   UNL     1      -7.466  12.225  68.270  1.00  0.00    -0.119 C  
HETATM    2  N   UNL     1      -6.764  11.180  67.522  1.00  0.00    -0.071 NA 
HETATM    3  C   UNL     1      -5.532  11.725  66.946  1.00  0.00    -0.122 C  
ENDROOT
BRANCH   2   4
HETATM    4  C   UNL     1      -6.441  10.015  68.367  1.00  0.00    -0.054 C  
BRANCH   4   5
HETATM    5  C   UNL     1      -7.052   8.690  67.889  1.00  0.00    -0.083 C  
HETATM    6  C   UNL     1      -8.257   8.204  68.729  1.00  0.00    -0.125 C  
HETATM    7  C   UNL     1      -9.456   9.142  68.619  1.00  0.00    -0.145 A  
HETATM    8  C   UNL     1      -8.617   6.758  68.385  1.00  0.00    -0.125 A  
HETATM    9  C   UNL     1     -10.082   9.382  67.387  1.00  0.00    -0.271 A  
HETATM   10  C   UNL     1      -9.235   5.951  69.341  1.00  0.00    -0.144 A  
HETATM   11  C   UNL     1     -11.157  10.268  67.293  1.00  0.00    -0.215 A  
HETATM   12  C   UNL     1      -9.511   4.622  69.027  1.00  0.00    -0.221 A  
HETATM   13  C   UNL     1      -9.174   4.134  67.771  1.00  0.00    -0.187 A  
HETATM   14  C   UNL     1     -11.629  10.916  68.432  1.00  0.00    -0.346 A  
HETATM   15  C   UNL     1     -11.026  10.680  69.665  1.00  0.00    -0.331 A  
HETATM   16  C   UNL     1      -8.582   5.002  66.871  1.00  0.00    -0.105 A  
HETATM   17  N   UNL     1      -8.303   6.294  67.147  1.00  0.00    -0.109 NA 
HETATM   18  C   UNL     1      -9.944   9.802  69.760  1.00  0.00    -0.265 A  
ENDBRANCH   4   5
ENDBRANCH   2   4
TORSDOF 2
ENDMDL
MODEL      154
REMARK 921   NORMALIZED FREE ENERGY PREDICTED BY IDOCK:   -2.84 KCAL/MOL
REMARK 922        TOTAL FREE ENERGY PREDICTED BY IDOCK:   -3.35 KCAL/MOL
REMARK 923 INTER-LIGAND FREE ENERGY PREDICTED BY IDOCK:   -3.01 KCAL/MOL
REMARK 924 INTRA-LIGAND FREE ENERGY PREDICTED BY IDOCK:   -0.34 KCAL/MOL
REMARK 927      BINDING AFFINITY PREDICTED BY RF-SCORE:    0.00 PKD
ROOT
HETATM    1  C   UNL     1     -10.121   9.349  66.587  1.00  0.00    -0.262 C  
HETATM    2  N   UNL     1      -9.856   9.844  67.940  1.00  0.00    -0.141 NA 
HETATM    3  C   UNL     1     -10.098  11.288  67.995  1.00  0.00    -0.177 C  
ENDROOT
BRANCH   2   4
HETATM    4  C   UNL     1     -10.688   9.166  68.951  1.00  0.00    -0.141 C  
BRANCH   4   5
HETATM    5  C   UNL     1      -9.905   8.292  69.941  1.00  0.00    -0.186 C  
HETATM    6  C   UNL     1     -10.104   6.771  69.744  1.00  0.00    -0.198 C  
HETATM    7  C   UNL     1      -9.548   6.281  68.409  1.00  0.00    -0.121 A  
HETATM    8  C   UNL     1      -9.542   5.986  70.930  1.00  0.00    -0.169 A  
HETATM    9  C   UNL     1      -8.185   6.404  68.099  1.00  0.00    -0.116 A  
HETATM   10  C   UNL     1     -10.078   4.739  71.254  1.00  0.00    -0.258 A  
HETATM   11  C   UNL     1      -7.693   5.984  66.862  1.00  0.00    -0.100 A  
HETATM   12  C   UNL     1      -9.586   4.061  72.368  1.00  0.00    -0.196 A  
HETATM   13  C   UNL     1      -8.572   4.635  73.123  1.00  0.00    -0.102 A  
HETATM   14  C   UNL     1      -8.556   5.422  65.923  1.00  0.00    -0.131 A  
HETATM   15  C   UNL     1      -9.910   5.283  66.219  1.00  0.00    -0.202 A  
HETATM   16  C   UNL     1      -8.079   5.865  72.724  1.00  0.00    -0.104 A  
HETATM   17  N   UNL     1      -8.535   6.544  71.651  1.00  0.00    -0.124 NA 
HETATM   18  C   UNL     1     -10.405   5.712  67.453  1.00  0.00    -0.284 A  
ENDBRANCH   4   5
ENDBRANCH   2   4
TORSDOF 2
ENDMDL
MODEL      155
REMARK 921   NORMALIZED FREE ENERGY PREDICTED BY IDOCK:   -2.83 KCAL/MOL
REMARK 922        TOTAL FREE ENERGY PREDICTED BY IDOCK:   -3.33 KCAL/MOL
REMARK 923 INTER-LIGAND FREE ENERGY PREDICTED BY IDOCK:   -3.13 KCAL/MOL
REMARK 924 INTRA-LIGAND FREE ENERGY PREDICTED BY IDOCK:   -0.20 KCAL/MOL
REMARK 927      BINDING AFFINITY PREDICTED BY RF-SCORE:    0.00 PKD
ROOT
HETATM    1  C   UNL     1      -5.364   8.171  72.528  1.00  0.00    -0.037 C  
HETATM    2  N   UNL     1      -6.597   7.792  71.835  1.00  0.00    -0.046 NA 
HETATM    3  C   UNL     1      -7.693   7.679  72.800  1.00  0.00    -0.098 C  
ENDROOT
BRANCH   2   4
HETATM    4  C   UNL     1      -6.962   8.759  70.783  1.00  0.00    -0.066 C  
BRANCH   4   5
HETATM    5  C   UNL     1      -7.391   8.125  69.453  1.00  0.00    -0.076 C  
HETATM    6  C   UNL     1      -8.903   7.816  69.352  1.00  0.00    -0.139 C  
HETATM    7  C   UNL     1      -9.757   9.080  69.369  1.00  0.00    -0.169 A  
HETATM    8  C   UNL     1      -9.202   6.928  68.143  1.00  0.00    -0.126 A  
HETATM    9  C   UNL     1      -9.628  10.058  68.370  1.00  0.00    -0.153 A  
HETATM   10  C   UNL     1     -10.312   6.084  68.159  1.00  0.00    -0.251 A  
HETATM   11  C   UNL     1     -10.390  11.227  68.413  1.00  0.00    -0.207 A  
HETATM   12  C   UNL     1     -10.540   5.247  67.069  1.00  0.00    -0.255 A  
HETATM   13  C   UNL     1      -9.666   5.278  65.990  1.00  0.00    -0.159 A  
HETATM   14  C   UNL     1     -11.301  11.428  69.448  1.00  0.00    -0.365 A  
HETATM   15  C   UNL     1     -11.449  10.463  70.441  1.00  0.00    -0.420 A  
HETATM   16  C   UNL     1      -8.600   6.158  66.041  1.00  0.00    -0.145 A  
HETATM   17  N   UNL     1      -8.354   6.980  67.083  1.00  0.00    -0.120 NA 
HETATM   18  C   UNL     1     -10.680   9.297  70.405  1.00  0.00    -0.300 A  
ENDBRANCH   4   5
ENDBRANCH   2   4
TORSDOF 2
ENDMDL
MODEL      156
REMARK 921   NORMALIZED FREE ENERGY PREDICTED BY IDOCK:   -2.83 KCAL/MOL
REMARK 922        TOTAL FREE ENERGY PREDICTED BY IDOCK:   -3.33 KCAL/MOL
REMARK 923 INTER-LIGAND FREE ENERGY PREDICTED BY IDOCK:   -3.07 KCAL/MOL
REMARK 924 INTRA-LIGAND FREE ENERGY PREDICTED BY IDOCK:   -0.26 KCAL/MOL
REMARK 927      BINDING AFFINITY PREDICTED BY RF-SCORE:    0.00 PKD
ROOT
HETATM    1  C   UNL     1      -8.563   9.397  68.199  1.00  0.00    -0.120 C  
HETATM    2  N   UNL     1      -9.664   9.176  69.139  1.00  0.00    -0.160 NA 
HETATM    3  C   UNL     1     -10.650  10.252  69.009  1.00  0.00    -0.224 C  
ENDROOT
BRANCH   2   4
HETATM    4  C   UNL     1     -10.322   7.874  68.926  1.00  0.00    -0.213 C  
BRANCH   4   5
HETATM    5  C   UNL     1     -10.596   7.078  70.210  1.00  0.00    -0.247 C  
HETATM    6  C   UNL     1      -9.542   5.990  70.522  1.00  0.00    -0.198 C  
HETATM    7  C   UNL     1      -8.169   6.582  70.825  1.00  0.00    -0.125 A  
HETATM    8  C   UNL     1     -10.031   5.057  71.631  1.00  0.00    -0.187 A  
HETATM    9  C   UNL     1      -7.973   7.447  71.912  1.00  0.00    -0.094 A  
HETATM   10  C   UNL     1      -9.565   3.743  71.688  1.00  0.00    -0.227 A  
HETATM   11  C   UNL     1      -6.719   8.010  72.160  1.00  0.00    -0.069 A  
HETATM   12  C   UNL     1     -10.058   2.893  72.676  1.00  0.00    -0.232 A  
HETATM   13  C   UNL     1     -10.992   3.373  73.584  1.00  0.00    -0.329 A  
HETATM   14  C   UNL     1      -5.641   7.704  71.332  1.00  0.00    -0.035 A  
HETATM   15  C   UNL     1      -5.816   6.837  70.256  1.00  0.00    -0.023 A  
HETATM   16  C   UNL     1     -11.389   4.694  73.475  1.00  0.00    -0.268 A  
HETATM   17  N   UNL     1     -10.929   5.540  72.529  1.00  0.00    -0.250 NA 
HETATM   18  C   UNL     1      -7.072   6.281  70.000  1.00  0.00    -0.072 A  
ENDBRANCH   4   5
ENDBRANCH   2   4
TORSDOF 2
ENDMDL
MODEL      157
REMARK 921   NORMALIZED FREE ENERGY PREDICTED BY IDOCK:   -2.81 KCAL/MOL
REMARK 922        TOTAL FREE ENERGY PREDICTED BY IDOCK:   -3.31 KCAL/MOL
REMARK 923 INTER-LIGAND FREE ENERGY PREDICTED BY IDOCK:   -3.10 KCAL/MOL
REMARK 924 INTRA-LIGAND FREE ENERGY PREDICTED BY IDOCK:   -0.21 KCAL/MOL
REMARK 927      BINDING AFFINITY PREDICTED BY RF-SCORE:    0.00 PKD
ROOT
HETATM    1  C   UNL     1     -10.954  19.663  67.308  1.00  0.00    -0.290 C  
HETATM    2  N   UNL     1     -10.779  18.264  66.910  1.00  0.00    -0.312 NA 
HETATM    3  C   UNL     1      -9.644  18.150  65.990  1.00  0.00    -0.059 C  
ENDROOT
BRANCH   2   4
HETATM    4  C   UNL     1     -10.564  17.380  68.071  1.00  0.00    -0.389 C  
BRANCH   4   5
HETATM    5  C   UNL     1      -9.187  16.703  68.112  1.00  0.00    -0.220 C  
HETATM    6  C   UNL     1      -9.190  15.289  68.738  1.00  0.00    -0.203 C  
HETATM    7  C   UNL     1      -9.989  14.289  67.907  1.00  0.00    -0.230 A  
HETATM    8  C   UNL     1      -7.765  14.808  69.014  1.00  0.00    -0.145 A  
HETATM    9  C   UNL     1      -9.624  13.984  66.587  1.00  0.00    -0.299 A  
HETATM   10  C   UNL     1      -7.528  13.890  70.037  1.00  0.00     0.793 A  
HETATM   11  C   UNL     1     -10.381  13.093  65.824  1.00  0.00    -0.294 A  
HETATM   12  C   UNL     1      -6.217  13.501  70.306  1.00  0.00    -0.052 A  
HETATM   13  C   UNL     1      -5.180  14.028  69.547  1.00  0.00    -0.083 A  
HETATM   14  C   UNL     1     -11.506  12.484  66.376  1.00  0.00    -0.418 A  
HETATM   15  C   UNL     1     -11.876  12.767  67.689  1.00  0.00    -0.396 A  
HETATM   16  C   UNL     1      -5.498  14.917  68.537  1.00  0.00    -0.101 A  
HETATM   17  N   UNL     1      -6.758  15.312  68.254  1.00  0.00    -0.113 NA 
HETATM   18  C   UNL     1     -11.125  13.666  68.450  1.00  0.00    -0.289 A  
ENDBRANCH   4   5
ENDBRANCH   2   4
TORSDOF 2
ENDMDL
MODEL      158
REMARK 921   NORMALIZED FREE ENERGY PREDICTED BY IDOCK:   -2.78 KCAL/MOL
REMARK 922        TOTAL FREE ENERGY PREDICTED BY IDOCK:   -3.28 KCAL/MOL
REMARK 923 INTER-LIGAND FREE ENERGY PREDICTED BY IDOCK:   -3.12 KCAL/MOL
REMARK 924 INTRA-LIGAND FREE ENERGY PREDICTED BY IDOCK:   -0.16 KCAL/MOL
REMARK 927      BINDING AFFINITY PREDICTED BY RF-SCORE:    0.00 PKD
ROOT
HETATM    1  C   UNL     1      -7.697   9.283  66.359  1.00  0.00    -0.093 C  
HETATM    2  N   UNL     1      -7.553   7.893  66.796  1.00  0.00    -0.096 NA 
HETATM    3  C   UNL     1      -6.136   7.520  66.806  1.00  0.00    -0.044 C  
ENDROOT
BRANCH   2   4
HETATM    4  C   UNL     1      -8.132   7.670  68.135  1.00  0.00    -0.124 C  
BRANCH   4   5
HETATM    5  C   UNL     1      -8.589   6.229  68.400  1.00  0.00    -0.114 C  
HETATM    6  C   UNL     1      -8.665   5.850  69.898  1.00  0.00    -0.129 C  
HETATM    7  C   UNL     1      -9.733   6.644  70.644  1.00  0.00    -0.183 A  
HETATM    8  C   UNL     1      -8.834   4.340  70.074  1.00  0.00    -0.077 A  
HETATM    9  C   UNL     1     -11.088   6.554  70.288  1.00  0.00    -0.392 A  
HETATM   10  C   UNL     1      -8.371   3.720  71.235  1.00  0.00    -0.087 A  
HETATM   11  C   UNL     1     -12.053   7.311  70.956  1.00  0.00    -0.361 A  
HETATM   12  C   UNL     1      -8.490   2.337  71.356  1.00  0.00    -0.088 A  
HETATM   13  C   UNL     1      -9.071   1.610  70.326  1.00  0.00    -0.147 A  
HETATM   14  C   UNL     1     -11.678   8.157  71.997  1.00  0.00    -0.389 A  
HETATM   15  C   UNL     1     -10.340   8.249  72.370  1.00  0.00    -0.402 A  
HETATM   16  C   UNL     1      -9.524   2.300  69.216  1.00  0.00    -0.056 A  
HETATM   17  N   UNL     1      -9.423   3.638  69.071  1.00  0.00    -0.171 NA 
HETATM   18  C   UNL     1      -9.372   7.501  71.697  1.00  0.00    -0.164 A  
ENDBRANCH   4   5
ENDBRANCH   2   4
TORSDOF 2
ENDMDL
MODEL      159
REMARK 921   NORMALIZED FREE ENERGY PREDICTED BY IDOCK:   -2.73 KCAL/MOL
REMARK 922        TOTAL FREE ENERGY PREDICTED BY IDOCK:   -3.23 KCAL/MOL
REMARK 923 INTER-LIGAND FREE ENERGY PREDICTED BY IDOCK:   -2.92 KCAL/MOL
REMARK 924 INTRA-LIGAND FREE ENERGY PREDICTED BY IDOCK:   -0.31 KCAL/MOL
REMARK 927      BINDING AFFINITY PREDICTED BY RF-SCORE:    0.00 PKD
ROOT
HETATM    1  C   UNL     1      -5.261   5.326  68.738  1.00  0.00     0.000 C  
HETATM    2  N   UNL     1      -6.593   5.770  69.150  1.00  0.00    -0.049 NA 
HETATM    3  C   UNL     1      -7.381   4.620  69.602  1.00  0.00    -0.051 C  
ENDROOT
BRANCH   2   4
HETATM    4  C   UNL     1      -6.534   6.780  70.224  1.00  0.00    -0.043 C  
BRANCH   4   5
HETATM    5  C   UNL     1      -6.818   8.217  69.765  1.00  0.00    -0.044 C  
HETATM    6  C   UNL     1      -8.147   8.390  68.994  1.00  0.00    -0.116 C  
HETATM    7  C   UNL     1      -9.366   8.111  69.870  1.00  0.00    -0.159 A  
HETATM    8  C   UNL     1      -8.217   9.762  68.322  1.00  0.00    -0.105 A  
HETATM    9  C   UNL     1      -9.631   8.879  71.014  1.00  0.00    -0.321 A  
HETATM   10  C   UNL     1      -8.985   9.932  67.169  1.00  0.00    -0.150 A  
HETATM   11  C   UNL     1     -10.730   8.593  71.826  1.00  0.00    -0.392 A  
HETATM   12  C   UNL     1      -8.997  11.176  66.543  1.00  0.00    -0.185 A  
HETATM   13  C   UNL     1      -8.254  12.219  67.082  1.00  0.00    -0.179 A  
HETATM   14  C   UNL     1     -11.586   7.544  71.498  1.00  0.00    -0.301 A  
HETATM   15  C   UNL     1     -11.343   6.779  70.360  1.00  0.00    -0.399 A  
HETATM   16  C   UNL     1      -7.535  11.976  68.238  1.00  0.00    -0.106 A  
HETATM   17  N   UNL     1      -7.505  10.782  68.867  1.00  0.00    -0.107 NA 
HETATM   18  C   UNL     1     -10.239   7.058  69.551  1.00  0.00    -0.208 A  
ENDBRANCH   4   5
ENDBRANCH   2   4
TORSDOF 2
ENDMDL
MODEL      160
REMARK 921   NORMALIZED FREE ENERGY PREDICTED BY IDOCK:   -2.73 KCAL/MOL
REMARK 922        TOTAL FREE ENERGY PREDICTED BY IDOCK:   -3.22 KCAL/MOL
REMARK 923 INTER-LIGAND FREE ENERGY PREDICTED BY IDOCK:   -3.06 KCAL/MOL
REMARK 924 INTRA-LIGAND FREE ENERGY PREDICTED BY IDOCK:   -0.16 KCAL/MOL
REMARK 927      BINDING AFFINITY PREDICTED BY RF-SCORE:    0.00 PKD
ROOT
HETATM    1  C   UNL     1     -11.057   9.951  69.639  1.00  0.00    -0.241 C  
HETATM    2  N   UNL     1     -11.429  10.596  68.378  1.00  0.00    -0.336 NA 
HETATM    3  C   UNL     1     -11.306  12.050  68.510  1.00  0.00    -0.272 C  
ENDROOT
BRANCH   2   4
HETATM    4  C   UNL     1     -10.598  10.132  67.251  1.00  0.00    -0.261 C  
BRANCH   4   5
HETATM    5  C   UNL     1      -9.815   8.840  67.524  1.00  0.00    -0.232 C  
HETATM    6  C   UNL     1      -9.459   8.030  66.256  1.00  0.00    -0.241 C  
HETATM    7  C   UNL     1      -8.492   8.777  65.342  1.00  0.00    -0.186 A  
HETATM    8  C   UNL     1      -8.953   6.634  66.621  1.00  0.00    -0.142 A  
HETATM    9  C   UNL     1      -7.210   9.141  65.782  1.00  0.00    -0.089 A  
HETATM   10  C   UNL     1      -9.112   5.580  65.721  1.00  0.00    -0.152 A  
HETATM   11  C   UNL     1      -6.345   9.854  64.949  1.00  0.00    -0.110 A  
HETATM   12  C   UNL     1      -8.689   4.305  66.092  1.00  0.00    -0.114 A  
HETATM   13  C   UNL     1      -8.111   4.114  67.340  1.00  0.00    -0.099 A  
HETATM   14  C   UNL     1      -6.746  10.201  63.661  1.00  0.00    -0.117 A  
HETATM   15  C   UNL     1      -8.011   9.838  63.205  1.00  0.00    -0.145 A  
HETATM   16  C   UNL     1      -7.969   5.213  68.167  1.00  0.00    -0.087 A  
HETATM   17  N   UNL     1      -8.369   6.459  67.836  1.00  0.00    -0.118 NA 
HETATM   18  C   UNL     1      -8.881   9.133  64.040  1.00  0.00    -0.112 A  
ENDBRANCH   4   5
ENDBRANCH   2   4
TORSDOF 2
ENDMDL
MODEL      161
REMARK 921   NORMALIZED FREE ENERGY PREDICTED BY IDOCK:   -2.71 KCAL/MOL
REMARK 922        TOTAL FREE ENERGY PREDICTED BY IDOCK:   -3.21 KCAL/MOL
REMARK 923 INTER-LIGAND FREE ENERGY PREDICTED BY IDOCK:   -3.04 KCAL/MOL
REMARK 924 INTRA-LIGAND FREE ENERGY PREDICTED BY IDOCK:   -0.17 KCAL/MOL
REMARK 927      BINDING AFFINITY PREDICTED BY RF-SCORE:    0.00 PKD
ROOT
HETATM    1  C   UNL     1      -6.254   8.125  63.420  1.00  0.00    -0.072 C  
HETATM    2  N   UNL     1      -7.409   8.374  64.285  1.00  0.00    -0.092 NA 
HETATM    3  C   UNL     1      -7.862   7.115  64.881  1.00  0.00    -0.126 C  
ENDROOT
BRANCH   2   4
HETATM    4  C   UNL     1      -7.104   9.345  65.353  1.00  0.00    -0.091 C  
BRANCH   4   5
HETATM    5  C   UNL     1      -7.975  10.608  65.335  1.00  0.00    -0.086 C  
HETATM    6  C   UNL     1      -8.773  10.851  66.638  1.00  0.00    -0.156 C  
HETATM    7  C   UNL     1      -7.864  11.132  67.831  1.00  0.00    -0.111 A  
HETATM    8  C   UNL     1      -9.827  11.941  66.441  1.00  0.00    -0.213 A  
HETATM    9  C   UNL     1      -7.005  12.242  67.846  1.00  0.00    -0.104 A  
HETATM   10  C   UNL     1     -10.983  11.939  67.221  1.00  0.00    -0.319 A  
HETATM   11  C   UNL     1      -6.153  12.471  68.928  1.00  0.00    -0.075 A  
HETATM   12  C   UNL     1     -11.955  12.911  66.994  1.00  0.00    -0.390 A  
HETATM   13  C   UNL     1     -11.748  13.863  66.004  1.00  0.00    -0.381 A  
HETATM   14  C   UNL     1      -6.158  11.600  70.016  1.00  0.00    -0.158 A  
HETATM   15  C   UNL     1      -7.013  10.500  70.022  1.00  0.00    -0.150 A  
HETATM   16  C   UNL     1     -10.566  13.812  65.287  1.00  0.00    -0.353 A  
HETATM   17  N   UNL     1      -9.608  12.882  65.485  1.00  0.00    -0.056 NA 
HETATM   18  C   UNL     1      -7.858  10.264  68.936  1.00  0.00    -0.106 A  
ENDBRANCH   4   5
ENDBRANCH   2   4
TORSDOF 2
ENDMDL
MODEL      162
REMARK 921   NORMALIZED FREE ENERGY PREDICTED BY IDOCK:   -2.70 KCAL/MOL
REMARK 922        TOTAL FREE ENERGY PREDICTED BY IDOCK:   -3.19 KCAL/MOL
REMARK 923 INTER-LIGAND FREE ENERGY PREDICTED BY IDOCK:   -2.88 KCAL/MOL
REMARK 924 INTRA-LIGAND FREE ENERGY PREDICTED BY IDOCK:   -0.31 KCAL/MOL
REMARK 927      BINDING AFFINITY PREDICTED BY RF-SCORE:    0.00 PKD
ROOT
HETATM    1  C   UNL     1      -7.885   5.750  66.150  1.00  0.00    -0.101 C  
HETATM    2  N   UNL     1      -9.216   5.891  66.743  1.00  0.00    -0.129 NA 
HETATM    3  C   UNL     1      -9.695   4.585  67.202  1.00  0.00    -0.197 C  
ENDROOT
BRANCH   2   4
HETATM    4  C   UNL     1      -9.224   6.844  67.869  1.00  0.00    -0.124 C  
BRANCH   4   5
HETATM    5  C   UNL     1      -9.918   8.180  67.571  1.00  0.00    -0.251 C  
HETATM    6  C   UNL     1      -8.958   9.389  67.472  1.00  0.00    -0.130 C  
HETATM    7  C   UNL     1      -8.005   9.277  66.285  1.00  0.00    -0.107 A  
HETATM    8  C   UNL     1      -9.734  10.707  67.472  1.00  0.00    -0.166 A  
HETATM    9  C   UNL     1      -8.486   9.222  64.968  1.00  0.00    -0.178 A  
HETATM   10  C   UNL     1      -9.129  11.869  67.950  1.00  0.00    -0.183 A  
HETATM   11  C   UNL     1      -7.606   9.086  63.892  1.00  0.00    -0.115 A  
HETATM   12  C   UNL     1      -9.867  13.050  67.987  1.00  0.00    -0.224 A  
HETATM   13  C   UNL     1     -11.183  13.046  67.542  1.00  0.00    -0.320 A  
HETATM   14  C   UNL     1      -6.233   9.016  64.118  1.00  0.00    -0.072 A  
HETATM   15  C   UNL     1      -5.739   9.079  65.419  1.00  0.00    -0.046 A  
HETATM   16  C   UNL     1     -11.705  11.858  67.063  1.00  0.00    -0.227 A  
HETATM   17  N   UNL     1     -11.013  10.699  67.014  1.00  0.00    -0.248 NA 
HETATM   18  C   UNL     1      -6.618   9.206  66.497  1.00  0.00    -0.067 A  
ENDBRANCH   4   5
ENDBRANCH   2   4
TORSDOF 2
ENDMDL
MODEL      163
REMARK 921   NORMALIZED FREE ENERGY PREDICTED BY IDOCK:   -2.69 KCAL/MOL
REMARK 922        TOTAL FREE ENERGY PREDICTED BY IDOCK:   -3.18 KCAL/MOL
REMARK 923 INTER-LIGAND FREE ENERGY PREDICTED BY IDOCK:   -2.91 KCAL/MOL
REMARK 924 INTRA-LIGAND FREE ENERGY PREDICTED BY IDOCK:   -0.28 KCAL/MOL
REMARK 927      BINDING AFFINITY PREDICTED BY RF-SCORE:    0.00 PKD
ROOT
HETATM    1  C   UNL     1      -6.497   8.132  69.089  1.00  0.00    -0.040 C  
HETATM    2  N   UNL     1      -7.907   8.517  69.173  1.00  0.00    -0.098 NA 
HETATM    3  C   UNL     1      -8.616   7.608  70.077  1.00  0.00    -0.138 C  
ENDROOT
BRANCH   2   4
HETATM    4  C   UNL     1      -8.076   9.907  69.638  1.00  0.00    -0.165 C  
BRANCH   4   5
HETATM    5  C   UNL     1      -8.583  10.881  68.567  1.00  0.00    -0.152 C  
HETATM    6  C   UNL     1     -10.035  10.619  68.102  1.00  0.00    -0.176 C  
HETATM    7  C   UNL     1     -11.051  10.847  69.217  1.00  0.00    -0.305 A  
HETATM    8  C   UNL     1     -10.361  11.426  66.844  1.00  0.00    -0.227 A  
HETATM    9  C   UNL     1     -11.199  12.105  69.821  1.00  0.00    -0.072 A  
HETATM   10  C   UNL     1     -11.327  10.959  65.951  1.00  0.00     0.335 A  
HETATM   11  C   UNL     1     -12.109  12.294  70.864  1.00  0.00    -0.162 A  
HETATM   12  C   UNL     1     -11.576  11.681  64.786  1.00  0.00    -0.170 A  
HETATM   13  C   UNL     1     -10.867  12.851  64.544  1.00  0.00    -0.385 A  
HETATM   14  C   UNL     1     -12.892  11.230  71.307  1.00  0.00    -0.491 A  
HETATM   15  C   UNL     1     -12.766   9.978  70.710  1.00  0.00    -0.355 A  
HETATM   16  C   UNL     1      -9.941  13.259  65.488  1.00  0.00    -0.207 A  
HETATM   17  N   UNL     1      -9.679  12.580  66.625  1.00  0.00    -0.236 NA 
HETATM   18  C   UNL     1     -11.849   9.785  69.674  1.00  0.00     0.137 A  
ENDBRANCH   4   5
ENDBRANCH   2   4
TORSDOF 2
ENDMDL
MODEL      164
REMARK 921   NORMALIZED FREE ENERGY PREDICTED BY IDOCK:   -2.69 KCAL/MOL
REMARK 922        TOTAL FREE ENERGY PREDICTED BY IDOCK:   -3.18 KCAL/MOL
REMARK 923 INTER-LIGAND FREE ENERGY PREDICTED BY IDOCK:   -3.03 KCAL/MOL
REMARK 924 INTRA-LIGAND FREE ENERGY PREDICTED BY IDOCK:   -0.15 KCAL/MOL
REMARK 927      BINDING AFFINITY PREDICTED BY RF-SCORE:    0.00 PKD
ROOT
HETATM    1  C   UNL     1      -8.908  11.411  66.586  1.00  0.00    -0.183 C  
HETATM    2  N   UNL     1     -10.306  11.167  66.225  1.00  0.00    -0.242 NA 
HETATM    3  C   UNL     1     -10.369  10.319  65.032  1.00  0.00    -0.104 C  
ENDROOT
BRANCH   2   4
HETATM    4  C   UNL     1     -11.060  10.532  67.322  1.00  0.00    -0.213 C  
BRANCH   4   5
HETATM    5  C   UNL     1     -11.328  11.446  68.526  1.00  0.00    -0.333 C  
HETATM    6  C   UNL     1     -11.958  10.730  69.743  1.00  0.00    -0.397 C  
HETATM    7  C   UNL     1     -11.020   9.695  70.357  1.00  0.00    -0.356 A  
HETATM    8  C   UNL     1     -12.463  11.741  70.773  1.00  0.00    -0.312 A  
HETATM    9  C   UNL     1      -9.778  10.066  70.894  1.00  0.00     0.529 A  
HETATM   10  C   UNL     1     -13.519  11.401  71.619  1.00  0.00    -0.110 A  
HETATM   11  C   UNL     1      -8.913   9.107  71.423  1.00  0.00    -0.144 A  
HETATM   12  C   UNL     1     -13.998  12.352  72.518  1.00  0.00     0.222 A  
HETATM   13  C   UNL     1     -13.410  13.610  72.558  1.00  0.00    -0.638 A  
HETATM   14  C   UNL     1      -9.284   7.764  71.434  1.00  0.00    -0.156 A  
HETATM   15  C   UNL     1     -10.518   7.380  70.916  1.00  0.00    -0.225 A  
HETATM   16  C   UNL     1     -12.353  13.862  71.702  1.00  0.00    -0.178 A  
HETATM   17  N   UNL     1     -11.868  12.961  70.821  1.00  0.00    -0.010 NA 
HETATM   18  C   UNL     1     -11.381   8.337  70.377  1.00  0.00    -0.177 A  
ENDBRANCH   4   5
ENDBRANCH   2   4
TORSDOF 2
ENDMDL
MODEL      165
REMARK 921   NORMALIZED FREE ENERGY PREDICTED BY IDOCK:   -2.68 KCAL/MOL
REMARK 922        TOTAL FREE ENERGY PREDICTED BY IDOCK:   -3.16 KCAL/MOL
REMARK 923 INTER-LIGAND FREE ENERGY PREDICTED BY IDOCK:   -3.00 KCAL/MOL
REMARK 924 INTRA-LIGAND FREE ENERGY PREDICTED BY IDOCK:   -0.16 KCAL/MOL
REMARK 927      BINDING AFFINITY PREDICTED BY RF-SCORE:    0.00 PKD
ROOT
HETATM    1  C   UNL     1     -12.662  11.823  63.947  1.00  0.00    -0.207 C  
HETATM    2  N   UNL     1     -11.375  12.247  64.500  1.00  0.00    -0.316 NA 
HETATM    3  C   UNL     1     -11.486  13.611  65.025  1.00  0.00    -0.327 C  
ENDROOT
BRANCH   2   4
HETATM    4  C   UNL     1     -10.904  11.345  65.568  1.00  0.00    -0.220 C  
BRANCH   4   5
HETATM    5  C   UNL     1      -9.480  11.629  66.064  1.00  0.00    -0.246 C  
HETATM    6  C   UNL     1      -9.079  10.846  67.335  1.00  0.00    -0.144 C  
HETATM    7  C   UNL     1      -9.016   9.340  67.094  1.00  0.00    -0.141 A  
HETATM    8  C   UNL     1      -7.781  11.394  67.931  1.00  0.00    -0.114 A  
HETATM    9  C   UNL     1      -8.123   8.790  66.162  1.00  0.00    -0.107 A  
HETATM   10  C   UNL     1      -7.536  11.265  69.298  1.00  0.00    -0.040 A  
HETATM   11  C   UNL     1      -8.097   7.414  65.925  1.00  0.00    -0.128 A  
HETATM   12  C   UNL     1      -6.371  11.814  69.831  1.00  0.00    -0.113 A  
HETATM   13  C   UNL     1      -5.479  12.467  68.991  1.00  0.00    -0.067 A  
HETATM   14  C   UNL     1      -8.954   6.569  66.626  1.00  0.00    -0.144 A  
HETATM   15  C   UNL     1      -9.839   7.098  67.563  1.00  0.00    -0.192 A  
HETATM   16  C   UNL     1      -5.784  12.535  67.643  1.00  0.00    -0.131 A  
HETATM   17  N   UNL     1      -6.904  12.013  67.099  1.00  0.00    -0.147 NA 
HETATM   18  C   UNL     1      -9.873   8.475  67.794  1.00  0.00    -0.218 A  
ENDBRANCH   4   5
ENDBRANCH   2   4
TORSDOF 2
ENDMDL
MODEL      166
REMARK 921   NORMALIZED FREE ENERGY PREDICTED BY IDOCK:   -2.63 KCAL/MOL
REMARK 922        TOTAL FREE ENERGY PREDICTED BY IDOCK:   -3.11 KCAL/MOL
REMARK 923 INTER-LIGAND FREE ENERGY PREDICTED BY IDOCK:   -2.89 KCAL/MOL
REMARK 924 INTRA-LIGAND FREE ENERGY PREDICTED BY IDOCK:   -0.22 KCAL/MOL
REMARK 927      BINDING AFFINITY PREDICTED BY RF-SCORE:    0.00 PKD
ROOT
HETATM    1  C   UNL     1      -9.532   9.865  65.065  1.00  0.00    -0.280 C  
HETATM    2  N   UNL     1      -9.933   9.939  66.471  1.00  0.00    -0.215 NA 
HETATM    3  C   UNL     1     -10.766  11.126  66.687  1.00  0.00    -0.269 C  
ENDROOT
BRANCH   2   4
HETATM    4  C   UNL     1     -10.668   8.736  66.904  1.00  0.00    -0.081 C  
BRANCH   4   5
HETATM    5  C   UNL     1     -10.074   8.031  68.131  1.00  0.00    -0.234 C  
HETATM    6  C   UNL     1      -9.802   6.522  67.931  1.00  0.00    -0.134 C  
HETATM    7  C   UNL     1      -8.721   6.261  66.886  1.00  0.00    -0.113 A  
HETATM    8  C   UNL     1      -9.498   5.838  69.265  1.00  0.00    -0.129 A  
HETATM    9  C   UNL     1      -7.412   6.737  67.058  1.00  0.00    -0.087 A  
HETATM   10  C   UNL     1      -9.778   4.481  69.428  1.00  0.00    -0.272 A  
HETATM   11  C   UNL     1      -6.440   6.522  66.079  1.00  0.00    -0.043 A  
HETATM   12  C   UNL     1      -9.540   3.886  70.666  1.00  0.00    -0.259 A  
HETATM   13  C   UNL     1      -9.023   4.652  71.702  1.00  0.00    -0.163 A  
HETATM   14  C   UNL     1      -6.760   5.816  64.921  1.00  0.00    -0.047 A  
HETATM   15  C   UNL     1      -8.051   5.328  64.740  1.00  0.00    -0.124 A  
HETATM   16  C   UNL     1      -8.752   5.986  71.455  1.00  0.00    -0.132 A  
HETATM   17  N   UNL     1      -8.972   6.589  70.267  1.00  0.00    -0.154 NA 
HETATM   18  C   UNL     1      -9.028   5.550  65.714  1.00  0.00    -0.158 A  
ENDBRANCH   4   5
ENDBRANCH   2   4
TORSDOF 2
ENDMDL
MODEL      167
REMARK 921   NORMALIZED FREE ENERGY PREDICTED BY IDOCK:   -2.56 KCAL/MOL
REMARK 922        TOTAL FREE ENERGY PREDICTED BY IDOCK:   -3.03 KCAL/MOL
REMARK 923 INTER-LIGAND FREE ENERGY PREDICTED BY IDOCK:   -2.85 KCAL/MOL
REMARK 924 INTRA-LIGAND FREE ENERGY PREDICTED BY IDOCK:   -0.18 KCAL/MOL
REMARK 927      BINDING AFFINITY PREDICTED BY RF-SCORE:    0.00 PKD
ROOT
HETATM    1  C   UNL     1     -11.910   9.886  71.254  1.00  0.00    -0.395 C  
HETATM    2  N   UNL     1     -12.187   8.530  71.735  1.00  0.00    -0.313 NA 
HETATM    3  C   UNL     1     -13.619   8.244  71.612  1.00  0.00    -0.346 C  
ENDROOT
BRANCH   2   4
HETATM    4  C   UNL     1     -11.415   7.512  70.998  1.00  0.00    -0.278 C  
BRANCH   4   5
HETATM    5  C   UNL     1     -10.206   8.060  70.229  1.00  0.00    -0.200 C  
HETATM    6  C   UNL     1      -8.861   7.389  70.593  1.00  0.00    -0.150 C  
HETATM    7  C   UNL     1      -8.821   5.915  70.198  1.00  0.00    -0.144 A  
HETATM    8  C   UNL     1      -7.682   8.176  70.018  1.00  0.00    -0.086 A  
HETATM    9  C   UNL     1      -8.953   5.517  68.859  1.00  0.00    -0.122 A  
HETATM   10  C   UNL     1      -6.438   8.122  70.647  1.00  0.00    -0.036 A  
HETATM   11  C   UNL     1      -8.949   4.164  68.514  1.00  0.00    -0.159 A  
HETATM   12  C   UNL     1      -5.389   8.884  70.137  1.00  0.00    -0.028 A  
HETATM   13  C   UNL     1      -5.601   9.671  69.013  1.00  0.00    -0.036 A  
HETATM   14  C   UNL     1      -8.802   3.192  69.501  1.00  0.00    -0.150 A  
HETATM   15  C   UNL     1      -8.660   3.571  70.834  1.00  0.00    -0.112 A  
HETATM   16  C   UNL     1      -6.857   9.654  68.434  1.00  0.00    -0.061 A  
HETATM   17  N   UNL     1      -7.892   8.926  68.905  1.00  0.00    -0.095 NA 
HETATM   18  C   UNL     1      -8.672   4.924  71.182  1.00  0.00    -0.143 A  
ENDBRANCH   4   5
ENDBRANCH   2   4
TORSDOF 2
ENDMDL
MODEL      168
REMARK 921   NORMALIZED FREE ENERGY PREDICTED BY IDOCK:   -2.53 KCAL/MOL
REMARK 922        TOTAL FREE ENERGY PREDICTED BY IDOCK:   -3.00 KCAL/MOL
REMARK 923 INTER-LIGAND FREE ENERGY PREDICTED BY IDOCK:   -2.81 KCAL/MOL
REMARK 924 INTRA-LIGAND FREE ENERGY PREDICTED BY IDOCK:   -0.19 KCAL/MOL
REMARK 927      BINDING AFFINITY PREDICTED BY RF-SCORE:    0.00 PKD
ROOT
HETATM    1  C   UNL     1     -10.647   4.665  64.917  1.00  0.00     0.104 C  
HETATM    2  N   UNL     1     -10.654   4.641  66.381  1.00  0.00    -0.184 NA 
HETATM    3  C   UNL     1      -9.588   3.762  66.868  1.00  0.00    -0.179 C  
ENDROOT
BRANCH   2   4
HETATM    4  C   UNL     1     -10.486   5.988  66.958  1.00  0.00    -0.270 C  
BRANCH   4   5
HETATM    5  C   UNL     1      -9.134   6.649  66.655  1.00  0.00    -0.159 C  
HETATM    6  C   UNL     1      -9.225   8.147  66.283  1.00  0.00    -0.245 C  
HETATM    7  C   UNL     1      -9.722   9.004  67.443  1.00  0.00    -0.217 A  
HETATM    8  C   UNL     1      -7.899   8.652  65.713  1.00  0.00    -0.100 A  
HETATM    9  C   UNL     1      -9.007   9.083  68.648  1.00  0.00    -0.137 A  
HETATM   10  C   UNL     1      -7.890   9.725  64.821  1.00  0.00    -0.134 A  
HETATM   11  C   UNL     1      -9.489   9.843  69.716  1.00  0.00    -0.254 A  
HETATM   12  C   UNL     1      -6.677  10.140  64.275  1.00  0.00    -0.108 A  
HETATM   13  C   UNL     1      -5.507   9.485  64.636  1.00  0.00    -0.060 A  
HETATM   14  C   UNL     1     -10.685  10.546  69.588  1.00  0.00    -0.302 A  
HETATM   15  C   UNL     1     -11.401  10.488  68.395  1.00  0.00    -0.328 A  
HETATM   16  C   UNL     1      -5.596   8.444  65.542  1.00  0.00    -0.043 A  
HETATM   17  N   UNL     1      -6.756   8.020  66.088  1.00  0.00    -0.053 NA 
HETATM   18  C   UNL     1     -10.926   9.720  67.329  1.00  0.00    -0.142 A  
ENDBRANCH   4   5
ENDBRANCH   2   4
TORSDOF 2
ENDMDL
MODEL      169
REMARK 921   NORMALIZED FREE ENERGY PREDICTED BY IDOCK:   -2.52 KCAL/MOL
REMARK 922        TOTAL FREE ENERGY PREDICTED BY IDOCK:   -2.99 KCAL/MOL
REMARK 923 INTER-LIGAND FREE ENERGY PREDICTED BY IDOCK:   -2.81 KCAL/MOL
REMARK 924 INTRA-LIGAND FREE ENERGY PREDICTED BY IDOCK:   -0.18 KCAL/MOL
REMARK 927      BINDING AFFINITY PREDICTED BY RF-SCORE:    0.00 PKD
ROOT
HETATM    1  C   UNL     1     -11.730  16.316  64.169  1.00  0.00     0.264 C  
HETATM    2  N   UNL     1     -10.458  16.176  64.880  1.00  0.00    -0.597 NA 
HETATM    3  C   UNL     1     -10.144  17.422  65.583  1.00  0.00    -0.015 C  
ENDROOT
BRANCH   2   4
HETATM    4  C   UNL     1     -10.480  15.058  65.842  1.00  0.00    -0.328 C  
BRANCH   4   5
HETATM    5  C   UNL     1      -9.132  14.769  66.516  1.00  0.00    -0.291 C  
HETATM    6  C   UNL     1      -9.239  14.336  67.997  1.00  0.00    -0.192 C  
HETATM    7  C   UNL     1      -9.948  12.994  68.160  1.00  0.00    -0.231 A  
HETATM    8  C   UNL     1      -7.868  14.355  68.674  1.00  0.00    -0.140 A  
HETATM    9  C   UNL     1      -9.428  11.823  67.587  1.00  0.00    -0.180 A  
HETATM   10  C   UNL     1      -7.777  14.564  70.051  1.00  0.00     0.450 A  
HETATM   11  C   UNL     1     -10.102  10.607  67.714  1.00  0.00    -0.203 A  
HETATM   12  C   UNL     1      -6.517  14.627  70.643  1.00  0.00     0.014 A  
HETATM   13  C   UNL     1      -5.384  14.473  69.854  1.00  0.00    -0.095 A  
HETATM   14  C   UNL     1     -11.298  10.543  68.426  1.00  0.00    -0.328 A  
HETATM   15  C   UNL     1     -11.822  11.695  69.010  1.00  0.00    -0.391 A  
HETATM   16  C   UNL     1      -5.558  14.249  68.500  1.00  0.00    -0.097 A  
HETATM   17  N   UNL     1      -6.765  14.183  67.899  1.00  0.00    -0.151 NA 
HETATM   18  C   UNL     1     -11.153  12.914  68.876  1.00  0.00    -0.301 A  
ENDBRANCH   4   5
ENDBRANCH   2   4
TORSDOF 2
ENDMDL
MODEL      170
REMARK 921   NORMALIZED FREE ENERGY PREDICTED BY IDOCK:   -2.50 KCAL/MOL
REMARK 922        TOTAL FREE ENERGY PREDICTED BY IDOCK:   -2.97 KCAL/MOL
REMARK 923 INTER-LIGAND FREE ENERGY PREDICTED BY IDOCK:   -2.81 KCAL/MOL
REMARK 924 INTRA-LIGAND FREE ENERGY PREDICTED BY IDOCK:   -0.16 KCAL/MOL
REMARK 927      BINDING AFFINITY PREDICTED BY RF-SCORE:    0.00 PKD
ROOT
HETATM    1  C   UNL     1     -11.178  16.152  64.717  1.00  0.00    -0.304 C  
HETATM    2  N   UNL     1     -10.000  15.845  65.531  1.00  0.00    -0.416 NA 
HETATM    3  C   UNL     1      -9.542  17.057  66.216  1.00  0.00    -0.267 C  
ENDROOT
BRANCH   2   4
HETATM    4  C   UNL     1     -10.272  14.790  66.525  1.00  0.00    -0.276 C  
BRANCH   4   5
HETATM    5  C   UNL     1      -9.247  13.648  66.541  1.00  0.00    -0.195 C  
HETATM    6  C   UNL     1      -8.984  13.046  67.941  1.00  0.00    -0.200 C  
HETATM    7  C   UNL     1     -10.215  12.349  68.514  1.00  0.00    -0.213 A  
HETATM    8  C   UNL     1      -7.756  12.135  67.925  1.00  0.00    -0.134 A  
HETATM    9  C   UNL     1     -10.795  11.248  67.867  1.00  0.00    -0.278 A  
HETATM   10  C   UNL     1      -7.012  11.952  69.091  1.00  0.00    -0.079 A  
HETATM   11  C   UNL     1     -11.941  10.639  68.382  1.00  0.00     0.108 A  
HETATM   12  C   UNL     1      -5.868  11.157  69.045  1.00  0.00    -0.040 A  
HETATM   13  C   UNL     1      -5.500  10.561  67.846  1.00  0.00    -0.040 A  
HETATM   14  C   UNL     1     -12.516  11.116  69.558  1.00  0.00    -0.142 A  
HETATM   15  C   UNL     1     -11.946  12.201  70.219  1.00  0.00    -0.389 A  
HETATM   16  C   UNL     1      -6.301  10.774  66.739  1.00  0.00    -0.088 A  
HETATM   17  N   UNL     1      -7.414  11.538  66.754  1.00  0.00    -0.140 NA 
HETATM   18  C   UNL     1     -10.805  12.817  69.700  1.00  0.00     0.279 A  
ENDBRANCH   4   5
ENDBRANCH   2   4
TORSDOF 2
ENDMDL
MODEL      171
REMARK 921   NORMALIZED FREE ENERGY PREDICTED BY IDOCK:   -2.50 KCAL/MOL
REMARK 922        TOTAL FREE ENERGY PREDICTED BY IDOCK:   -2.97 KCAL/MOL
REMARK 923 INTER-LIGAND FREE ENERGY PREDICTED BY IDOCK:   -2.64 KCAL/MOL
REMARK 924 INTRA-LIGAND FREE ENERGY PREDICTED BY IDOCK:   -0.33 KCAL/MOL
REMARK 927      BINDING AFFINITY PREDICTED BY RF-SCORE:    0.00 PKD
ROOT
HETATM    1  C   UNL     1     -10.079   6.427  72.539  1.00  0.00    -0.176 C  
HETATM    2  N   UNL     1      -9.607   5.081  72.206  1.00  0.00    -0.145 NA 
HETATM    3  C   UNL     1      -9.872   4.173  73.325  1.00  0.00    -0.128 C  
ENDROOT
BRANCH   2   4
HETATM    4  C   UNL     1     -10.243   4.556  70.983  1.00  0.00    -0.097 C  
BRANCH   4   5
HETATM    5  C   UNL     1      -9.317   4.488  69.761  1.00  0.00    -0.223 C  
HETATM    6  C   UNL     1      -9.688   5.469  68.624  1.00  0.00    -0.186 C  
HETATM    7  C   UNL     1      -9.525   6.928  69.040  1.00  0.00    -0.137 A  
HETATM    8  C   UNL     1      -8.920   5.140  67.343  1.00  0.00    -0.109 A  
HETATM    9  C   UNL     1      -8.276   7.440  69.423  1.00  0.00    -0.131 A  
HETATM   10  C   UNL     1      -9.464   5.473  66.103  1.00  0.00    -0.166 A  
HETATM   11  C   UNL     1      -8.144   8.768  69.834  1.00  0.00    -0.109 A  
HETATM   12  C   UNL     1      -8.772   5.122  64.945  1.00  0.00    -0.140 A  
HETATM   13  C   UNL     1      -7.556   4.458  65.052  1.00  0.00    -0.077 A  
HETATM   14  C   UNL     1      -9.258   9.605  69.856  1.00  0.00    -0.255 A  
HETATM   15  C   UNL     1     -10.503   9.115  69.468  1.00  0.00    -0.226 A  
HETATM   16  C   UNL     1      -7.074   4.183  66.319  1.00  0.00    -0.067 A  
HETATM   17  N   UNL     1      -7.721   4.511  67.457  1.00  0.00    -0.085 NA 
HETATM   18  C   UNL     1     -10.638   7.785  69.066  1.00  0.00    -0.179 A  
ENDBRANCH   4   5
ENDBRANCH   2   4
TORSDOF 2
ENDMDL
MODEL      172
REMARK 921   NORMALIZED FREE ENERGY PREDICTED BY IDOCK:   -2.50 KCAL/MOL
REMARK 922        TOTAL FREE ENERGY PREDICTED BY IDOCK:   -2.96 KCAL/MOL
REMARK 923 INTER-LIGAND FREE ENERGY PREDICTED BY IDOCK:   -2.69 KCAL/MOL
REMARK 924 INTRA-LIGAND FREE ENERGY PREDICTED BY IDOCK:   -0.27 KCAL/MOL
REMARK 927      BINDING AFFINITY PREDICTED BY RF-SCORE:    0.00 PKD
ROOT
HETATM    1  C   UNL     1     -12.337   6.776  71.116  1.00  0.00    -0.333 C  
HETATM    2  N   UNL     1     -11.608   8.024  70.878  1.00  0.00    -0.282 NA 
HETATM    3  C   UNL     1     -12.401   9.160  71.355  1.00  0.00    -0.333 C  
ENDROOT
BRANCH   2   4
HETATM    4  C   UNL     1     -10.289   8.031  71.538  1.00  0.00    -0.209 C  
BRANCH   4   5
HETATM    5  C   UNL     1      -9.195   7.260  70.788  1.00  0.00    -0.156 C  
HETATM    6  C   UNL     1      -9.059   7.638  69.294  1.00  0.00    -0.145 C  
HETATM    7  C   UNL     1      -8.595   9.078  69.100  1.00  0.00    -0.133 A  
HETATM    8  C   UNL     1      -8.171   6.636  68.554  1.00  0.00    -0.119 A  
HETATM    9  C   UNL     1      -7.354   9.515  69.589  1.00  0.00    -0.084 A  
HETATM   10  C   UNL     1      -8.352   6.426  67.187  1.00  0.00    -0.112 A  
HETATM   11  C   UNL     1      -6.954  10.844  69.435  1.00  0.00    -0.125 A  
HETATM   12  C   UNL     1      -7.566   5.475  66.539  1.00  0.00    -0.088 A  
HETATM   13  C   UNL     1      -6.619   4.764  67.265  1.00  0.00    -0.050 A  
HETATM   14  C   UNL     1      -7.784  11.751  68.778  1.00  0.00    -0.091 A  
HETATM   15  C   UNL     1      -9.013  11.330  68.278  1.00  0.00    -0.172 A  
HETATM   16  C   UNL     1      -6.486   5.045  68.613  1.00  0.00    -0.037 A  
HETATM   17  N   UNL     1      -7.232   5.961  69.267  1.00  0.00    -0.072 NA 
HETATM   18  C   UNL     1      -9.419  10.004  68.439  1.00  0.00    -0.146 A  
ENDBRANCH   4   5
ENDBRANCH   2   4
TORSDOF 2
ENDMDL
MODEL      173
REMARK 921   NORMALIZED FREE ENERGY PREDICTED BY IDOCK:   -2.48 KCAL/MOL
REMARK 922        TOTAL FREE ENERGY PREDICTED BY IDOCK:   -2.94 KCAL/MOL
REMARK 923 INTER-LIGAND FREE ENERGY PREDICTED BY IDOCK:   -2.95 KCAL/MOL
REMARK 924 INTRA-LIGAND FREE ENERGY PREDICTED BY IDOCK:    0.01 KCAL/MOL
REMARK 927      BINDING AFFINITY PREDICTED BY RF-SCORE:    0.00 PKD
ROOT
HETATM    1  C   UNL     1      -9.339   5.252  69.964  1.00  0.00    -0.152 C  
HETATM    2  N   UNL     1      -7.961   4.865  69.655  1.00  0.00    -0.066 NA 
HETATM    3  C   UNL     1      -7.928   3.472  69.201  1.00  0.00    -0.053 C  
ENDROOT
BRANCH   2   4
HETATM    4  C   UNL     1      -7.357   5.734  68.628  1.00  0.00    -0.084 C  
BRANCH   4   5
HETATM    5  C   UNL     1      -7.511   5.223  67.189  1.00  0.00    -0.084 C  
HETATM    6  C   UNL     1      -8.931   5.392  66.600  1.00  0.00    -0.116 C  
HETATM    7  C   UNL     1      -9.322   6.859  66.440  1.00  0.00    -0.183 A  
HETATM    8  C   UNL     1      -9.083   4.604  65.298  1.00  0.00    -0.151 A  
HETATM    9  C   UNL     1      -8.594   7.718  65.603  1.00  0.00    -0.147 A  
HETATM   10  C   UNL     1     -10.341   4.145  64.908  1.00  0.00    -0.210 A  
HETATM   11  C   UNL     1      -8.940   9.066  65.489  1.00  0.00    -0.252 A  
HETATM   12  C   UNL     1     -10.452   3.387  63.744  1.00  0.00    -0.256 A  
HETATM   13  C   UNL     1      -9.314   3.114  62.996  1.00  0.00    -0.094 A  
HETATM   14  C   UNL     1     -10.027   9.570  66.201  1.00  0.00    -0.342 A  
HETATM   15  C   UNL     1     -10.766   8.727  67.027  1.00  0.00    -0.186 A  
HETATM   16  C   UNL     1      -8.106   3.623  63.439  1.00  0.00    -0.088 A  
HETATM   17  N   UNL     1      -7.968   4.360  64.561  1.00  0.00    -0.089 NA 
HETATM   18  C   UNL     1     -10.416   7.381  67.150  1.00  0.00    -0.403 A  
ENDBRANCH   4   5
ENDBRANCH   2   4
TORSDOF 2
ENDMDL
MODEL      174
REMARK 921   NORMALIZED FREE ENERGY PREDICTED BY IDOCK:   -2.45 KCAL/MOL
REMARK 922        TOTAL FREE ENERGY PREDICTED BY IDOCK:   -2.92 KCAL/MOL
REMARK 923 INTER-LIGAND FREE ENERGY PREDICTED BY IDOCK:   -2.84 KCAL/MOL
REMARK 924 INTRA-LIGAND FREE ENERGY PREDICTED BY IDOCK:   -0.08 KCAL/MOL
REMARK 927      BINDING AFFINITY PREDICTED BY RF-SCORE:    0.00 PKD
ROOT
HETATM    1  C   UNL     1     -12.481   6.903  70.586  1.00  0.00    -0.123 C  
HETATM    2  N   UNL     1     -12.087   7.427  71.895  1.00  0.00    -0.298 NA 
HETATM    3  C   UNL     1     -11.355   6.400  72.641  1.00  0.00    -0.231 C  
ENDROOT
BRANCH   2   4
HETATM    4  C   UNL     1     -11.255   8.640  71.780  1.00  0.00    -0.326 C  
BRANCH   4   5
HETATM    5  C   UNL     1      -9.744   8.391  71.877  1.00  0.00    -0.331 C  
HETATM    6  C   UNL     1      -9.098   7.874  70.571  1.00  0.00    -0.154 C  
HETATM    7  C   UNL     1      -9.158   8.904  69.446  1.00  0.00    -0.145 A  
HETATM    8  C   UNL     1      -7.676   7.372  70.823  1.00  0.00    -0.088 A  
HETATM    9  C   UNL     1      -8.528  10.152  69.569  1.00  0.00    -0.179 A  
HETATM   10  C   UNL     1      -7.130   6.388  69.999  1.00  0.00    -0.071 A  
HETATM   11  C   UNL     1      -8.617  11.100  68.548  1.00  0.00    -0.157 A  
HETATM   12  C   UNL     1      -5.851   5.908  70.274  1.00  0.00    -0.024 A  
HETATM   13  C   UNL     1      -5.147   6.424  71.354  1.00  0.00    -0.018 A  
HETATM   14  C   UNL     1      -9.328  10.809  67.385  1.00  0.00    -0.163 A  
HETATM   15  C   UNL     1      -9.951   9.571  67.244  1.00  0.00    -0.244 A  
HETATM   16  C   UNL     1      -5.749   7.413  72.112  1.00  0.00    -0.037 A  
HETATM   17  N   UNL     1      -6.985   7.897  71.869  1.00  0.00    -0.065 NA 
HETATM   18  C   UNL     1      -9.870   8.625  68.268  1.00  0.00    -0.186 A  
ENDBRANCH   4   5
ENDBRANCH   2   4
TORSDOF 2
ENDMDL
MODEL      175
REMARK 921   NORMALIZED FREE ENERGY PREDICTED BY IDOCK:   -2.43 KCAL/MOL
REMARK 922        TOTAL FREE ENERGY PREDICTED BY IDOCK:   -2.89 KCAL/MOL
REMARK 923 INTER-LIGAND FREE ENERGY PREDICTED BY IDOCK:   -2.71 KCAL/MOL
REMARK 924 INTRA-LIGAND FREE ENERGY PREDICTED BY IDOCK:   -0.18 KCAL/MOL
REMARK 927      BINDING AFFINITY PREDICTED BY RF-SCORE:    0.00 PKD
ROOT
HETATM    1  C   UNL     1      -6.219   9.422  68.098  1.00  0.00    -0.053 C  
HETATM    2  N   UNL     1      -6.453   8.233  68.921  1.00  0.00    -0.051 NA 
HETATM    3  C   UNL     1      -5.172   7.626  69.290  1.00  0.00    -0.015 C  
ENDROOT
BRANCH   2   4
HETATM    4  C   UNL     1      -7.222   8.545  70.140  1.00  0.00    -0.051 C  
BRANCH   4   5
HETATM    5  C   UNL     1      -7.765   7.318  70.885  1.00  0.00    -0.092 C  
HETATM    6  C   UNL     1      -9.234   6.967  70.549  1.00  0.00    -0.159 C  
HETATM    7  C   UNL     1      -9.410   6.536  69.096  1.00  0.00    -0.133 A  
HETATM    8  C   UNL     1      -9.790   5.936  71.532  1.00  0.00    -0.166 A  
HETATM    9  C   UNL     1      -8.753   5.405  68.588  1.00  0.00    -0.097 A  
HETATM   10  C   UNL     1     -11.159   5.894  71.793  1.00  0.00    -0.324 A  
HETATM   11  C   UNL     1      -8.894   5.039  67.247  1.00  0.00    -0.102 A  
HETATM   12  C   UNL     1     -11.641   4.980  72.729  1.00  0.00    -0.200 A  
HETATM   13  C   UNL     1     -10.752   4.129  73.372  1.00  0.00    -0.303 A  
HETATM   14  C   UNL     1      -9.705   5.792  66.401  1.00  0.00    -0.175 A  
HETATM   15  C   UNL     1     -10.372   6.912  66.892  1.00  0.00    -0.332 A  
HETATM   16  C   UNL     1      -9.411   4.218  73.043  1.00  0.00    -0.121 A  
HETATM   17  N   UNL     1      -8.916   5.093  72.142  1.00  0.00    -0.129 NA 
HETATM   18  C   UNL     1     -10.224   7.285  68.230  1.00  0.00    -0.208 A  
ENDBRANCH   4   5
ENDBRANCH   2   4
TORSDOF 2
ENDMDL
MODEL      176
REMARK 921   NORMALIZED FREE ENERGY PREDICTED BY IDOCK:   -2.41 KCAL/MOL
REMARK 922        TOTAL FREE ENERGY PREDICTED BY IDOCK:   -2.87 KCAL/MOL
REMARK 923 INTER-LIGAND FREE ENERGY PREDICTED BY IDOCK:   -2.64 KCAL/MOL
REMARK 924 INTRA-LIGAND FREE ENERGY PREDICTED BY IDOCK:   -0.23 KCAL/MOL
REMARK 927      BINDING AFFINITY PREDICTED BY RF-SCORE:    0.00 PKD
ROOT
HETATM    1  C   UNL     1      -6.343  11.569  69.886  1.00  0.00    -0.136 C  
HETATM    2  N   UNL     1      -6.880  10.604  68.924  1.00  0.00    -0.061 NA 
HETATM    3  C   UNL     1      -5.784   9.835  68.328  1.00  0.00    -0.043 C  
ENDROOT
BRANCH   2   4
HETATM    4  C   UNL     1      -7.850   9.682  69.545  1.00  0.00    -0.117 C  
BRANCH   4   5
HETATM    5  C   UNL     1      -7.769   8.235  69.039  1.00  0.00    -0.098 C  
HETATM    6  C   UNL     1      -8.957   7.804  68.148  1.00  0.00    -0.127 C  
HETATM    7  C   UNL     1      -9.006   8.576  66.833  1.00  0.00    -0.166 A  
HETATM    8  C   UNL     1      -8.960   6.289  67.933  1.00  0.00    -0.113 A  
HETATM    9  C   UNL     1      -7.953   8.506  65.908  1.00  0.00    -0.105 A  
HETATM   10  C   UNL     1     -10.161   5.627  67.679  1.00  0.00    -0.243 A  
HETATM   11  C   UNL     1      -7.993   9.244  64.723  1.00  0.00    -0.123 A  
HETATM   12  C   UNL     1     -10.151   4.241  67.534  1.00  0.00    -0.011 A  
HETATM   13  C   UNL     1      -8.949   3.553  67.637  1.00  0.00    -0.168 A  
HETATM   14  C   UNL     1      -9.093  10.051  64.441  1.00  0.00    -0.289 A  
HETATM   15  C   UNL     1     -10.152  10.123  65.343  1.00  0.00    -0.342 A  
HETATM   16  C   UNL     1      -7.798   4.285  67.869  1.00  0.00    -0.079 A  
HETATM   17  N   UNL     1      -7.777   5.627  68.013  1.00  0.00    -0.088 NA 
HETATM   18  C   UNL     1     -10.109   9.394  66.533  1.00  0.00    -0.332 A  
ENDBRANCH   4   5
ENDBRANCH   2   4
TORSDOF 2
ENDMDL
MODEL      177
REMARK 921   NORMALIZED FREE ENERGY PREDICTED BY IDOCK:   -2.39 KCAL/MOL
REMARK 922        TOTAL FREE ENERGY PREDICTED BY IDOCK:   -2.84 KCAL/MOL
REMARK 923 INTER-LIGAND FREE ENERGY PREDICTED BY IDOCK:   -2.57 KCAL/MOL
REMARK 924 INTRA-LIGAND FREE ENERGY PREDICTED BY IDOCK:   -0.27 KCAL/MOL
REMARK 927      BINDING AFFINITY PREDICTED BY RF-SCORE:    0.00 PKD
ROOT
HETATM    1  C   UNL     1     -10.376  10.964  65.287  1.00  0.00    -0.268 C  
HETATM    2  N   UNL     1     -10.282  11.243  66.722  1.00  0.00    -0.218 NA 
HETATM    3  C   UNL     1     -10.941  12.517  67.023  1.00  0.00    -0.267 C  
ENDROOT
BRANCH   2   4
HETATM    4  C   UNL     1     -10.886  10.172  67.536  1.00  0.00    -0.290 C  
BRANCH   4   5
HETATM    5  C   UNL     1     -10.008   9.678  68.694  1.00  0.00    -0.179 C  
HETATM    6  C   UNL     1      -9.191   8.404  68.377  1.00  0.00    -0.135 C  
HETATM    7  C   UNL     1      -8.145   8.641  67.291  1.00  0.00    -0.101 A  
HETATM    8  C   UNL     1      -8.583   7.811  69.649  1.00  0.00    -0.135 A  
HETATM    9  C   UNL     1      -7.110   9.572  67.467  1.00  0.00    -0.085 A  
HETATM   10  C   UNL     1      -8.315   6.444  69.719  1.00  0.00    -0.127 A  
HETATM   11  C   UNL     1      -6.179   9.805  66.454  1.00  0.00    -0.068 A  
HETATM   12  C   UNL     1      -7.808   5.914  70.904  1.00  0.00    -0.102 A  
HETATM   13  C   UNL     1      -7.571   6.757  71.982  1.00  0.00    -0.094 A  
HETATM   14  C   UNL     1      -6.262   9.100  65.254  1.00  0.00    -0.064 A  
HETATM   15  C   UNL     1      -7.277   8.165  65.068  1.00  0.00    -0.076 A  
HETATM   16  C   UNL     1      -7.843   8.105  71.827  1.00  0.00    -0.112 A  
HETATM   17  N   UNL     1      -8.335   8.646  70.692  1.00  0.00    -0.129 NA 
HETATM   18  C   UNL     1      -8.215   7.937  66.077  1.00  0.00    -0.122 A  
ENDBRANCH   4   5
ENDBRANCH   2   4
TORSDOF 2
ENDMDL
MODEL      178
REMARK 921   NORMALIZED FREE ENERGY PREDICTED BY IDOCK:   -2.36 KCAL/MOL
REMARK 922        TOTAL FREE ENERGY PREDICTED BY IDOCK:   -2.81 KCAL/MOL
REMARK 923 INTER-LIGAND FREE ENERGY PREDICTED BY IDOCK:   -2.50 KCAL/MOL
REMARK 924 INTRA-LIGAND FREE ENERGY PREDICTED BY IDOCK:   -0.31 KCAL/MOL
REMARK 927      BINDING AFFINITY PREDICTED BY RF-SCORE:    0.00 PKD
ROOT
HETATM    1  C   UNL     1     -10.968   5.265  70.218  1.00  0.00     0.137 C  
HETATM    2  N   UNL     1      -9.553   5.128  70.569  1.00  0.00    -0.168 NA 
HETATM    3  C   UNL     1      -9.200   3.709  70.657  1.00  0.00    -0.134 C  
ENDROOT
BRANCH   2   4
HETATM    4  C   UNL     1      -8.672   5.798  69.595  1.00  0.00    -0.122 C  
BRANCH   4   5
HETATM    5  C   UNL     1      -7.795   6.910  70.185  1.00  0.00    -0.106 C  
HETATM    6  C   UNL     1      -8.302   8.342  69.898  1.00  0.00    -0.124 C  
HETATM    7  C   UNL     1      -9.641   8.630  70.571  1.00  0.00    -0.210 A  
HETATM    8  C   UNL     1      -7.238   9.383  70.253  1.00  0.00    -0.104 A  
HETATM    9  C   UNL     1      -9.778   8.584  71.967  1.00  0.00    -0.377 A  
HETATM   10  C   UNL     1      -7.219  10.610  69.590  1.00  0.00    -0.139 A  
HETATM   11  C   UNL     1     -11.016   8.816  72.571  1.00  0.00    -0.095 A  
HETATM   12  C   UNL     1      -6.213  11.525  69.892  1.00  0.00    -0.147 A  
HETATM   13  C   UNL     1      -5.260  11.201  70.849  1.00  0.00    -0.117 A  
HETATM   14  C   UNL     1     -12.130   9.109  71.787  1.00  0.00    -0.446 A  
HETATM   15  C   UNL     1     -12.008   9.169  70.401  1.00  0.00     0.018 A  
HETATM   16  C   UNL     1      -5.360   9.972  71.477  1.00  0.00    -0.065 A  
HETATM   17  N   UNL     1      -6.323   9.066  71.206  1.00  0.00    -0.070 NA 
HETATM   18  C   UNL     1     -10.773   8.928  69.795  1.00  0.00    -0.230 A  
ENDBRANCH   4   5
ENDBRANCH   2   4
TORSDOF 2
ENDMDL
MODEL      179
REMARK 921   NORMALIZED FREE ENERGY PREDICTED BY IDOCK:   -2.35 KCAL/MOL
REMARK 922        TOTAL FREE ENERGY PREDICTED BY IDOCK:   -2.80 KCAL/MOL
REMARK 923 INTER-LIGAND FREE ENERGY PREDICTED BY IDOCK:   -2.65 KCAL/MOL
REMARK 924 INTRA-LIGAND FREE ENERGY PREDICTED BY IDOCK:   -0.15 KCAL/MOL
REMARK 927      BINDING AFFINITY PREDICTED BY RF-SCORE:    0.00 PKD
ROOT
HETATM    1  C   UNL     1      -8.768  11.304  66.326  1.00  0.00    -0.184 C  
HETATM    2  N   UNL     1     -10.217  11.378  66.125  1.00  0.00    -0.231 NA 
HETATM    3  C   UNL     1     -10.623  10.417  65.097  1.00  0.00     0.036 C  
ENDROOT
BRANCH   2   4
HETATM    4  C   UNL     1     -10.964  11.114  67.370  1.00  0.00    -0.290 C  
BRANCH   4   5
HETATM    5  C   UNL     1     -10.863  12.226  68.423  1.00  0.00    -0.257 C  
HETATM    6  C   UNL     1     -12.049  12.276  69.414  1.00  0.00    -0.234 C  
HETATM    7  C   UNL     1     -12.119  11.034  70.298  1.00  0.00    -0.448 A  
HETATM    8  C   UNL     1     -12.029  13.569  70.229  1.00  0.00    -0.316 A  
HETATM    9  C   UNL     1     -11.071  10.701  71.169  1.00  0.00     0.629 A  
HETATM   10  C   UNL     1     -13.221  14.091  70.733  1.00  0.00    -0.172 A  
HETATM   11  C   UNL     1     -11.130   9.544  71.949  1.00  0.00    -0.039 A  
HETATM   12  C   UNL     1     -13.189  15.296  71.432  1.00  0.00    -0.555 A  
HETATM   13  C   UNL     1     -11.975  15.945  71.618  1.00  0.00    -0.553 A  
HETATM   14  C   UNL     1     -12.245   8.711  71.877  1.00  0.00    -0.419 A  
HETATM   15  C   UNL     1     -13.299   9.033  71.025  1.00  0.00    -0.037 A  
HETATM   16  C   UNL     1     -10.835  15.352  71.107  1.00  0.00    -0.108 A  
HETATM   17  N   UNL     1     -10.835  14.186  70.426  1.00  0.00     0.367 NA 
HETATM   18  C   UNL     1     -13.237  10.185  70.237  1.00  0.00     0.158 A  
ENDBRANCH   4   5
ENDBRANCH   2   4
TORSDOF 2
ENDMDL
MODEL      180
REMARK 921   NORMALIZED FREE ENERGY PREDICTED BY IDOCK:   -2.28 KCAL/MOL
REMARK 922        TOTAL FREE ENERGY PREDICTED BY IDOCK:   -2.72 KCAL/MOL
REMARK 923 INTER-LIGAND FREE ENERGY PREDICTED BY IDOCK:   -2.43 KCAL/MOL
REMARK 924 INTRA-LIGAND FREE ENERGY PREDICTED BY IDOCK:   -0.29 KCAL/MOL
REMARK 927      BINDING AFFINITY PREDICTED BY RF-SCORE:    0.00 PKD
ROOT
HETATM    1  C   UNL     1      -9.490   4.066  68.324  1.00  0.00    -0.156 C  
HETATM    2  N   UNL     1      -8.713   4.376  67.122  1.00  0.00    -0.104 NA 
HETATM    3  C   UNL     1      -8.303   3.134  66.462  1.00  0.00    -0.100 C  
ENDROOT
BRANCH   2   4
HETATM    4  C   UNL     1      -9.471   5.213  66.172  1.00  0.00    -0.159 C  
BRANCH   4   5
HETATM    5  C   UNL     1      -8.899   6.621  65.964  1.00  0.00    -0.151 C  
HETATM    6  C   UNL     1      -9.687   7.742  66.682  1.00  0.00    -0.292 C  
HETATM    7  C   UNL     1      -9.622   7.616  68.202  1.00  0.00    -0.158 A  
HETATM    8  C   UNL     1      -9.244   9.123  66.194  1.00  0.00    -0.205 A  
HETATM    9  C   UNL     1      -8.398   7.684  68.885  1.00  0.00    -0.129 A  
HETATM   10  C   UNL     1     -10.136  10.195  66.243  1.00  0.00    -0.303 A  
HETATM   11  C   UNL     1      -8.346   7.533  70.273  1.00  0.00    -0.133 A  
HETATM   12  C   UNL     1      -9.731  11.433  65.749  1.00  0.00    -0.263 A  
HETATM   13  C   UNL     1      -8.451  11.575  65.229  1.00  0.00     0.404 A  
HETATM   14  C   UNL     1      -9.519   7.325  70.996  1.00  0.00    -0.158 A  
HETATM   15  C   UNL     1     -10.742   7.266  70.334  1.00  0.00    -0.253 A  
HETATM   16  C   UNL     1      -7.619  10.469  65.235  1.00  0.00    -0.074 A  
HETATM   17  N   UNL     1      -7.983   9.258  65.707  1.00  0.00    -0.108 NA 
HETATM   18  C   UNL     1     -10.795   7.407  68.945  1.00  0.00    -0.088 A  
ENDBRANCH   4   5
ENDBRANCH   2   4
TORSDOF 2
ENDMDL
MODEL      181
REMARK 921   NORMALIZED FREE ENERGY PREDICTED BY IDOCK:   -2.24 KCAL/MOL
REMARK 922        TOTAL FREE ENERGY PREDICTED BY IDOCK:   -2.68 KCAL/MOL
REMARK 923 INTER-LIGAND FREE ENERGY PREDICTED BY IDOCK:   -2.70 KCAL/MOL
REMARK 924 INTRA-LIGAND FREE ENERGY PREDICTED BY IDOCK:    0.02 KCAL/MOL
REMARK 927      BINDING AFFINITY PREDICTED BY RF-SCORE:    0.00 PKD
ROOT
HETATM    1  C   UNL     1      -7.721  10.401  67.022  1.00  0.00    -0.105 C  
HETATM    2  N   UNL     1      -8.803  10.339  68.007  1.00  0.00    -0.122 NA 
HETATM    3  C   UNL     1     -10.078  10.091  67.328  1.00  0.00    -0.209 C  
ENDROOT
BRANCH   2   4
HETATM    4  C   UNL     1      -8.572   9.293  69.021  1.00  0.00    -0.134 C  
BRANCH   4   5
HETATM    5  C   UNL     1      -9.663   9.191  70.095  1.00  0.00    -0.234 C  
HETATM    6  C   UNL     1     -10.681   8.050  69.863  1.00  0.00    -0.242 C  
HETATM    7  C   UNL     1     -10.038   6.670  69.961  1.00  0.00    -0.199 A  
HETATM    8  C   UNL     1     -11.889   8.196  70.791  1.00  0.00    -0.159 A  
HETATM    9  C   UNL     1      -9.429   6.233  71.147  1.00  0.00    -0.183 A  
HETATM   10  C   UNL     1     -13.126   7.679  70.407  1.00  0.00     0.822 A  
HETATM   11  C   UNL     1      -8.814   4.982  71.215  1.00  0.00    -0.152 A  
HETATM   12  C   UNL     1     -14.225   7.864  71.243  1.00  0.00    -0.376 A  
HETATM   13  C   UNL     1     -14.064   8.549  72.440  1.00  0.00    -0.391 A  
HETATM   14  C   UNL     1      -8.811   4.144  70.101  1.00  0.00    -0.133 A  
HETATM   15  C   UNL     1      -9.421   4.558  68.920  1.00  0.00    -0.225 A  
HETATM   16  C   UNL     1     -12.800   9.013  72.760  1.00  0.00    -0.081 A  
HETATM   17  N   UNL     1     -11.718   8.848  71.971  1.00  0.00    -0.367 NA 
HETATM   18  C   UNL     1     -10.028   5.814  68.847  1.00  0.00    -0.211 A  
ENDBRANCH   4   5
ENDBRANCH   2   4
TORSDOF 2
ENDMDL
MODEL      182
REMARK 921   NORMALIZED FREE ENERGY PREDICTED BY IDOCK:   -2.22 KCAL/MOL
REMARK 922        TOTAL FREE ENERGY PREDICTED BY IDOCK:   -2.66 KCAL/MOL
REMARK 923 INTER-LIGAND FREE ENERGY PREDICTED BY IDOCK:   -2.48 KCAL/MOL
REMARK 924 INTRA-LIGAND FREE ENERGY PREDICTED BY IDOCK:   -0.18 KCAL/MOL
REMARK 927      BINDING AFFINITY PREDICTED BY RF-SCORE:    0.00 PKD
ROOT
HETATM    1  C   UNL     1     -12.579   7.165  71.042  1.00  0.00    -0.290 C  
HETATM    2  N   UNL     1     -11.374   7.069  71.868  1.00  0.00    -0.248 NA 
HETATM    3  C   UNL     1     -11.510   5.960  72.816  1.00  0.00    -0.230 C  
ENDROOT
BRANCH   2   4
HETATM    4  C   UNL     1     -10.158   6.878  71.056  1.00  0.00    -0.193 C  
BRANCH   4   5
HETATM    5  C   UNL     1     -10.400   6.238  69.683  1.00  0.00    -0.267 C  
HETATM    6  C   UNL     1      -9.170   5.511  69.091  1.00  0.00    -0.142 C  
HETATM    7  C   UNL     1      -8.760   4.296  69.919  1.00  0.00    -0.110 A  
HETATM    8  C   UNL     1      -9.394   5.162  67.619  1.00  0.00    -0.122 A  
HETATM    9  C   UNL     1      -9.634   3.213  70.103  1.00  0.00    -0.172 A  
HETATM   10  C   UNL     1      -8.301   5.044  66.760  1.00  0.00    -0.107 A  
HETATM   11  C   UNL     1      -9.262   2.121  70.890  1.00  0.00    -0.189 A  
HETATM   12  C   UNL     1      -8.528   4.774  65.412  1.00  0.00    -0.129 A  
HETATM   13  C   UNL     1      -9.831   4.622  64.956  1.00  0.00    -0.067 A  
HETATM   14  C   UNL     1      -8.006   2.092  71.493  1.00  0.00    -0.040 A  
HETATM   15  C   UNL     1      -7.123   3.154  71.311  1.00  0.00    -0.033 A  
HETATM   16  C   UNL     1     -10.859   4.733  65.874  1.00  0.00    -0.051 A  
HETATM   17  N   UNL     1     -10.670   4.993  67.185  1.00  0.00    -0.037 NA 
HETATM   18  C   UNL     1      -7.498   4.251  70.532  1.00  0.00    -0.049 A  
ENDBRANCH   4   5
ENDBRANCH   2   4
TORSDOF 2
ENDMDL
MODEL      183
REMARK 921   NORMALIZED FREE ENERGY PREDICTED BY IDOCK:   -2.22 KCAL/MOL
REMARK 922        TOTAL FREE ENERGY PREDICTED BY IDOCK:   -2.66 KCAL/MOL
REMARK 923 INTER-LIGAND FREE ENERGY PREDICTED BY IDOCK:   -2.50 KCAL/MOL
REMARK 924 INTRA-LIGAND FREE ENERGY PREDICTED BY IDOCK:   -0.15 KCAL/MOL
REMARK 927      BINDING AFFINITY PREDICTED BY RF-SCORE:    0.00 PKD
ROOT
HETATM    1  C   UNL     1      -9.447   3.275  66.440  1.00  0.00    -0.082 C  
HETATM    2  N   UNL     1      -8.145   3.902  66.675  1.00  0.00    -0.096 NA 
HETATM    3  C   UNL     1      -7.447   4.087  65.399  1.00  0.00    -0.081 C  
ENDROOT
BRANCH   2   4
HETATM    4  C   UNL     1      -8.269   5.201  67.362  1.00  0.00    -0.107 C  
BRANCH   4   5
HETATM    5  C   UNL     1      -9.017   5.145  68.702  1.00  0.00    -0.122 C  
HETATM    6  C   UNL     1      -8.537   6.183  69.743  1.00  0.00    -0.132 C  
HETATM    7  C   UNL     1      -8.817   7.618  69.305  1.00  0.00    -0.136 A  
HETATM    8  C   UNL     1      -9.110   5.875  71.128  1.00  0.00    -0.143 A  
HETATM    9  C   UNL     1     -10.128   8.067  69.081  1.00  0.00    -0.202 A  
HETATM   10  C   UNL     1      -8.417   6.276  72.270  1.00  0.00    -0.115 A  
HETATM   11  C   UNL     1     -10.370   9.372  68.647  1.00  0.00    -0.227 A  
HETATM   12  C   UNL     1      -8.929   5.945  73.523  1.00  0.00    -0.128 A  
HETATM   13  C   UNL     1     -10.119   5.232  73.606  1.00  0.00    -0.213 A  
HETATM   14  C   UNL     1      -9.307  10.249  68.445  1.00  0.00    -0.143 A  
HETATM   15  C   UNL     1      -8.001   9.822  68.674  1.00  0.00    -0.089 A  
HETATM   16  C   UNL     1     -10.757   4.890  72.428  1.00  0.00    -0.175 A  
HETATM   17  N   UNL     1     -10.285   5.197  71.201  1.00  0.00    -0.220 NA 
HETATM   18  C   UNL     1      -7.756   8.514  69.098  1.00  0.00    -0.091 A  
ENDBRANCH   4   5
ENDBRANCH   2   4
TORSDOF 2
ENDMDL
MODEL      184
REMARK 921   NORMALIZED FREE ENERGY PREDICTED BY IDOCK:   -2.21 KCAL/MOL
REMARK 922        TOTAL FREE ENERGY PREDICTED BY IDOCK:   -2.64 KCAL/MOL
REMARK 923 INTER-LIGAND FREE ENERGY PREDICTED BY IDOCK:   -2.48 KCAL/MOL
REMARK 924 INTRA-LIGAND FREE ENERGY PREDICTED BY IDOCK:   -0.16 KCAL/MOL
REMARK 927      BINDING AFFINITY PREDICTED BY RF-SCORE:    0.00 PKD
ROOT
HETATM    1  C   UNL     1     -11.907   9.886  71.255  1.00  0.00    -0.395 C  
HETATM    2  N   UNL     1     -12.155   8.527  71.740  1.00  0.00    -0.311 NA 
HETATM    3  C   UNL     1     -13.579   8.207  71.610  1.00  0.00    -0.343 C  
ENDROOT
BRANCH   2   4
HETATM    4  C   UNL     1     -11.356   7.523  71.011  1.00  0.00    -0.273 C  
BRANCH   4   5
HETATM    5  C   UNL     1      -9.838   7.667  71.186  1.00  0.00    -0.184 C  
HETATM    6  C   UNL     1      -9.134   6.396  71.716  1.00  0.00    -0.143 C  
HETATM    7  C   UNL     1      -9.211   5.235  70.729  1.00  0.00    -0.191 A  
HETATM    8  C   UNL     1      -7.697   6.702  72.141  1.00  0.00    -0.096 A  
HETATM    9  C   UNL     1      -8.642   5.329  69.449  1.00  0.00    -0.102 A  
HETATM   10  C   UNL     1      -7.084   5.927  73.126  1.00  0.00    -0.085 A  
HETATM   11  C   UNL     1      -8.749   4.273  68.542  1.00  0.00    -0.121 A  
HETATM   12  C   UNL     1      -5.792   6.251  73.536  1.00  0.00    -0.054 A  
HETATM   13  C   UNL     1      -5.142   7.330  72.950  1.00  0.00    -0.037 A  
HETATM   14  C   UNL     1      -9.414   3.104  68.906  1.00  0.00    -0.183 A  
HETATM   15  C   UNL     1      -9.974   2.991  70.176  1.00  0.00     0.367 A  
HETATM   16  C   UNL     1      -5.809   8.037  71.966  1.00  0.00    -0.037 A  
HETATM   17  N   UNL     1      -7.059   7.746  71.549  1.00  0.00    -0.061 NA 
HETATM   18  C   UNL     1      -9.877   4.050  71.082  1.00  0.00    -0.236 A  
ENDBRANCH   4   5
ENDBRANCH   2   4
TORSDOF 2
ENDMDL
MODEL      185
REMARK 921   NORMALIZED FREE ENERGY PREDICTED BY IDOCK:   -2.21 KCAL/MOL
REMARK 922        TOTAL FREE ENERGY PREDICTED BY IDOCK:   -2.64 KCAL/MOL
REMARK 923 INTER-LIGAND FREE ENERGY PREDICTED BY IDOCK:   -2.74 KCAL/MOL
REMARK 924 INTRA-LIGAND FREE ENERGY PREDICTED BY IDOCK:    0.10 KCAL/MOL
REMARK 927      BINDING AFFINITY PREDICTED BY RF-SCORE:    0.00 PKD
ROOT
HETATM    1  C   UNL     1     -10.727  10.032  70.454  1.00  0.00    -0.307 C  
HETATM    2  N   UNL     1      -9.945   9.994  69.217  1.00  0.00    -0.201 NA 
HETATM    3  C   UNL     1      -8.563   9.611  69.516  1.00  0.00    -0.172 C  
ENDROOT
BRANCH   2   4
HETATM    4  C   UNL     1     -10.515   9.058  68.229  1.00  0.00    -0.200 C  
BRANCH   4   5
HETATM    5  C   UNL     1     -10.064   9.304  66.783  1.00  0.00    -0.331 C  
HETATM    6  C   UNL     1      -8.648   8.773  66.457  1.00  0.00    -0.126 C  
HETATM    7  C   UNL     1      -8.566   7.252  66.540  1.00  0.00    -0.134 A  
HETATM    8  C   UNL     1      -8.158   9.309  65.111  1.00  0.00    -0.124 A  
HETATM    9  C   UNL     1      -9.344   6.434  65.707  1.00  0.00     0.096 A  
HETATM   10  C   UNL     1      -6.790   9.449  64.877  1.00  0.00    -0.093 A  
HETATM   11  C   UNL     1      -9.286   5.043  65.815  1.00  0.00    -0.159 A  
HETATM   12  C   UNL     1      -6.363   9.985  63.663  1.00  0.00    -0.131 A  
HETATM   13  C   UNL     1      -7.305  10.358  62.714  1.00  0.00    -0.126 A  
HETATM   14  C   UNL     1      -8.438   4.451  66.749  1.00  0.00    -0.105 A  
HETATM   15  C   UNL     1      -7.651   5.248  67.576  1.00  0.00    -0.088 A  
HETATM   16  C   UNL     1      -8.643  10.168  63.013  1.00  0.00    -0.192 A  
HETATM   17  N   UNL     1      -9.085   9.652  64.179  1.00  0.00    -0.237 NA 
HETATM   18  C   UNL     1      -7.715   6.640  67.476  1.00  0.00    -0.110 A  
ENDBRANCH   4   5
ENDBRANCH   2   4
TORSDOF 2
ENDMDL
MODEL      186
REMARK 921   NORMALIZED FREE ENERGY PREDICTED BY IDOCK:   -2.20 KCAL/MOL
REMARK 922        TOTAL FREE ENERGY PREDICTED BY IDOCK:   -2.63 KCAL/MOL
REMARK 923 INTER-LIGAND FREE ENERGY PREDICTED BY IDOCK:   -2.44 KCAL/MOL
REMARK 924 INTRA-LIGAND FREE ENERGY PREDICTED BY IDOCK:   -0.20 KCAL/MOL
REMARK 927      BINDING AFFINITY PREDICTED BY RF-SCORE:    0.00 PKD
ROOT
HETATM    1  C   UNL     1      -6.111   5.477  71.297  1.00  0.00    -0.033 C  
HETATM    2  N   UNL     1      -6.507   5.738  69.911  1.00  0.00    -0.037 NA 
HETATM    3  C   UNL     1      -5.568   6.681  69.297  1.00  0.00    -0.014 C  
ENDROOT
BRANCH   2   4
HETATM    4  C   UNL     1      -6.562   4.503  69.107  1.00  0.00    -0.041 C  
BRANCH   4   5
HETATM    5  C   UNL     1      -6.985   4.710  67.647  1.00  0.00    -0.061 C  
HETATM    6  C   UNL     1      -8.497   4.517  67.387  1.00  0.00    -0.104 C  
HETATM    7  C   UNL     1      -9.346   5.569  68.095  1.00  0.00    -0.123 A  
HETATM    8  C   UNL     1      -8.791   4.445  65.888  1.00  0.00    -0.120 A  
HETATM    9  C   UNL     1      -9.208   6.934  67.801  1.00  0.00    -0.119 A  
HETATM   10  C   UNL     1      -9.905   3.739  65.432  1.00  0.00    -0.130 A  
HETATM   11  C   UNL     1      -9.966   7.891  68.478  1.00  0.00    -0.200 A  
HETATM   12  C   UNL     1     -10.129   3.643  64.060  1.00  0.00    -0.207 A  
HETATM   13  C   UNL     1      -9.248   4.257  63.180  1.00  0.00    -0.140 A  
HETATM   14  C   UNL     1     -10.882   7.494  69.450  1.00  0.00    -0.161 A  
HETATM   15  C   UNL     1     -11.040   6.142  69.746  1.00  0.00    -0.486 A  
HETATM   16  C   UNL     1      -8.179   4.957  63.711  1.00  0.00    -0.122 A  
HETATM   17  N   UNL     1      -7.936   5.067  65.034  1.00  0.00    -0.097 NA 
HETATM   18  C   UNL     1     -10.275   5.185  69.076  1.00  0.00    -0.241 A  
ENDBRANCH   4   5
ENDBRANCH   2   4
TORSDOF 2
ENDMDL
MODEL      187
REMARK 921   NORMALIZED FREE ENERGY PREDICTED BY IDOCK:   -2.19 KCAL/MOL
REMARK 922        TOTAL FREE ENERGY PREDICTED BY IDOCK:   -2.63 KCAL/MOL
REMARK 923 INTER-LIGAND FREE ENERGY PREDICTED BY IDOCK:   -2.43 KCAL/MOL
REMARK 924 INTRA-LIGAND FREE ENERGY PREDICTED BY IDOCK:   -0.20 KCAL/MOL
REMARK 927      BINDING AFFINITY PREDICTED BY RF-SCORE:    0.00 PKD
ROOT
HETATM    1  C   UNL     1     -11.560   9.855  68.528  1.00  0.00     0.280 C  
HETATM    2  N   UNL     1     -11.557  10.993  67.606  1.00  0.00    -0.562 NA 
HETATM    3  C   UNL     1     -11.713  12.241  68.359  1.00  0.00    -0.337 C  
ENDROOT
BRANCH   2   4
HETATM    4  C   UNL     1     -10.323  11.053  66.801  1.00  0.00    -0.238 C  
BRANCH   4   5
HETATM    5  C   UNL     1      -9.136  11.727  67.502  1.00  0.00    -0.175 C  
HETATM    6  C   UNL     1      -8.064  10.745  68.029  1.00  0.00    -0.114 C  
HETATM    7  C   UNL     1      -7.358   9.996  66.901  1.00  0.00    -0.092 A  
HETATM    8  C   UNL     1      -7.080  11.455  68.960  1.00  0.00    -0.117 A  
HETATM    9  C   UNL     1      -6.620  10.681  65.924  1.00  0.00    -0.118 A  
HETATM   10  C   UNL     1      -6.423  10.732  69.957  1.00  0.00    -0.151 A  
HETATM   11  C   UNL     1      -6.007   9.989  64.877  1.00  0.00    -0.114 A  
HETATM   12  C   UNL     1      -5.568  11.405  70.827  1.00  0.00    -0.111 A  
HETATM   13  C   UNL     1      -5.381  12.773  70.678  1.00  0.00    -0.157 A  
HETATM   14  C   UNL     1      -6.113   8.601  64.802  1.00  0.00    -0.064 A  
HETATM   15  C   UNL     1      -6.833   7.906  65.771  1.00  0.00    -0.056 A  
HETATM   16  C   UNL     1      -6.052  13.414  69.652  1.00  0.00    -0.123 A  
HETATM   17  N   UNL     1      -6.886  12.789  68.794  1.00  0.00    -0.092 NA 
HETATM   18  C   UNL     1      -7.455   8.598  66.813  1.00  0.00    -0.086 A  
ENDBRANCH   4   5
ENDBRANCH   2   4
TORSDOF 2
ENDMDL
MODEL      188
REMARK 921   NORMALIZED FREE ENERGY PREDICTED BY IDOCK:   -2.09 KCAL/MOL
REMARK 922        TOTAL FREE ENERGY PREDICTED BY IDOCK:   -2.51 KCAL/MOL
REMARK 923 INTER-LIGAND FREE ENERGY PREDICTED BY IDOCK:   -2.32 KCAL/MOL
REMARK 924 INTRA-LIGAND FREE ENERGY PREDICTED BY IDOCK:   -0.19 KCAL/MOL
REMARK 927      BINDING AFFINITY PREDICTED BY RF-SCORE:    0.00 PKD
ROOT
HETATM    1  C   UNL     1      -8.934   9.608  66.858  1.00  0.00    -0.134 C  
HETATM    2  N   UNL     1      -9.365   8.527  65.970  1.00  0.00    -0.215 NA 
HETATM    3  C   UNL     1      -8.199   7.932  65.311  1.00  0.00    -0.145 C  
ENDROOT
BRANCH   2   4
HETATM    4  C   UNL     1     -10.111   7.479  66.694  1.00  0.00    -0.193 C  
BRANCH   4   5
HETATM    5  C   UNL     1      -9.230   6.412  67.358  1.00  0.00    -0.117 C  
HETATM    6  C   UNL     1      -9.736   4.962  67.172  1.00  0.00    -0.194 C  
HETATM    7  C   UNL     1      -9.694   4.516  65.714  1.00  0.00    -0.209 A  
HETATM    8  C   UNL     1      -8.989   3.999  68.096  1.00  0.00    -0.121 A  
HETATM    9  C   UNL     1      -8.485   4.459  65.004  1.00  0.00    -0.124 A  
HETATM   10  C   UNL     1      -9.610   2.823  68.520  1.00  0.00    -0.094 A  
HETATM   11  C   UNL     1      -8.463   4.082  63.660  1.00  0.00    -0.097 A  
HETATM   12  C   UNL     1      -8.933   1.982  69.401  1.00  0.00    -0.154 A  
HETATM   13  C   UNL     1      -7.657   2.326  69.829  1.00  0.00    -0.043 A  
HETATM   14  C   UNL     1      -9.649   3.744  63.011  1.00  0.00    -0.129 A  
HETATM   15  C   UNL     1     -10.856   3.785  63.704  1.00  0.00    -0.173 A  
HETATM   16  C   UNL     1      -7.102   3.497  69.346  1.00  0.00    -0.042 A  
HETATM   17  N   UNL     1      -7.733   4.332  68.493  1.00  0.00    -0.070 NA 
HETATM   18  C   UNL     1     -10.881   4.171  65.046  1.00  0.00    -0.062 A  
ENDBRANCH   4   5
ENDBRANCH   2   4
TORSDOF 2
ENDMDL
MODEL      189
REMARK 921   NORMALIZED FREE ENERGY PREDICTED BY IDOCK:   -2.08 KCAL/MOL
REMARK 922        TOTAL FREE ENERGY PREDICTED BY IDOCK:   -2.50 KCAL/MOL
REMARK 923 INTER-LIGAND FREE ENERGY PREDICTED BY IDOCK:   -2.32 KCAL/MOL
REMARK 924 INTRA-LIGAND FREE ENERGY PREDICTED BY IDOCK:   -0.18 KCAL/MOL
REMARK 927      BINDING AFFINITY PREDICTED BY RF-SCORE:    0.00 PKD
ROOT
HETATM    1  C   UNL     1      -6.837   6.044  73.988  1.00  0.00    -0.080 C  
HETATM    2  N   UNL     1      -7.060   7.482  73.830  1.00  0.00    -0.087 NA 
HETATM    3  C   UNL     1      -5.799   8.203  74.022  1.00  0.00    -0.086 C  
ENDROOT
BRANCH   2   4
HETATM    4  C   UNL     1      -7.622   7.814  72.507  1.00  0.00    -0.098 C  
BRANCH   4   5
HETATM    5  C   UNL     1      -7.437   6.725  71.442  1.00  0.00    -0.087 C  
HETATM    6  C   UNL     1      -8.699   6.440  70.595  1.00  0.00    -0.144 C  
HETATM    7  C   UNL     1      -9.101   7.633  69.733  1.00  0.00    -0.147 A  
HETATM    8  C   UNL     1      -8.532   5.160  69.775  1.00  0.00    -0.096 A  
HETATM    9  C   UNL     1      -8.241   8.142  68.748  1.00  0.00    -0.125 A  
HETATM   10  C   UNL     1      -9.656   4.418  69.409  1.00  0.00    -0.269 A  
HETATM   11  C   UNL     1      -8.605   9.255  67.988  1.00  0.00    -0.121 A  
HETATM   12  C   UNL     1      -9.480   3.229  68.704  1.00  0.00    -0.200 A  
HETATM   13  C   UNL     1      -8.196   2.815  68.373  1.00  0.00    -0.079 A  
HETATM   14  C   UNL     1      -9.839   9.867  68.194  1.00  0.00    -0.167 A  
HETATM   15  C   UNL     1     -10.709   9.368  69.160  1.00  0.00    -0.216 A  
HETATM   16  C   UNL     1      -7.135   3.617  68.753  1.00  0.00    -0.050 A  
HETATM   17  N   UNL     1      -7.274   4.773  69.437  1.00  0.00    -0.051 NA 
HETATM   18  C   UNL     1     -10.343   8.260  69.928  1.00  0.00    -0.218 A  
ENDBRANCH   4   5
ENDBRANCH   2   4
TORSDOF 2
ENDMDL
MODEL      190
REMARK 921   NORMALIZED FREE ENERGY PREDICTED BY IDOCK:   -2.06 KCAL/MOL
REMARK 922        TOTAL FREE ENERGY PREDICTED BY IDOCK:   -2.48 KCAL/MOL
REMARK 923 INTER-LIGAND FREE ENERGY PREDICTED BY IDOCK:   -2.57 KCAL/MOL
REMARK 924 INTRA-LIGAND FREE ENERGY PREDICTED BY IDOCK:    0.09 KCAL/MOL
REMARK 927      BINDING AFFINITY PREDICTED BY RF-SCORE:    0.00 PKD
ROOT
HETATM    1  C   UNL     1      -9.078  11.142  66.284  1.00  0.00    -0.194 C  
HETATM    2  N   UNL     1      -8.877  10.733  67.676  1.00  0.00    -0.132 NA 
HETATM    3  C   UNL     1     -10.169  10.412  68.289  1.00  0.00    -0.160 C  
ENDROOT
BRANCH   2   4
HETATM    4  C   UNL     1      -7.975   9.571  67.788  1.00  0.00    -0.099 C  
BRANCH   4   5
HETATM    5  C   UNL     1      -7.494   9.271  69.214  1.00  0.00    -0.075 C  
HETATM    6  C   UNL     1      -8.451   8.375  70.034  1.00  0.00    -0.125 C  
HETATM    7  C   UNL     1      -8.567   6.967  69.457  1.00  0.00    -0.134 A  
HETATM    8  C   UNL     1      -8.061   8.366  71.513  1.00  0.00    -0.137 A  
HETATM    9  C   UNL     1      -7.447   6.126  69.360  1.00  0.00    -0.093 A  
HETATM   10  C   UNL     1      -9.033   8.131  72.486  1.00  0.00    -0.286 A  
HETATM   11  C   UNL     1      -7.558   4.853  68.799  1.00  0.00    -0.069 A  
HETATM   12  C   UNL     1      -8.669   8.176  73.830  1.00  0.00    -0.259 A  
HETATM   13  C   UNL     1      -7.349   8.443  74.170  1.00  0.00    -0.203 A  
HETATM   14  C   UNL     1      -8.792   4.398  68.338  1.00  0.00    -0.130 A  
HETATM   15  C   UNL     1      -9.914   5.216  68.436  1.00  0.00    -0.214 A  
HETATM   16  C   UNL     1      -6.440   8.643  73.147  1.00  0.00    -0.032 A  
HETATM   17  N   UNL     1      -6.764   8.607  71.837  1.00  0.00    -0.078 NA 
HETATM   18  C   UNL     1      -9.804   6.494  68.989  1.00  0.00    -0.153 A  
ENDBRANCH   4   5
ENDBRANCH   2   4
TORSDOF 2
ENDMDL
MODEL      191
REMARK 921   NORMALIZED FREE ENERGY PREDICTED BY IDOCK:   -2.05 KCAL/MOL
REMARK 922        TOTAL FREE ENERGY PREDICTED BY IDOCK:   -2.47 KCAL/MOL
REMARK 923 INTER-LIGAND FREE ENERGY PREDICTED BY IDOCK:   -2.32 KCAL/MOL
REMARK 924 INTRA-LIGAND FREE ENERGY PREDICTED BY IDOCK:   -0.15 KCAL/MOL
REMARK 927      BINDING AFFINITY PREDICTED BY RF-SCORE:    0.00 PKD
ROOT
HETATM    1  C   UNL     1      -9.716   5.966  73.539  1.00  0.00    -0.160 C  
HETATM    2  N   UNL     1      -8.465   6.551  73.051  1.00  0.00    -0.119 NA 
HETATM    3  C   UNL     1      -7.326   5.895  73.699  1.00  0.00    -0.089 C  
ENDROOT
BRANCH   2   4
HETATM    4  C   UNL     1      -8.333   6.437  71.587  1.00  0.00    -0.125 C  
BRANCH   4   5
HETATM    5  C   UNL     1      -8.258   7.779  70.846  1.00  0.00    -0.107 C  
HETATM    6  C   UNL     1      -7.631   7.694  69.435  1.00  0.00    -0.095 C  
HETATM    7  C   UNL     1      -8.480   6.869  68.471  1.00  0.00    -0.123 A  
HETATM    8  C   UNL     1      -7.321   9.088  68.887  1.00  0.00    -0.074 A  
HETATM    9  C   UNL     1      -9.791   7.250  68.147  1.00  0.00    -0.165 A  
HETATM   10  C   UNL     1      -6.292   9.257  67.961  1.00  0.00    -0.054 A  
HETATM   11  C   UNL     1     -10.570   6.469  67.290  1.00  0.00    -0.383 A  
HETATM   12  C   UNL     1      -5.992  10.541  67.511  1.00  0.00    -0.052 A  
HETATM   13  C   UNL     1      -6.726  11.620  67.986  1.00  0.00    -0.064 A  
HETATM   14  C   UNL     1     -10.044   5.304  66.737  1.00  0.00    -0.255 A  
HETATM   15  C   UNL     1      -8.741   4.917  67.040  1.00  0.00    -0.103 A  
HETATM   16  C   UNL     1      -7.745  11.368  68.888  1.00  0.00    -0.108 A  
HETATM   17  N   UNL     1      -8.058  10.135  69.341  1.00  0.00    -0.147 NA 
HETATM   18  C   UNL     1      -7.963   5.692  67.904  1.00  0.00    -0.097 A  
ENDBRANCH   4   5
ENDBRANCH   2   4
TORSDOF 2
ENDMDL
MODEL      192
REMARK 921   NORMALIZED FREE ENERGY PREDICTED BY IDOCK:   -2.01 KCAL/MOL
REMARK 922        TOTAL FREE ENERGY PREDICTED BY IDOCK:   -2.42 KCAL/MOL
REMARK 923 INTER-LIGAND FREE ENERGY PREDICTED BY IDOCK:   -2.45 KCAL/MOL
REMARK 924 INTRA-LIGAND FREE ENERGY PREDICTED BY IDOCK:    0.03 KCAL/MOL
REMARK 927      BINDING AFFINITY PREDICTED BY RF-SCORE:    0.00 PKD
ROOT
HETATM    1  C   UNL     1      -8.090  10.542  67.782  1.00  0.00    -0.106 C  
HETATM    2  N   UNL     1      -8.661   9.901  66.597  1.00  0.00    -0.128 NA 
HETATM    3  C   UNL     1      -7.724  10.006  65.476  1.00  0.00    -0.135 C  
ENDROOT
BRANCH   2   4
HETATM    4  C   UNL     1      -8.987   8.482  66.836  1.00  0.00    -0.143 C  
BRANCH   4   5
HETATM    5  C   UNL     1      -9.732   8.210  68.150  1.00  0.00    -0.180 C  
HETATM    6  C   UNL     1      -9.089   7.116  69.033  1.00  0.00    -0.132 C  
HETATM    7  C   UNL     1      -7.712   7.523  69.550  1.00  0.00    -0.104 A  
HETATM    8  C   UNL     1     -10.033   6.697  70.162  1.00  0.00    -0.173 A  
HETATM    9  C   UNL     1      -7.547   8.647  70.374  1.00  0.00    -0.075 A  
HETATM   10  C   UNL     1      -9.943   5.414  70.701  1.00  0.00    -0.280 A  
HETATM   11  C   UNL     1      -6.278   9.030  70.813  1.00  0.00    -0.048 A  
HETATM   12  C   UNL     1     -10.844   5.033  71.694  1.00  0.00    -0.058 A  
HETATM   13  C   UNL     1     -11.801   5.940  72.130  1.00  0.00    -0.247 A  
HETATM   14  C   UNL     1      -5.159   8.285  70.446  1.00  0.00    -0.022 A  
HETATM   15  C   UNL     1      -5.307   7.160  69.638  1.00  0.00    -0.015 A  
HETATM   16  C   UNL     1     -11.812   7.201  71.560  1.00  0.00    -0.313 A  
HETATM   17  N   UNL     1     -10.953   7.597  70.597  1.00  0.00    -0.246 NA 
HETATM   18  C   UNL     1      -6.574   6.782  69.190  1.00  0.00    -0.048 A  
ENDBRANCH   4   5
ENDBRANCH   2   4
TORSDOF 2
ENDMDL
MODEL      193
REMARK 921   NORMALIZED FREE ENERGY PREDICTED BY IDOCK:   -2.00 KCAL/MOL
REMARK 922        TOTAL FREE ENERGY PREDICTED BY IDOCK:   -2.41 KCAL/MOL
REMARK 923 INTER-LIGAND FREE ENERGY PREDICTED BY IDOCK:   -2.35 KCAL/MOL
REMARK 924 INTRA-LIGAND FREE ENERGY PREDICTED BY IDOCK:   -0.07 KCAL/MOL
REMARK 927      BINDING AFFINITY PREDICTED BY RF-SCORE:    0.00 PKD
ROOT
HETATM    1  C   UNL     1     -11.516   9.559  70.061  1.00  0.00    -0.109 C  
HETATM    2  N   UNL     1     -11.741  10.655  69.116  1.00  0.00    -0.275 NA 
HETATM    3  C   UNL     1     -11.996  11.898  69.849  1.00  0.00    -0.325 C  
ENDROOT
BRANCH   2   4
HETATM    4  C   UNL     1     -10.597  10.846  68.205  1.00  0.00    -0.198 C  
BRANCH   4   5
HETATM    5  C   UNL     1      -9.221  10.739  68.876  1.00  0.00    -0.180 C  
HETATM    6  C   UNL     1      -8.452   9.437  68.551  1.00  0.00    -0.119 C  
HETATM    7  C   UNL     1      -8.072   9.340  67.076  1.00  0.00    -0.112 A  
HETATM    8  C   UNL     1      -7.245   9.268  69.475  1.00  0.00    -0.061 A  
HETATM    9  C   UNL     1      -7.231  10.291  66.477  1.00  0.00    -0.109 A  
HETATM   10  C   UNL     1      -6.765   7.990  69.763  1.00  0.00    -0.040 A  
HETATM   11  C   UNL     1      -6.917  10.211  65.119  1.00  0.00    -0.137 A  
HETATM   12  C   UNL     1      -5.695   7.853  70.645  1.00  0.00    -0.029 A  
HETATM   13  C   UNL     1      -5.126   8.988  71.209  1.00  0.00    -0.031 A  
HETATM   14  C   UNL     1      -7.430   9.173  64.344  1.00  0.00    -0.101 A  
HETATM   15  C   UNL     1      -8.257   8.215  64.926  1.00  0.00    -0.150 A  
HETATM   16  C   UNL     1      -5.645  10.220  70.856  1.00  0.00    -0.089 A  
HETATM   17  N   UNL     1      -6.680  10.384  70.005  1.00  0.00    -0.131 NA 
HETATM   18  C   UNL     1      -8.580   8.298  66.282  1.00  0.00    -0.152 A  
ENDBRANCH   4   5
ENDBRANCH   2   4
TORSDOF 2
ENDMDL
MODEL      194
REMARK 921   NORMALIZED FREE ENERGY PREDICTED BY IDOCK:   -1.99 KCAL/MOL
REMARK 922        TOTAL FREE ENERGY PREDICTED BY IDOCK:   -2.40 KCAL/MOL
REMARK 923 INTER-LIGAND FREE ENERGY PREDICTED BY IDOCK:   -2.25 KCAL/MOL
REMARK 924 INTRA-LIGAND FREE ENERGY PREDICTED BY IDOCK:   -0.15 KCAL/MOL
REMARK 927      BINDING AFFINITY PREDICTED BY RF-SCORE:    0.00 PKD
ROOT
HETATM    1  C   UNL     1     -10.793   6.463  72.214  1.00  0.00    -0.239 C  
HETATM    2  N   UNL     1      -9.589   7.096  71.670  1.00  0.00    -0.156 NA 
HETATM    3  C   UNL     1      -8.555   7.164  72.706  1.00  0.00    -0.114 C  
ENDROOT
BRANCH   2   4
HETATM    4  C   UNL     1      -9.065   6.375  70.495  1.00  0.00    -0.155 C  
BRANCH   4   5
HETATM    5  C   UNL     1      -9.117   7.169  69.183  1.00  0.00    -0.137 C  
HETATM    6  C   UNL     1      -8.030   6.775  68.156  1.00  0.00    -0.114 C  
HETATM    7  C   UNL     1      -8.202   5.347  67.647  1.00  0.00    -0.100 A  
HETATM    8  C   UNL     1      -7.957   7.794  67.017  1.00  0.00    -0.116 A  
HETATM    9  C   UNL     1      -9.360   4.955  66.957  1.00  0.00    -0.136 A  
HETATM   10  C   UNL     1      -6.759   7.979  66.327  1.00  0.00    -0.054 A  
HETATM   11  C   UNL     1      -9.523   3.637  66.526  1.00  0.00    -0.188 A  
HETATM   12  C   UNL     1      -6.698   8.945  65.325  1.00  0.00    -0.068 A  
HETATM   13  C   UNL     1      -7.830   9.694  65.031  1.00  0.00    -0.118 A  
HETATM   14  C   UNL     1      -8.523   2.697  66.766  1.00  0.00    -0.104 A  
HETATM   15  C   UNL     1      -7.363   3.072  67.439  1.00  0.00    -0.058 A  
HETATM   16  C   UNL     1      -8.986   9.437  65.745  1.00  0.00    -0.186 A  
HETATM   17  N   UNL     1      -9.074   8.507  66.720  1.00  0.00    -0.144 NA 
HETATM   18  C   UNL     1      -7.203   4.388  67.880  1.00  0.00    -0.065 A  
ENDBRANCH   4   5
ENDBRANCH   2   4
TORSDOF 2
ENDMDL
MODEL      195
REMARK 921   NORMALIZED FREE ENERGY PREDICTED BY IDOCK:   -1.99 KCAL/MOL
REMARK 922        TOTAL FREE ENERGY PREDICTED BY IDOCK:   -2.40 KCAL/MOL
REMARK 923 INTER-LIGAND FREE ENERGY PREDICTED BY IDOCK:   -2.70 KCAL/MOL
REMARK 924 INTRA-LIGAND FREE ENERGY PREDICTED BY IDOCK:    0.30 KCAL/MOL
REMARK 927      BINDING AFFINITY PREDICTED BY RF-SCORE:    0.00 PKD
ROOT
HETATM    1  C   UNL     1      -9.790   9.061  66.753  1.00  0.00    -0.234 C  
HETATM    2  N   UNL     1      -8.429   9.133  66.218  1.00  0.00    -0.121 NA 
HETATM    3  C   UNL     1      -7.798  10.388  66.635  1.00  0.00    -0.120 C  
ENDROOT
BRANCH   2   4
HETATM    4  C   UNL     1      -7.599   7.995  66.657  1.00  0.00    -0.093 C  
BRANCH   4   5
HETATM    5  C   UNL     1      -7.786   7.597  68.127  1.00  0.00    -0.121 C  
HETATM    6  C   UNL     1      -9.007   6.685  68.390  1.00  0.00    -0.123 C  
HETATM    7  C   UNL     1      -8.864   5.318  67.727  1.00  0.00    -0.105 A  
HETATM    8  C   UNL     1      -9.299   6.577  69.888  1.00  0.00    -0.152 A  
HETATM    9  C   UNL     1      -7.817   4.449  68.070  1.00  0.00    -0.080 A  
HETATM   10  C   UNL     1     -10.598   6.316  70.325  1.00  0.00    -0.305 A  
HETATM   11  C   UNL     1      -7.676   3.214  67.433  1.00  0.00    -0.073 A  
HETATM   12  C   UNL     1     -10.853   6.270  71.694  1.00  0.00    -0.298 A  
HETATM   13  C   UNL     1      -9.812   6.475  72.590  1.00  0.00    -0.179 A  
HETATM   14  C   UNL     1      -8.588   2.827  66.454  1.00  0.00    -0.110 A  
HETATM   15  C   UNL     1      -9.640   3.673  66.110  1.00  0.00    -0.142 A  
HETATM   16  C   UNL     1      -8.548   6.707  72.077  1.00  0.00    -0.123 A  
HETATM   17  N   UNL     1      -8.270   6.757  70.757  1.00  0.00    -0.122 NA 
HETATM   18  C   UNL     1      -9.777   4.912  66.739  1.00  0.00    -0.195 A  
ENDBRANCH   4   5
ENDBRANCH   2   4
TORSDOF 2
ENDMDL
MODEL      196
REMARK 921   NORMALIZED FREE ENERGY PREDICTED BY IDOCK:   -1.92 KCAL/MOL
REMARK 922        TOTAL FREE ENERGY PREDICTED BY IDOCK:   -2.32 KCAL/MOL
REMARK 923 INTER-LIGAND FREE ENERGY PREDICTED BY IDOCK:   -2.15 KCAL/MOL
REMARK 924 INTRA-LIGAND FREE ENERGY PREDICTED BY IDOCK:   -0.17 KCAL/MOL
REMARK 927      BINDING AFFINITY PREDICTED BY RF-SCORE:    0.00 PKD
ROOT
HETATM    1  C   UNL     1      -8.565   4.284  65.837  1.00  0.00    -0.114 C  
HETATM    2  N   UNL     1      -7.220   4.858  65.917  1.00  0.00    -0.075 NA 
HETATM    3  C   UNL     1      -6.835   5.402  64.613  1.00  0.00    -0.048 C  
ENDROOT
BRANCH   2   4
HETATM    4  C   UNL     1      -7.129   5.917  66.940  1.00  0.00    -0.070 C  
BRANCH   4   5
HETATM    5  C   UNL     1      -8.406   6.118  67.767  1.00  0.00    -0.116 C  
HETATM    6  C   UNL     1      -8.156   6.407  69.266  1.00  0.00    -0.111 C  
HETATM    7  C   UNL     1      -7.444   7.738  69.489  1.00  0.00    -0.094 A  
HETATM    8  C   UNL     1      -9.454   6.300  70.069  1.00  0.00    -0.155 A  
HETATM    9  C   UNL     1      -8.026   8.951  69.088  1.00  0.00    -0.105 A  
HETATM   10  C   UNL     1      -9.408   5.958  71.421  1.00  0.00    -0.165 A  
HETATM   11  C   UNL     1      -7.350  10.160  69.266  1.00  0.00    -0.098 A  
HETATM   12  C   UNL     1     -10.602   5.817  72.124  1.00  0.00    -0.268 A  
HETATM   13  C   UNL     1     -11.808   6.028  71.468  1.00  0.00    -0.089 A  
HETATM   14  C   UNL     1      -6.091  10.174  69.861  1.00  0.00    -0.057 A  
HETATM   15  C   UNL     1      -5.505   8.980  70.275  1.00  0.00    -0.027 A  
HETATM   16  C   UNL     1     -11.770   6.385  70.132  1.00  0.00    -0.303 A  
HETATM   17  N   UNL     1     -10.628   6.529  69.425  1.00  0.00    -0.222 NA 
HETATM   18  C   UNL     1      -6.174   7.769  70.089  1.00  0.00    -0.033 A  
ENDBRANCH   4   5
ENDBRANCH   2   4
TORSDOF 2
ENDMDL
MODEL      197
REMARK 921   NORMALIZED FREE ENERGY PREDICTED BY IDOCK:   -1.91 KCAL/MOL
REMARK 922        TOTAL FREE ENERGY PREDICTED BY IDOCK:   -2.31 KCAL/MOL
REMARK 923 INTER-LIGAND FREE ENERGY PREDICTED BY IDOCK:   -2.03 KCAL/MOL
REMARK 924 INTRA-LIGAND FREE ENERGY PREDICTED BY IDOCK:   -0.28 KCAL/MOL
REMARK 927      BINDING AFFINITY PREDICTED BY RF-SCORE:    0.00 PKD
ROOT
HETATM    1  C   UNL     1     -10.482  15.971  65.293  1.00  0.00    -0.358 C  
HETATM    2  N   UNL     1      -9.240  15.669  66.007  1.00  0.00    -0.346 NA 
HETATM    3  C   UNL     1      -8.463  16.897  66.193  1.00  0.00    -0.246 C  
ENDROOT
BRANCH   2   4
HETATM    4  C   UNL     1      -9.493  15.042  67.318  1.00  0.00    -0.208 C  
BRANCH   4   5
HETATM    5  C   UNL     1      -9.065  13.571  67.416  1.00  0.00    -0.219 C  
HETATM    6  C   UNL     1      -7.538  13.344  67.336  1.00  0.00    -0.138 C  
HETATM    7  C   UNL     1      -6.798  13.949  68.527  1.00  0.00    -0.098 A  
HETATM    8  C   UNL     1      -7.213  11.862  67.142  1.00  0.00    -0.144 A  
HETATM    9  C   UNL     1      -7.054  13.517  69.837  1.00  0.00     0.481 A  
HETATM   10  C   UNL     1      -6.033  11.489  66.498  1.00  0.00    -0.101 A  
HETATM   11  C   UNL     1      -6.396  14.101  70.922  1.00  0.00     0.032 A  
HETATM   12  C   UNL     1      -5.777  10.135  66.287  1.00  0.00    -0.062 A  
HETATM   13  C   UNL     1      -6.695   9.191  66.728  1.00  0.00    -0.076 A  
HETATM   14  C   UNL     1      -5.464  15.115  70.709  1.00  0.00    -0.121 A  
HETATM   15  C   UNL     1      -5.191  15.547  69.414  1.00  0.00    -0.094 A  
HETATM   16  C   UNL     1      -7.831   9.640  67.377  1.00  0.00    -0.095 A  
HETATM   17  N   UNL     1      -8.105  10.943  67.596  1.00  0.00    -0.114 NA 
HETATM   18  C   UNL     1      -5.856  14.971  68.328  1.00  0.00    -0.121 A  
ENDBRANCH   4   5
ENDBRANCH   2   4
TORSDOF 2
ENDMDL
MODEL      198
REMARK 921   NORMALIZED FREE ENERGY PREDICTED BY IDOCK:   -1.91 KCAL/MOL
REMARK 922        TOTAL FREE ENERGY PREDICTED BY IDOCK:   -2.31 KCAL/MOL
REMARK 923 INTER-LIGAND FREE ENERGY PREDICTED BY IDOCK:   -2.14 KCAL/MOL
REMARK 924 INTRA-LIGAND FREE ENERGY PREDICTED BY IDOCK:   -0.17 KCAL/MOL
REMARK 927      BINDING AFFINITY PREDICTED BY RF-SCORE:    0.00 PKD
ROOT
HETATM    1  C   UNL     1     -11.277  10.806  66.982  1.00  0.00    -0.089 C  
HETATM    2  N   UNL     1     -10.117   9.980  66.640  1.00  0.00    -0.217 NA 
HETATM    3  C   UNL     1      -8.883  10.715  66.932  1.00  0.00    -0.138 C  
ENDROOT
BRANCH   2   4
HETATM    4  C   UNL     1     -10.113   8.699  67.370  1.00  0.00    -0.229 C  
BRANCH   4   5
HETATM    5  C   UNL     1      -8.954   8.531  68.362  1.00  0.00    -0.139 C  
HETATM    6  C   UNL     1      -8.908   7.154  69.064  1.00  0.00    -0.131 C  
HETATM    7  C   UNL     1      -8.633   6.014  68.088  1.00  0.00    -0.114 A  
HETATM    8  C   UNL     1      -7.925   7.167  70.235  1.00  0.00    -0.116 A  
HETATM    9  C   UNL     1      -7.443   5.962  67.346  1.00  0.00    -0.078 A  
HETATM   10  C   UNL     1      -8.117   6.303  71.313  1.00  0.00    -0.118 A  
HETATM   11  C   UNL     1      -7.216   4.932  66.431  1.00  0.00    -0.077 A  
HETATM   12  C   UNL     1      -7.238   6.363  72.393  1.00  0.00    -0.083 A  
HETATM   13  C   UNL     1      -6.189   7.273  72.368  1.00  0.00    -0.043 A  
HETATM   14  C   UNL     1      -8.171   3.933  66.255  1.00  0.00    -0.104 A  
HETATM   15  C   UNL     1      -9.352   3.963  66.991  1.00  0.00    -0.212 A  
HETATM   16  C   UNL     1      -6.054   8.081  71.254  1.00  0.00    -0.034 A  
HETATM   17  N   UNL     1      -6.888   8.045  70.194  1.00  0.00    -0.040 NA 
HETATM   18  C   UNL     1      -9.585   4.998  67.900  1.00  0.00    -0.176 A  
ENDBRANCH   4   5
ENDBRANCH   2   4
TORSDOF 2
ENDMDL
MODEL      199
REMARK 921   NORMALIZED FREE ENERGY PREDICTED BY IDOCK:   -1.81 KCAL/MOL
REMARK 922        TOTAL FREE ENERGY PREDICTED BY IDOCK:   -2.20 KCAL/MOL
REMARK 923 INTER-LIGAND FREE ENERGY PREDICTED BY IDOCK:   -2.00 KCAL/MOL
REMARK 924 INTRA-LIGAND FREE ENERGY PREDICTED BY IDOCK:   -0.20 KCAL/MOL
REMARK 927      BINDING AFFINITY PREDICTED BY RF-SCORE:    0.00 PKD
ROOT
HETATM    1  C   UNL     1      -7.212  11.321  66.735  1.00  0.00    -0.142 C  
HETATM    2  N   UNL     1      -6.539  10.153  66.161  1.00  0.00    -0.091 NA 
HETATM    3  C   UNL     1      -5.498  10.591  65.227  1.00  0.00    -0.139 C  
ENDROOT
BRANCH   2   4
HETATM    4  C   UNL     1      -5.941   9.292  67.198  1.00  0.00    -0.049 C  
BRANCH   4   5
HETATM    5  C   UNL     1      -6.915   8.844  68.296  1.00  0.00    -0.076 C  
HETATM    6  C   UNL     1      -7.873   7.705  67.874  1.00  0.00    -0.117 C  
HETATM    7  C   UNL     1      -7.132   6.403  67.584  1.00  0.00    -0.084 A  
HETATM    8  C   UNL     1      -8.992   7.521  68.900  1.00  0.00    -0.134 A  
HETATM    9  C   UNL     1      -6.384   5.754  68.579  1.00  0.00    -0.041 A  
HETATM   10  C   UNL     1     -10.224   7.003  68.498  1.00  0.00    -0.183 A  
HETATM   11  C   UNL     1      -5.683   4.580  68.293  1.00  0.00    -0.021 A  
HETATM   12  C   UNL     1     -11.247   6.888  69.436  1.00  0.00    -0.215 A  
HETATM   13  C   UNL     1     -11.018   7.283  70.748  1.00  0.00    -0.273 A  
HETATM   14  C   UNL     1      -5.731   4.033  67.013  1.00  0.00    -0.022 A  
HETATM   15  C   UNL     1      -6.478   4.659  66.017  1.00  0.00    -0.037 A  
HETATM   16  C   UNL     1      -9.763   7.767  71.073  1.00  0.00    -0.163 A  
HETATM   17  N   UNL     1      -8.753   7.890  70.186  1.00  0.00    -0.135 NA 
HETATM   18  C   UNL     1      -7.172   5.838  66.299  1.00  0.00    -0.077 A  
ENDBRANCH   4   5
ENDBRANCH   2   4
TORSDOF 2
ENDMDL
MODEL      200
REMARK 921   NORMALIZED FREE ENERGY PREDICTED BY IDOCK:   -1.80 KCAL/MOL
REMARK 922        TOTAL FREE ENERGY PREDICTED BY IDOCK:   -2.18 KCAL/MOL
REMARK 923 INTER-LIGAND FREE ENERGY PREDICTED BY IDOCK:   -1.99 KCAL/MOL
REMARK 924 INTRA-LIGAND FREE ENERGY PREDICTED BY IDOCK:   -0.19 KCAL/MOL
REMARK 927      BINDING AFFINITY PREDICTED BY RF-SCORE:    0.00 PKD
ROOT
HETATM    1  C   UNL     1     -12.445   6.949  71.440  1.00  0.00    -0.367 C  
HETATM    2  N   UNL     1     -11.261   7.540  72.067  1.00  0.00    -0.247 NA 
HETATM    3  C   UNL     1     -10.903   6.778  73.267  1.00  0.00    -0.272 C  
ENDROOT
BRANCH   2   4
HETATM    4  C   UNL     1     -10.109   7.583  71.147  1.00  0.00    -0.188 C  
BRANCH   4   5
HETATM    5  C   UNL     1      -8.812   6.994  71.720  1.00  0.00    -0.127 C  
HETATM    6  C   UNL     1      -8.172   5.891  70.845  1.00  0.00    -0.125 C  
HETATM    7  C   UNL     1      -7.688   6.425  69.499  1.00  0.00    -0.100 A  
HETATM    8  C   UNL     1      -7.069   5.157  71.609  1.00  0.00    -0.066 A  
HETATM    9  C   UNL     1      -6.700   7.419  69.424  1.00  0.00    -0.041 A  
HETATM   10  C   UNL     1      -6.762   3.835  71.284  1.00  0.00    -0.031 A  
HETATM   11  C   UNL     1      -6.289   7.924  68.189  1.00  0.00    -0.050 A  
HETATM   12  C   UNL     1      -5.788   3.166  72.023  1.00  0.00    -0.009 A  
HETATM   13  C   UNL     1      -5.142   3.830  73.058  1.00  0.00     0.000 A  
HETATM   14  C   UNL     1      -6.852   7.434  67.012  1.00  0.00    -0.074 A  
HETATM   15  C   UNL     1      -7.826   6.440  67.070  1.00  0.00    -0.104 A  
HETATM   16  C   UNL     1      -5.488   5.146  73.304  1.00  0.00    -0.021 A  
HETATM   17  N   UNL     1      -6.426   5.820  72.605  1.00  0.00    -0.064 NA 
HETATM   18  C   UNL     1      -8.245   5.940  68.305  1.00  0.00    -0.109 A  
ENDBRANCH   4   5
ENDBRANCH   2   4
TORSDOF 2
ENDMDL
MODEL      201
REMARK 921   NORMALIZED FREE ENERGY PREDICTED BY IDOCK:   -1.78 KCAL/MOL
REMARK 922        TOTAL FREE ENERGY PREDICTED BY IDOCK:   -2.16 KCAL/MOL
REMARK 923 INTER-LIGAND FREE ENERGY PREDICTED BY IDOCK:   -1.95 KCAL/MOL
REMARK 924 INTRA-LIGAND FREE ENERGY PREDICTED BY IDOCK:   -0.22 KCAL/MOL
REMARK 927      BINDING AFFINITY PREDICTED BY RF-SCORE:    0.00 PKD
ROOT
HETATM    1  C   UNL     1     -10.971  14.049  64.592  1.00  0.00    -0.392 C  
HETATM    2  N   UNL     1     -10.551  12.646  64.601  1.00  0.00    -0.315 NA 
HETATM    3  C   UNL     1     -10.692  12.078  63.258  1.00  0.00    -0.342 C  
ENDROOT
BRANCH   2   4
HETATM    4  C   UNL     1      -9.158  12.487  65.061  1.00  0.00     0.782 C  
BRANCH   4   5
HETATM    5  C   UNL     1      -8.874  11.167  65.792  1.00  0.00    -0.182 C  
HETATM    6  C   UNL     1      -8.664  11.316  67.317  1.00  0.00    -0.145 C  
HETATM    7  C   UNL     1      -9.925  11.788  68.034  1.00  0.00    -0.191 A  
HETATM    8  C   UNL     1      -8.100  10.028  67.921  1.00  0.00    -0.109 A  
HETATM    9  C   UNL     1     -11.104  11.026  68.011  1.00  0.00    -0.343 A  
HETATM   10  C   UNL     1      -7.324  10.086  69.079  1.00  0.00    -0.083 A  
HETATM   11  C   UNL     1     -12.262  11.484  68.642  1.00  0.00    -0.015 A  
HETATM   12  C   UNL     1      -6.778   8.909  69.587  1.00  0.00    -0.046 A  
HETATM   13  C   UNL     1      -7.024   7.707  68.936  1.00  0.00    -0.070 A  
HETATM   14  C   UNL     1     -12.254  12.704  69.316  1.00  0.00    -0.089 A  
HETATM   15  C   UNL     1     -11.089  13.467  69.357  1.00  0.00    -0.160 A  
HETATM   16  C   UNL     1      -7.820   7.730  67.804  1.00  0.00    -0.123 A  
HETATM   17  N   UNL     1      -8.362   8.854  67.290  1.00  0.00    -0.104 NA 
HETATM   18  C   UNL     1      -9.932  13.015  68.719  1.00  0.00    -0.022 A  
ENDBRANCH   4   5
ENDBRANCH   2   4
TORSDOF 2
ENDMDL
MODEL      202
REMARK 921   NORMALIZED FREE ENERGY PREDICTED BY IDOCK:   -1.70 KCAL/MOL
REMARK 922        TOTAL FREE ENERGY PREDICTED BY IDOCK:   -2.07 KCAL/MOL
REMARK 923 INTER-LIGAND FREE ENERGY PREDICTED BY IDOCK:   -1.93 KCAL/MOL
REMARK 924 INTRA-LIGAND FREE ENERGY PREDICTED BY IDOCK:   -0.14 KCAL/MOL
REMARK 927      BINDING AFFINITY PREDICTED BY RF-SCORE:    0.00 PKD
ROOT
HETATM    1  C   UNL     1     -11.112  14.116  64.424  1.00  0.00    -0.251 C  
HETATM    2  N   UNL     1     -10.987  12.664  64.571  1.00  0.00    -0.313 NA 
HETATM    3  C   UNL     1     -11.377  12.004  63.323  1.00  0.00    -0.310 C  
ENDROOT
BRANCH   2   4
HETATM    4  C   UNL     1      -9.616  12.259  64.937  1.00  0.00     0.069 C  
BRANCH   4   5
HETATM    5  C   UNL     1      -9.530  11.305  66.135  1.00  0.00    -0.232 C  
HETATM    6  C   UNL     1      -8.166  11.318  66.864  1.00  0.00    -0.153 C  
HETATM    7  C   UNL     1      -7.877  12.659  67.531  1.00  0.00    -0.175 A  
HETATM    8  C   UNL     1      -8.056  10.147  67.842  1.00  0.00    -0.109 A  
HETATM    9  C   UNL     1      -8.712  13.165  68.539  1.00  0.00    -0.049 A  
HETATM   10  C   UNL     1      -6.802   9.627  68.164  1.00  0.00    -0.069 A  
HETATM   11  C   UNL     1      -8.457  14.410  69.119  1.00  0.00     0.080 A  
HETATM   12  C   UNL     1      -6.725   8.529  69.019  1.00  0.00    -0.052 A  
HETATM   13  C   UNL     1      -7.892   7.984  69.536  1.00  0.00    -0.105 A  
HETATM   14  C   UNL     1      -7.357  15.159  68.707  1.00  0.00    -0.131 A  
HETATM   15  C   UNL     1      -6.513  14.666  67.715  1.00  0.00    -0.182 A  
HETATM   16  C   UNL     1      -9.096   8.569  69.185  1.00  0.00    -0.146 A  
HETATM   17  N   UNL     1      -9.202   9.632  68.360  1.00  0.00    -0.133 NA 
HETATM   18  C   UNL     1      -6.771  13.426  67.127  1.00  0.00     0.331 A  
ENDBRANCH   4   5
ENDBRANCH   2   4
TORSDOF 2
ENDMDL
MODEL      203
REMARK 921   NORMALIZED FREE ENERGY PREDICTED BY IDOCK:   -1.68 KCAL/MOL
REMARK 922        TOTAL FREE ENERGY PREDICTED BY IDOCK:   -2.05 KCAL/MOL
REMARK 923 INTER-LIGAND FREE ENERGY PREDICTED BY IDOCK:   -1.91 KCAL/MOL
REMARK 924 INTRA-LIGAND FREE ENERGY PREDICTED BY IDOCK:   -0.15 KCAL/MOL
REMARK 927      BINDING AFFINITY PREDICTED BY RF-SCORE:    0.00 PKD
ROOT
HETATM    1  C   UNL     1      -9.470   5.617  72.824  1.00  0.00    -0.148 C  
HETATM    2  N   UNL     1     -10.486   5.749  71.777  1.00  0.00    -0.221 NA 
HETATM    3  C   UNL     1     -11.603   6.560  72.270  1.00  0.00    -0.292 C  
ENDROOT
BRANCH   2   4
HETATM    4  C   UNL     1      -9.941   6.354  70.548  1.00  0.00    -0.184 C  
BRANCH   4   5
HETATM    5  C   UNL     1      -9.215   5.372  69.619  1.00  0.00    -0.153 C  
HETATM    6  C   UNL     1      -8.467   6.040  68.442  1.00  0.00    -0.112 C  
HETATM    7  C   UNL     1      -7.309   6.915  68.913  1.00  0.00    -0.094 A  
HETATM    8  C   UNL     1      -8.028   5.000  67.410  1.00  0.00    -0.096 A  
HETATM    9  C   UNL     1      -6.230   6.371  69.627  1.00  0.00    -0.033 A  
HETATM   10  C   UNL     1      -7.869   5.372  66.075  1.00  0.00    -0.103 A  
HETATM   11  C   UNL     1      -5.192   7.187  70.082  1.00  0.00    -0.023 A  
HETATM   12  C   UNL     1      -7.516   4.400  65.140  1.00  0.00    -0.073 A  
HETATM   13  C   UNL     1      -7.322   3.090  65.558  1.00  0.00    -0.072 A  
HETATM   14  C   UNL     1      -5.212   8.555  69.818  1.00  0.00    -0.030 A  
HETATM   15  C   UNL     1      -6.270   9.108  69.101  1.00  0.00    -0.042 A  
HETATM   16  C   UNL     1      -7.478   2.806  66.903  1.00  0.00    -0.070 A  
HETATM   17  N   UNL     1      -7.819   3.725  67.831  1.00  0.00    -0.073 NA 
HETATM   18  C   UNL     1      -7.314   8.295  68.653  1.00  0.00    -0.089 A  
ENDBRANCH   4   5
ENDBRANCH   2   4
TORSDOF 2
ENDMDL
MODEL      204
REMARK 921   NORMALIZED FREE ENERGY PREDICTED BY IDOCK:   -1.67 KCAL/MOL
REMARK 922        TOTAL FREE ENERGY PREDICTED BY IDOCK:   -2.05 KCAL/MOL
REMARK 923 INTER-LIGAND FREE ENERGY PREDICTED BY IDOCK:   -1.84 KCAL/MOL
REMARK 924 INTRA-LIGAND FREE ENERGY PREDICTED BY IDOCK:   -0.20 KCAL/MOL
REMARK 927      BINDING AFFINITY PREDICTED BY RF-SCORE:    0.00 PKD
ROOT
HETATM    1  C   UNL     1     -10.743   9.168  69.449  1.00  0.00    -0.198 C  
HETATM    2  N   UNL     1      -9.296   9.248  69.659  1.00  0.00    -0.169 NA 
HETATM    3  C   UNL     1      -8.826   8.039  70.342  1.00  0.00    -0.141 C  
ENDROOT
BRANCH   2   4
HETATM    4  C   UNL     1      -8.560   9.416  68.391  1.00  0.00    -0.124 C  
BRANCH   4   5
HETATM    5  C   UNL     1      -7.645   8.241  68.023  1.00  0.00    -0.102 C  
HETATM    6  C   UNL     1      -7.962   7.590  66.657  1.00  0.00    -0.110 C  
HETATM    7  C   UNL     1      -7.712   8.539  65.489  1.00  0.00    -0.093 A  
HETATM    8  C   UNL     1      -7.218   6.262  66.496  1.00  0.00    -0.073 A  
HETATM    9  C   UNL     1      -6.433   9.059  65.234  1.00  0.00    -0.068 A  
HETATM   10  C   UNL     1      -7.747   5.266  65.675  1.00  0.00    -0.087 A  
HETATM   11  C   UNL     1      -6.223   9.954  64.183  1.00  0.00    -0.124 A  
HETATM   12  C   UNL     1      -7.081   4.046  65.580  1.00  0.00    -0.063 A  
HETATM   13  C   UNL     1      -5.906   3.852  66.295  1.00  0.00    -0.023 A  
HETATM   14  C   UNL     1      -7.285  10.331  63.365  1.00  0.00    -0.088 A  
HETATM   15  C   UNL     1      -8.558   9.815  63.597  1.00  0.00    -0.207 A  
HETATM   16  C   UNL     1      -5.435   4.896  67.070  1.00  0.00    -0.013 A  
HETATM   17  N   UNL     1      -6.058   6.089  67.182  1.00  0.00    -0.021 NA 
HETATM   18  C   UNL     1      -8.773   8.928  64.654  1.00  0.00    -0.138 A  
ENDBRANCH   4   5
ENDBRANCH   2   4
TORSDOF 2
ENDMDL
MODEL      205
REMARK 921   NORMALIZED FREE ENERGY PREDICTED BY IDOCK:   -1.65 KCAL/MOL
REMARK 922        TOTAL FREE ENERGY PREDICTED BY IDOCK:   -2.02 KCAL/MOL
REMARK 923 INTER-LIGAND FREE ENERGY PREDICTED BY IDOCK:   -1.86 KCAL/MOL
REMARK 924 INTRA-LIGAND FREE ENERGY PREDICTED BY IDOCK:   -0.16 KCAL/MOL
REMARK 927      BINDING AFFINITY PREDICTED BY RF-SCORE:    0.00 PKD
ROOT
HETATM    1  C   UNL     1      -9.952  12.703  64.548  1.00  0.00    -0.160 C  
HETATM    2  N   UNL     1     -10.349  11.423  63.958  1.00  0.00    -0.328 NA 
HETATM    3  C   UNL     1     -10.392  11.542  62.498  1.00  0.00     0.669 C  
ENDROOT
BRANCH   2   4
HETATM    4  C   UNL     1      -9.433  10.330  64.336  1.00  0.00    -0.302 C  
BRANCH   4   5
HETATM    5  C   UNL     1      -9.210  10.178  65.847  1.00  0.00    -0.203 C  
HETATM    6  C   UNL     1      -9.549   8.775  66.403  1.00  0.00    -0.316 C  
HETATM    7  C   UNL     1      -8.621   7.694  65.855  1.00  0.00    -0.164 A  
HETATM    8  C   UNL     1      -9.589   8.786  67.932  1.00  0.00    -0.145 A  
HETATM    9  C   UNL     1      -7.238   7.735  66.088  1.00  0.00    -0.074 A  
HETATM   10  C   UNL     1     -10.387   7.866  68.612  1.00  0.00    -0.224 A  
HETATM   11  C   UNL     1      -6.395   6.759  65.554  1.00  0.00    -0.042 A  
HETATM   12  C   UNL     1     -10.449   7.923  70.003  1.00  0.00    -0.231 A  
HETATM   13  C   UNL     1      -9.710   8.885  70.680  1.00  0.00    -0.260 A  
HETATM   14  C   UNL     1      -6.924   5.722  64.789  1.00  0.00    -0.052 A  
HETATM   15  C   UNL     1      -8.297   5.660  64.558  1.00  0.00    -0.108 A  
HETATM   16  C   UNL     1      -8.926   9.747  69.935  1.00  0.00    -0.229 A  
HETATM   17  N   UNL     1      -8.846   9.716  68.588  1.00  0.00    -0.127 NA 
HETATM   18  C   UNL     1      -9.141   6.641  65.084  1.00  0.00     0.437 A  
ENDBRANCH   4   5
ENDBRANCH   2   4
TORSDOF 2
ENDMDL
MODEL      206
REMARK 921   NORMALIZED FREE ENERGY PREDICTED BY IDOCK:   -1.57 KCAL/MOL
REMARK 922        TOTAL FREE ENERGY PREDICTED BY IDOCK:   -1.92 KCAL/MOL
REMARK 923 INTER-LIGAND FREE ENERGY PREDICTED BY IDOCK:   -1.67 KCAL/MOL
REMARK 924 INTRA-LIGAND FREE ENERGY PREDICTED BY IDOCK:   -0.26 KCAL/MOL
REMARK 927      BINDING AFFINITY PREDICTED BY RF-SCORE:    0.00 PKD
ROOT
HETATM    1  C   UNL     1      -5.948  11.423  67.450  1.00  0.00    -0.073 C  
HETATM    2  N   UNL     1      -7.279  10.996  67.887  1.00  0.00    -0.084 NA 
HETATM    3  C   UNL     1      -8.058  12.161  68.315  1.00  0.00    -0.166 C  
ENDROOT
BRANCH   2   4
HETATM    4  C   UNL     1      -8.008  10.278  66.824  1.00  0.00    -0.114 C  
BRANCH   4   5
HETATM    5  C   UNL     1      -7.493   8.861  66.542  1.00  0.00    -0.088 C  
HETATM    6  C   UNL     1      -7.453   7.938  67.782  1.00  0.00    -0.097 C  
HETATM    7  C   UNL     1      -8.846   7.644  68.332  1.00  0.00    -0.130 A  
HETATM    8  C   UNL     1      -6.662   6.661  67.490  1.00  0.00    -0.067 A  
HETATM    9  C   UNL     1      -9.812   6.987  67.554  1.00  0.00    -0.186 A  
HETATM   10  C   UNL     1      -6.023   5.988  68.532  1.00  0.00    -0.020 A  
HETATM   11  C   UNL     1     -11.094   6.754  68.056  1.00  0.00    -0.246 A  
HETATM   12  C   UNL     1      -5.267   4.854  68.240  1.00  0.00    -0.010 A  
HETATM   13  C   UNL     1      -5.174   4.416  66.925  1.00  0.00    -0.012 A  
HETATM   14  C   UNL     1     -11.423   7.163  69.346  1.00  0.00     0.072 A  
HETATM   15  C   UNL     1     -10.472   7.807  70.135  1.00  0.00    -0.231 A  
HETATM   16  C   UNL     1      -5.854   5.127  65.952  1.00  0.00    -0.018 A  
HETATM   17  N   UNL     1      -6.593   6.227  66.205  1.00  0.00    -0.047 NA 
HETATM   18  C   UNL     1      -9.192   8.049  69.632  1.00  0.00    -0.152 A  
ENDBRANCH   4   5
ENDBRANCH   2   4
TORSDOF 2
ENDMDL
MODEL      207
REMARK 921   NORMALIZED FREE ENERGY PREDICTED BY IDOCK:   -1.50 KCAL/MOL
REMARK 922        TOTAL FREE ENERGY PREDICTED BY IDOCK:   -1.85 KCAL/MOL
REMARK 923 INTER-LIGAND FREE ENERGY PREDICTED BY IDOCK:   -2.41 KCAL/MOL
REMARK 924 INTRA-LIGAND FREE ENERGY PREDICTED BY IDOCK:    0.55 KCAL/MOL
REMARK 927      BINDING AFFINITY PREDICTED BY RF-SCORE:    0.00 PKD
ROOT
HETATM    1  C   UNL     1     -11.275   6.757  72.190  1.00  0.00    -0.259 C  
HETATM    2  N   UNL     1     -10.309   7.857  72.173  1.00  0.00    -0.220 NA 
HETATM    3  C   UNL     1      -9.566   7.885  73.437  1.00  0.00    -0.264 C  
ENDROOT
BRANCH   2   4
HETATM    4  C   UNL     1      -9.363   7.748  71.047  1.00  0.00    -0.152 C  
BRANCH   4   5
HETATM    5  C   UNL     1      -9.288   8.993  70.152  1.00  0.00    -0.213 C  
HETATM    6  C   UNL     1     -10.576   9.275  69.344  1.00  0.00    -0.234 C  
HETATM    7  C   UNL     1     -11.760   9.623  70.241  1.00  0.00    -0.213 A  
HETATM    8  C   UNL     1     -10.328  10.336  68.270  1.00  0.00    -0.181 A  
HETATM    9  C   UNL     1     -11.731  10.749  71.079  1.00  0.00    -0.242 A  
HETATM   10  C   UNL     1     -11.103  10.344  67.110  1.00  0.00    -0.195 A  
HETATM   11  C   UNL     1     -12.807  11.039  71.920  1.00  0.00    -0.412 A  
HETATM   12  C   UNL     1     -10.830  11.288  66.122  1.00  0.00    -0.281 A  
HETATM   13  C   UNL     1      -9.802  12.201  66.316  1.00  0.00    -0.250 A  
HETATM   14  C   UNL     1     -13.931  10.216  71.926  1.00  0.00     0.086 A  
HETATM   15  C   UNL     1     -13.979   9.101  71.093  1.00  0.00    -0.074 A  
HETATM   16  C   UNL     1      -9.093  12.142  67.502  1.00  0.00    -0.180 A  
HETATM   17  N   UNL     1      -9.334  11.239  68.477  1.00  0.00    -0.181 NA 
HETATM   18  C   UNL     1     -12.900   8.803  70.257  1.00  0.00     1.059 A  
ENDBRANCH   4   5
ENDBRANCH   2   4
TORSDOF 2
ENDMDL
MODEL      208
REMARK 921   NORMALIZED FREE ENERGY PREDICTED BY IDOCK:   -1.47 KCAL/MOL
REMARK 922        TOTAL FREE ENERGY PREDICTED BY IDOCK:   -1.82 KCAL/MOL
REMARK 923 INTER-LIGAND FREE ENERGY PREDICTED BY IDOCK:   -1.60 KCAL/MOL
REMARK 924 INTRA-LIGAND FREE ENERGY PREDICTED BY IDOCK:   -0.22 KCAL/MOL
REMARK 927      BINDING AFFINITY PREDICTED BY RF-SCORE:    0.00 PKD
ROOT
HETATM    1  C   UNL     1      -8.805   9.350  66.681  1.00  0.00    -0.135 C  
HETATM    2  N   UNL     1      -8.847   8.199  65.776  1.00  0.00    -0.155 NA 
HETATM    3  C   UNL     1      -7.526   7.993  65.176  1.00  0.00    -0.085 C  
ENDROOT
BRANCH   2   4
HETATM    4  C   UNL     1      -9.274   6.967  66.464  1.00  0.00    -0.163 C  
BRANCH   4   5
HETATM    5  C   UNL     1      -8.623   6.742  67.835  1.00  0.00    -0.122 C  
HETATM    6  C   UNL     1      -8.537   5.259  68.265  1.00  0.00    -0.099 C  
HETATM    7  C   UNL     1      -7.617   4.444  67.361  1.00  0.00    -0.081 A  
HETATM    8  C   UNL     1      -8.158   5.137  69.742  1.00  0.00    -0.082 A  
HETATM    9  C   UNL     1      -6.254   4.755  67.241  1.00  0.00    -0.035 A  
HETATM   10  C   UNL     1      -8.560   4.018  70.472  1.00  0.00    -0.106 A  
HETATM   11  C   UNL     1      -5.427   4.025  66.384  1.00  0.00    -0.013 A  
HETATM   12  C   UNL     1      -8.247   3.948  71.828  1.00  0.00    -0.082 A  
HETATM   13  C   UNL     1      -7.537   4.984  72.419  1.00  0.00    -0.095 A  
HETATM   14  C   UNL     1      -5.951   2.965  65.646  1.00  0.00    -0.023 A  
HETATM   15  C   UNL     1      -7.299   2.636  65.763  1.00  0.00    -0.067 A  
HETATM   16  C   UNL     1      -7.156   6.050  71.623  1.00  0.00    -0.078 A  
HETATM   17  N   UNL     1      -7.444   6.145  70.308  1.00  0.00    -0.088 NA 
HETATM   18  C   UNL     1      -8.129   3.372  66.612  1.00  0.00    -0.091 A  
ENDBRANCH   4   5
ENDBRANCH   2   4
TORSDOF 2
ENDMDL
MODEL      209
REMARK 921   NORMALIZED FREE ENERGY PREDICTED BY IDOCK:   -1.18 KCAL/MOL
REMARK 922        TOTAL FREE ENERGY PREDICTED BY IDOCK:   -1.49 KCAL/MOL
REMARK 923 INTER-LIGAND FREE ENERGY PREDICTED BY IDOCK:   -1.74 KCAL/MOL
REMARK 924 INTRA-LIGAND FREE ENERGY PREDICTED BY IDOCK:    0.25 KCAL/MOL
REMARK 927      BINDING AFFINITY PREDICTED BY RF-SCORE:    0.00 PKD
ROOT
HETATM    1  C   UNL     1      -9.359  10.036  62.846  1.00  0.00    -0.260 C  
HETATM    2  N   UNL     1      -9.225  10.621  64.181  1.00  0.00    -0.220 NA 
HETATM    3  C   UNL     1     -10.348  10.197  65.023  1.00  0.00     0.011 C  
ENDROOT
BRANCH   2   4
HETATM    4  C   UNL     1      -7.954  10.244  64.827  1.00  0.00    -0.141 C  
BRANCH   4   5
HETATM    5  C   UNL     1      -8.075   9.883  66.314  1.00  0.00    -0.114 C  
HETATM    6  C   UNL     1      -7.669  11.019  67.281  1.00  0.00    -0.118 C  
HETATM    7  C   UNL     1      -8.603  12.222  67.190  1.00  0.00    -0.187 A  
HETATM    8  C   UNL     1      -7.531  10.498  68.713  1.00  0.00    -0.097 A  
HETATM    9  C   UNL     1      -9.969  12.107  67.489  1.00  0.00    -0.202 A  
HETATM   10  C   UNL     1      -6.669  11.137  69.604  1.00  0.00    -0.134 A  
HETATM   11  C   UNL     1     -10.822  13.206  67.369  1.00  0.00    -0.269 A  
HETATM   12  C   UNL     1      -6.520  10.618  70.889  1.00  0.00     0.303 A  
HETATM   13  C   UNL     1      -7.237   9.487  71.255  1.00  0.00     0.161 A  
HETATM   14  C   UNL     1     -10.317  14.439  66.960  1.00  0.00    -0.263 A  
HETATM   15  C   UNL     1      -8.962  14.573  66.669  1.00  0.00    -0.247 A  
HETATM   16  C   UNL     1      -8.087   8.924  70.321  1.00  0.00    -0.123 A  
HETATM   17  N   UNL     1      -8.252   9.403  69.070  1.00  0.00    -0.105 NA 
HETATM   18  C   UNL     1      -8.109  13.472  66.780  1.00  0.00     0.264 A  
ENDBRANCH   4   5
ENDBRANCH   2   4
TORSDOF 2
ENDMDL
MODEL      210
REMARK 921   NORMALIZED FREE ENERGY PREDICTED BY IDOCK:   -1.12 KCAL/MOL
REMARK 922        TOTAL FREE ENERGY PREDICTED BY IDOCK:   -1.42 KCAL/MOL
REMARK 923 INTER-LIGAND FREE ENERGY PREDICTED BY IDOCK:   -1.27 KCAL/MOL
REMARK 924 INTRA-LIGAND FREE ENERGY PREDICTED BY IDOCK:   -0.15 KCAL/MOL
REMARK 927      BINDING AFFINITY PREDICTED BY RF-SCORE:    0.00 PKD
ROOT
HETATM    1  C   UNL     1      -8.565   4.284  65.837  1.00  0.00    -0.114 C  
HETATM    2  N   UNL     1      -7.220   4.858  65.917  1.00  0.00    -0.075 NA 
HETATM    3  C   UNL     1      -6.835   5.402  64.613  1.00  0.00    -0.048 C  
ENDROOT
BRANCH   2   4
HETATM    4  C   UNL     1      -7.129   5.917  66.940  1.00  0.00    -0.070 C  
BRANCH   4   5
HETATM    5  C   UNL     1      -7.436   5.452  68.370  1.00  0.00    -0.073 C  
HETATM    6  C   UNL     1      -6.533   6.085  69.454  1.00  0.00    -0.042 C  
HETATM    7  C   UNL     1      -6.745   7.591  69.579  1.00  0.00    -0.040 A  
HETATM    8  C   UNL     1      -6.695   5.363  70.793  1.00  0.00    -0.047 A  
HETATM    9  C   UNL     1      -7.992   8.123  69.941  1.00  0.00    -0.109 A  
HETATM   10  C   UNL     1      -5.643   5.355  71.709  1.00  0.00    -0.016 A  
HETATM   11  C   UNL     1      -8.184   9.504  70.019  1.00  0.00    -0.181 A  
HETATM   12  C   UNL     1      -5.790   4.651  72.902  1.00  0.00    -0.012 A  
HETATM   13  C   UNL     1      -6.980   3.981  73.156  1.00  0.00    -0.057 A  
HETATM   14  C   UNL     1      -7.127  10.371  69.749  1.00  0.00    -0.148 A  
HETATM   15  C   UNL     1      -5.880   9.859  69.399  1.00  0.00    -0.037 A  
HETATM   16  C   UNL     1      -7.984   4.054  72.207  1.00  0.00    -0.081 A  
HETATM   17  N   UNL     1      -7.870   4.728  71.043  1.00  0.00    -0.080 NA 
HETATM   18  C   UNL     1      -5.690   8.478  69.311  1.00  0.00    -0.035 A  
ENDBRANCH   4   5
ENDBRANCH   2   4
TORSDOF 2
ENDMDL
MODEL      211
REMARK 921   NORMALIZED FREE ENERGY PREDICTED BY IDOCK:   -0.77 KCAL/MOL
REMARK 922        TOTAL FREE ENERGY PREDICTED BY IDOCK:   -1.03 KCAL/MOL
REMARK 923 INTER-LIGAND FREE ENERGY PREDICTED BY IDOCK:   -0.73 KCAL/MOL
REMARK 924 INTRA-LIGAND FREE ENERGY PREDICTED BY IDOCK:   -0.30 KCAL/MOL
REMARK 927      BINDING AFFINITY PREDICTED BY RF-SCORE:    0.00 PKD
ROOT
HETATM    1  C   UNL     1     -11.698  17.203  69.622  1.00  0.00     1.719 C  
HETATM    2  N   UNL     1     -10.427  17.462  68.942  1.00  0.00    -0.340 NA 
HETATM    3  C   UNL     1     -10.088  18.883  69.051  1.00  0.00    -0.250 C  
ENDROOT
BRANCH   2   4
HETATM    4  C   UNL     1      -9.327  16.648  69.494  1.00  0.00     0.149 C  
BRANCH   4   5
HETATM    5  C   UNL     1      -9.116  15.300  68.792  1.00  0.00    -0.200 C  
HETATM    6  C   UNL     1      -9.061  15.386  67.249  1.00  0.00    -0.218 C  
HETATM    7  C   UNL     1      -7.849  16.172  66.755  1.00  0.00    -0.296 A  
HETATM    8  C   UNL     1      -9.147  13.996  66.618  1.00  0.00    -0.200 A  
HETATM    9  C   UNL     1      -6.542  15.747  67.035  1.00  0.00     0.042 A  
HETATM   10  C   UNL     1      -9.673  13.847  65.335  1.00  0.00    -0.096 A  
HETATM   11  C   UNL     1      -5.441  16.492  66.607  1.00  0.00     0.214 A  
HETATM   12  C   UNL     1      -9.790  12.567  64.796  1.00  0.00    -0.084 A  
HETATM   13  C   UNL     1      -9.374  11.473  65.542  1.00  0.00    -0.203 A  
HETATM   14  C   UNL     1      -5.633  17.666  65.882  1.00  0.00    -0.184 A  
HETATM   15  C   UNL     1      -6.924  18.096  65.586  1.00  0.00    -0.212 A  
HETATM   16  C   UNL     1      -8.843  11.704  66.799  1.00  0.00    -0.184 A  
HETATM   17  N   UNL     1      -8.718  12.932  67.346  1.00  0.00    -0.187 NA 
HETATM   18  C   UNL     1      -8.026  17.357  66.021  1.00  0.00    -0.200 A  
ENDBRANCH   4   5
ENDBRANCH   2   4
TORSDOF 2
ENDMDL
MODEL      212
REMARK 921   NORMALIZED FREE ENERGY PREDICTED BY IDOCK:   -0.55 KCAL/MOL
REMARK 922        TOTAL FREE ENERGY PREDICTED BY IDOCK:   -0.78 KCAL/MOL
REMARK 923 INTER-LIGAND FREE ENERGY PREDICTED BY IDOCK:   -0.61 KCAL/MOL
REMARK 924 INTRA-LIGAND FREE ENERGY PREDICTED BY IDOCK:   -0.17 KCAL/MOL
REMARK 927      BINDING AFFINITY PREDICTED BY RF-SCORE:    0.00 PKD
ROOT
HETATM    1  C   UNL     1      -9.862   4.941  63.902  1.00  0.00     0.527 C  
HETATM    2  N   UNL     1      -9.417   4.197  65.082  1.00  0.00    -0.162 NA 
HETATM    3  C   UNL     1      -8.751   2.960  64.666  1.00  0.00    -0.104 C  
ENDROOT
BRANCH   2   4
HETATM    4  C   UNL     1      -8.503   4.990  65.926  1.00  0.00    -0.121 C  
BRANCH   4   5
HETATM    5  C   UNL     1      -7.973   6.270  65.266  1.00  0.00    -0.117 C  
HETATM    6  C   UNL     1      -8.371   7.575  65.993  1.00  0.00    -0.136 C  
HETATM    7  C   UNL     1      -7.749   7.678  67.383  1.00  0.00    -0.117 A  
HETATM    8  C   UNL     1      -8.067   8.800  65.129  1.00  0.00    -0.133 A  
HETATM    9  C   UNL     1      -6.357   7.701  67.558  1.00  0.00    -0.054 A  
HETATM   10  C   UNL     1      -8.814   9.967  65.291  1.00  0.00    -0.210 A  
HETATM   11  C   UNL     1      -5.799   7.761  68.836  1.00  0.00    -0.031 A  
HETATM   12  C   UNL     1      -8.555  11.056  64.461  1.00  0.00     0.129 A  
HETATM   13  C   UNL     1      -7.557  10.959  63.500  1.00  0.00     0.401 A  
HETATM   14  C   UNL     1      -6.625   7.811  69.957  1.00  0.00    -0.037 A  
HETATM   15  C   UNL     1      -8.009   7.800  69.800  1.00  0.00    -0.115 A  
HETATM   16  C   UNL     1      -6.846   9.775  63.416  1.00  0.00    -0.119 A  
HETATM   17  N   UNL     1      -7.074   8.704  64.206  1.00  0.00    -0.088 NA 
HETATM   18  C   UNL     1      -8.569   7.730  68.522  1.00  0.00    -0.128 A  
ENDBRANCH   4   5
ENDBRANCH   2   4
TORSDOF 2
ENDMDL
MODEL      213
REMARK 921   NORMALIZED FREE ENERGY PREDICTED BY IDOCK:   -0.45 KCAL/MOL
REMARK 922        TOTAL FREE ENERGY PREDICTED BY IDOCK:   -0.67 KCAL/MOL
REMARK 923 INTER-LIGAND FREE ENERGY PREDICTED BY IDOCK:   -1.75 KCAL/MOL
REMARK 924 INTRA-LIGAND FREE ENERGY PREDICTED BY IDOCK:    1.07 KCAL/MOL
REMARK 927      BINDING AFFINITY PREDICTED BY RF-SCORE:    0.00 PKD
ROOT
HETATM    1  C   UNL     1      -8.948   6.313  68.958  1.00  0.00    -0.123 C  
HETATM    2  N   UNL     1      -9.188   7.311  67.914  1.00  0.00    -0.131 NA 
HETATM    3  C   UNL     1      -9.883   6.690  66.783  1.00  0.00    -0.173 C  
ENDROOT
BRANCH   2   4
HETATM    4  C   UNL     1      -9.977   8.455  68.410  1.00  0.00    -0.187 C  
BRANCH   4   5
HETATM    5  C   UNL     1      -9.244   9.802  68.373  1.00  0.00    -0.130 C  
HETATM    6  C   UNL     1      -7.702   9.687  68.336  1.00  0.00    -0.081 C  
HETATM    7  C   UNL     1      -7.198   9.038  67.050  1.00  0.00    -0.086 A  
HETATM    8  C   UNL     1      -7.045  11.043  68.599  1.00  0.00    -0.080 A  
HETATM    9  C   UNL     1      -7.442   9.622  65.797  1.00  0.00    -0.100 A  
HETATM   10  C   UNL     1      -5.770  11.100  69.162  1.00  0.00    -0.041 A  
HETATM   11  C   UNL     1      -7.006   9.002  64.624  1.00  0.00    -0.085 A  
HETATM   12  C   UNL     1      -5.207  12.344  69.439  1.00  0.00    -0.066 A  
HETATM   13  C   UNL     1      -5.922  13.497  69.141  1.00  0.00    -0.089 A  
HETATM   14  C   UNL     1      -6.310   7.797  64.689  1.00  0.00    -0.045 A  
HETATM   15  C   UNL     1      -6.050   7.211  65.926  1.00  0.00    -0.037 A  
HETATM   16  C   UNL     1      -7.172  13.358  68.564  1.00  0.00    -0.110 A  
HETATM   17  N   UNL     1      -7.741  12.167  68.284  1.00  0.00    -0.128 NA 
HETATM   18  C   UNL     1      -6.493   7.824  67.099  1.00  0.00    -0.055 A  
ENDBRANCH   4   5
ENDBRANCH   2   4
TORSDOF 2
ENDMDL
MODEL      214
REMARK 921   NORMALIZED FREE ENERGY PREDICTED BY IDOCK:   -0.40 KCAL/MOL
REMARK 922        TOTAL FREE ENERGY PREDICTED BY IDOCK:   -0.62 KCAL/MOL
REMARK 923 INTER-LIGAND FREE ENERGY PREDICTED BY IDOCK:   -0.38 KCAL/MOL
REMARK 924 INTRA-LIGAND FREE ENERGY PREDICTED BY IDOCK:   -0.24 KCAL/MOL
REMARK 927      BINDING AFFINITY PREDICTED BY RF-SCORE:    0.00 PKD
ROOT
HETATM    1  C   UNL     1      -9.899  15.331  70.330  1.00  0.00     0.186 C  
HETATM    2  N   UNL     1     -10.275  14.785  69.024  1.00  0.00    -0.237 NA 
HETATM    3  C   UNL     1      -9.185  14.994  68.067  1.00  0.00    -0.183 C  
ENDROOT
BRANCH   2   4
HETATM    4  C   UNL     1     -10.601  13.349  69.096  1.00  0.00    -0.001 C  
BRANCH   4   5
HETATM    5  C   UNL     1      -9.384  12.415  69.060  1.00  0.00     0.402 C  
HETATM    6  C   UNL     1      -9.587  11.135  68.215  1.00  0.00    -0.185 C  
HETATM    7  C   UNL     1      -9.771  11.442  66.731  1.00  0.00    -0.221 A  
HETATM    8  C   UNL     1      -8.462  10.129  68.465  1.00  0.00    -0.121 A  
HETATM    9  C   UNL     1      -8.765  12.082  65.991  1.00  0.00     0.115 A  
HETATM   10  C   UNL     1      -8.700   8.765  68.293  1.00  0.00    -0.135 A  
HETATM   11  C   UNL     1      -8.958  12.389  64.642  1.00  0.00     1.103 A  
HETATM   12  C   UNL     1      -7.678   7.860  68.572  1.00  0.00    -0.114 A  
HETATM   13  C   UNL     1      -6.447   8.335  69.006  1.00  0.00    -0.047 A  
HETATM   14  C   UNL     1     -10.153  12.048  64.013  1.00  0.00    -0.361 A  
HETATM   15  C   UNL     1     -11.157  11.403  64.731  1.00  0.00    -0.258 A  
HETATM   16  C   UNL     1      -6.283   9.703  69.132  1.00  0.00    -0.041 A  
HETATM   17  N   UNL     1      -7.254  10.602  68.868  1.00  0.00    -0.082 NA 
HETATM   18  C   UNL     1     -10.970  11.104  66.083  1.00  0.00    -0.203 A  
ENDBRANCH   4   5
ENDBRANCH   2   4
TORSDOF 2
ENDMDL
MODEL      215
REMARK 921   NORMALIZED FREE ENERGY PREDICTED BY IDOCK:    0.27 KCAL/MOL
REMARK 922        TOTAL FREE ENERGY PREDICTED BY IDOCK:    0.13 KCAL/MOL
REMARK 923 INTER-LIGAND FREE ENERGY PREDICTED BY IDOCK:   -1.73 KCAL/MOL
REMARK 924 INTRA-LIGAND FREE ENERGY PREDICTED BY IDOCK:    1.86 KCAL/MOL
REMARK 927      BINDING AFFINITY PREDICTED BY RF-SCORE:    0.00 PKD
ROOT
HETATM    1  C   UNL     1      -7.122  10.735  69.635  1.00  0.00    -0.136 C  
HETATM    2  N   UNL     1      -7.869   9.595  69.099  1.00  0.00    -0.085 NA 
HETATM    3  C   UNL     1      -6.953   8.482  68.838  1.00  0.00    -0.062 C  
ENDROOT
BRANCH   2   4
HETATM    4  C   UNL     1      -8.937   9.151  70.015  1.00  0.00    -0.187 C  
BRANCH   4   5
HETATM    5  C   UNL     1      -8.895   7.659  70.369  1.00  0.00    -0.144 C  
HETATM    6  C   UNL     1      -7.489   7.129  70.736  1.00  0.00    -0.080 C  
HETATM    7  C   UNL     1      -6.949   7.755  72.019  1.00  0.00    -0.067 A  
HETATM    8  C   UNL     1      -7.474   5.601  70.784  1.00  0.00    -0.089 A  
HETATM    9  C   UNL     1      -7.613   7.590  73.244  1.00  0.00    -0.118 A  
HETATM   10  C   UNL     1      -6.288   4.910  70.529  1.00  0.00    -0.026 A  
HETATM   11  C   UNL     1      -7.129   8.195  74.406  1.00  0.00    -0.204 A  
HETATM   12  C   UNL     1      -6.305   3.517  70.529  1.00  0.00    -0.027 A  
HETATM   13  C   UNL     1      -7.494   2.849  70.790  1.00  0.00    -0.036 A  
HETATM   14  C   UNL     1      -5.968   8.963  74.360  1.00  0.00    -0.135 A  
HETATM   15  C   UNL     1      -5.291   9.128  73.154  1.00  0.00    -0.095 A  
HETATM   16  C   UNL     1      -8.622   3.605  71.054  1.00  0.00    -0.072 A  
HETATM   17  N   UNL     1      -8.636   4.955  71.061  1.00  0.00    -0.118 NA 
HETATM   18  C   UNL     1      -5.779   8.531  71.989  1.00  0.00    -0.050 A  
ENDBRANCH   4   5
ENDBRANCH   2   4
TORSDOF 2
ENDMDL
MODEL      216
REMARK 921   NORMALIZED FREE ENERGY PREDICTED BY IDOCK:    4.00 KCAL/MOL
REMARK 922        TOTAL FREE ENERGY PREDICTED BY IDOCK:    4.29 KCAL/MOL
REMARK 923 INTER-LIGAND FREE ENERGY PREDICTED BY IDOCK:    0.06 KCAL/MOL
REMARK 924 INTRA-LIGAND FREE ENERGY PREDICTED BY IDOCK:    4.23 KCAL/MOL
REMARK 927      BINDING AFFINITY PREDICTED BY RF-SCORE:    0.00 PKD
ROOT
HETATM    1  C   UNL     1      -9.016   5.710  69.180  1.00  0.00    -0.113 C  
HETATM    2  N   UNL     1      -8.934   7.172  69.138  1.00  0.00    -0.138 NA 
HETATM    3  C   UNL     1     -10.195   7.724  68.637  1.00  0.00    -0.201 C  
ENDROOT
BRANCH   2   4
HETATM    4  C   UNL     1      -8.634   7.749  70.462  1.00  0.00    -0.132 C  
BRANCH   4   5
HETATM    5  C   UNL     1      -8.223   9.227  70.437  1.00  0.00    -0.199 C  
HETATM    6  C   UNL     1      -7.485   9.661  69.149  1.00  0.00    -0.079 C  
HETATM    7  C   UNL     1      -8.376   9.578  67.913  1.00  0.00    -0.115 A  
HETATM    8  C   UNL     1      -6.854  11.044  69.318  1.00  0.00    -0.110 A  
HETATM    9  C   UNL     1      -9.548  10.344  67.808  1.00  0.00    -0.169 A  
HETATM   10  C   UNL     1      -5.723  11.386  68.577  1.00  0.00    -0.042 A  
HETATM   11  C   UNL     1     -10.373  10.236  66.687  1.00  0.00    -0.283 A  
HETATM   12  C   UNL     1      -5.132  12.632  68.780  1.00  0.00    -0.056 A  
HETATM   13  C   UNL     1      -5.686  13.505  69.707  1.00  0.00    -0.110 A  
HETATM   14  C   UNL     1     -10.033   9.369  65.651  1.00  0.00    -0.210 A  
HETATM   15  C   UNL     1      -8.868   8.610  65.735  1.00  0.00    -0.231 A  
HETATM   16  C   UNL     1      -6.820  13.101  70.388  1.00  0.00     1.001 A  
HETATM   17  N   UNL     1      -7.414  11.901  70.212  1.00  0.00     1.343 NA 
HETATM   18  C   UNL     1      -8.045   8.710  66.859  1.00  0.00    -0.098 A  
ENDBRANCH   4   5
ENDBRANCH   2   4
TORSDOF 2
ENDMDL
MODEL      217
REMARK 921   NORMALIZED FREE ENERGY PREDICTED BY IDOCK:    5.15 KCAL/MOL
REMARK 922        TOTAL FREE ENERGY PREDICTED BY IDOCK:    5.58 KCAL/MOL
REMARK 923 INTER-LIGAND FREE ENERGY PREDICTED BY IDOCK:    5.84 KCAL/MOL
REMARK 924 INTRA-LIGAND FREE ENERGY PREDICTED BY IDOCK:   -0.26 KCAL/MOL
REMARK 927      BINDING AFFINITY PREDICTED BY RF-SCORE:    0.00 PKD
ROOT
HETATM    1  C   UNL     1     -11.813  18.196  70.065  1.00  0.00     6.479 C  
HETATM    2  N   UNL     1     -10.426  18.322  69.613  1.00  0.00     0.464 NA 
HETATM    3  C   UNL     1      -9.728  19.319  70.429  1.00  0.00     1.306 C  
ENDROOT
BRANCH   2   4
HETATM    4  C   UNL     1      -9.702  17.038  69.676  1.00  0.00     0.296 C  
BRANCH   4   5
HETATM    5  C   UNL     1     -10.073  16.042  68.569  1.00  0.00    -0.233 C  
HETATM    6  C   UNL     1     -10.096  16.648  67.147  1.00  0.00    -0.276 C  
HETATM    7  C   UNL     1      -8.713  17.103  66.687  1.00  0.00    -0.281 A  
HETATM    8  C   UNL     1     -10.752  15.688  66.152  1.00  0.00    -0.303 A  
HETATM    9  C   UNL     1      -7.652  16.193  66.561  1.00  0.00    -0.168 A  
HETATM   10  C   UNL     1     -11.383  16.192  65.014  1.00  0.00    -0.115 A  
HETATM   11  C   UNL     1      -6.383  16.626  66.173  1.00  0.00     0.723 A  
HETATM   12  C   UNL     1     -12.017  15.307  64.145  1.00  0.00    -0.145 A  
HETATM   13  C   UNL     1     -12.001  13.947  64.425  1.00  0.00    -0.480 A  
HETATM   14  C   UNL     1      -6.161  17.972  65.892  1.00  0.00    -0.272 A  
HETATM   15  C   UNL     1      -7.206  18.886  66.002  1.00  0.00    -0.293 A  
HETATM   16  C   UNL     1     -11.336  13.524  65.562  1.00  0.00    -0.296 A  
HETATM   17  N   UNL     1     -10.713  14.357  66.422  1.00  0.00    -0.301 NA 
HETATM   18  C   UNL     1      -8.474  18.457  66.400  1.00  0.00    -0.264 A  
ENDBRANCH   4   5
ENDBRANCH   2   4
TORSDOF 2
ENDMDL
MODEL      218
REMARK 921   NORMALIZED FREE ENERGY PREDICTED BY IDOCK:    7.10 KCAL/MOL
REMARK 922        TOTAL FREE ENERGY PREDICTED BY IDOCK:    7.75 KCAL/MOL
REMARK 923 INTER-LIGAND FREE ENERGY PREDICTED BY IDOCK:    3.45 KCAL/MOL
REMARK 924 INTRA-LIGAND FREE ENERGY PREDICTED BY IDOCK:    4.30 KCAL/MOL
REMARK 927      BINDING AFFINITY PREDICTED BY RF-SCORE:    0.00 PKD
ROOT
HETATM    1  C   UNL     1      -7.209  13.833  66.603  1.00  0.00     1.579 C  
HETATM    2  N   UNL     1      -8.118  12.878  65.967  1.00  0.00     1.206 NA 
HETATM    3  C   UNL     1      -7.890  11.538  66.515  1.00  0.00    -0.071 C  
ENDROOT
BRANCH   2   4
HETATM    4  C   UNL     1      -9.533  13.252  66.149  1.00  0.00    -0.139 C  
BRANCH   4   5
HETATM    5  C   UNL     1      -9.789  14.247  67.288  1.00  0.00    -0.244 C  
HETATM    6  C   UNL     1      -9.748  13.622  68.703  1.00  0.00    -0.118 C  
HETATM    7  C   UNL     1      -8.361  13.102  69.068  1.00  0.00     0.392 A  
HETATM    8  C   UNL     1     -10.298  14.595  69.748  1.00  0.00     0.065 A  
HETATM    9  C   UNL     1      -7.255  13.964  69.136  1.00  0.00    -0.038 A  
HETATM   10  C   UNL     1     -10.877  14.102  70.918  1.00  0.00     1.197 A  
HETATM   11  C   UNL     1      -5.984  13.472  69.438  1.00  0.00    -0.097 A  
HETATM   12  C   UNL     1     -11.416  15.000  71.836  1.00  0.00    -0.368 A  
HETATM   13  C   UNL     1     -11.358  16.363  71.571  1.00  0.00    -0.117 A  
HETATM   14  C   UNL     1      -5.803  12.113  69.688  1.00  0.00    -0.107 A  
HETATM   15  C   UNL     1      -6.892  11.246  69.635  1.00  0.00    -0.095 A  
HETATM   16  C   UNL     1     -10.749  16.773  70.399  1.00  0.00     0.235 A  
HETATM   17  N   UNL     1     -10.218  15.926  69.492  1.00  0.00    -0.262 NA 
HETATM   18  C   UNL     1      -8.163  11.735  69.323  1.00  0.00     0.432 A  
ENDBRANCH   4   5
ENDBRANCH   2   4
TORSDOF 2
ENDMDL
MODEL      219
REMARK 921   NORMALIZED FREE ENERGY PREDICTED BY IDOCK:    8.19 KCAL/MOL
REMARK 922        TOTAL FREE ENERGY PREDICTED BY IDOCK:    8.97 KCAL/MOL
REMARK 923 INTER-LIGAND FREE ENERGY PREDICTED BY IDOCK:    9.14 KCAL/MOL
REMARK 924 INTRA-LIGAND FREE ENERGY PREDICTED BY IDOCK:   -0.16 KCAL/MOL
REMARK 927      BINDING AFFINITY PREDICTED BY RF-SCORE:    0.00 PKD
ROOT
HETATM    1  C   UNL     1      -9.793   9.691  63.440  1.00  0.00     1.002 C  
HETATM    2  N   UNL     1      -9.956   9.267  64.833  1.00  0.00     0.420 NA 
HETATM    3  C   UNL     1     -11.118   8.382  64.948  1.00  0.00     8.792 C  
ENDROOT
BRANCH   2   4
HETATM    4  C   UNL     1      -8.758   8.578  65.347  1.00  0.00    -0.159 C  
BRANCH   4   5
HETATM    5  C   UNL     1      -8.890   7.052  65.444  1.00  0.00     0.088 C  
HETATM    6  C   UNL     1      -8.509   6.465  66.823  1.00  0.00    -0.112 C  
HETATM    7  C   UNL     1      -9.458   6.917  67.929  1.00  0.00    -0.120 A  
HETATM    8  C   UNL     1      -8.380   4.942  66.754  1.00  0.00    -0.107 A  
HETATM    9  C   UNL     1     -10.825   6.605  67.887  1.00  0.00    -0.353 A  
HETATM   10  C   UNL     1      -7.536   4.276  67.643  1.00  0.00    -0.069 A  
HETATM   11  C   UNL     1     -11.691   7.053  68.887  1.00  0.00     0.547 A  
HETATM   12  C   UNL     1      -7.394   2.894  67.533  1.00  0.00    -0.054 A  
HETATM   13  C   UNL     1      -8.100   2.212  66.551  1.00  0.00    -0.080 A  
HETATM   14  C   UNL     1     -11.198   7.808  69.950  1.00  0.00    -0.070 A  
HETATM   15  C   UNL     1      -9.841   8.117  70.012  1.00  0.00    -0.182 A  
HETATM   16  C   UNL     1      -8.933   2.941  65.722  1.00  0.00    -0.144 A  
HETATM   17  N   UNL     1      -9.091   4.279  65.805  1.00  0.00    -0.128 NA 
HETATM   18  C   UNL     1      -8.976   7.678  69.007  1.00  0.00    -0.137 A  
ENDBRANCH   4   5
ENDBRANCH   2   4
TORSDOF 2
ENDMDL
MODEL      220
REMARK 921   NORMALIZED FREE ENERGY PREDICTED BY IDOCK:    8.80 KCAL/MOL
REMARK 922        TOTAL FREE ENERGY PREDICTED BY IDOCK:    9.65 KCAL/MOL
REMARK 923 INTER-LIGAND FREE ENERGY PREDICTED BY IDOCK:    9.50 KCAL/MOL
REMARK 924 INTRA-LIGAND FREE ENERGY PREDICTED BY IDOCK:    0.15 KCAL/MOL
REMARK 927      BINDING AFFINITY PREDICTED BY RF-SCORE:    0.00 PKD
ROOT
HETATM    1  C   UNL     1     -10.787   4.540  63.208  1.00  0.00     0.586 C  
HETATM    2  N   UNL     1     -11.995   4.403  64.024  1.00  0.00     1.342 NA 
HETATM    3  C   UNL     1     -12.536   3.048  63.884  1.00  0.00     7.661 C  
ENDROOT
BRANCH   2   4
HETATM    4  C   UNL     1     -11.738   4.687  65.449  1.00  0.00     1.665 C  
BRANCH   4   5
HETATM    5  C   UNL     1     -10.303   4.397  65.908  1.00  0.00    -0.234 C  
HETATM    6  C   UNL     1      -9.341   5.603  65.796  1.00  0.00    -0.078 C  
HETATM    7  C   UNL     1      -9.729   6.743  66.733  1.00  0.00    -0.222 A  
HETATM    8  C   UNL     1      -7.887   5.165  65.985  1.00  0.00    -0.103 A  
HETATM    9  C   UNL     1      -9.755   6.565  68.125  1.00  0.00    -0.126 A  
HETATM   10  C   UNL     1      -6.859   5.897  65.391  1.00  0.00    -0.055 A  
HETATM   11  C   UNL     1     -10.144   7.606  68.970  1.00  0.00    -0.199 A  
HETATM   12  C   UNL     1      -5.545   5.455  65.533  1.00  0.00    -0.013 A  
HETATM   13  C   UNL     1      -5.289   4.304  66.267  1.00  0.00    -0.013 A  
HETATM   14  C   UNL     1     -10.500   8.843  68.436  1.00  0.00    -0.230 A  
HETATM   15  C   UNL     1     -10.468   9.039  67.058  1.00  0.00    -0.316 A  
HETATM   16  C   UNL     1      -6.360   3.646  66.843  1.00  0.00    -0.036 A  
HETATM   17  N   UNL     1      -7.643   4.050  66.722  1.00  0.00    -0.087 NA 
HETATM   18  C   UNL     1     -10.088   7.997  66.210  1.00  0.00    -0.041 A  
ENDBRANCH   4   5
ENDBRANCH   2   4
TORSDOF 2
ENDMDL
MODEL      221
REMARK 921   NORMALIZED FREE ENERGY PREDICTED BY IDOCK:   15.69 KCAL/MOL
REMARK 922        TOTAL FREE ENERGY PREDICTED BY IDOCK:   17.35 KCAL/MOL
REMARK 923 INTER-LIGAND FREE ENERGY PREDICTED BY IDOCK:   17.25 KCAL/MOL
REMARK 924 INTRA-LIGAND FREE ENERGY PREDICTED BY IDOCK:    0.09 KCAL/MOL
REMARK 927      BINDING AFFINITY PREDICTED BY RF-SCORE:    0.00 PKD
ROOT
HETATM    1  C   UNL     1     -11.879  18.597  70.782  1.00  0.00     8.927 C  
HETATM    2  N   UNL     1     -10.415  18.580  70.806  1.00  0.00     1.888 NA 
HETATM    3  C   UNL     1      -9.940  18.768  72.179  1.00  0.00     5.225 C  
ENDROOT
BRANCH   2   4
HETATM    4  C   UNL     1      -9.866  17.323  70.262  1.00  0.00     1.603 C  
BRANCH   4   5
HETATM    5  C   UNL     1      -9.085  17.482  68.951  1.00  0.00    -0.148 C  
HETATM    6  C   UNL     1      -8.319  18.819  68.823  1.00  0.00    -0.322 C  
HETATM    7  C   UNL     1      -7.200  18.948  69.854  1.00  0.00     0.380 A  
HETATM    8  C   UNL     1      -7.819  19.031  67.393  1.00  0.00    -0.242 A  
HETATM    9  C   UNL     1      -6.130  18.040  69.883  1.00  0.00    -0.159 A  
HETATM   10  C   UNL     1      -7.628  20.325  66.909  1.00  0.00    -0.341 A  
HETATM   11  C   UNL     1      -5.130  18.147  70.851  1.00  0.00    -0.265 A  
HETATM   12  C   UNL     1      -7.219  20.499  65.588  1.00  0.00    -0.116 A  
HETATM   13  C   UNL     1      -7.003  19.384  64.789  1.00  0.00     0.462 A  
HETATM   14  C   UNL     1      -5.179  19.170  71.795  1.00  0.00    -0.305 A  
HETATM   15  C   UNL     1      -6.229  20.086  71.773  1.00  0.00    -0.112 A  
HETATM   16  C   UNL     1      -7.193  18.134  65.349  1.00  0.00     0.302 A  
HETATM   17  N   UNL     1      -7.588  17.935  66.624  1.00  0.00    -0.217 NA 
HETATM   18  C   UNL     1      -7.235  19.975  70.811  1.00  0.00     0.695 A  
ENDBRANCH   4   5
ENDBRANCH   2   4
TORSDOF 2
ENDMDL
MODEL      222
REMARK 921   NORMALIZED FREE ENERGY PREDICTED BY IDOCK:   15.88 KCAL/MOL
REMARK 922        TOTAL FREE ENERGY PREDICTED BY IDOCK:   17.56 KCAL/MOL
REMARK 923 INTER-LIGAND FREE ENERGY PREDICTED BY IDOCK:   17.66 KCAL/MOL
REMARK 924 INTRA-LIGAND FREE ENERGY PREDICTED BY IDOCK:   -0.10 KCAL/MOL
REMARK 927      BINDING AFFINITY PREDICTED BY RF-SCORE:    0.00 PKD
ROOT
HETATM    1  C   UNL     1     -11.795  18.445  70.911  1.00  0.00     8.025 C  
HETATM    2  N   UNL     1     -10.368  18.249  71.171  1.00  0.00     2.594 NA 
HETATM    3  C   UNL     1      -9.866  19.330  72.024  1.00  0.00     4.115 C  
ENDROOT
BRANCH   2   4
HETATM    4  C   UNL     1     -10.093  16.948  71.809  1.00  0.00     5.062 C  
BRANCH   4   5
HETATM    5  C   UNL     1     -10.560  15.729  71.002  1.00  0.00     0.224 C  
HETATM    6  C   UNL     1     -10.207  15.788  69.498  1.00  0.00    -0.271 C  
HETATM    7  C   UNL     1      -8.701  15.748  69.253  1.00  0.00    -0.261 A  
HETATM    8  C   UNL     1     -10.951  14.703  68.717  1.00  0.00    -0.258 A  
HETATM    9  C   UNL     1      -7.927  14.649  69.655  1.00  0.00     0.138 A  
HETATM   10  C   UNL     1     -11.245  14.897  67.368  1.00  0.00    -0.343 A  
HETATM   11  C   UNL     1      -6.545  14.639  69.457  1.00  0.00    -0.149 A  
HETATM   12  C   UNL     1     -11.967  13.919  66.686  1.00  0.00    -0.474 A  
HETATM   13  C   UNL     1     -12.368  12.773  67.360  1.00  0.00     0.250 A  
HETATM   14  C   UNL     1      -5.920  15.722  68.841  1.00  0.00    -0.108 A  
HETATM   15  C   UNL     1      -6.676  16.815  68.425  1.00  0.00    -0.154 A  
HETATM   16  C   UNL     1     -12.020  12.645  68.693  1.00  0.00    -0.223 A  
HETATM   17  N   UNL     1     -11.322  13.575  69.379  1.00  0.00    -0.254 NA 
HETATM   18  C   UNL     1      -8.057  16.832  68.632  1.00  0.00    -0.251 A  
ENDBRANCH   4   5
ENDBRANCH   2   4
TORSDOF 2
ENDMDL
MODEL      223
REMARK 921   NORMALIZED FREE ENERGY PREDICTED BY IDOCK:   17.26 KCAL/MOL
REMARK 922        TOTAL FREE ENERGY PREDICTED BY IDOCK:   19.10 KCAL/MOL
REMARK 923 INTER-LIGAND FREE ENERGY PREDICTED BY IDOCK:    5.71 KCAL/MOL
REMARK 924 INTRA-LIGAND FREE ENERGY PREDICTED BY IDOCK:   13.39 KCAL/MOL
REMARK 927      BINDING AFFINITY PREDICTED BY RF-SCORE:    0.00 PKD
ROOT
HETATM    1  C   UNL     1     -11.702  20.596  66.290  1.00  0.00     3.393 C  
HETATM    2  N   UNL     1     -10.737  19.688  66.913  1.00  0.00    -0.480 NA 
HETATM    3  C   UNL     1      -9.392  19.971  66.407  1.00  0.00    -0.378 C  
ENDROOT
BRANCH   2   4
HETATM    4  C   UNL     1     -10.744  19.796  68.384  1.00  0.00     0.088 C  
BRANCH   4   5
HETATM    5  C   UNL     1      -9.507  19.203  69.074  1.00  0.00    -0.361 C  
HETATM    6  C   UNL     1      -8.638  18.305  68.163  1.00  0.00    -0.290 C  
HETATM    7  C   UNL     1      -7.996  19.087  67.020  1.00  0.00    -0.269 A  
HETATM    8  C   UNL     1      -7.610  17.525  68.982  1.00  0.00    -0.161 A  
HETATM    9  C   UNL     1      -7.103  20.140  67.270  1.00  0.00    -0.297 A  
HETATM   10  C   UNL     1      -7.136  16.299  68.515  1.00  0.00    -0.146 A  
HETATM   11  C   UNL     1      -6.548  20.870  66.217  1.00  0.00    -0.263 A  
HETATM   12  C   UNL     1      -6.236  15.579  69.299  1.00  0.00    -0.123 A  
HETATM   13  C   UNL     1      -5.826  16.099  70.519  1.00  0.00     0.014 A  
HETATM   14  C   UNL     1      -6.868  20.549  64.900  1.00  0.00    -0.193 A  
HETATM   15  C   UNL     1      -7.745  19.499  64.634  1.00  0.00     2.050 A  
HETATM   16  C   UNL     1      -6.325  17.331  70.903  1.00  0.00     1.551 A  
HETATM   17  N   UNL     1      -7.197  18.051  70.165  1.00  0.00     1.050 NA 
HETATM   18  C   UNL     1      -8.309  18.774  65.686  1.00  0.00     0.527 A  
ENDBRANCH   4   5
ENDBRANCH   2   4
TORSDOF 2
ENDMDL
MODEL      224
REMARK 921   NORMALIZED FREE ENERGY PREDICTED BY IDOCK:   18.80 KCAL/MOL
REMARK 922        TOTAL FREE ENERGY PREDICTED BY IDOCK:   20.82 KCAL/MOL
REMARK 923 INTER-LIGAND FREE ENERGY PREDICTED BY IDOCK:   10.38 KCAL/MOL
REMARK 924 INTRA-LIGAND FREE ENERGY PREDICTED BY IDOCK:   10.44 KCAL/MOL
REMARK 927      BINDING AFFINITY PREDICTED BY RF-SCORE:    0.00 PKD
ROOT
HETATM    1  C   UNL     1     -11.218  20.086  67.457  1.00  0.00     0.439 C  
HETATM    2  N   UNL     1     -10.954  18.658  67.644  1.00  0.00    -0.282 NA 
HETATM    3  C   UNL     1      -9.678  18.303  67.016  1.00  0.00    -0.303 C  
ENDROOT
BRANCH   2   4
HETATM    4  C   UNL     1     -10.924  18.281  69.070  1.00  0.00     1.049 C  
BRANCH   4   5
HETATM    5  C   UNL     1      -9.525  17.968  69.619  1.00  0.00     0.669 C  
HETATM    6  C   UNL     1      -8.900  16.666  69.064  1.00  0.00    -0.201 C  
HETATM    7  C   UNL     1      -8.621  16.749  67.566  1.00  0.00    -0.203 A  
HETATM    8  C   UNL     1      -7.659  16.270  69.866  1.00  0.00     0.584 A  
HETATM    9  C   UNL     1      -7.734  17.703  67.043  1.00  0.00    -0.234 A  
HETATM   10  C   UNL     1      -7.282  14.929  69.942  1.00  0.00    -0.069 A  
HETATM   11  C   UNL     1      -7.512  17.791  65.667  1.00  0.00     0.120 A  
HETATM   12  C   UNL     1      -6.177  14.581  70.717  1.00  0.00    -0.099 A  
HETATM   13  C   UNL     1      -5.474  15.573  71.387  1.00  0.00     0.130 A  
HETATM   14  C   UNL     1      -8.163  16.919  64.798  1.00  0.00     5.499 A  
HETATM   15  C   UNL     1      -9.038  15.959  65.302  1.00  0.00     0.951 A  
HETATM   16  C   UNL     1      -5.898  16.882  71.244  1.00  0.00     0.917 A  
HETATM   17  N   UNL     1      -6.964  17.249  70.500  1.00  0.00     1.698 NA 
HETATM   18  C   UNL     1      -9.269  15.876  66.677  1.00  0.00    -0.280 A  
ENDBRANCH   4   5
ENDBRANCH   2   4
TORSDOF 2
ENDMDL
MODEL      225
REMARK 921   NORMALIZED FREE ENERGY PREDICTED BY IDOCK:   27.30 KCAL/MOL
REMARK 922        TOTAL FREE ENERGY PREDICTED BY IDOCK:   30.32 KCAL/MOL
REMARK 923 INTER-LIGAND FREE ENERGY PREDICTED BY IDOCK:   18.27 KCAL/MOL
REMARK 924 INTRA-LIGAND FREE ENERGY PREDICTED BY IDOCK:   12.04 KCAL/MOL
REMARK 927      BINDING AFFINITY PREDICTED BY RF-SCORE:    0.00 PKD
ROOT
HETATM    1  C   UNL     1      -8.437  14.228  71.944  1.00  0.00     7.249 C  
HETATM    2  N   UNL     1      -9.484  14.441  70.943  1.00  0.00     2.698 NA 
HETATM    3  C   UNL     1      -8.897  14.425  69.601  1.00  0.00     0.600 C  
ENDROOT
BRANCH   2   4
HETATM    4  C   UNL     1     -10.549  13.423  71.029  1.00  0.00     4.112 C  
BRANCH   4   5
HETATM    5  C   UNL     1     -10.321  12.185  70.151  1.00  0.00     2.049 C  
HETATM    6  C   UNL     1      -9.319  12.400  68.993  1.00  0.00     0.402 C  
HETATM    7  C   UNL     1      -7.904  12.675  69.493  1.00  0.00     0.967 A  
HETATM    8  C   UNL     1      -9.369  11.237  68.001  1.00  0.00    -0.166 A  
HETATM    9  C   UNL     1      -7.208  11.730  70.263  1.00  0.00     1.485 A  
HETATM   10  C   UNL     1      -9.022  11.447  66.666  1.00  0.00    -0.183 A  
HETATM   11  C   UNL     1      -5.926  12.006  70.744  1.00  0.00     0.136 A  
HETATM   12  C   UNL     1      -9.121  10.387  65.767  1.00  0.00    -0.197 A  
HETATM   13  C   UNL     1      -9.552   9.147  66.220  1.00  0.00    -0.321 A  
HETATM   14  C   UNL     1      -5.318  13.225  70.451  1.00  0.00    -0.127 A  
HETATM   15  C   UNL     1      -5.991  14.169  69.680  1.00  0.00    -0.114 A  
HETATM   16  C   UNL     1      -9.857   9.013  67.562  1.00  0.00    -0.179 A  
HETATM   17  N   UNL     1      -9.771  10.021  68.456  1.00  0.00    -0.152 NA 
HETATM   18  C   UNL     1      -7.277  13.899  69.206  1.00  0.00     0.016 A  
ENDBRANCH   4   5
ENDBRANCH   2   4
TORSDOF 2
ENDMDL
MODEL      226
REMARK 921   NORMALIZED FREE ENERGY PREDICTED BY IDOCK:   31.80 KCAL/MOL
REMARK 922        TOTAL FREE ENERGY PREDICTED BY IDOCK:   35.34 KCAL/MOL
REMARK 923 INTER-LIGAND FREE ENERGY PREDICTED BY IDOCK:   35.48 KCAL/MOL
REMARK 924 INTRA-LIGAND FREE ENERGY PREDICTED BY IDOCK:   -0.14 KCAL/MOL
REMARK 927      BINDING AFFINITY PREDICTED BY RF-SCORE:    0.00 PKD
ROOT
HETATM    1  C   UNL     1      -7.889  20.012  66.180  1.00  0.00    -0.293 C  
HETATM    2  N   UNL     1      -9.324  19.793  65.989  1.00  0.00    -0.367 NA 
HETATM    3  C   UNL     1      -9.892  20.889  65.198  1.00  0.00     1.706 C  
ENDROOT
BRANCH   2   4
HETATM    4  C   UNL     1      -9.606  18.507  65.324  1.00  0.00     1.651 C  
BRANCH   4   5
HETATM    5  C   UNL     1     -10.434  17.523  66.161  1.00  0.00    -0.288 C  
HETATM    6  C   UNL     1     -10.320  16.048  65.709  1.00  0.00    -0.398 C  
HETATM    7  C   UNL     1      -8.913  15.490  65.900  1.00  0.00    -0.133 A  
HETATM    8  C   UNL     1     -11.385  15.183  66.386  1.00  0.00    -0.225 A  
HETATM    9  C   UNL     1      -8.326  15.415  67.173  1.00  0.00    -0.247 A  
HETATM   10  C   UNL     1     -11.844  14.027  65.756  1.00  0.00    -0.393 A  
HETATM   11  C   UNL     1      -7.025  14.934  67.332  1.00  0.00    -0.162 A  
HETATM   12  C   UNL     1     -12.849  13.278  66.364  1.00  0.00     0.435 A  
HETATM   13  C   UNL     1     -13.364  13.694  67.585  1.00  0.00     4.385 A  
HETATM   14  C   UNL     1      -6.298  14.509  66.222  1.00  0.00     4.608 A  
HETATM   15  C   UNL     1      -6.870  14.567  64.953  1.00  0.00    16.028 A  
HETATM   16  C   UNL     1     -12.842  14.840  68.156  1.00  0.00     1.460 A  
HETATM   17  N   UNL     1     -11.869  15.585  67.591  1.00  0.00    -0.054 NA 
HETATM   18  C   UNL     1      -8.168  15.057  64.791  1.00  0.00     7.769 A  
ENDBRANCH   4   5
ENDBRANCH   2   4
TORSDOF 2
ENDMDL
MODEL      227
REMARK 921   NORMALIZED FREE ENERGY PREDICTED BY IDOCK:   50.22 KCAL/MOL
REMARK 922        TOTAL FREE ENERGY PREDICTED BY IDOCK:   55.91 KCAL/MOL
REMARK 923 INTER-LIGAND FREE ENERGY PREDICTED BY IDOCK:   56.07 KCAL/MOL
REMARK 924 INTRA-LIGAND FREE ENERGY PREDICTED BY IDOCK:   -0.16 KCAL/MOL
REMARK 927      BINDING AFFINITY PREDICTED BY RF-SCORE:    0.00 PKD
ROOT
HETATM    1  C   UNL     1      -7.873  20.038  65.532  1.00  0.00     0.029 C  
HETATM    2  N   UNL     1      -9.316  19.964  65.771  1.00  0.00    -0.322 NA 
HETATM    3  C   UNL     1     -10.037  20.139  64.507  1.00  0.00     2.994 C  
ENDROOT
BRANCH   2   4
HETATM    4  C   UNL     1      -9.710  18.685  66.391  1.00  0.00    -0.345 C  
BRANCH   4   5
HETATM    5  C   UNL     1     -10.582  18.825  67.645  1.00  0.00    -0.481 C  
HETATM    6  C   UNL     1     -10.247  17.820  68.772  1.00  0.00    -0.373 C  
HETATM    7  C   UNL     1      -8.853  18.042  69.352  1.00  0.00     0.458 A  
HETATM    8  C   UNL     1     -11.332  17.822  69.850  1.00  0.00     2.414 A  
HETATM    9  C   UNL     1      -8.509  19.251  69.976  1.00  0.00     1.096 A  
HETATM   10  C   UNL     1     -11.553  16.675  70.614  1.00  0.00     0.267 A  
HETATM   11  C   UNL     1      -7.220  19.456  70.473  1.00  0.00     0.839 A  
HETATM   12  C   UNL     1     -12.578  16.679  71.557  1.00  0.00     1.586 A  
HETATM   13  C   UNL     1     -13.349  17.823  71.722  1.00  0.00    13.255 A  
HETATM   14  C   UNL     1      -6.262  18.451  70.365  1.00  0.00     0.207 A  
HETATM   15  C   UNL     1      -6.591  17.241  69.757  1.00  0.00     0.005 A  
HETATM   16  C   UNL     1     -13.054  18.926  70.941  1.00  0.00    25.231 A  
HETATM   17  N   UNL     1     -12.067  18.951  70.019  1.00  0.00     9.199 NA 
HETATM   18  C   UNL     1      -7.876  17.038  69.251  1.00  0.00     0.016 A  
ENDBRANCH   4   5
ENDBRANCH   2   4
TORSDOF 2
ENDMDL
