MODEL        1
REMARK 921   NORMALIZED FREE ENERGY PREDICTED BY IDOCK:   -5.96 KCAL/MOL
REMARK 922        TOTAL FREE ENERGY PREDICTED BY IDOCK:   -7.34 KCAL/MOL
REMARK 923 INTER-LIGAND FREE ENERGY PREDICTED BY IDOCK:   -7.01 KCAL/MOL
REMARK 924 INTRA-LIGAND FREE ENERGY PREDICTED BY IDOCK:   -0.32 KCAL/MOL
REMARK 927      BINDING AFFINITY PREDICTED BY RF-SCORE:    0.00 PKD
ROOT
HETATM    1  N   UNL     1     -12.348  14.189  63.313  1.00  0.00    -1.133 N  
HETATM    2  H1  UNL     1     -11.598  14.628  62.778  1.00  0.00     0.000 HD 
HETATM    3  C   UNL     1     -12.322  14.131  64.660  1.00  0.00    -0.410 C  
HETATM    4  H2  UNL     1     -13.139  13.782  62.814  1.00  0.00     0.000 HD 
HETATM    5  O   UNL     1     -13.223  13.603  65.302  1.00  0.00    -0.724 OA 
ENDROOT
BRANCH   3   6
HETATM    6  N   UNL     1     -11.251  14.706  65.284  1.00  0.00    -0.342 N  
HETATM    7  C   UNL     1     -10.741  15.980  65.101  1.00  0.00    -0.409 C  
HETATM    8  H   UNL     1     -10.768  14.125  65.969  1.00  0.00     0.000 HD 
HETATM    9  O   UNL     1     -11.189  16.796  64.296  1.00  0.00    -1.163 OA 
BRANCH   7  10
HETATM   10  C   UNL     1      -9.543  16.294  65.978  1.00  0.00    -0.371 C  
BRANCH  10  11
HETATM   11  C   UNL     1      -9.528  17.718  66.477  1.00  0.00    -0.300 A  
HETATM   12  C   UNL     1      -8.417  18.545  66.247  1.00  0.00    -0.227 A  
HETATM   13  C   UNL     1      -8.417  19.872  66.680  1.00  0.00    -0.381 A  
HETATM   14  C   UNL     1      -9.530  20.389  67.338  1.00  0.00    -0.561 A  
HETATM   15  C   UNL     1     -10.641  19.581  67.566  1.00  0.00    -0.599 A  
HETATM   16  C   UNL     1     -10.643  18.252  67.137  1.00  0.00    -0.392 A  
ENDBRANCH  10  11
ENDBRANCH   7  10
ENDBRANCH   3   6
TORSDOF 3
ENDMDL
MODEL        2
REMARK 921   NORMALIZED FREE ENERGY PREDICTED BY IDOCK:   -5.91 KCAL/MOL
REMARK 922        TOTAL FREE ENERGY PREDICTED BY IDOCK:   -7.28 KCAL/MOL
REMARK 923 INTER-LIGAND FREE ENERGY PREDICTED BY IDOCK:   -6.91 KCAL/MOL
REMARK 924 INTRA-LIGAND FREE ENERGY PREDICTED BY IDOCK:   -0.37 KCAL/MOL
REMARK 927      BINDING AFFINITY PREDICTED BY RF-SCORE:    0.00 PKD
ROOT
HETATM    1  N   UNL     1     -12.283  14.069  63.363  1.00  0.00    -1.112 N  
HETATM    2  H1  UNL     1     -11.480  14.387  62.821  1.00  0.00     0.000 HD 
HETATM    3  C   UNL     1     -12.328  14.190  64.705  1.00  0.00    -0.417 C  
HETATM    4  H2  UNL     1     -13.074  13.648  62.876  1.00  0.00     0.000 HD 
HETATM    5  O   UNL     1     -13.294  13.808  65.357  1.00  0.00    -0.669 OA 
ENDROOT
BRANCH   3   6
HETATM    6  N   UNL     1     -11.253  14.776  65.311  1.00  0.00    -0.350 N  
HETATM    7  C   UNL     1     -10.737  16.041  65.092  1.00  0.00    -0.409 C  
HETATM    8  H   UNL     1     -10.771  14.211  66.011  1.00  0.00     0.000 HD 
HETATM    9  O   UNL     1     -11.182  16.837  64.265  1.00  0.00    -1.163 OA 
BRANCH   7  10
HETATM   10  C   UNL     1      -9.535  16.374  65.957  1.00  0.00    -0.345 C  
BRANCH  10  11
HETATM   11  C   UNL     1      -9.555  17.786  66.488  1.00  0.00    -0.315 A  
HETATM   12  C   UNL     1     -10.654  18.258  67.221  1.00  0.00    -0.406 A  
HETATM   13  C   UNL     1     -10.659  19.554  67.740  1.00  0.00    -0.542 A  
HETATM   14  C   UNL     1      -9.561  20.388  67.540  1.00  0.00    -0.560 A  
HETATM   15  C   UNL     1      -8.461  19.929  66.820  1.00  0.00    -0.377 A  
HETATM   16  C   UNL     1      -8.455  18.634  66.297  1.00  0.00    -0.241 A  
ENDBRANCH  10  11
ENDBRANCH   7  10
ENDBRANCH   3   6
TORSDOF 3
ENDMDL
MODEL        3
REMARK 921   NORMALIZED FREE ENERGY PREDICTED BY IDOCK:   -5.41 KCAL/MOL
REMARK 922        TOTAL FREE ENERGY PREDICTED BY IDOCK:   -6.68 KCAL/MOL
REMARK 923 INTER-LIGAND FREE ENERGY PREDICTED BY IDOCK:   -6.25 KCAL/MOL
REMARK 924 INTRA-LIGAND FREE ENERGY PREDICTED BY IDOCK:   -0.43 KCAL/MOL
REMARK 927      BINDING AFFINITY PREDICTED BY RF-SCORE:    0.00 PKD
ROOT
HETATM    1  N   UNL     1     -12.056  12.337  64.981  1.00  0.00    -0.371 N  
HETATM    2  H1  UNL     1     -11.332  11.727  65.362  1.00  0.00     0.000 HD 
HETATM    3  C   UNL     1     -12.536  13.390  65.673  1.00  0.00    -0.464 C  
HETATM    4  H2  UNL     1     -12.426  12.145  64.051  1.00  0.00     0.000 HD 
HETATM    5  O   UNL     1     -13.405  14.123  65.215  1.00  0.00    -0.715 OA 
ENDROOT
BRANCH   3   6
HETATM    6  N   UNL     1     -11.996  13.618  66.908  1.00  0.00    -0.405 N  
HETATM    7  C   UNL     1     -11.816  12.713  67.939  1.00  0.00    -0.332 C  
HETATM    8  H   UNL     1     -11.689  14.574  67.092  1.00  0.00     0.000 HD 
HETATM    9  O   UNL     1     -12.157  11.531  67.891  1.00  0.00    -0.630 OA 
BRANCH   7  10
HETATM   10  C   UNL     1     -11.169  13.310  69.176  1.00  0.00    -0.305 C  
BRANCH  10  11
HETATM   11  C   UNL     1     -12.166  13.708  70.235  1.00  0.00    -0.423 A  
HETATM   12  C   UNL     1     -12.686  12.754  71.123  1.00  0.00    -0.355 A  
HETATM   13  C   UNL     1     -13.583  13.129  72.124  1.00  0.00    -0.637 A  
HETATM   14  C   UNL     1     -13.963  14.462  72.256  1.00  0.00    -0.610 A  
HETATM   15  C   UNL     1     -13.448  15.420  71.386  1.00  0.00    -0.607 A  
HETATM   16  C   UNL     1     -12.553  15.048  70.381  1.00  0.00    -0.399 A  
ENDBRANCH  10  11
ENDBRANCH   7  10
ENDBRANCH   3   6
TORSDOF 3
ENDMDL
MODEL        4
REMARK 921   NORMALIZED FREE ENERGY PREDICTED BY IDOCK:   -5.38 KCAL/MOL
REMARK 922        TOTAL FREE ENERGY PREDICTED BY IDOCK:   -6.64 KCAL/MOL
REMARK 923 INTER-LIGAND FREE ENERGY PREDICTED BY IDOCK:   -6.36 KCAL/MOL
REMARK 924 INTRA-LIGAND FREE ENERGY PREDICTED BY IDOCK:   -0.29 KCAL/MOL
REMARK 927      BINDING AFFINITY PREDICTED BY RF-SCORE:    0.00 PKD
ROOT
HETATM    1  N   UNL     1     -10.522  16.061  66.131  1.00  0.00    -0.319 N  
HETATM    2  H1  UNL     1     -10.247  15.204  66.612  1.00  0.00     0.000 HD 
HETATM    3  C   UNL     1     -11.035  16.043  64.884  1.00  0.00    -0.384 C  
HETATM    4  H2  UNL     1     -10.407  16.955  66.607  1.00  0.00     0.000 HD 
HETATM    5  O   UNL     1     -11.367  17.073  64.306  1.00  0.00    -1.191 OA 
ENDROOT
BRANCH   3   6
HETATM    6  N   UNL     1     -11.189  14.820  64.294  1.00  0.00    -0.619 N  
HETATM    7  C   UNL     1     -12.253  13.943  64.415  1.00  0.00    -0.413 C  
HETATM    8  H   UNL     1     -10.425  14.516  63.690  1.00  0.00     0.000 HD 
HETATM    9  O   UNL     1     -13.238  14.144  65.125  1.00  0.00    -0.743 OA 
BRANCH   7  10
HETATM   10  C   UNL     1     -12.097  12.670  63.603  1.00  0.00    -0.632 C  
BRANCH  10  11
HETATM   11  C   UNL     1     -11.080  11.717  64.180  1.00  0.00    -0.442 A  
HETATM   12  C   UNL     1     -11.024  11.482  65.563  1.00  0.00    -0.290 A  
HETATM   13  C   UNL     1     -10.105  10.575  66.093  1.00  0.00    -0.306 A  
HETATM   14  C   UNL     1      -9.239   9.886  65.247  1.00  0.00    -0.280 A  
HETATM   15  C   UNL     1      -9.290  10.105  63.873  1.00  0.00    -0.336 A  
HETATM   16  C   UNL     1     -10.205  11.014  63.340  1.00  0.00    -0.404 A  
ENDBRANCH  10  11
ENDBRANCH   7  10
ENDBRANCH   3   6
TORSDOF 3
ENDMDL
MODEL        5
REMARK 921   NORMALIZED FREE ENERGY PREDICTED BY IDOCK:   -5.36 KCAL/MOL
REMARK 922        TOTAL FREE ENERGY PREDICTED BY IDOCK:   -6.63 KCAL/MOL
REMARK 923 INTER-LIGAND FREE ENERGY PREDICTED BY IDOCK:   -6.23 KCAL/MOL
REMARK 924 INTRA-LIGAND FREE ENERGY PREDICTED BY IDOCK:   -0.40 KCAL/MOL
REMARK 927      BINDING AFFINITY PREDICTED BY RF-SCORE:    0.00 PKD
ROOT
HETATM    1  N   UNL     1     -12.414  14.004  63.405  1.00  0.00    -1.123 N  
HETATM    2  H1  UNL     1     -12.361  13.013  63.644  1.00  0.00     0.000 HD 
HETATM    3  C   UNL     1     -11.915  14.959  64.216  1.00  0.00    -0.338 C  
HETATM    4  H2  UNL     1     -12.856  14.279  62.528  1.00  0.00     0.000 HD 
HETATM    5  O   UNL     1     -11.979  16.149  63.928  1.00  0.00    -0.947 OA 
ENDROOT
BRANCH   3   6
HETATM    6  N   UNL     1     -11.316  14.541  65.370  1.00  0.00    -0.331 N  
HETATM    7  C   UNL     1     -11.587  13.399  66.105  1.00  0.00    -0.346 C  
HETATM    8  H   UNL     1     -10.579  15.144  65.736  1.00  0.00     0.000 HD 
HETATM    9  O   UNL     1     -12.462  12.582  65.819  1.00  0.00    -0.626 OA 
BRANCH   7  10
HETATM   10  C   UNL     1     -10.714  13.240  67.337  1.00  0.00    -0.266 C  
BRANCH  10  11
HETATM   11  C   UNL     1     -11.434  13.561  68.623  1.00  0.00    -0.343 A  
HETATM   12  C   UNL     1     -11.783  12.541  69.522  1.00  0.00    -0.375 A  
HETATM   13  C   UNL     1     -12.420  12.843  70.726  1.00  0.00    -0.370 A  
HETATM   14  C   UNL     1     -12.706  14.167  71.050  1.00  0.00    -0.433 A  
HETATM   15  C   UNL     1     -12.359  15.189  70.171  1.00  0.00    -0.385 A  
HETATM   16  C   UNL     1     -11.724  14.890  68.963  1.00  0.00    -0.347 A  
ENDBRANCH  10  11
ENDBRANCH   7  10
ENDBRANCH   3   6
TORSDOF 3
ENDMDL
MODEL        6
REMARK 921   NORMALIZED FREE ENERGY PREDICTED BY IDOCK:   -5.32 KCAL/MOL
REMARK 922        TOTAL FREE ENERGY PREDICTED BY IDOCK:   -6.58 KCAL/MOL
REMARK 923 INTER-LIGAND FREE ENERGY PREDICTED BY IDOCK:   -6.36 KCAL/MOL
REMARK 924 INTRA-LIGAND FREE ENERGY PREDICTED BY IDOCK:   -0.22 KCAL/MOL
REMARK 927      BINDING AFFINITY PREDICTED BY RF-SCORE:    0.00 PKD
ROOT
HETATM    1  N   UNL     1     -12.171  14.436  63.750  1.00  0.00    -1.040 N  
HETATM    2  H1  UNL     1     -11.707  15.339  63.656  1.00  0.00     0.000 HD 
HETATM    3  C   UNL     1     -12.408  13.880  64.956  1.00  0.00    -0.430 C  
HETATM    4  H2  UNL     1     -12.464  13.939  62.910  1.00  0.00     0.000 HD 
HETATM    5  O   UNL     1     -12.966  12.795  65.070  1.00  0.00    -0.811 OA 
ENDROOT
BRANCH   3   6
HETATM    6  N   UNL     1     -12.013  14.591  66.054  1.00  0.00    -0.348 N  
HETATM    7  C   UNL     1     -10.773  15.153  66.305  1.00  0.00    -0.320 C  
HETATM    8  H   UNL     1     -12.719  14.724  66.779  1.00  0.00     0.000 HD 
HETATM    9  O   UNL     1      -9.806  15.062  65.549  1.00  0.00    -0.340 OA 
BRANCH   7  10
HETATM   10  C   UNL     1     -10.688  15.891  67.628  1.00  0.00    -0.312 C  
BRANCH  10  11
HETATM   11  C   UNL     1     -10.469  17.375  67.469  1.00  0.00    -0.354 A  
HETATM   12  C   UNL     1     -10.628  17.992  66.218  1.00  0.00    -0.262 A  
HETATM   13  C   UNL     1     -10.458  19.370  66.079  1.00  0.00    -0.596 A  
HETATM   14  C   UNL     1     -10.135  20.148  67.188  1.00  0.00    -0.590 A  
HETATM   15  C   UNL     1      -9.982  19.549  68.436  1.00  0.00    -0.540 A  
HETATM   16  C   UNL     1     -10.148  18.170  68.578  1.00  0.00    -0.413 A  
ENDBRANCH  10  11
ENDBRANCH   7  10
ENDBRANCH   3   6
TORSDOF 3
ENDMDL
MODEL        7
REMARK 921   NORMALIZED FREE ENERGY PREDICTED BY IDOCK:   -5.31 KCAL/MOL
REMARK 922        TOTAL FREE ENERGY PREDICTED BY IDOCK:   -6.57 KCAL/MOL
REMARK 923 INTER-LIGAND FREE ENERGY PREDICTED BY IDOCK:   -6.17 KCAL/MOL
REMARK 924 INTRA-LIGAND FREE ENERGY PREDICTED BY IDOCK:   -0.40 KCAL/MOL
REMARK 927      BINDING AFFINITY PREDICTED BY RF-SCORE:    0.00 PKD
ROOT
HETATM    1  N   UNL     1     -11.138  14.964  65.517  1.00  0.00    -0.340 N  
HETATM    2  H1  UNL     1     -10.299  15.208  66.045  1.00  0.00     0.000 HD 
HETATM    3  C   UNL     1     -12.131  14.230  66.059  1.00  0.00    -0.408 C  
HETATM    4  H2  UNL     1     -11.227  15.285  64.554  1.00  0.00     0.000 HD 
HETATM    5  O   UNL     1     -13.139  13.938  65.425  1.00  0.00    -0.752 OA 
ENDROOT
BRANCH   3   6
HETATM    6  N   UNL     1     -11.974  13.839  67.359  1.00  0.00    -0.392 N  
HETATM    7  C   UNL     1     -11.866  14.640  68.483  1.00  0.00    -0.311 C  
HETATM    8  H   UNL     1     -11.931  12.833  67.521  1.00  0.00     0.000 HD 
HETATM    9  O   UNL     1     -11.872  15.871  68.459  1.00  0.00    -0.366 OA 
BRANCH   7  10
HETATM   10  C   UNL     1     -11.715  13.865  69.779  1.00  0.00    -0.372 C  
BRANCH  10  11
HETATM   11  C   UNL     1     -12.268  14.595  70.977  1.00  0.00    -0.399 A  
HETATM   12  C   UNL     1     -11.413  15.278  71.856  1.00  0.00    -0.504 A  
HETATM   13  C   UNL     1     -11.928  15.981  72.946  1.00  0.00    -0.611 A  
HETATM   14  C   UNL     1     -13.303  16.019  73.164  1.00  0.00    -0.624 A  
HETATM   15  C   UNL     1     -14.163  15.352  72.295  1.00  0.00    -0.639 A  
HETATM   16  C   UNL     1     -13.650  14.644  71.206  1.00  0.00    -0.449 A  
ENDBRANCH  10  11
ENDBRANCH   7  10
ENDBRANCH   3   6
TORSDOF 3
ENDMDL
MODEL        8
REMARK 921   NORMALIZED FREE ENERGY PREDICTED BY IDOCK:   -5.18 KCAL/MOL
REMARK 922        TOTAL FREE ENERGY PREDICTED BY IDOCK:   -6.42 KCAL/MOL
REMARK 923 INTER-LIGAND FREE ENERGY PREDICTED BY IDOCK:   -6.07 KCAL/MOL
REMARK 924 INTRA-LIGAND FREE ENERGY PREDICTED BY IDOCK:   -0.35 KCAL/MOL
REMARK 927      BINDING AFFINITY PREDICTED BY RF-SCORE:    0.00 PKD
ROOT
HETATM    1  N   UNL     1     -12.218  13.343  62.977  1.00  0.00    -0.941 N  
HETATM    2  H1  UNL     1     -12.865  14.071  63.282  1.00  0.00     0.000 HD 
HETATM    3  C   UNL     1     -11.194  12.931  63.752  1.00  0.00    -0.402 C  
HETATM    4  H2  UNL     1     -12.350  12.915  62.062  1.00  0.00     0.000 HD 
HETATM    5  O   UNL     1     -10.418  12.055  63.386  1.00  0.00    -0.427 OA 
ENDROOT
BRANCH   3   6
HETATM    6  N   UNL     1     -11.068  13.520  64.978  1.00  0.00    -0.315 N  
HETATM    7  C   UNL     1     -12.076  13.960  65.820  1.00  0.00    -0.425 C  
HETATM    8  H   UNL     1     -10.115  13.654  65.315  1.00  0.00     0.000 HD 
HETATM    9  O   UNL     1     -13.276  13.899  65.554  1.00  0.00    -0.698 OA 
BRANCH   7  10
HETATM   10  C   UNL     1     -11.573  14.558  67.121  1.00  0.00    -0.406 C  
BRANCH  10  11
HETATM   11  C   UNL     1     -11.762  13.646  68.307  1.00  0.00    -0.398 A  
HETATM   12  C   UNL     1     -12.072  14.171  69.572  1.00  0.00    -0.388 A  
HETATM   13  C   UNL     1     -12.279  13.324  70.662  1.00  0.00    -0.417 A  
HETATM   14  C   UNL     1     -12.188  11.944  70.499  1.00  0.00    -0.426 A  
HETATM   15  C   UNL     1     -11.888  11.410  69.248  1.00  0.00    -0.417 A  
HETATM   16  C   UNL     1     -11.677  12.255  68.156  1.00  0.00    -0.408 A  
ENDBRANCH  10  11
ENDBRANCH   7  10
ENDBRANCH   3   6
TORSDOF 3
ENDMDL
MODEL        9
REMARK 921   NORMALIZED FREE ENERGY PREDICTED BY IDOCK:   -5.16 KCAL/MOL
REMARK 922        TOTAL FREE ENERGY PREDICTED BY IDOCK:   -6.39 KCAL/MOL
REMARK 923 INTER-LIGAND FREE ENERGY PREDICTED BY IDOCK:   -6.25 KCAL/MOL
REMARK 924 INTRA-LIGAND FREE ENERGY PREDICTED BY IDOCK:   -0.14 KCAL/MOL
REMARK 927      BINDING AFFINITY PREDICTED BY RF-SCORE:    0.00 PKD
ROOT
HETATM    1  N   UNL     1     -12.734  14.147  64.990  1.00  0.00    -0.679 N  
HETATM    2  H1  UNL     1     -12.904  15.152  64.940  1.00  0.00     0.000 HD 
HETATM    3  C   UNL     1     -12.437  13.532  66.153  1.00  0.00    -0.365 C  
HETATM    4  H2  UNL     1     -12.790  13.593  64.136  1.00  0.00     0.000 HD 
HETATM    5  O   UNL     1     -12.233  12.324  66.212  1.00  0.00    -0.628 OA 
ENDROOT
BRANCH   3   6
HETATM    6  N   UNL     1     -12.391  14.313  67.273  1.00  0.00    -0.592 N  
HETATM    7  C   UNL     1     -11.307  14.554  68.099  1.00  0.00    -0.298 C  
HETATM    8  H   UNL     1     -13.263  14.775  67.532  1.00  0.00     0.000 HD 
HETATM    9  O   UNL     1     -10.193  14.053  67.944  1.00  0.00    -0.232 OA 
BRANCH   7  10
HETATM   10  C   UNL     1     -11.610  15.490  69.255  1.00  0.00    -0.369 C  
BRANCH  10  11
HETATM   11  C   UNL     1     -12.410  14.838  70.355  1.00  0.00    -0.402 A  
HETATM   12  C   UNL     1     -13.322  15.586  71.117  1.00  0.00    -0.553 A  
HETATM   13  C   UNL     1     -14.086  14.975  72.112  1.00  0.00    -0.629 A  
HETATM   14  C   UNL     1     -13.955  13.609  72.350  1.00  0.00    -0.651 A  
HETATM   15  C   UNL     1     -13.060  12.854  71.597  1.00  0.00    -0.430 A  
HETATM   16  C   UNL     1     -12.291  13.463  70.602  1.00  0.00    -0.423 A  
ENDBRANCH  10  11
ENDBRANCH   7  10
ENDBRANCH   3   6
TORSDOF 3
ENDMDL
MODEL       10
REMARK 921   NORMALIZED FREE ENERGY PREDICTED BY IDOCK:   -5.16 KCAL/MOL
REMARK 922        TOTAL FREE ENERGY PREDICTED BY IDOCK:   -6.39 KCAL/MOL
REMARK 923 INTER-LIGAND FREE ENERGY PREDICTED BY IDOCK:   -6.09 KCAL/MOL
REMARK 924 INTRA-LIGAND FREE ENERGY PREDICTED BY IDOCK:   -0.30 KCAL/MOL
REMARK 927      BINDING AFFINITY PREDICTED BY RF-SCORE:    0.00 PKD
ROOT
HETATM    1  N   UNL     1     -12.354  13.997  63.294  1.00  0.00    -1.145 N  
HETATM    2  H1  UNL     1     -11.817  14.759  63.707  1.00  0.00     0.000 HD 
HETATM    3  C   UNL     1     -12.362  12.759  63.830  1.00  0.00    -0.446 C  
HETATM    4  H2  UNL     1     -12.901  14.176  62.452  1.00  0.00     0.000 HD 
HETATM    5  O   UNL     1     -13.008  11.843  63.333  1.00  0.00    -0.730 OA 
ENDROOT
BRANCH   3   6
HETATM    6  N   UNL     1     -11.629  12.572  64.967  1.00  0.00    -0.335 N  
HETATM    7  C   UNL     1     -11.783  13.197  66.193  1.00  0.00    -0.381 C  
HETATM    8  H   UNL     1     -10.875  11.888  64.906  1.00  0.00     0.000 HD 
HETATM    9  O   UNL     1     -12.624  14.065  66.426  1.00  0.00    -0.428 OA 
BRANCH   7  10
HETATM   10  C   UNL     1     -10.796  12.734  67.248  1.00  0.00    -0.277 C  
BRANCH  10  11
HETATM   11  C   UNL     1     -11.446  12.407  68.569  1.00  0.00    -0.350 A  
HETATM   12  C   UNL     1     -11.715  11.075  68.924  1.00  0.00    -0.400 A  
HETATM   13  C   UNL     1     -12.287  10.770  70.160  1.00  0.00    -0.401 A  
HETATM   14  C   UNL     1     -12.587  11.791  71.059  1.00  0.00    -0.409 A  
HETATM   15  C   UNL     1     -12.319  13.115  70.722  1.00  0.00    -0.404 A  
HETATM   16  C   UNL     1     -11.750  13.424  69.485  1.00  0.00    -0.385 A  
ENDBRANCH  10  11
ENDBRANCH   7  10
ENDBRANCH   3   6
TORSDOF 3
ENDMDL
MODEL       11
REMARK 921   NORMALIZED FREE ENERGY PREDICTED BY IDOCK:   -5.16 KCAL/MOL
REMARK 922        TOTAL FREE ENERGY PREDICTED BY IDOCK:   -6.39 KCAL/MOL
REMARK 923 INTER-LIGAND FREE ENERGY PREDICTED BY IDOCK:   -6.03 KCAL/MOL
REMARK 924 INTRA-LIGAND FREE ENERGY PREDICTED BY IDOCK:   -0.35 KCAL/MOL
REMARK 927      BINDING AFFINITY PREDICTED BY RF-SCORE:    0.00 PKD
ROOT
HETATM    1  N   UNL     1     -12.219  13.343  62.977  1.00  0.00    -0.941 N  
HETATM    2  H1  UNL     1     -12.870  14.071  63.273  1.00  0.00     0.000 HD 
HETATM    3  C   UNL     1     -11.210  12.927  63.769  1.00  0.00    -0.402 C  
HETATM    4  H2  UNL     1     -12.335  12.919  62.057  1.00  0.00     0.000 HD 
HETATM    5  O   UNL     1     -10.427  12.052  63.413  1.00  0.00    -0.427 OA 
ENDROOT
BRANCH   3   6
HETATM    6  N   UNL     1     -11.105  13.512  64.999  1.00  0.00    -0.315 N  
HETATM    7  C   UNL     1     -12.127  13.954  65.822  1.00  0.00    -0.425 C  
HETATM    8  H   UNL     1     -10.158  13.639  65.355  1.00  0.00     0.000 HD 
HETATM    9  O   UNL     1     -13.322  13.901  65.531  1.00  0.00    -0.662 OA 
BRANCH   7  10
HETATM   10  C   UNL     1     -11.647  14.545  67.135  1.00  0.00    -0.406 C  
BRANCH  10  11
HETATM   11  C   UNL     1     -11.870  13.633  68.315  1.00  0.00    -0.404 A  
HETATM   12  C   UNL     1     -11.772  12.240  68.171  1.00  0.00    -0.408 A  
HETATM   13  C   UNL     1     -11.945  11.398  69.270  1.00  0.00    -0.400 A  
HETATM   14  C   UNL     1     -12.209  11.937  70.526  1.00  0.00    -0.426 A  
HETATM   15  C   UNL     1     -12.301  13.318  70.684  1.00  0.00    -0.416 A  
HETATM   16  C   UNL     1     -12.132  14.163  69.586  1.00  0.00    -0.400 A  
ENDBRANCH  10  11
ENDBRANCH   7  10
ENDBRANCH   3   6
TORSDOF 3
ENDMDL
MODEL       12
REMARK 921   NORMALIZED FREE ENERGY PREDICTED BY IDOCK:   -5.07 KCAL/MOL
REMARK 922        TOTAL FREE ENERGY PREDICTED BY IDOCK:   -6.28 KCAL/MOL
REMARK 923 INTER-LIGAND FREE ENERGY PREDICTED BY IDOCK:   -6.01 KCAL/MOL
REMARK 924 INTRA-LIGAND FREE ENERGY PREDICTED BY IDOCK:   -0.27 KCAL/MOL
REMARK 927      BINDING AFFINITY PREDICTED BY RF-SCORE:    0.00 PKD
ROOT
HETATM    1  N   UNL     1     -13.273   9.850  70.707  1.00  0.00    -0.602 N  
HETATM    2  H1  UNL     1     -13.996  10.414  70.259  1.00  0.00     0.000 HD 
HETATM    3  C   UNL     1     -12.066  10.362  71.022  1.00  0.00    -0.385 C  
HETATM    4  H2  UNL     1     -13.470   8.873  70.924  1.00  0.00     0.000 HD 
HETATM    5  O   UNL     1     -11.197   9.685  71.561  1.00  0.00    -0.372 OA 
ENDROOT
BRANCH   3   6
HETATM    6  N   UNL     1     -11.856  11.680  70.729  1.00  0.00    -0.417 N  
HETATM    7  C   UNL     1     -11.910  12.296  69.491  1.00  0.00    -0.315 C  
HETATM    8  H   UNL     1     -11.631  12.284  71.520  1.00  0.00     0.000 HD 
HETATM    9  O   UNL     1     -12.140  11.709  68.434  1.00  0.00    -0.522 OA 
BRANCH   7  10
HETATM   10  C   UNL     1     -11.635  13.789  69.535  1.00  0.00    -0.355 C  
BRANCH  10  11
HETATM   11  C   UNL     1     -12.259  14.474  70.724  1.00  0.00    -0.403 A  
HETATM   12  C   UNL     1     -11.485  15.280  71.574  1.00  0.00    -0.457 A  
HETATM   13  C   UNL     1     -12.069  15.941  72.655  1.00  0.00    -0.615 A  
HETATM   14  C   UNL     1     -13.435  15.812  72.894  1.00  0.00    -0.666 A  
HETATM   15  C   UNL     1     -14.216  15.022  72.054  1.00  0.00    -0.649 A  
HETATM   16  C   UNL     1     -13.634  14.356  70.974  1.00  0.00    -0.256 A  
ENDBRANCH  10  11
ENDBRANCH   7  10
ENDBRANCH   3   6
TORSDOF 3
ENDMDL
MODEL       13
REMARK 921   NORMALIZED FREE ENERGY PREDICTED BY IDOCK:   -5.05 KCAL/MOL
REMARK 922        TOTAL FREE ENERGY PREDICTED BY IDOCK:   -6.26 KCAL/MOL
REMARK 923 INTER-LIGAND FREE ENERGY PREDICTED BY IDOCK:   -5.90 KCAL/MOL
REMARK 924 INTRA-LIGAND FREE ENERGY PREDICTED BY IDOCK:   -0.36 KCAL/MOL
REMARK 927      BINDING AFFINITY PREDICTED BY RF-SCORE:    0.00 PKD
ROOT
HETATM    1  N   UNL     1     -13.911  15.410  70.747  1.00  0.00    -0.859 N  
HETATM    2  H1  UNL     1     -13.873  15.461  69.729  1.00  0.00     0.000 HD 
HETATM    3  C   UNL     1     -12.843  15.708  71.514  1.00  0.00    -0.471 C  
HETATM    4  H2  UNL     1     -14.782  15.128  71.197  1.00  0.00     0.000 HD 
HETATM    5  O   UNL     1     -12.889  15.648  72.738  1.00  0.00    -0.375 OA 
ENDROOT
BRANCH   3   6
HETATM    6  N   UNL     1     -11.705  16.099  70.868  1.00  0.00    -0.535 N  
HETATM    7  C   UNL     1     -11.288  15.755  69.593  1.00  0.00    -0.334 C  
HETATM    8  H   UNL     1     -11.086  16.721  71.388  1.00  0.00     0.000 HD 
HETATM    9  O   UNL     1     -11.902  14.993  68.846  1.00  0.00    -0.320 OA 
BRANCH   7  10
HETATM   10  C   UNL     1      -9.969  16.386  69.186  1.00  0.00    -0.273 C  
BRANCH  10  11
HETATM   11  C   UNL     1     -10.136  17.581  68.280  1.00  0.00    -0.346 A  
HETATM   12  C   UNL     1      -9.999  18.884  68.783  1.00  0.00    -0.466 A  
HETATM   13  C   UNL     1     -10.122  19.988  67.938  1.00  0.00    -0.559 A  
HETATM   14  C   UNL     1     -10.372  19.802  66.580  1.00  0.00    -0.614 A  
HETATM   15  C   UNL     1     -10.503  18.514  66.068  1.00  0.00    -0.433 A  
HETATM   16  C   UNL     1     -10.385  17.407  66.911  1.00  0.00    -0.317 A  
ENDBRANCH  10  11
ENDBRANCH   7  10
ENDBRANCH   3   6
TORSDOF 3
ENDMDL
MODEL       14
REMARK 921   NORMALIZED FREE ENERGY PREDICTED BY IDOCK:   -5.03 KCAL/MOL
REMARK 922        TOTAL FREE ENERGY PREDICTED BY IDOCK:   -6.24 KCAL/MOL
REMARK 923 INTER-LIGAND FREE ENERGY PREDICTED BY IDOCK:   -5.97 KCAL/MOL
REMARK 924 INTRA-LIGAND FREE ENERGY PREDICTED BY IDOCK:   -0.27 KCAL/MOL
REMARK 927      BINDING AFFINITY PREDICTED BY RF-SCORE:    0.00 PKD
ROOT
HETATM    1  N   UNL     1     -12.419  14.381  63.796  1.00  0.00    -1.058 N  
HETATM    2  H1  UNL     1     -12.081  15.335  63.929  1.00  0.00     0.000 HD 
HETATM    3  C   UNL     1     -12.702  13.575  64.839  1.00  0.00    -0.287 C  
HETATM    4  H2  UNL     1     -12.546  14.029  62.848  1.00  0.00     0.000 HD 
HETATM    5  O   UNL     1     -13.108  12.429  64.680  1.00  0.00    -0.825 OA 
ENDROOT
BRANCH   3   6
HETATM    6  N   UNL     1     -12.533  14.098  66.091  1.00  0.00    -0.451 N  
HETATM    7  C   UNL     1     -11.345  14.374  66.745  1.00  0.00    -0.352 C  
HETATM    8  H   UNL     1     -13.387  14.311  66.606  1.00  0.00     0.000 HD 
HETATM    9  O   UNL     1     -10.228  14.151  66.278  1.00  0.00    -0.279 OA 
BRANCH   7  10
HETATM   10  C   UNL     1     -11.529  14.967  68.130  1.00  0.00    -0.355 C  
BRANCH  10  11
HETATM   11  C   UNL     1     -11.878  13.939  69.177  1.00  0.00    -0.401 A  
HETATM   12  C   UNL     1     -12.547  14.313  70.353  1.00  0.00    -0.405 A  
HETATM   13  C   UNL     1     -12.899  13.356  71.305  1.00  0.00    -0.407 A  
HETATM   14  C   UNL     1     -12.596  12.014  71.089  1.00  0.00    -0.372 A  
HETATM   15  C   UNL     1     -11.940  11.628  69.924  1.00  0.00    -0.414 A  
HETATM   16  C   UNL     1     -11.583  12.584  68.970  1.00  0.00    -0.365 A  
ENDBRANCH  10  11
ENDBRANCH   7  10
ENDBRANCH   3   6
TORSDOF 3
ENDMDL
MODEL       15
REMARK 921   NORMALIZED FREE ENERGY PREDICTED BY IDOCK:   -4.98 KCAL/MOL
REMARK 922        TOTAL FREE ENERGY PREDICTED BY IDOCK:   -6.18 KCAL/MOL
REMARK 923 INTER-LIGAND FREE ENERGY PREDICTED BY IDOCK:   -5.76 KCAL/MOL
REMARK 924 INTRA-LIGAND FREE ENERGY PREDICTED BY IDOCK:   -0.42 KCAL/MOL
REMARK 927      BINDING AFFINITY PREDICTED BY RF-SCORE:    0.00 PKD
ROOT
HETATM    1  N   UNL     1     -11.485  12.076  67.091  1.00  0.00    -0.334 N  
HETATM    2  H1  UNL     1     -11.208  12.010  68.071  1.00  0.00     0.000 HD 
HETATM    3  C   UNL     1     -12.085  13.178  66.595  1.00  0.00    -0.346 C  
HETATM    4  H2  UNL     1     -11.303  11.289  66.470  1.00  0.00     0.000 HD 
HETATM    5  O   UNL     1     -12.417  13.258  65.418  1.00  0.00    -0.454 OA 
ENDROOT
BRANCH   3   6
HETATM    6  N   UNL     1     -12.291  14.214  67.461  1.00  0.00    -0.560 N  
HETATM    7  C   UNL     1     -11.486  14.620  68.512  1.00  0.00    -0.302 C  
HETATM    8  H   UNL     1     -13.143  14.756  67.316  1.00  0.00     0.000 HD 
HETATM    9  O   UNL     1     -10.440  14.059  68.839  1.00  0.00    -0.236 OA 
BRANCH   7  10
HETATM   10  C   UNL     1     -12.017  15.827  69.263  1.00  0.00    -0.305 C  
BRANCH  10  11
HETATM   11  C   UNL     1     -12.379  15.524  70.696  1.00  0.00    -0.462 A  
HETATM   12  C   UNL     1     -13.306  14.516  71.002  1.00  0.00    -0.384 A  
HETATM   13  C   UNL     1     -13.615  14.213  72.328  1.00  0.00    -0.596 A  
HETATM   14  C   UNL     1     -12.996  14.908  73.364  1.00  0.00    -0.597 A  
HETATM   15  C   UNL     1     -12.069  15.906  73.074  1.00  0.00    -0.615 A  
HETATM   16  C   UNL     1     -11.759  16.214  71.748  1.00  0.00    -0.568 A  
ENDBRANCH  10  11
ENDBRANCH   7  10
ENDBRANCH   3   6
TORSDOF 3
ENDMDL
MODEL       16
REMARK 921   NORMALIZED FREE ENERGY PREDICTED BY IDOCK:   -4.93 KCAL/MOL
REMARK 922        TOTAL FREE ENERGY PREDICTED BY IDOCK:   -6.12 KCAL/MOL
REMARK 923 INTER-LIGAND FREE ENERGY PREDICTED BY IDOCK:   -5.96 KCAL/MOL
REMARK 924 INTRA-LIGAND FREE ENERGY PREDICTED BY IDOCK:   -0.16 KCAL/MOL
REMARK 927      BINDING AFFINITY PREDICTED BY RF-SCORE:    0.00 PKD
ROOT
HETATM    1  N   UNL     1     -12.636  15.274  63.815  1.00  0.00    -0.838 N  
HETATM    2  H1  UNL     1     -13.199  14.430  63.917  1.00  0.00     0.000 HD 
HETATM    3  C   UNL     1     -11.660  15.590  64.691  1.00  0.00    -0.281 C  
HETATM    4  H2  UNL     1     -12.815  15.897  63.028  1.00  0.00     0.000 HD 
HETATM    5  O   UNL     1     -10.983  16.604  64.567  1.00  0.00    -0.885 OA 
ENDROOT
BRANCH   3   6
HETATM    6  N   UNL     1     -11.443  14.716  65.718  1.00  0.00    -0.344 N  
HETATM    7  C   UNL     1     -12.117  13.537  65.991  1.00  0.00    -0.445 C  
HETATM    8  H   UNL     1     -10.694  14.962  66.365  1.00  0.00     0.000 HD 
HETATM    9  O   UNL     1     -13.063  13.111  65.328  1.00  0.00    -0.678 OA 
BRANCH   7  10
HETATM   10  C   UNL     1     -11.601  12.803  67.215  1.00  0.00    -0.420 C  
BRANCH  10  11
HETATM   11  C   UNL     1     -10.975  11.470  66.889  1.00  0.00    -0.350 A  
HETATM   12  C   UNL     1     -11.106  10.384  67.768  1.00  0.00    -0.365 A  
HETATM   13  C   UNL     1     -10.554   9.142  67.450  1.00  0.00    -0.315 A  
HETATM   14  C   UNL     1      -9.875   8.968  66.247  1.00  0.00    -0.361 A  
HETATM   15  C   UNL     1      -9.745  10.036  65.362  1.00  0.00    -0.368 A  
HETATM   16  C   UNL     1     -10.292  11.281  65.679  1.00  0.00    -0.310 A  
ENDBRANCH  10  11
ENDBRANCH   7  10
ENDBRANCH   3   6
TORSDOF 3
ENDMDL
MODEL       17
REMARK 921   NORMALIZED FREE ENERGY PREDICTED BY IDOCK:   -4.92 KCAL/MOL
REMARK 922        TOTAL FREE ENERGY PREDICTED BY IDOCK:   -6.11 KCAL/MOL
REMARK 923 INTER-LIGAND FREE ENERGY PREDICTED BY IDOCK:   -5.86 KCAL/MOL
REMARK 924 INTRA-LIGAND FREE ENERGY PREDICTED BY IDOCK:   -0.25 KCAL/MOL
REMARK 927      BINDING AFFINITY PREDICTED BY RF-SCORE:    0.00 PKD
ROOT
HETATM    1  N   UNL     1     -11.670  11.716  62.987  1.00  0.00    -0.851 N  
HETATM    2  H1  UNL     1     -11.364  10.838  63.407  1.00  0.00     0.000 HD 
HETATM    3  C   UNL     1     -12.222  12.702  63.722  1.00  0.00    -0.514 C  
HETATM    4  H2  UNL     1     -11.553  11.851  61.983  1.00  0.00     0.000 HD 
HETATM    5  O   UNL     1     -12.589  13.757  63.216  1.00  0.00    -0.830 OA 
ENDROOT
BRANCH   3   6
HETATM    6  N   UNL     1     -12.341  12.482  65.065  1.00  0.00    -0.483 N  
HETATM    7  C   UNL     1     -11.334  12.450  66.015  1.00  0.00    -0.353 C  
HETATM    8  H   UNL     1     -13.287  12.321  65.410  1.00  0.00     0.000 HD 
HETATM    9  O   UNL     1     -10.138  12.596  65.762  1.00  0.00    -0.265 OA 
BRANCH   7  10
HETATM   10  C   UNL     1     -11.829  12.191  67.427  1.00  0.00    -0.297 C  
BRANCH  10  11
HETATM   11  C   UNL     1     -11.853  13.431  68.285  1.00  0.00    -0.393 A  
HETATM   12  C   UNL     1     -12.008  13.335  69.677  1.00  0.00    -0.376 A  
HETATM   13  C   UNL     1     -11.997  14.480  70.474  1.00  0.00    -0.387 A  
HETATM   14  C   UNL     1     -11.822  15.733  69.891  1.00  0.00    -0.355 A  
HETATM   15  C   UNL     1     -11.660  15.842  68.512  1.00  0.00    -0.367 A  
HETATM   16  C   UNL     1     -11.674  14.698  67.711  1.00  0.00    -0.386 A  
ENDBRANCH  10  11
ENDBRANCH   7  10
ENDBRANCH   3   6
TORSDOF 3
ENDMDL
MODEL       18
REMARK 921   NORMALIZED FREE ENERGY PREDICTED BY IDOCK:   -4.89 KCAL/MOL
REMARK 922        TOTAL FREE ENERGY PREDICTED BY IDOCK:   -6.07 KCAL/MOL
REMARK 923 INTER-LIGAND FREE ENERGY PREDICTED BY IDOCK:   -5.74 KCAL/MOL
REMARK 924 INTRA-LIGAND FREE ENERGY PREDICTED BY IDOCK:   -0.33 KCAL/MOL
REMARK 927      BINDING AFFINITY PREDICTED BY RF-SCORE:    0.00 PKD
ROOT
HETATM    1  N   UNL     1     -13.712  15.807  73.026  1.00  0.00    -0.637 N  
HETATM    2  H1  UNL     1     -13.256  16.696  72.820  1.00  0.00     0.000 HD 
HETATM    3  C   UNL     1     -13.861  14.850  72.087  1.00  0.00    -0.471 C  
HETATM    4  H2  UNL     1     -14.063  15.636  73.968  1.00  0.00     0.000 HD 
HETATM    5  O   UNL     1     -14.408  13.781  72.334  1.00  0.00    -0.664 OA 
ENDROOT
BRANCH   3   6
HETATM    6  N   UNL     1     -13.358  15.117  70.845  1.00  0.00    -0.624 N  
HETATM    7  C   UNL     1     -12.033  15.281  70.480  1.00  0.00    -0.344 C  
HETATM    8  H   UNL     1     -14.043  15.207  70.094  1.00  0.00     0.000 HD 
HETATM    9  O   UNL     1     -11.087  15.232  71.266  1.00  0.00    -0.344 OA 
BRANCH   7  10
HETATM   10  C   UNL     1     -11.832  15.555  69.000  1.00  0.00    -0.373 C  
BRANCH  10  11
HETATM   11  C   UNL     1     -11.803  14.302  68.162  1.00  0.00    -0.374 A  
HETATM   12  C   UNL     1     -12.067  14.357  66.784  1.00  0.00    -0.393 A  
HETATM   13  C   UNL     1     -12.008  13.202  66.002  1.00  0.00    -0.488 A  
HETATM   14  C   UNL     1     -11.674  11.982  66.586  1.00  0.00    -0.331 A  
HETATM   15  C   UNL     1     -11.402  11.916  67.950  1.00  0.00    -0.358 A  
HETATM   16  C   UNL     1     -11.465  13.069  68.736  1.00  0.00    -0.340 A  
ENDBRANCH  10  11
ENDBRANCH   7  10
ENDBRANCH   3   6
TORSDOF 3
ENDMDL
MODEL       19
REMARK 921   NORMALIZED FREE ENERGY PREDICTED BY IDOCK:   -4.88 KCAL/MOL
REMARK 922        TOTAL FREE ENERGY PREDICTED BY IDOCK:   -6.07 KCAL/MOL
REMARK 923 INTER-LIGAND FREE ENERGY PREDICTED BY IDOCK:   -5.95 KCAL/MOL
REMARK 924 INTRA-LIGAND FREE ENERGY PREDICTED BY IDOCK:   -0.12 KCAL/MOL
REMARK 927      BINDING AFFINITY PREDICTED BY RF-SCORE:    0.00 PKD
ROOT
HETATM    1  N   UNL     1     -10.305  16.333  66.202  1.00  0.00    -0.328 N  
HETATM    2  H1  UNL     1      -9.863  15.612  66.772  1.00  0.00     0.000 HD 
HETATM    3  C   UNL     1     -10.815  16.063  64.983  1.00  0.00    -0.404 C  
HETATM    4  H2  UNL     1     -10.362  17.285  66.563  1.00  0.00     0.000 HD 
HETATM    5  O   UNL     1     -11.347  16.929  64.298  1.00  0.00    -1.202 OA 
ENDROOT
BRANCH   3   6
HETATM    6  N   UNL     1     -10.732  14.770  64.549  1.00  0.00    -0.605 N  
HETATM    7  C   UNL     1     -11.769  13.898  64.266  1.00  0.00    -0.380 C  
HETATM    8  H   UNL     1      -9.789  14.402  64.419  1.00  0.00     0.000 HD 
HETATM    9  O   UNL     1     -12.961  14.173  64.397  1.00  0.00    -0.503 OA 
BRANCH   7  10
HETATM   10  C   UNL     1     -11.310  12.531  63.789  1.00  0.00    -0.534 C  
BRANCH  10  11
HETATM   11  C   UNL     1     -10.966  11.592  64.918  1.00  0.00    -0.345 A  
HETATM   12  C   UNL     1     -10.041  10.553  64.727  1.00  0.00    -0.406 A  
HETATM   13  C   UNL     1      -9.698   9.705  65.781  1.00  0.00    -0.350 A  
HETATM   14  C   UNL     1     -10.266   9.891  67.039  1.00  0.00    -0.294 A  
HETATM   15  C   UNL     1     -11.179  10.923  67.243  1.00  0.00    -0.307 A  
HETATM   16  C   UNL     1     -11.527  11.771  66.190  1.00  0.00    -0.288 A  
ENDBRANCH  10  11
ENDBRANCH   7  10
ENDBRANCH   3   6
TORSDOF 3
ENDMDL
MODEL       20
REMARK 921   NORMALIZED FREE ENERGY PREDICTED BY IDOCK:   -4.87 KCAL/MOL
REMARK 922        TOTAL FREE ENERGY PREDICTED BY IDOCK:   -6.05 KCAL/MOL
REMARK 923 INTER-LIGAND FREE ENERGY PREDICTED BY IDOCK:   -5.75 KCAL/MOL
REMARK 924 INTRA-LIGAND FREE ENERGY PREDICTED BY IDOCK:   -0.30 KCAL/MOL
REMARK 927      BINDING AFFINITY PREDICTED BY RF-SCORE:    0.00 PKD
ROOT
HETATM    1  N   UNL     1     -12.435  14.088  63.561  1.00  0.00    -1.099 N  
HETATM    2  H1  UNL     1     -12.325  13.132  63.897  1.00  0.00     0.000 HD 
HETATM    3  C   UNL     1     -12.024  15.149  64.285  1.00  0.00    -0.262 C  
HETATM    4  H2  UNL     1     -12.867  14.247  62.651  1.00  0.00     0.000 HD 
HETATM    5  O   UNL     1     -12.156  16.299  63.880  1.00  0.00    -0.986 OA 
ENDROOT
BRANCH   3   6
HETATM    6  N   UNL     1     -11.434  14.886  65.489  1.00  0.00    -0.335 N  
HETATM    7  C   UNL     1     -11.654  13.806  66.327  1.00  0.00    -0.350 C  
HETATM    8  H   UNL     1     -10.748  15.570  65.810  1.00  0.00     0.000 HD 
HETATM    9  O   UNL     1     -12.466  12.909  66.103  1.00  0.00    -0.485 OA 
BRANCH   7  10
HETATM   10  C   UNL     1     -10.809  13.826  67.589  1.00  0.00    -0.264 C  
BRANCH  10  11
HETATM   11  C   UNL     1     -11.016  12.613  68.461  1.00  0.00    -0.292 A  
HETATM   12  C   UNL     1     -10.363  11.404  68.173  1.00  0.00    -0.206 A  
HETATM   13  C   UNL     1     -10.528  10.292  69.000  1.00  0.00    -0.238 A  
HETATM   14  C   UNL     1     -11.340  10.378  70.128  1.00  0.00    -0.397 A  
HETATM   15  C   UNL     1     -11.987  11.573  70.430  1.00  0.00    -0.459 A  
HETATM   16  C   UNL     1     -11.827  12.687  69.603  1.00  0.00    -0.379 A  
ENDBRANCH  10  11
ENDBRANCH   7  10
ENDBRANCH   3   6
TORSDOF 3
ENDMDL
MODEL       21
REMARK 921   NORMALIZED FREE ENERGY PREDICTED BY IDOCK:   -4.86 KCAL/MOL
REMARK 922        TOTAL FREE ENERGY PREDICTED BY IDOCK:   -6.04 KCAL/MOL
REMARK 923 INTER-LIGAND FREE ENERGY PREDICTED BY IDOCK:   -6.05 KCAL/MOL
REMARK 924 INTRA-LIGAND FREE ENERGY PREDICTED BY IDOCK:    0.01 KCAL/MOL
REMARK 927      BINDING AFFINITY PREDICTED BY RF-SCORE:    0.00 PKD
ROOT
HETATM    1  N   UNL     1     -11.269  11.305  62.962  1.00  0.00    -0.835 N  
HETATM    2  H1  UNL     1     -10.304  11.590  62.790  1.00  0.00     0.000 HD 
HETATM    3  C   UNL     1     -12.211  12.185  63.358  1.00  0.00    -0.530 C  
HETATM    4  H2  UNL     1     -11.527  10.328  62.830  1.00  0.00     0.000 HD 
HETATM    5  O   UNL     1     -13.370  11.843  63.564  1.00  0.00    -0.605 OA 
ENDROOT
BRANCH   3   6
HETATM    6  N   UNL     1     -11.821  13.487  63.503  1.00  0.00    -0.733 N  
HETATM    7  C   UNL     1     -12.238  14.399  64.457  1.00  0.00    -0.463 C  
HETATM    8  H   UNL     1     -11.140  13.828  62.825  1.00  0.00     0.000 HD 
HETATM    9  O   UNL     1     -13.073  14.158  65.328  1.00  0.00    -0.763 OA 
BRANCH   7  10
HETATM   10  C   UNL     1     -11.584  15.764  64.330  1.00  0.00    -0.240 C  
BRANCH  10  11
HETATM   11  C   UNL     1     -10.530  16.018  65.379  1.00  0.00    -0.415 A  
HETATM   12  C   UNL     1     -10.387  17.290  65.955  1.00  0.00    -0.312 A  
HETATM   13  C   UNL     1      -9.434  17.517  66.949  1.00  0.00    -0.278 A  
HETATM   14  C   UNL     1      -8.621  16.474  67.385  1.00  0.00    -0.193 A  
HETATM   15  C   UNL     1      -8.758  15.206  66.827  1.00  0.00    -0.307 A  
HETATM   16  C   UNL     1      -9.708  14.976  65.829  1.00  0.00    -0.375 A  
ENDBRANCH  10  11
ENDBRANCH   7  10
ENDBRANCH   3   6
TORSDOF 3
ENDMDL
MODEL       22
REMARK 921   NORMALIZED FREE ENERGY PREDICTED BY IDOCK:   -4.80 KCAL/MOL
REMARK 922        TOTAL FREE ENERGY PREDICTED BY IDOCK:   -5.96 KCAL/MOL
REMARK 923 INTER-LIGAND FREE ENERGY PREDICTED BY IDOCK:   -5.54 KCAL/MOL
REMARK 924 INTRA-LIGAND FREE ENERGY PREDICTED BY IDOCK:   -0.42 KCAL/MOL
REMARK 927      BINDING AFFINITY PREDICTED BY RF-SCORE:    0.00 PKD
ROOT
HETATM    1  N   UNL     1     -11.270   5.880  71.610  1.00  0.00    -0.263 N  
HETATM    2  H1  UNL     1     -11.445   6.131  72.584  1.00  0.00     0.000 HD 
HETATM    3  C   UNL     1     -11.776   6.599  70.588  1.00  0.00    -0.394 C  
HETATM    4  H2  UNL     1     -10.696   5.063  71.405  1.00  0.00     0.000 HD 
HETATM    5  O   UNL     1     -11.565   6.297  69.418  1.00  0.00    -0.403 OA 
ENDROOT
BRANCH   3   6
HETATM    6  N   UNL     1     -12.524   7.696  70.912  1.00  0.00    -0.527 N  
HETATM    7  C   UNL     1     -12.199   8.720  71.785  1.00  0.00    -0.349 C  
HETATM    8  H   UNL     1     -13.433   7.769  70.454  1.00  0.00     0.000 HD 
HETATM    9  O   UNL     1     -11.157   8.771  72.437  1.00  0.00    -0.327 OA 
BRANCH   7  10
HETATM   10  C   UNL     1     -13.266   9.795  71.896  1.00  0.00    -0.545 C  
BRANCH  10  11
HETATM   11  C   UNL     1     -12.814  11.138  71.379  1.00  0.00    -0.544 A  
HETATM   12  C   UNL     1     -12.066  11.234  70.196  1.00  0.00    -0.448 A  
HETATM   13  C   UNL     1     -11.676  12.479  69.700  1.00  0.00    -0.372 A  
HETATM   14  C   UNL     1     -12.038  13.642  70.376  1.00  0.00    -0.421 A  
HETATM   15  C   UNL     1     -12.787  13.561  71.547  1.00  0.00    -0.440 A  
HETATM   16  C   UNL     1     -13.175  12.316  72.048  1.00  0.00    -0.508 A  
ENDBRANCH  10  11
ENDBRANCH   7  10
ENDBRANCH   3   6
TORSDOF 3
ENDMDL
MODEL       23
REMARK 921   NORMALIZED FREE ENERGY PREDICTED BY IDOCK:   -4.77 KCAL/MOL
REMARK 922        TOTAL FREE ENERGY PREDICTED BY IDOCK:   -5.93 KCAL/MOL
REMARK 923 INTER-LIGAND FREE ENERGY PREDICTED BY IDOCK:   -6.04 KCAL/MOL
REMARK 924 INTRA-LIGAND FREE ENERGY PREDICTED BY IDOCK:    0.12 KCAL/MOL
REMARK 927      BINDING AFFINITY PREDICTED BY RF-SCORE:    0.00 PKD
ROOT
HETATM    1  N   UNL     1     -10.936  11.308  63.022  1.00  0.00    -0.836 N  
HETATM    2  H1  UNL     1     -10.002  11.208  63.421  1.00  0.00     0.000 HD 
HETATM    3  C   UNL     1     -11.941  11.895  63.704  1.00  0.00    -0.476 C  
HETATM    4  H2  UNL     1     -11.114  10.955  62.083  1.00  0.00     0.000 HD 
HETATM    5  O   UNL     1     -13.063  12.016  63.225  1.00  0.00    -0.701 OA 
ENDROOT
BRANCH   3   6
HETATM    6  N   UNL     1     -11.649  12.369  64.952  1.00  0.00    -0.331 N  
HETATM    7  C   UNL     1     -12.292  13.375  65.652  1.00  0.00    -0.470 C  
HETATM    8  H   UNL     1     -10.861  11.928  65.425  1.00  0.00     0.000 HD 
HETATM    9  O   UNL     1     -13.241  14.027  65.215  1.00  0.00    -0.782 OA 
BRANCH   7  10
HETATM   10  C   UNL     1     -11.708  13.636  67.029  1.00  0.00    -0.419 C  
BRANCH  10  11
HETATM   11  C   UNL     1     -11.108  15.013  67.169  1.00  0.00    -0.332 A  
HETATM   12  C   UNL     1     -10.457  15.624  66.086  1.00  0.00    -0.327 A  
HETATM   13  C   UNL     1      -9.932  16.911  66.207  1.00  0.00    -0.324 A  
HETATM   14  C   UNL     1     -10.060  17.606  67.407  1.00  0.00    -0.331 A  
HETATM   15  C   UNL     1     -10.710  17.015  68.487  1.00  0.00    -0.352 A  
HETATM   16  C   UNL     1     -11.234  15.725  68.371  1.00  0.00    -0.362 A  
ENDBRANCH  10  11
ENDBRANCH   7  10
ENDBRANCH   3   6
TORSDOF 3
ENDMDL
MODEL       24
REMARK 921   NORMALIZED FREE ENERGY PREDICTED BY IDOCK:   -4.75 KCAL/MOL
REMARK 922        TOTAL FREE ENERGY PREDICTED BY IDOCK:   -5.90 KCAL/MOL
REMARK 923 INTER-LIGAND FREE ENERGY PREDICTED BY IDOCK:   -5.63 KCAL/MOL
REMARK 924 INTRA-LIGAND FREE ENERGY PREDICTED BY IDOCK:   -0.27 KCAL/MOL
REMARK 927      BINDING AFFINITY PREDICTED BY RF-SCORE:    0.00 PKD
ROOT
HETATM    1  N   UNL     1     -11.336  12.468  64.014  1.00  0.00    -0.371 N  
HETATM    2  H1  UNL     1     -10.439  12.111  64.344  1.00  0.00     0.000 HD 
HETATM    3  C   UNL     1     -11.657  13.774  64.100  1.00  0.00    -0.331 C  
HETATM    4  H2  UNL     1     -12.008  11.818  63.607  1.00  0.00     0.000 HD 
HETATM    5  O   UNL     1     -12.735  14.203  63.703  1.00  0.00    -0.790 OA 
ENDROOT
BRANCH   3   6
HETATM    6  N   UNL     1     -10.718  14.610  64.635  1.00  0.00    -0.609 N  
HETATM    7  C   UNL     1     -10.657  15.107  65.926  1.00  0.00    -0.337 C  
HETATM    8  H   UNL     1      -9.970  14.904  64.007  1.00  0.00     0.000 HD 
HETATM    9  O   UNL     1     -11.493  14.874  66.798  1.00  0.00    -0.347 OA 
BRANCH   7  10
HETATM   10  C   UNL     1      -9.459  16.004  66.183  1.00  0.00    -0.371 C  
BRANCH  10  11
HETATM   11  C   UNL     1      -9.834  17.343  66.768  1.00  0.00    -0.297 A  
HETATM   12  C   UNL     1      -9.574  17.633  68.116  1.00  0.00    -0.297 A  
HETATM   13  C   UNL     1      -9.891  18.884  68.648  1.00  0.00    -0.463 A  
HETATM   14  C   UNL     1     -10.460  19.862  67.837  1.00  0.00    -0.505 A  
HETATM   15  C   UNL     1     -10.716  19.590  66.495  1.00  0.00    -0.535 A  
HETATM   16  C   UNL     1     -10.404  18.338  65.961  1.00  0.00    -0.377 A  
ENDBRANCH  10  11
ENDBRANCH   7  10
ENDBRANCH   3   6
TORSDOF 3
ENDMDL
MODEL       25
REMARK 921   NORMALIZED FREE ENERGY PREDICTED BY IDOCK:   -4.74 KCAL/MOL
REMARK 922        TOTAL FREE ENERGY PREDICTED BY IDOCK:   -5.90 KCAL/MOL
REMARK 923 INTER-LIGAND FREE ENERGY PREDICTED BY IDOCK:   -5.53 KCAL/MOL
REMARK 924 INTRA-LIGAND FREE ENERGY PREDICTED BY IDOCK:   -0.37 KCAL/MOL
REMARK 927      BINDING AFFINITY PREDICTED BY RF-SCORE:    0.00 PKD
ROOT
HETATM    1  N   UNL     1     -10.070  17.897  66.294  1.00  0.00    -0.355 N  
HETATM    2  H1  UNL     1     -11.072  18.090  66.297  1.00  0.00     0.000 HD 
HETATM    3  C   UNL     1      -9.585  16.658  66.079  1.00  0.00    -0.266 C  
HETATM    4  H2  UNL     1      -9.418  18.663  66.459  1.00  0.00     0.000 HD 
HETATM    5  O   UNL     1      -8.381  16.426  66.075  1.00  0.00    -0.319 OA 
ENDROOT
BRANCH   3   6
HETATM    6  N   UNL     1     -10.496  15.667  65.844  1.00  0.00    -0.325 N  
HETATM    7  C   UNL     1     -11.377  15.554  64.782  1.00  0.00    -0.357 C  
HETATM    8  H   UNL     1     -10.533  14.920  66.537  1.00  0.00     0.000 HD 
HETATM    9  O   UNL     1     -11.480  16.381  63.877  1.00  0.00    -1.063 OA 
BRANCH   7  10
HETATM   10  C   UNL     1     -12.244  14.308  64.832  1.00  0.00    -0.449 C  
BRANCH  10  11
HETATM   11  C   UNL     1     -11.446  13.028  64.826  1.00  0.00    -0.363 A  
HETATM   12  C   UNL     1     -11.214  12.325  66.019  1.00  0.00    -0.375 A  
HETATM   13  C   UNL     1     -10.505  11.123  66.008  1.00  0.00    -0.312 A  
HETATM   14  C   UNL     1     -10.028  10.606  64.806  1.00  0.00    -0.391 A  
HETATM   15  C   UNL     1     -10.259  11.290  63.615  1.00  0.00    -0.446 A  
HETATM   16  C   UNL     1     -10.965  12.494  63.623  1.00  0.00    -0.507 A  
ENDBRANCH  10  11
ENDBRANCH   7  10
ENDBRANCH   3   6
TORSDOF 3
ENDMDL
MODEL       26
REMARK 921   NORMALIZED FREE ENERGY PREDICTED BY IDOCK:   -4.74 KCAL/MOL
REMARK 922        TOTAL FREE ENERGY PREDICTED BY IDOCK:   -5.89 KCAL/MOL
REMARK 923 INTER-LIGAND FREE ENERGY PREDICTED BY IDOCK:   -5.46 KCAL/MOL
REMARK 924 INTRA-LIGAND FREE ENERGY PREDICTED BY IDOCK:   -0.44 KCAL/MOL
REMARK 927      BINDING AFFINITY PREDICTED BY RF-SCORE:    0.00 PKD
ROOT
HETATM    1  N   UNL     1     -11.611  14.966  71.334  1.00  0.00    -0.459 N  
HETATM    2  H1  UNL     1     -10.655  14.774  71.036  1.00  0.00     0.000 HD 
HETATM    3  C   UNL     1     -12.551  15.404  70.472  1.00  0.00    -0.423 C  
HETATM    4  H2  UNL     1     -11.864  14.822  72.311  1.00  0.00     0.000 HD 
HETATM    5  O   UNL     1     -13.701  15.635  70.831  1.00  0.00    -0.549 OA 
ENDROOT
BRANCH   3   6
HETATM    6  N   UNL     1     -12.170  15.565  69.169  1.00  0.00    -0.598 N  
HETATM    7  C   UNL     1     -11.471  14.677  68.371  1.00  0.00    -0.311 C  
HETATM    8  H   UNL     1     -12.434  16.448  68.732  1.00  0.00     0.000 HD 
HETATM    9  O   UNL     1     -11.055  13.583  68.751  1.00  0.00    -0.246 OA 
BRANCH   7  10
HETATM   10  C   UNL     1     -11.230  15.178  66.958  1.00  0.00    -0.308 C  
BRANCH  10  11
HETATM   11  C   UNL     1     -11.365  14.100  65.913  1.00  0.00    -0.323 A  
HETATM   12  C   UNL     1     -12.625  13.578  65.582  1.00  0.00    -0.512 A  
HETATM   13  C   UNL     1     -12.753  12.604  64.591  1.00  0.00    -0.458 A  
HETATM   14  C   UNL     1     -11.625  12.147  63.914  1.00  0.00    -0.532 A  
HETATM   15  C   UNL     1     -10.370  12.661  64.228  1.00  0.00    -0.399 A  
HETATM   16  C   UNL     1     -10.238  13.634  65.221  1.00  0.00    -0.341 A  
ENDBRANCH  10  11
ENDBRANCH   7  10
ENDBRANCH   3   6
TORSDOF 3
ENDMDL
MODEL       27
REMARK 921   NORMALIZED FREE ENERGY PREDICTED BY IDOCK:   -4.74 KCAL/MOL
REMARK 922        TOTAL FREE ENERGY PREDICTED BY IDOCK:   -5.89 KCAL/MOL
REMARK 923 INTER-LIGAND FREE ENERGY PREDICTED BY IDOCK:   -5.44 KCAL/MOL
REMARK 924 INTRA-LIGAND FREE ENERGY PREDICTED BY IDOCK:   -0.45 KCAL/MOL
REMARK 927      BINDING AFFINITY PREDICTED BY RF-SCORE:    0.00 PKD
ROOT
HETATM    1  N   UNL     1     -10.644  14.805  70.008  1.00  0.00    -0.466 N  
HETATM    2  H1  UNL     1      -9.993  14.335  69.377  1.00  0.00     0.000 HD 
HETATM    3  C   UNL     1     -11.950  14.950  69.704  1.00  0.00    -0.320 C  
HETATM    4  H2  UNL     1     -10.297  15.174  70.892  1.00  0.00     0.000 HD 
HETATM    5  O   UNL     1     -12.732  15.514  70.461  1.00  0.00    -0.434 OA 
ENDROOT
BRANCH   3   6
HETATM    6  N   UNL     1     -12.372  14.422  68.516  1.00  0.00    -0.594 N  
HETATM    7  C   UNL     1     -11.798  14.573  67.265  1.00  0.00    -0.392 C  
HETATM    8  H   UNL     1     -13.213  13.847  68.555  1.00  0.00     0.000 HD 
HETATM    9  O   UNL     1     -10.799  15.256  67.039  1.00  0.00    -0.312 OA 
BRANCH   7  10
HETATM   10  C   UNL     1     -12.528  13.831  66.160  1.00  0.00    -0.466 C  
BRANCH  10  11
HETATM   11  C   UNL     1     -11.702  12.736  65.533  1.00  0.00    -0.436 A  
HETATM   12  C   UNL     1     -11.429  12.745  64.156  1.00  0.00    -0.450 A  
HETATM   13  C   UNL     1     -10.637  11.750  63.581  1.00  0.00    -0.496 A  
HETATM   14  C   UNL     1     -10.101  10.741  64.377  1.00  0.00    -0.419 A  
HETATM   15  C   UNL     1     -10.357  10.725  65.746  1.00  0.00    -0.295 A  
HETATM   16  C   UNL     1     -11.152  11.717  66.323  1.00  0.00    -0.364 A  
ENDBRANCH  10  11
ENDBRANCH   7  10
ENDBRANCH   3   6
TORSDOF 3
ENDMDL
MODEL       28
REMARK 921   NORMALIZED FREE ENERGY PREDICTED BY IDOCK:   -4.72 KCAL/MOL
REMARK 922        TOTAL FREE ENERGY PREDICTED BY IDOCK:   -5.87 KCAL/MOL
REMARK 923 INTER-LIGAND FREE ENERGY PREDICTED BY IDOCK:   -6.00 KCAL/MOL
REMARK 924 INTRA-LIGAND FREE ENERGY PREDICTED BY IDOCK:    0.13 KCAL/MOL
REMARK 927      BINDING AFFINITY PREDICTED BY RF-SCORE:    0.00 PKD
ROOT
HETATM    1  N   UNL     1     -13.552   8.113  71.259  1.00  0.00    -0.552 N  
HETATM    2  H1  UNL     1     -14.448   8.369  70.844  1.00  0.00     0.000 HD 
HETATM    3  C   UNL     1     -12.849   8.976  72.020  1.00  0.00    -0.401 C  
HETATM    4  H2  UNL     1     -13.177   7.180  71.093  1.00  0.00     0.000 HD 
HETATM    5  O   UNL     1     -11.772   8.670  72.520  1.00  0.00    -0.361 OA 
ENDROOT
BRANCH   3   6
HETATM    6  N   UNL     1     -13.400  10.209  72.229  1.00  0.00    -0.590 N  
HETATM    7  C   UNL     1     -13.031  11.415  71.658  1.00  0.00    -0.418 C  
HETATM    8  H   UNL     1     -14.179  10.246  72.887  1.00  0.00     0.000 HD 
HETATM    9  O   UNL     1     -12.096  11.550  70.868  1.00  0.00    -0.349 OA 
BRANCH   7  10
HETATM   10  C   UNL     1     -13.875  12.593  72.109  1.00  0.00    -0.263 C  
BRANCH  10  11
HETATM   11  C   UNL     1     -13.147  13.912  72.027  1.00  0.00    -0.480 A  
HETATM   12  C   UNL     1     -12.819  14.622  73.192  1.00  0.00    -0.586 A  
HETATM   13  C   UNL     1     -12.116  15.826  73.117  1.00  0.00    -0.603 A  
HETATM   14  C   UNL     1     -11.727  16.329  71.878  1.00  0.00    -0.518 A  
HETATM   15  C   UNL     1     -12.040  15.630  70.715  1.00  0.00    -0.454 A  
HETATM   16  C   UNL     1     -12.746  14.427  70.786  1.00  0.00    -0.427 A  
ENDBRANCH  10  11
ENDBRANCH   7  10
ENDBRANCH   3   6
TORSDOF 3
ENDMDL
MODEL       29
REMARK 921   NORMALIZED FREE ENERGY PREDICTED BY IDOCK:   -4.71 KCAL/MOL
REMARK 922        TOTAL FREE ENERGY PREDICTED BY IDOCK:   -5.86 KCAL/MOL
REMARK 923 INTER-LIGAND FREE ENERGY PREDICTED BY IDOCK:   -5.45 KCAL/MOL
REMARK 924 INTRA-LIGAND FREE ENERGY PREDICTED BY IDOCK:   -0.41 KCAL/MOL
REMARK 927      BINDING AFFINITY PREDICTED BY RF-SCORE:    0.00 PKD
ROOT
HETATM    1  N   UNL     1     -14.190  15.385  71.044  1.00  0.00    -0.846 N  
HETATM    2  H1  UNL     1     -14.084  15.904  70.172  1.00  0.00     0.000 HD 
HETATM    3  C   UNL     1     -13.447  14.294  71.318  1.00  0.00    -0.311 C  
HETATM    4  H2  UNL     1     -14.876  15.702  71.729  1.00  0.00     0.000 HD 
HETATM    5  O   UNL     1     -13.573  13.671  72.366  1.00  0.00    -0.515 OA 
ENDROOT
BRANCH   3   6
HETATM    6  N   UNL     1     -12.527  13.919  70.379  1.00  0.00    -0.344 N  
HETATM    7  C   UNL     1     -11.735  14.734  69.590  1.00  0.00    -0.314 C  
HETATM    8  H   UNL     1     -12.412  12.914  70.242  1.00  0.00     0.000 HD 
HETATM    9  O   UNL     1     -11.770  15.964  69.610  1.00  0.00    -0.333 OA 
BRANCH   7  10
HETATM   10  C   UNL     1     -10.808  13.975  68.657  1.00  0.00    -0.272 C  
BRANCH  10  11
HETATM   11  C   UNL     1     -11.194  14.101  67.204  1.00  0.00    -0.330 A  
HETATM   12  C   UNL     1     -10.576  15.055  66.380  1.00  0.00    -0.310 A  
HETATM   13  C   UNL     1     -10.909  15.148  65.028  1.00  0.00    -0.457 A  
HETATM   14  C   UNL     1     -11.855  14.285  64.482  1.00  0.00    -0.456 A  
HETATM   15  C   UNL     1     -12.470  13.329  65.287  1.00  0.00    -0.543 A  
HETATM   16  C   UNL     1     -12.142  13.235  66.641  1.00  0.00    -0.421 A  
ENDBRANCH  10  11
ENDBRANCH   7  10
ENDBRANCH   3   6
TORSDOF 3
ENDMDL
MODEL       30
REMARK 921   NORMALIZED FREE ENERGY PREDICTED BY IDOCK:   -4.71 KCAL/MOL
REMARK 922        TOTAL FREE ENERGY PREDICTED BY IDOCK:   -5.86 KCAL/MOL
REMARK 923 INTER-LIGAND FREE ENERGY PREDICTED BY IDOCK:   -5.56 KCAL/MOL
REMARK 924 INTRA-LIGAND FREE ENERGY PREDICTED BY IDOCK:   -0.30 KCAL/MOL
REMARK 927      BINDING AFFINITY PREDICTED BY RF-SCORE:    0.00 PKD
ROOT
HETATM    1  N   UNL     1      -8.577  18.436  68.374  1.00  0.00    -0.319 N  
HETATM    2  H1  UNL     1      -8.333  17.464  68.180  1.00  0.00     0.000 HD 
HETATM    3  C   UNL     1      -9.819  18.796  68.754  1.00  0.00    -0.384 C  
HETATM    4  H2  UNL     1      -7.860  19.155  68.277  1.00  0.00     0.000 HD 
HETATM    5  O   UNL     1     -10.111  19.964  68.987  1.00  0.00    -0.434 OA 
ENDROOT
BRANCH   3   6
HETATM    6  N   UNL     1     -10.741  17.796  68.888  1.00  0.00    -0.308 N  
HETATM    7  C   UNL     1     -10.517  16.470  69.215  1.00  0.00    -0.326 C  
HETATM    8  H   UNL     1     -11.713  18.059  68.726  1.00  0.00     0.000 HD 
HETATM    9  O   UNL     1      -9.404  15.983  69.414  1.00  0.00    -0.254 OA 
BRANCH   7  10
HETATM   10  C   UNL     1     -11.782  15.633  69.290  1.00  0.00    -0.388 C  
BRANCH  10  11
HETATM   11  C   UNL     1     -12.216  15.337  70.704  1.00  0.00    -0.412 A  
HETATM   12  C   UNL     1     -12.920  14.161  71.005  1.00  0.00    -0.399 A  
HETATM   13  C   UNL     1     -13.293  13.872  72.318  1.00  0.00    -0.599 A  
HETATM   14  C   UNL     1     -12.958  14.749  73.346  1.00  0.00    -0.550 A  
HETATM   15  C   UNL     1     -12.254  15.916  73.062  1.00  0.00    -0.609 A  
HETATM   16  C   UNL     1     -11.882  16.210  71.749  1.00  0.00    -0.581 A  
ENDBRANCH  10  11
ENDBRANCH   7  10
ENDBRANCH   3   6
TORSDOF 3
ENDMDL
MODEL       31
REMARK 921   NORMALIZED FREE ENERGY PREDICTED BY IDOCK:   -4.70 KCAL/MOL
REMARK 922        TOTAL FREE ENERGY PREDICTED BY IDOCK:   -5.85 KCAL/MOL
REMARK 923 INTER-LIGAND FREE ENERGY PREDICTED BY IDOCK:   -5.74 KCAL/MOL
REMARK 924 INTRA-LIGAND FREE ENERGY PREDICTED BY IDOCK:   -0.11 KCAL/MOL
REMARK 927      BINDING AFFINITY PREDICTED BY RF-SCORE:    0.00 PKD
ROOT
HETATM    1  N   UNL     1     -10.330  19.930  69.444  1.00  0.00    -0.575 N  
HETATM    2  H1  UNL     1     -11.068  19.932  70.149  1.00  0.00     0.000 HD 
HETATM    3  C   UNL     1     -10.096  18.856  68.663  1.00  0.00    -0.388 C  
HETATM    4  H2  UNL     1      -9.755  20.763  69.326  1.00  0.00     0.000 HD 
HETATM    5  O   UNL     1      -9.210  18.854  67.815  1.00  0.00    -0.287 OA 
ENDROOT
BRANCH   3   6
HETATM    6  N   UNL     1     -10.904  17.769  68.844  1.00  0.00    -0.218 N  
HETATM    7  C   UNL     1     -10.538  16.490  69.227  1.00  0.00    -0.327 C  
HETATM    8  H   UNL     1     -11.899  17.919  68.677  1.00  0.00     0.000 HD 
HETATM    9  O   UNL     1      -9.379  16.135  69.439  1.00  0.00    -0.252 OA 
BRANCH   7  10
HETATM   10  C   UNL     1     -11.705  15.526  69.345  1.00  0.00    -0.382 C  
BRANCH  10  11
HETATM   11  C   UNL     1     -12.378  15.570  70.694  1.00  0.00    -0.462 A  
HETATM   12  C   UNL     1     -11.691  16.046  71.821  1.00  0.00    -0.593 A  
HETATM   13  C   UNL     1     -12.325  16.118  73.063  1.00  0.00    -0.625 A  
HETATM   14  C   UNL     1     -13.655  15.723  73.189  1.00  0.00    -0.588 A  
HETATM   15  C   UNL     1     -14.350  15.255  72.077  1.00  0.00    -0.689 A  
HETATM   16  C   UNL     1     -13.717  15.179  70.834  1.00  0.00    -0.352 A  
ENDBRANCH  10  11
ENDBRANCH   7  10
ENDBRANCH   3   6
TORSDOF 3
ENDMDL
MODEL       32
REMARK 921   NORMALIZED FREE ENERGY PREDICTED BY IDOCK:   -4.70 KCAL/MOL
REMARK 922        TOTAL FREE ENERGY PREDICTED BY IDOCK:   -5.85 KCAL/MOL
REMARK 923 INTER-LIGAND FREE ENERGY PREDICTED BY IDOCK:   -5.42 KCAL/MOL
REMARK 924 INTRA-LIGAND FREE ENERGY PREDICTED BY IDOCK:   -0.43 KCAL/MOL
REMARK 927      BINDING AFFINITY PREDICTED BY RF-SCORE:    0.00 PKD
ROOT
HETATM    1  N   UNL     1     -13.225  11.128  71.978  1.00  0.00    -0.538 N  
HETATM    2  H1  UNL     1     -12.732  10.379  71.492  1.00  0.00     0.000 HD 
HETATM    3  C   UNL     1     -13.019  12.426  71.680  1.00  0.00    -0.305 C  
HETATM    4  H2  UNL     1     -13.894  10.887  72.709  1.00  0.00     0.000 HD 
HETATM    5  O   UNL     1     -13.612  13.326  72.264  1.00  0.00    -0.536 OA 
ENDROOT
BRANCH   3   6
HETATM    6  N   UNL     1     -12.127  12.699  70.681  1.00  0.00    -0.507 N  
HETATM    7  C   UNL     1     -11.927  11.999  69.504  1.00  0.00    -0.283 C  
HETATM    8  H   UNL     1     -11.536  13.518  70.821  1.00  0.00     0.000 HD 
HETATM    9  O   UNL     1     -12.536  10.975  69.194  1.00  0.00    -0.432 OA 
BRANCH   7  10
HETATM   10  C   UNL     1     -10.856  12.595  68.608  1.00  0.00    -0.281 C  
BRANCH  10  11
HETATM   11  C   UNL     1     -11.300  12.758  67.176  1.00  0.00    -0.365 A  
HETATM   12  C   UNL     1     -10.863  11.865  66.185  1.00  0.00    -0.334 A  
HETATM   13  C   UNL     1     -11.301  11.997  64.867  1.00  0.00    -0.366 A  
HETATM   14  C   UNL     1     -12.187  13.015  64.525  1.00  0.00    -0.476 A  
HETATM   15  C   UNL     1     -12.634  13.904  65.500  1.00  0.00    -0.560 A  
HETATM   16  C   UNL     1     -12.195  13.777  66.820  1.00  0.00    -0.440 A  
ENDBRANCH  10  11
ENDBRANCH   7  10
ENDBRANCH   3   6
TORSDOF 3
ENDMDL
MODEL       33
REMARK 921   NORMALIZED FREE ENERGY PREDICTED BY IDOCK:   -4.69 KCAL/MOL
REMARK 922        TOTAL FREE ENERGY PREDICTED BY IDOCK:   -5.84 KCAL/MOL
REMARK 923 INTER-LIGAND FREE ENERGY PREDICTED BY IDOCK:   -5.43 KCAL/MOL
REMARK 924 INTRA-LIGAND FREE ENERGY PREDICTED BY IDOCK:   -0.41 KCAL/MOL
REMARK 927      BINDING AFFINITY PREDICTED BY RF-SCORE:    0.00 PKD
ROOT
HETATM    1  N   UNL     1     -12.176  14.175  68.372  1.00  0.00    -0.569 N  
HETATM    2  H1  UNL     1     -11.750  13.514  67.722  1.00  0.00     0.000 HD 
HETATM    3  C   UNL     1     -12.235  13.934  69.697  1.00  0.00    -0.321 C  
HETATM    4  H2  UNL     1     -12.567  15.044  68.008  1.00  0.00     0.000 HD 
HETATM    5  O   UNL     1     -12.746  14.729  70.478  1.00  0.00    -0.344 OA 
ENDROOT
BRANCH   3   6
HETATM    6  N   UNL     1     -11.681  12.765  70.139  1.00  0.00    -0.535 N  
HETATM    7  C   UNL     1     -11.689  11.530  69.516  1.00  0.00    -0.346 C  
HETATM    8  H   UNL     1     -11.203  12.809  71.040  1.00  0.00     0.000 HD 
HETATM    9  O   UNL     1     -12.244  11.299  68.442  1.00  0.00    -0.604 OA 
BRANCH   7  10
HETATM   10  C   UNL     1     -10.961  10.445  70.290  1.00  0.00    -0.353 C  
BRANCH  10  11
HETATM   11  C   UNL     1     -11.873   9.346  70.775  1.00  0.00    -0.323 A  
HETATM   12  C   UNL     1     -13.113   9.651  71.358  1.00  0.00    -0.471 A  
HETATM   13  C   UNL     1     -13.971   8.633  71.776  1.00  0.00    -0.492 A  
HETATM   14  C   UNL     1     -13.603   7.300  71.609  1.00  0.00    -0.435 A  
HETATM   15  C   UNL     1     -12.379   6.984  71.026  1.00  0.00    -0.402 A  
HETATM   16  C   UNL     1     -11.517   8.001  70.609  1.00  0.00    -0.237 A  
ENDBRANCH  10  11
ENDBRANCH   7  10
ENDBRANCH   3   6
TORSDOF 3
ENDMDL
MODEL       34
REMARK 921   NORMALIZED FREE ENERGY PREDICTED BY IDOCK:   -4.69 KCAL/MOL
REMARK 922        TOTAL FREE ENERGY PREDICTED BY IDOCK:   -5.83 KCAL/MOL
REMARK 923 INTER-LIGAND FREE ENERGY PREDICTED BY IDOCK:   -5.56 KCAL/MOL
REMARK 924 INTRA-LIGAND FREE ENERGY PREDICTED BY IDOCK:   -0.27 KCAL/MOL
REMARK 927      BINDING AFFINITY PREDICTED BY RF-SCORE:    0.00 PKD
ROOT
HETATM    1  N   UNL     1     -10.251  10.594  62.595  1.00  0.00    -0.757 N  
HETATM    2  H1  UNL     1     -10.467  11.216  61.815  1.00  0.00     0.000 HD 
HETATM    3  C   UNL     1     -10.360  10.996  63.877  1.00  0.00    -0.372 C  
HETATM    4  H2  UNL     1      -9.944   9.641  62.398  1.00  0.00     0.000 HD 
HETATM    5  O   UNL     1     -10.101  10.249  64.814  1.00  0.00    -0.344 OA 
ENDROOT
BRANCH   3   6
HETATM    6  N   UNL     1     -10.792  12.275  64.091  1.00  0.00    -0.332 N  
HETATM    7  C   UNL     1     -12.077  12.772  63.965  1.00  0.00    -0.457 C  
HETATM    8  H   UNL     1     -10.079  12.946  64.378  1.00  0.00     0.000 HD 
HETATM    9  O   UNL     1     -13.046  12.105  63.601  1.00  0.00    -0.787 OA 
BRANCH   7  10
HETATM   10  C   UNL     1     -12.201  14.248  64.296  1.00  0.00    -0.451 C  
BRANCH  10  11
HETATM   11  C   UNL     1     -11.434  14.647  65.532  1.00  0.00    -0.341 A  
HETATM   12  C   UNL     1     -11.921  14.332  66.810  1.00  0.00    -0.462 A  
HETATM   13  C   UNL     1     -11.194  14.672  67.952  1.00  0.00    -0.318 A  
HETATM   14  C   UNL     1      -9.968  15.321  67.829  1.00  0.00    -0.224 A  
HETATM   15  C   UNL     1      -9.470  15.632  66.567  1.00  0.00    -0.300 A  
HETATM   16  C   UNL     1     -10.196  15.297  65.423  1.00  0.00    -0.414 A  
ENDBRANCH  10  11
ENDBRANCH   7  10
ENDBRANCH   3   6
TORSDOF 3
ENDMDL
MODEL       35
REMARK 921   NORMALIZED FREE ENERGY PREDICTED BY IDOCK:   -4.69 KCAL/MOL
REMARK 922        TOTAL FREE ENERGY PREDICTED BY IDOCK:   -5.83 KCAL/MOL
REMARK 923 INTER-LIGAND FREE ENERGY PREDICTED BY IDOCK:   -5.42 KCAL/MOL
REMARK 924 INTRA-LIGAND FREE ENERGY PREDICTED BY IDOCK:   -0.41 KCAL/MOL
REMARK 927      BINDING AFFINITY PREDICTED BY RF-SCORE:    0.00 PKD
ROOT
HETATM    1  N   UNL     1     -10.182  18.557  68.885  1.00  0.00    -0.466 N  
HETATM    2  H1  UNL     1     -10.354  18.230  69.836  1.00  0.00     0.000 HD 
HETATM    3  C   UNL     1     -10.474  17.798  67.809  1.00  0.00    -0.397 C  
HETATM    4  H2  UNL     1      -9.780  19.483  68.744  1.00  0.00     0.000 HD 
HETATM    5  O   UNL     1     -10.268  18.191  66.666  1.00  0.00    -0.343 OA 
ENDROOT
BRANCH   3   6
HETATM    6  N   UNL     1     -11.028  16.572  68.047  1.00  0.00    -0.346 N  
HETATM    7  C   UNL     1     -10.678  15.654  69.022  1.00  0.00    -0.236 C  
HETATM    8  H   UNL     1     -11.793  16.300  67.430  1.00  0.00     0.000 HD 
HETATM    9  O   UNL     1      -9.761  15.814  69.827  1.00  0.00    -0.275 OA 
BRANCH   7  10
HETATM   10  C   UNL     1     -11.519  14.391  69.008  1.00  0.00    -0.314 C  
BRANCH  10  11
HETATM   11  C   UNL     1     -12.397  14.247  70.226  1.00  0.00    -0.418 A  
HETATM   12  C   UNL     1     -13.125  15.342  70.717  1.00  0.00    -0.468 A  
HETATM   13  C   UNL     1     -13.962  15.200  71.824  1.00  0.00    -0.627 A  
HETATM   14  C   UNL     1     -14.089  13.960  72.447  1.00  0.00    -0.586 A  
HETATM   15  C   UNL     1     -13.378  12.864  71.965  1.00  0.00    -0.579 A  
HETATM   16  C   UNL     1     -12.537  13.004  70.860  1.00  0.00    -0.364 A  
ENDBRANCH  10  11
ENDBRANCH   7  10
ENDBRANCH   3   6
TORSDOF 3
ENDMDL
MODEL       36
REMARK 921   NORMALIZED FREE ENERGY PREDICTED BY IDOCK:   -4.65 KCAL/MOL
REMARK 922        TOTAL FREE ENERGY PREDICTED BY IDOCK:   -5.79 KCAL/MOL
REMARK 923 INTER-LIGAND FREE ENERGY PREDICTED BY IDOCK:   -5.38 KCAL/MOL
REMARK 924 INTRA-LIGAND FREE ENERGY PREDICTED BY IDOCK:   -0.41 KCAL/MOL
REMARK 927      BINDING AFFINITY PREDICTED BY RF-SCORE:    0.00 PKD
ROOT
HETATM    1  N   UNL     1     -13.017  10.628  71.741  1.00  0.00    -0.471 N  
HETATM    2  H1  UNL     1     -12.493   9.957  71.180  1.00  0.00     0.000 HD 
HETATM    3  C   UNL     1     -12.888  11.959  71.563  1.00  0.00    -0.316 C  
HETATM    4  H2  UNL     1     -13.655  10.284  72.457  1.00  0.00     0.000 HD 
HETATM    5  O   UNL     1     -13.518  12.766  72.237  1.00  0.00    -0.565 OA 
ENDROOT
BRANCH   3   6
HETATM    6  N   UNL     1     -12.034  12.373  70.579  1.00  0.00    -0.520 N  
HETATM    7  C   UNL     1     -11.877  11.843  69.310  1.00  0.00    -0.318 C  
HETATM    8  H   UNL     1     -11.440  13.169  70.809  1.00  0.00     0.000 HD 
HETATM    9  O   UNL     1     -12.495  10.867  68.885  1.00  0.00    -0.431 OA 
BRANCH   7  10
HETATM   10  C   UNL     1     -10.840  12.564  68.467  1.00  0.00    -0.271 C  
BRANCH  10  11
HETATM   11  C   UNL     1     -11.242  12.702  67.020  1.00  0.00    -0.348 A  
HETATM   12  C   UNL     1     -12.117  13.721  66.613  1.00  0.00    -0.471 A  
HETATM   13  C   UNL     1     -12.461  13.868  65.269  1.00  0.00    -0.504 A  
HETATM   14  C   UNL     1     -11.929  13.005  64.315  1.00  0.00    -0.466 A  
HETATM   15  C   UNL     1     -11.053  11.994  64.704  1.00  0.00    -0.375 A  
HETATM   16  C   UNL     1     -10.709  11.842  66.049  1.00  0.00    -0.326 A  
ENDBRANCH  10  11
ENDBRANCH   7  10
ENDBRANCH   3   6
TORSDOF 3
ENDMDL
MODEL       37
REMARK 921   NORMALIZED FREE ENERGY PREDICTED BY IDOCK:   -4.65 KCAL/MOL
REMARK 922        TOTAL FREE ENERGY PREDICTED BY IDOCK:   -5.79 KCAL/MOL
REMARK 923 INTER-LIGAND FREE ENERGY PREDICTED BY IDOCK:   -5.51 KCAL/MOL
REMARK 924 INTRA-LIGAND FREE ENERGY PREDICTED BY IDOCK:   -0.29 KCAL/MOL
REMARK 927      BINDING AFFINITY PREDICTED BY RF-SCORE:    0.00 PKD
ROOT
HETATM    1  N   UNL     1     -12.078   6.583  72.167  1.00  0.00    -0.462 N  
HETATM    2  H1  UNL     1     -11.108   6.845  71.991  1.00  0.00     0.000 HD 
HETATM    3  C   UNL     1     -13.109   7.307  71.687  1.00  0.00    -0.369 C  
HETATM    4  H2  UNL     1     -12.273   5.749  72.720  1.00  0.00     0.000 HD 
HETATM    5  O   UNL     1     -14.275   6.991  71.898  1.00  0.00    -0.343 OA 
ENDROOT
BRANCH   3   6
HETATM    6  N   UNL     1     -12.799   8.406  70.937  1.00  0.00    -0.488 N  
HETATM    7  C   UNL     1     -11.752   9.293  71.117  1.00  0.00    -0.325 C  
HETATM    8  H   UNL     1     -13.414   8.596  70.146  1.00  0.00     0.000 HD 
HETATM    9  O   UNL     1     -10.936   9.224  72.037  1.00  0.00    -0.315 OA 
BRANCH   7  10
HETATM   10  C   UNL     1     -11.697  10.400  70.080  1.00  0.00    -0.394 C  
BRANCH  10  11
HETATM   11  C   UNL     1     -12.246  11.713  70.582  1.00  0.00    -0.461 A  
HETATM   12  C   UNL     1     -13.039  11.761  71.740  1.00  0.00    -0.480 A  
HETATM   13  C   UNL     1     -13.518  12.979  72.222  1.00  0.00    -0.645 A  
HETATM   14  C   UNL     1     -13.204  14.163  71.560  1.00  0.00    -0.423 A  
HETATM   15  C   UNL     1     -12.412  14.130  70.415  1.00  0.00    -0.424 A  
HETATM   16  C   UNL     1     -11.933  12.912  69.927  1.00  0.00    -0.377 A  
ENDBRANCH  10  11
ENDBRANCH   7  10
ENDBRANCH   3   6
TORSDOF 3
ENDMDL
MODEL       38
REMARK 921   NORMALIZED FREE ENERGY PREDICTED BY IDOCK:   -4.63 KCAL/MOL
REMARK 922        TOTAL FREE ENERGY PREDICTED BY IDOCK:   -5.77 KCAL/MOL
REMARK 923 INTER-LIGAND FREE ENERGY PREDICTED BY IDOCK:   -5.43 KCAL/MOL
REMARK 924 INTRA-LIGAND FREE ENERGY PREDICTED BY IDOCK:   -0.34 KCAL/MOL
REMARK 927      BINDING AFFINITY PREDICTED BY RF-SCORE:    0.00 PKD
ROOT
HETATM    1  N   UNL     1     -11.467  12.402  69.985  1.00  0.00    -0.526 N  
HETATM    2  H1  UNL     1     -11.342  12.432  70.997  1.00  0.00     0.000 HD 
HETATM    3  C   UNL     1     -12.039  11.346  69.370  1.00  0.00    -0.291 C  
HETATM    4  H2  UNL     1     -11.152  13.192  69.422  1.00  0.00     0.000 HD 
HETATM    5  O   UNL     1     -12.190  11.310  68.154  1.00  0.00    -0.622 OA 
ENDROOT
BRANCH   3   6
HETATM    6  N   UNL     1     -12.462  10.320  70.167  1.00  0.00    -0.518 N  
HETATM    7  C   UNL     1     -13.028  10.398  71.427  1.00  0.00    -0.443 C  
HETATM    8  H   UNL     1     -12.346   9.380  69.786  1.00  0.00     0.000 HD 
HETATM    9  O   UNL     1     -13.212  11.449  72.041  1.00  0.00    -0.503 OA 
BRANCH   7  10
HETATM   10  C   UNL     1     -13.395   9.049  72.021  1.00  0.00    -0.494 C  
BRANCH  10  11
HETATM   11  C   UNL     1     -12.262   8.055  71.984  1.00  0.00    -0.374 A  
HETATM   12  C   UNL     1     -11.245   8.092  72.951  1.00  0.00    -0.389 A  
HETATM   13  C   UNL     1     -10.215   7.150  72.935  1.00  0.00    -0.266 A  
HETATM   14  C   UNL     1     -10.194   6.157  71.959  1.00  0.00    -0.223 A  
HETATM   15  C   UNL     1     -11.201   6.105  70.999  1.00  0.00    -0.361 A  
HETATM   16  C   UNL     1     -12.231   7.047  71.009  1.00  0.00    -0.419 A  
ENDBRANCH  10  11
ENDBRANCH   7  10
ENDBRANCH   3   6
TORSDOF 3
ENDMDL
MODEL       39
REMARK 921   NORMALIZED FREE ENERGY PREDICTED BY IDOCK:   -4.62 KCAL/MOL
REMARK 922        TOTAL FREE ENERGY PREDICTED BY IDOCK:   -5.75 KCAL/MOL
REMARK 923 INTER-LIGAND FREE ENERGY PREDICTED BY IDOCK:   -5.34 KCAL/MOL
REMARK 924 INTRA-LIGAND FREE ENERGY PREDICTED BY IDOCK:   -0.41 KCAL/MOL
REMARK 927      BINDING AFFINITY PREDICTED BY RF-SCORE:    0.00 PKD
ROOT
HETATM    1  N   UNL     1      -9.832  20.236  66.100  1.00  0.00    -0.639 N  
HETATM    2  H1  UNL     1      -9.391  19.911  65.239  1.00  0.00     0.000 HD 
HETATM    3  C   UNL     1     -10.117  19.395  67.115  1.00  0.00    -0.384 C  
HETATM    4  H2  UNL     1     -10.063  21.224  66.195  1.00  0.00     0.000 HD 
HETATM    5  O   UNL     1     -10.646  19.786  68.149  1.00  0.00    -0.413 OA 
ENDROOT
BRANCH   3   6
HETATM    6  N   UNL     1      -9.772  18.083  66.948  1.00  0.00    -0.300 N  
HETATM    7  C   UNL     1     -10.067  17.254  65.879  1.00  0.00    -0.211 C  
HETATM    8  H   UNL     1      -9.231  17.663  67.704  1.00  0.00     0.000 HD 
HETATM    9  O   UNL     1     -10.733  17.595  64.902  1.00  0.00    -0.646 OA 
BRANCH   7  10
HETATM   10  C   UNL     1      -9.511  15.849  66.020  1.00  0.00    -0.389 C  
BRANCH  10  11
HETATM   11  C   UNL     1     -10.540  14.774  65.771  1.00  0.00    -0.338 A  
HETATM   12  C   UNL     1     -10.682  14.201  64.498  1.00  0.00    -0.323 A  
HETATM   13  C   UNL     1     -11.611  13.183  64.276  1.00  0.00    -0.440 A  
HETATM   14  C   UNL     1     -12.402  12.722  65.325  1.00  0.00    -0.546 A  
HETATM   15  C   UNL     1     -12.266  13.277  66.595  1.00  0.00    -0.359 A  
HETATM   16  C   UNL     1     -11.339  14.298  66.819  1.00  0.00    -0.357 A  
ENDBRANCH  10  11
ENDBRANCH   7  10
ENDBRANCH   3   6
TORSDOF 3
ENDMDL
MODEL       40
REMARK 921   NORMALIZED FREE ENERGY PREDICTED BY IDOCK:   -4.60 KCAL/MOL
REMARK 922        TOTAL FREE ENERGY PREDICTED BY IDOCK:   -5.74 KCAL/MOL
REMARK 923 INTER-LIGAND FREE ENERGY PREDICTED BY IDOCK:   -5.33 KCAL/MOL
REMARK 924 INTRA-LIGAND FREE ENERGY PREDICTED BY IDOCK:   -0.41 KCAL/MOL
REMARK 927      BINDING AFFINITY PREDICTED BY RF-SCORE:    0.00 PKD
ROOT
HETATM    1  N   UNL     1     -12.431  13.276  71.092  1.00  0.00    -0.350 N  
HETATM    2  H1  UNL     1     -11.769  12.628  70.665  1.00  0.00     0.000 HD 
HETATM    3  C   UNL     1     -13.367  12.860  71.969  1.00  0.00    -0.482 C  
HETATM    4  H2  UNL     1     -12.384  14.265  70.849  1.00  0.00     0.000 HD 
HETATM    5  O   UNL     1     -14.163  13.639  72.483  1.00  0.00    -0.724 OA 
ENDROOT
BRANCH   3   6
HETATM    6  N   UNL     1     -13.381  11.529  72.278  1.00  0.00    -0.538 N  
HETATM    7  C   UNL     1     -13.052  10.462  71.460  1.00  0.00    -0.431 C  
HETATM    8  H   UNL     1     -13.668  11.293  73.228  1.00  0.00     0.000 HD 
HETATM    9  O   UNL     1     -12.713  10.571  70.282  1.00  0.00    -0.310 OA 
BRANCH   7  10
HETATM   10  C   UNL     1     -13.166   9.109  72.139  1.00  0.00    -0.524 C  
BRANCH  10  11
HETATM   11  C   UNL     1     -12.007   8.193  71.838  1.00  0.00    -0.367 A  
HETATM   12  C   UNL     1     -12.183   7.056  71.034  1.00  0.00    -0.419 A  
HETATM   13  C   UNL     1     -11.103   6.226  70.729  1.00  0.00    -0.377 A  
HETATM   14  C   UNL     1      -9.833   6.529  71.216  1.00  0.00    -0.197 A  
HETATM   15  C   UNL     1      -9.644   7.658  72.008  1.00  0.00    -0.200 A  
HETATM   16  C   UNL     1     -10.723   8.488  72.318  1.00  0.00    -0.411 A  
ENDBRANCH  10  11
ENDBRANCH   7  10
ENDBRANCH   3   6
TORSDOF 3
ENDMDL
MODEL       41
REMARK 921   NORMALIZED FREE ENERGY PREDICTED BY IDOCK:   -4.60 KCAL/MOL
REMARK 922        TOTAL FREE ENERGY PREDICTED BY IDOCK:   -5.73 KCAL/MOL
REMARK 923 INTER-LIGAND FREE ENERGY PREDICTED BY IDOCK:   -5.55 KCAL/MOL
REMARK 924 INTRA-LIGAND FREE ENERGY PREDICTED BY IDOCK:   -0.19 KCAL/MOL
REMARK 927      BINDING AFFINITY PREDICTED BY RF-SCORE:    0.00 PKD
ROOT
HETATM    1  N   UNL     1     -11.168  11.398  62.963  1.00  0.00    -0.844 N  
HETATM    2  H1  UNL     1     -10.237  11.535  63.358  1.00  0.00     0.000 HD 
HETATM    3  C   UNL     1     -12.276  11.867  63.573  1.00  0.00    -0.482 C  
HETATM    4  H2  UNL     1     -11.263  10.893  62.083  1.00  0.00     0.000 HD 
HETATM    5  O   UNL     1     -13.394  11.703  63.097  1.00  0.00    -0.410 OA 
ENDROOT
BRANCH   3   6
HETATM    6  N   UNL     1     -12.097  12.553  64.741  1.00  0.00    -0.417 N  
HETATM    7  C   UNL     1     -12.223  13.915  64.956  1.00  0.00    -0.425 C  
HETATM    8  H   UNL     1     -11.839  11.994  65.553  1.00  0.00     0.000 HD 
HETATM    9  O   UNL     1     -12.500  14.733  64.079  1.00  0.00    -0.803 OA 
BRANCH   7  10
HETATM   10  C   UNL     1     -11.964  14.337  66.391  1.00  0.00    -0.438 C  
BRANCH  10  11
HETATM   11  C   UNL     1     -10.560  14.837  66.620  1.00  0.00    -0.299 A  
HETATM   12  C   UNL     1      -9.654  14.096  67.396  1.00  0.00    -0.229 A  
HETATM   13  C   UNL     1      -8.345  14.543  67.580  1.00  0.00    -0.201 A  
HETATM   14  C   UNL     1      -7.923  15.728  66.984  1.00  0.00    -0.272 A  
HETATM   15  C   UNL     1      -8.809  16.469  66.205  1.00  0.00    -0.364 A  
HETATM   16  C   UNL     1     -10.121  16.027  66.022  1.00  0.00    -0.362 A  
ENDBRANCH  10  11
ENDBRANCH   7  10
ENDBRANCH   3   6
TORSDOF 3
ENDMDL
MODEL       42
REMARK 921   NORMALIZED FREE ENERGY PREDICTED BY IDOCK:   -4.59 KCAL/MOL
REMARK 922        TOTAL FREE ENERGY PREDICTED BY IDOCK:   -5.72 KCAL/MOL
REMARK 923 INTER-LIGAND FREE ENERGY PREDICTED BY IDOCK:   -5.62 KCAL/MOL
REMARK 924 INTRA-LIGAND FREE ENERGY PREDICTED BY IDOCK:   -0.10 KCAL/MOL
REMARK 927      BINDING AFFINITY PREDICTED BY RF-SCORE:    0.00 PKD
ROOT
HETATM    1  N   UNL     1     -13.912   9.086  72.865  1.00  0.00    -0.896 N  
HETATM    2  H1  UNL     1     -13.344   9.850  73.233  1.00  0.00     0.000 HD 
HETATM    3  C   UNL     1     -13.721   8.593  71.624  1.00  0.00    -0.384 C  
HETATM    4  H2  UNL     1     -14.643   8.685  73.451  1.00  0.00     0.000 HD 
HETATM    5  O   UNL     1     -14.403   7.675  71.182  1.00  0.00    -0.352 OA 
ENDROOT
BRANCH   3   6
HETATM    6  N   UNL     1     -12.718   9.150  70.883  1.00  0.00    -0.508 N  
HETATM    7  C   UNL     1     -12.341  10.480  70.822  1.00  0.00    -0.378 C  
HETATM    8  H   UNL     1     -12.180   8.506  70.302  1.00  0.00     0.000 HD 
HETATM    9  O   UNL     1     -12.902  11.388  71.437  1.00  0.00    -0.413 OA 
BRANCH   7  10
HETATM   10  C   UNL     1     -11.167  10.746  69.898  1.00  0.00    -0.371 C  
BRANCH  10  11
HETATM   11  C   UNL     1     -11.451  11.807  68.864  1.00  0.00    -0.357 A  
HETATM   12  C   UNL     1     -11.491  11.483  67.499  1.00  0.00    -0.355 A  
HETATM   13  C   UNL     1     -11.787  12.458  66.545  1.00  0.00    -0.407 A  
HETATM   14  C   UNL     1     -12.056  13.765  66.946  1.00  0.00    -0.454 A  
HETATM   15  C   UNL     1     -12.027  14.097  68.298  1.00  0.00    -0.367 A  
HETATM   16  C   UNL     1     -11.728  13.125  69.254  1.00  0.00    -0.376 A  
ENDBRANCH  10  11
ENDBRANCH   7  10
ENDBRANCH   3   6
TORSDOF 3
ENDMDL
MODEL       43
REMARK 921   NORMALIZED FREE ENERGY PREDICTED BY IDOCK:   -4.58 KCAL/MOL
REMARK 922        TOTAL FREE ENERGY PREDICTED BY IDOCK:   -5.71 KCAL/MOL
REMARK 923 INTER-LIGAND FREE ENERGY PREDICTED BY IDOCK:   -5.30 KCAL/MOL
REMARK 924 INTRA-LIGAND FREE ENERGY PREDICTED BY IDOCK:   -0.42 KCAL/MOL
REMARK 927      BINDING AFFINITY PREDICTED BY RF-SCORE:    0.00 PKD
ROOT
HETATM    1  N   UNL     1     -11.169  14.868  71.520  1.00  0.00    -0.556 N  
HETATM    2  H1  UNL     1     -10.463  14.133  71.489  1.00  0.00     0.000 HD 
HETATM    3  C   UNL     1     -12.220  14.883  70.675  1.00  0.00    -0.318 C  
HETATM    4  H2  UNL     1     -11.078  15.613  72.211  1.00  0.00     0.000 HD 
HETATM    5  O   UNL     1     -13.068  15.767  70.714  1.00  0.00    -0.522 OA 
ENDROOT
BRANCH   3   6
HETATM    6  N   UNL     1     -12.309  13.855  69.779  1.00  0.00    -0.316 N  
HETATM    7  C   UNL     1     -11.345  13.415  68.889  1.00  0.00    -0.287 C  
HETATM    8  H   UNL     1     -13.195  13.350  69.765  1.00  0.00     0.000 HD 
HETATM    9  O   UNL     1     -10.235  13.931  68.759  1.00  0.00    -0.233 OA 
BRANCH   7  10
HETATM   10  C   UNL     1     -11.781  12.230  68.046  1.00  0.00    -0.417 C  
BRANCH  10  11
HETATM   11  C   UNL     1     -11.772  12.518  66.566  1.00  0.00    -0.454 A  
HETATM   12  C   UNL     1     -12.305  13.717  66.066  1.00  0.00    -0.493 A  
HETATM   13  C   UNL     1     -12.267  13.997  64.700  1.00  0.00    -0.460 A  
HETATM   14  C   UNL     1     -11.687  13.088  63.818  1.00  0.00    -0.547 A  
HETATM   15  C   UNL     1     -11.148  11.899  64.301  1.00  0.00    -0.418 A  
HETATM   16  C   UNL     1     -11.188  11.614  65.668  1.00  0.00    -0.275 A  
ENDBRANCH  10  11
ENDBRANCH   7  10
ENDBRANCH   3   6
TORSDOF 3
ENDMDL
MODEL       44
REMARK 921   NORMALIZED FREE ENERGY PREDICTED BY IDOCK:   -4.56 KCAL/MOL
REMARK 922        TOTAL FREE ENERGY PREDICTED BY IDOCK:   -5.68 KCAL/MOL
REMARK 923 INTER-LIGAND FREE ENERGY PREDICTED BY IDOCK:   -5.24 KCAL/MOL
REMARK 924 INTRA-LIGAND FREE ENERGY PREDICTED BY IDOCK:   -0.44 KCAL/MOL
REMARK 927      BINDING AFFINITY PREDICTED BY RF-SCORE:    0.00 PKD
ROOT
HETATM    1  N   UNL     1     -10.578  19.672  65.860  1.00  0.00    -0.510 N  
HETATM    2  H1  UNL     1     -10.428  19.163  64.988  1.00  0.00     0.000 HD 
HETATM    3  C   UNL     1     -10.452  19.075  67.063  1.00  0.00    -0.434 C  
HETATM    4  H2  UNL     1     -10.829  20.659  65.821  1.00  0.00     0.000 HD 
HETATM    5  O   UNL     1     -10.631  19.687  68.110  1.00  0.00    -0.416 OA 
ENDROOT
BRANCH   3   6
HETATM    6  N   UNL     1     -10.096  17.756  67.066  1.00  0.00    -0.323 N  
HETATM    7  C   UNL     1      -8.993  17.170  66.468  1.00  0.00    -0.272 C  
HETATM    8  H   UNL     1     -10.720  17.125  67.570  1.00  0.00     0.000 HD 
HETATM    9  O   UNL     1      -8.160  17.782  65.801  1.00  0.00    -0.541 OA 
BRANCH   7  10
HETATM   10  C   UNL     1      -8.900  15.670  66.686  1.00  0.00    -0.327 C  
BRANCH  10  11
HETATM   11  C   UNL     1     -10.151  14.932  66.281  1.00  0.00    -0.298 A  
HETATM   12  C   UNL     1     -10.952  14.298  67.244  1.00  0.00    -0.302 A  
HETATM   13  C   UNL     1     -12.126  13.643  66.873  1.00  0.00    -0.431 A  
HETATM   14  C   UNL     1     -12.519  13.621  65.537  1.00  0.00    -0.544 A  
HETATM   15  C   UNL     1     -11.738  14.252  64.572  1.00  0.00    -0.431 A  
HETATM   16  C   UNL     1     -10.559  14.906  64.940  1.00  0.00    -0.417 A  
ENDBRANCH  10  11
ENDBRANCH   7  10
ENDBRANCH   3   6
TORSDOF 3
ENDMDL
MODEL       45
REMARK 921   NORMALIZED FREE ENERGY PREDICTED BY IDOCK:   -4.56 KCAL/MOL
REMARK 922        TOTAL FREE ENERGY PREDICTED BY IDOCK:   -5.68 KCAL/MOL
REMARK 923 INTER-LIGAND FREE ENERGY PREDICTED BY IDOCK:   -5.85 KCAL/MOL
REMARK 924 INTRA-LIGAND FREE ENERGY PREDICTED BY IDOCK:    0.17 KCAL/MOL
REMARK 927      BINDING AFFINITY PREDICTED BY RF-SCORE:    0.00 PKD
ROOT
HETATM    1  N   UNL     1     -12.486  14.476  63.689  1.00  0.00    -1.078 N  
HETATM    2  H1  UNL     1     -12.071  15.401  63.576  1.00  0.00     0.000 HD 
HETATM    3  C   UNL     1     -12.456  13.822  64.868  1.00  0.00    -0.386 C  
HETATM    4  H2  UNL     1     -12.937  14.034  62.888  1.00  0.00     0.000 HD 
HETATM    5  O   UNL     1     -12.955  12.710  65.003  1.00  0.00    -0.812 OA 
ENDROOT
BRANCH   3   6
HETATM    6  N   UNL     1     -11.858  14.462  65.916  1.00  0.00    -0.374 N  
HETATM    7  C   UNL     1     -10.865  15.424  65.872  1.00  0.00    -0.325 C  
HETATM    8  H   UNL     1     -12.183  14.197  66.846  1.00  0.00     0.000 HD 
HETATM    9  O   UNL     1     -10.343  15.835  64.835  1.00  0.00    -0.487 OA 
BRANCH   7  10
HETATM   10  C   UNL     1     -10.440  15.933  67.238  1.00  0.00    -0.310 C  
BRANCH  10  11
HETATM   11  C   UNL     1     -11.128  15.224  68.377  1.00  0.00    -0.289 A  
HETATM   12  C   UNL     1     -10.962  13.843  68.565  1.00  0.00    -0.277 A  
HETATM   13  C   UNL     1     -11.572  13.193  69.639  1.00  0.00    -0.321 A  
HETATM   14  C   UNL     1     -12.346  13.917  70.542  1.00  0.00    -0.439 A  
HETATM   15  C   UNL     1     -12.512  15.289  70.372  1.00  0.00    -0.426 A  
HETATM   16  C   UNL     1     -11.906  15.941  69.296  1.00  0.00    -0.328 A  
ENDBRANCH  10  11
ENDBRANCH   7  10
ENDBRANCH   3   6
TORSDOF 3
ENDMDL
MODEL       46
REMARK 921   NORMALIZED FREE ENERGY PREDICTED BY IDOCK:   -4.53 KCAL/MOL
REMARK 922        TOTAL FREE ENERGY PREDICTED BY IDOCK:   -5.65 KCAL/MOL
REMARK 923 INTER-LIGAND FREE ENERGY PREDICTED BY IDOCK:   -5.35 KCAL/MOL
REMARK 924 INTRA-LIGAND FREE ENERGY PREDICTED BY IDOCK:   -0.29 KCAL/MOL
REMARK 927      BINDING AFFINITY PREDICTED BY RF-SCORE:    0.00 PKD
ROOT
HETATM    1  N   UNL     1     -10.117  13.883  64.723  1.00  0.00    -0.610 N  
HETATM    2  H1  UNL     1      -9.739  12.943  64.601  1.00  0.00     0.000 HD 
HETATM    3  C   UNL     1     -10.555  14.323  65.921  1.00  0.00    -0.302 C  
HETATM    4  H2  UNL     1     -10.166  14.506  63.918  1.00  0.00     0.000 HD 
HETATM    5  O   UNL     1     -11.010  15.452  66.068  1.00  0.00    -0.325 OA 
ENDROOT
BRANCH   3   6
HETATM    6  N   UNL     1     -10.453  13.458  66.974  1.00  0.00    -0.256 N  
HETATM    7  C   UNL     1     -11.194  12.313  67.211  1.00  0.00    -0.300 C  
HETATM    8  H   UNL     1      -9.744  13.684  67.671  1.00  0.00     0.000 HD 
HETATM    9  O   UNL     1     -12.105  11.915  66.485  1.00  0.00    -0.568 OA 
BRANCH   7  10
HETATM   10  C   UNL     1     -10.803  11.579  68.480  1.00  0.00    -0.254 C  
BRANCH  10  11
HETATM   11  C   UNL     1     -11.684  11.914  69.657  1.00  0.00    -0.413 A  
HETATM   12  C   UNL     1     -12.194  10.898  70.481  1.00  0.00    -0.459 A  
HETATM   13  C   UNL     1     -12.982  11.211  71.590  1.00  0.00    -0.548 A  
HETATM   14  C   UNL     1     -13.261  12.541  71.893  1.00  0.00    -0.495 A  
HETATM   15  C   UNL     1     -12.755  13.559  71.088  1.00  0.00    -0.425 A  
HETATM   16  C   UNL     1     -11.969  13.249  69.976  1.00  0.00    -0.399 A  
ENDBRANCH  10  11
ENDBRANCH   7  10
ENDBRANCH   3   6
TORSDOF 3
ENDMDL
MODEL       47
REMARK 921   NORMALIZED FREE ENERGY PREDICTED BY IDOCK:   -4.53 KCAL/MOL
REMARK 922        TOTAL FREE ENERGY PREDICTED BY IDOCK:   -5.64 KCAL/MOL
REMARK 923 INTER-LIGAND FREE ENERGY PREDICTED BY IDOCK:   -5.41 KCAL/MOL
REMARK 924 INTRA-LIGAND FREE ENERGY PREDICTED BY IDOCK:   -0.24 KCAL/MOL
REMARK 927      BINDING AFFINITY PREDICTED BY RF-SCORE:    0.00 PKD
ROOT
HETATM    1  N   UNL     1      -9.091  11.125  68.604  1.00  0.00    -0.191 N  
HETATM    2  H1  UNL     1      -9.427  12.089  68.613  1.00  0.00     0.000 HD 
HETATM    3  C   UNL     1      -9.597  10.188  69.431  1.00  0.00    -0.232 C  
HETATM    4  H2  UNL     1      -8.354  10.864  67.950  1.00  0.00     0.000 HD 
HETATM    5  O   UNL     1      -9.195   9.030  69.419  1.00  0.00    -0.145 OA 
ENDROOT
BRANCH   3   6
HETATM    6  N   UNL     1     -10.597  10.581  70.276  1.00  0.00    -0.445 N  
HETATM    7  C   UNL     1     -11.887  10.960  69.950  1.00  0.00    -0.349 C  
HETATM    8  H   UNL     1     -10.362  10.597  71.268  1.00  0.00     0.000 HD 
HETATM    9  O   UNL     1     -12.322  11.022  68.800  1.00  0.00    -0.533 OA 
BRANCH   7  10
HETATM   10  C   UNL     1     -12.743  11.325  71.150  1.00  0.00    -0.492 C  
BRANCH  10  11
HETATM   11  C   UNL     1     -12.911  12.812  71.331  1.00  0.00    -0.371 A  
HETATM   12  C   UNL     1     -12.193  13.716  70.531  1.00  0.00    -0.438 A  
HETATM   13  C   UNL     1     -12.374  15.092  70.676  1.00  0.00    -0.420 A  
HETATM   14  C   UNL     1     -13.280  15.581  71.614  1.00  0.00    -0.575 A  
HETATM   15  C   UNL     1     -14.004  14.695  72.408  1.00  0.00    -0.578 A  
HETATM   16  C   UNL     1     -13.823  13.317  72.268  1.00  0.00    -0.637 A  
ENDBRANCH  10  11
ENDBRANCH   7  10
ENDBRANCH   3   6
TORSDOF 3
ENDMDL
MODEL       48
REMARK 921   NORMALIZED FREE ENERGY PREDICTED BY IDOCK:   -4.51 KCAL/MOL
REMARK 922        TOTAL FREE ENERGY PREDICTED BY IDOCK:   -5.63 KCAL/MOL
REMARK 923 INTER-LIGAND FREE ENERGY PREDICTED BY IDOCK:   -5.19 KCAL/MOL
REMARK 924 INTRA-LIGAND FREE ENERGY PREDICTED BY IDOCK:   -0.44 KCAL/MOL
REMARK 927      BINDING AFFINITY PREDICTED BY RF-SCORE:    0.00 PKD
ROOT
HETATM    1  N   UNL     1     -12.410  14.350  63.472  1.00  0.00    -1.114 N  
HETATM    2  H1  UNL     1     -12.463  15.216  64.007  1.00  0.00     0.000 HD 
HETATM    3  C   UNL     1     -12.332  13.145  64.074  1.00  0.00    -0.352 C  
HETATM    4  H2  UNL     1     -12.417  14.395  62.454  1.00  0.00     0.000 HD 
HETATM    5  O   UNL     1     -12.270  12.103  63.431  1.00  0.00    -0.528 OA 
ENDROOT
BRANCH   3   6
HETATM    6  N   UNL     1     -12.345  13.133  65.440  1.00  0.00    -0.459 N  
HETATM    7  C   UNL     1     -11.681  13.986  66.305  1.00  0.00    -0.387 C  
HETATM    8  H   UNL     1     -12.913  12.407  65.876  1.00  0.00     0.000 HD 
HETATM    9  O   UNL     1     -10.935  14.896  65.945  1.00  0.00    -0.324 OA 
BRANCH   7  10
HETATM   10  C   UNL     1     -11.933  13.691  67.773  1.00  0.00    -0.387 C  
BRANCH  10  11
HETATM   11  C   UNL     1     -11.167  12.495  68.279  1.00  0.00    -0.309 A  
HETATM   12  C   UNL     1      -9.771  12.430  68.146  1.00  0.00    -0.214 A  
HETATM   13  C   UNL     1      -9.059  11.338  68.644  1.00  0.00    -0.153 A  
HETATM   14  C   UNL     1      -9.732  10.303  69.289  1.00  0.00    -0.240 A  
HETATM   15  C   UNL     1     -11.116  10.359  69.435  1.00  0.00    -0.304 A  
HETATM   16  C   UNL     1     -11.832  11.449  68.934  1.00  0.00    -0.413 A  
ENDBRANCH  10  11
ENDBRANCH   7  10
ENDBRANCH   3   6
TORSDOF 3
ENDMDL
MODEL       49
REMARK 921   NORMALIZED FREE ENERGY PREDICTED BY IDOCK:   -4.49 KCAL/MOL
REMARK 922        TOTAL FREE ENERGY PREDICTED BY IDOCK:   -5.60 KCAL/MOL
REMARK 923 INTER-LIGAND FREE ENERGY PREDICTED BY IDOCK:   -5.85 KCAL/MOL
REMARK 924 INTRA-LIGAND FREE ENERGY PREDICTED BY IDOCK:    0.25 KCAL/MOL
REMARK 927      BINDING AFFINITY PREDICTED BY RF-SCORE:    0.00 PKD
ROOT
HETATM    1  N   UNL     1     -13.053  13.860  65.313  1.00  0.00    -0.770 N  
HETATM    2  H1  UNL     1     -13.820  13.225  65.536  1.00  0.00     0.000 HD 
HETATM    3  C   UNL     1     -12.134  14.216  66.233  1.00  0.00    -0.442 C  
HETATM    4  H2  UNL     1     -12.980  14.235  64.368  1.00  0.00     0.000 HD 
HETATM    5  O   UNL     1     -11.212  14.979  65.964  1.00  0.00    -0.343 OA 
ENDROOT
BRANCH   3   6
HETATM    6  N   UNL     1     -12.263  13.674  67.480  1.00  0.00    -0.381 N  
HETATM    7  C   UNL     1     -11.305  13.590  68.476  1.00  0.00    -0.292 C  
HETATM    8  H   UNL     1     -13.177  13.282  67.705  1.00  0.00     0.000 HD 
HETATM    9  O   UNL     1     -10.146  13.989  68.357  1.00  0.00    -0.226 OA 
BRANCH   7  10
HETATM   10  C   UNL     1     -11.799  12.932  69.751  1.00  0.00    -0.380 C  
BRANCH  10  11
HETATM   11  C   UNL     1     -12.215  13.923  70.809  1.00  0.00    -0.441 A  
HETATM   12  C   UNL     1     -11.493  15.112  71.000  1.00  0.00    -0.372 A  
HETATM   13  C   UNL     1     -11.898  16.044  71.956  1.00  0.00    -0.623 A  
HETATM   14  C   UNL     1     -13.034  15.804  72.726  1.00  0.00    -0.585 A  
HETATM   15  C   UNL     1     -13.763  14.632  72.542  1.00  0.00    -0.572 A  
HETATM   16  C   UNL     1     -13.358  13.695  71.588  1.00  0.00    -0.424 A  
ENDBRANCH  10  11
ENDBRANCH   7  10
ENDBRANCH   3   6
TORSDOF 3
ENDMDL
MODEL       50
REMARK 921   NORMALIZED FREE ENERGY PREDICTED BY IDOCK:   -4.45 KCAL/MOL
REMARK 922        TOTAL FREE ENERGY PREDICTED BY IDOCK:   -5.56 KCAL/MOL
REMARK 923 INTER-LIGAND FREE ENERGY PREDICTED BY IDOCK:   -5.21 KCAL/MOL
REMARK 924 INTRA-LIGAND FREE ENERGY PREDICTED BY IDOCK:   -0.35 KCAL/MOL
REMARK 927      BINDING AFFINITY PREDICTED BY RF-SCORE:    0.00 PKD
ROOT
HETATM    1  N   UNL     1     -10.526  19.942  65.893  1.00  0.00    -0.505 N  
HETATM    2  H1  UNL     1     -11.445  19.501  65.909  1.00  0.00     0.000 HD 
HETATM    3  C   UNL     1      -9.401  19.255  66.179  1.00  0.00    -0.269 C  
HETATM    4  H2  UNL     1     -10.455  20.931  65.653  1.00  0.00     0.000 HD 
HETATM    5  O   UNL     1      -8.296  19.785  66.159  1.00  0.00    -0.350 OA 
ENDROOT
BRANCH   3   6
HETATM    6  N   UNL     1      -9.545  17.929  66.476  1.00  0.00    -0.305 N  
HETATM    7  C   UNL     1     -10.365  17.001  65.858  1.00  0.00    -0.298 C  
HETATM    8  H   UNL     1      -8.977  17.580  67.249  1.00  0.00     0.000 HD 
HETATM    9  O   UNL     1     -11.131  17.263  64.931  1.00  0.00    -0.807 OA 
BRANCH   7  10
HETATM   10  C   UNL     1     -10.261  15.603  66.441  1.00  0.00    -0.300 C  
BRANCH  10  11
HETATM   11  C   UNL     1     -11.000  14.566  65.634  1.00  0.00    -0.323 A  
HETATM   12  C   UNL     1     -10.335  13.818  64.649  1.00  0.00    -0.393 A  
HETATM   13  C   UNL     1     -11.011  12.835  63.926  1.00  0.00    -0.458 A  
HETATM   14  C   UNL     1     -12.356  12.581  64.184  1.00  0.00    -0.548 A  
HETATM   15  C   UNL     1     -13.026  13.310  65.163  1.00  0.00    -0.231 A  
HETATM   16  C   UNL     1     -12.353  14.297  65.887  1.00  0.00    -0.420 A  
ENDBRANCH  10  11
ENDBRANCH   7  10
ENDBRANCH   3   6
TORSDOF 3
ENDMDL
MODEL       51
REMARK 921   NORMALIZED FREE ENERGY PREDICTED BY IDOCK:   -4.40 KCAL/MOL
REMARK 922        TOTAL FREE ENERGY PREDICTED BY IDOCK:   -5.50 KCAL/MOL
REMARK 923 INTER-LIGAND FREE ENERGY PREDICTED BY IDOCK:   -5.68 KCAL/MOL
REMARK 924 INTRA-LIGAND FREE ENERGY PREDICTED BY IDOCK:    0.18 KCAL/MOL
REMARK 927      BINDING AFFINITY PREDICTED BY RF-SCORE:    0.00 PKD
ROOT
HETATM    1  N   UNL     1     -10.485  17.939  66.591  1.00  0.00    -0.343 N  
HETATM    2  H1  UNL     1     -11.481  17.824  66.776  1.00  0.00     0.000 HD 
HETATM    3  C   UNL     1      -9.754  16.971  66.000  1.00  0.00    -0.218 C  
HETATM    4  H2  UNL     1     -10.028  18.810  66.860  1.00  0.00     0.000 HD 
HETATM    5  O   UNL     1      -8.556  17.110  65.778  1.00  0.00    -0.525 OA 
ENDROOT
BRANCH   3   6
HETATM    6  N   UNL     1     -10.413  15.829  65.641  1.00  0.00    -0.360 N  
HETATM    7  C   UNL     1     -11.343  15.665  64.629  1.00  0.00    -0.349 C  
HETATM    8  H   UNL     1     -10.193  14.996  66.186  1.00  0.00     0.000 HD 
HETATM    9  O   UNL     1     -11.741  16.573  63.899  1.00  0.00    -1.148 OA 
BRANCH   7  10
HETATM   10  C   UNL     1     -11.868  14.246  64.500  1.00  0.00    -0.456 C  
BRANCH  10  11
HETATM   11  C   UNL     1     -11.803  13.468  65.791  1.00  0.00    -0.403 A  
HETATM   12  C   UNL     1     -11.345  12.142  65.804  1.00  0.00    -0.402 A  
HETATM   13  C   UNL     1     -11.254  11.433  67.003  1.00  0.00    -0.350 A  
HETATM   14  C   UNL     1     -11.611  12.045  68.202  1.00  0.00    -0.403 A  
HETATM   15  C   UNL     1     -12.060  13.363  68.204  1.00  0.00    -0.267 A  
HETATM   16  C   UNL     1     -12.155  14.074  67.005  1.00  0.00    -0.455 A  
ENDBRANCH  10  11
ENDBRANCH   7  10
ENDBRANCH   3   6
TORSDOF 3
ENDMDL
MODEL       52
REMARK 921   NORMALIZED FREE ENERGY PREDICTED BY IDOCK:   -4.39 KCAL/MOL
REMARK 922        TOTAL FREE ENERGY PREDICTED BY IDOCK:   -5.49 KCAL/MOL
REMARK 923 INTER-LIGAND FREE ENERGY PREDICTED BY IDOCK:   -5.25 KCAL/MOL
REMARK 924 INTRA-LIGAND FREE ENERGY PREDICTED BY IDOCK:   -0.23 KCAL/MOL
REMARK 927      BINDING AFFINITY PREDICTED BY RF-SCORE:    0.00 PKD
ROOT
HETATM    1  N   UNL     1     -13.142   9.699  70.830  1.00  0.00    -0.577 N  
HETATM    2  H1  UNL     1     -13.956  10.212  70.490  1.00  0.00     0.000 HD 
HETATM    3  C   UNL     1     -11.899  10.219  70.775  1.00  0.00    -0.365 C  
HETATM    4  H2  UNL     1     -13.273   8.767  71.222  1.00  0.00     0.000 HD 
HETATM    5  O   UNL     1     -10.921   9.603  71.185  1.00  0.00    -0.336 OA 
ENDROOT
BRANCH   3   6
HETATM    6  N   UNL     1     -11.776  11.478  70.258  1.00  0.00    -0.465 N  
HETATM    7  C   UNL     1     -11.875  11.868  68.934  1.00  0.00    -0.307 C  
HETATM    8  H   UNL     1     -11.588  12.222  70.931  1.00  0.00     0.000 HD 
HETATM    9  O   UNL     1     -12.070  11.094  67.997  1.00  0.00    -0.635 OA 
BRANCH   7  10
HETATM   10  C   UNL     1     -11.697  13.360  68.717  1.00  0.00    -0.377 C  
BRANCH  10  11
HETATM   11  C   UNL     1     -11.445  13.726  67.276  1.00  0.00    -0.367 A  
HETATM   12  C   UNL     1     -12.511  13.848  66.372  1.00  0.00    -0.414 A  
HETATM   13  C   UNL     1     -12.280  14.219  65.046  1.00  0.00    -0.438 A  
HETATM   14  C   UNL     1     -10.983  14.481  64.612  1.00  0.00    -0.351 A  
HETATM   15  C   UNL     1      -9.917  14.371  65.501  1.00  0.00    -0.359 A  
HETATM   16  C   UNL     1     -10.144  13.996  66.827  1.00  0.00    -0.264 A  
ENDBRANCH  10  11
ENDBRANCH   7  10
ENDBRANCH   3   6
TORSDOF 3
ENDMDL
MODEL       53
REMARK 921   NORMALIZED FREE ENERGY PREDICTED BY IDOCK:   -4.38 KCAL/MOL
REMARK 922        TOTAL FREE ENERGY PREDICTED BY IDOCK:   -5.47 KCAL/MOL
REMARK 923 INTER-LIGAND FREE ENERGY PREDICTED BY IDOCK:   -5.16 KCAL/MOL
REMARK 924 INTRA-LIGAND FREE ENERGY PREDICTED BY IDOCK:   -0.31 KCAL/MOL
REMARK 927      BINDING AFFINITY PREDICTED BY RF-SCORE:    0.00 PKD
ROOT
HETATM    1  N   UNL     1      -9.998  13.778  64.994  1.00  0.00    -0.600 N  
HETATM    2  H1  UNL     1      -9.969  12.961  65.605  1.00  0.00     0.000 HD 
HETATM    3  C   UNL     1     -10.681  14.892  65.328  1.00  0.00    -0.393 C  
HETATM    4  H2  UNL     1      -9.496  13.751  64.107  1.00  0.00     0.000 HD 
HETATM    5  O   UNL     1     -10.716  15.874  64.594  1.00  0.00    -0.553 OA 
ENDROOT
BRANCH   3   6
HETATM    6  N   UNL     1     -11.323  14.887  66.534  1.00  0.00    -0.342 N  
HETATM    7  C   UNL     1     -10.769  14.725  67.793  1.00  0.00    -0.268 C  
HETATM    8  H   UNL     1     -12.334  15.019  66.504  1.00  0.00     0.000 HD 
HETATM    9  O   UNL     1      -9.572  14.528  68.003  1.00  0.00    -0.207 OA 
BRANCH   7  10
HETATM   10  C   UNL     1     -11.781  14.789  68.923  1.00  0.00    -0.340 C  
BRANCH  10  11
HETATM   11  C   UNL     1     -12.024  13.453  69.579  1.00  0.00    -0.377 A  
HETATM   12  C   UNL     1     -11.748  12.259  68.895  1.00  0.00    -0.380 A  
HETATM   13  C   UNL     1     -11.942  11.023  69.514  1.00  0.00    -0.413 A  
HETATM   14  C   UNL     1     -12.403  10.967  70.827  1.00  0.00    -0.496 A  
HETATM   15  C   UNL     1     -12.673  12.145  71.520  1.00  0.00    -0.348 A  
HETATM   16  C   UNL     1     -12.484  13.382  70.902  1.00  0.00    -0.439 A  
ENDBRANCH  10  11
ENDBRANCH   7  10
ENDBRANCH   3   6
TORSDOF 3
ENDMDL
MODEL       54
REMARK 921   NORMALIZED FREE ENERGY PREDICTED BY IDOCK:   -4.34 KCAL/MOL
REMARK 922        TOTAL FREE ENERGY PREDICTED BY IDOCK:   -5.43 KCAL/MOL
REMARK 923 INTER-LIGAND FREE ENERGY PREDICTED BY IDOCK:   -5.10 KCAL/MOL
REMARK 924 INTRA-LIGAND FREE ENERGY PREDICTED BY IDOCK:   -0.32 KCAL/MOL
REMARK 927      BINDING AFFINITY PREDICTED BY RF-SCORE:    0.00 PKD
ROOT
HETATM    1  N   UNL     1     -12.950  15.469  69.972  1.00  0.00    -0.630 N  
HETATM    2  H1  UNL     1     -13.168  15.593  68.983  1.00  0.00     0.000 HD 
HETATM    3  C   UNL     1     -12.466  14.307  70.454  1.00  0.00    -0.362 C  
HETATM    4  H2  UNL     1     -13.100  16.248  70.613  1.00  0.00     0.000 HD 
HETATM    5  O   UNL     1     -12.203  14.159  71.643  1.00  0.00    -0.314 OA 
ENDROOT
BRANCH   3   6
HETATM    6  N   UNL     1     -12.264  13.299  69.554  1.00  0.00    -0.233 N  
HETATM    7  C   UNL     1     -11.228  13.164  68.646  1.00  0.00    -0.276 C  
HETATM    8  H   UNL     1     -12.961  12.555  69.551  1.00  0.00     0.000 HD 
HETATM    9  O   UNL     1     -10.322  13.984  68.501  1.00  0.00    -0.237 OA 
BRANCH   7  10
HETATM   10  C   UNL     1     -11.310  11.904  67.803  1.00  0.00    -0.361 C  
BRANCH  10  11
HETATM   11  C   UNL     1     -11.327  12.180  66.320  1.00  0.00    -0.411 A  
HETATM   12  C   UNL     1     -10.532  11.426  65.443  1.00  0.00    -0.336 A  
HETATM   13  C   UNL     1     -10.573  11.660  64.067  1.00  0.00    -0.426 A  
HETATM   14  C   UNL     1     -11.417  12.642  63.553  1.00  0.00    -0.557 A  
HETATM   15  C   UNL     1     -12.216  13.391  64.412  1.00  0.00    -0.444 A  
HETATM   16  C   UNL     1     -12.175  13.162  65.789  1.00  0.00    -0.514 A  
ENDBRANCH  10  11
ENDBRANCH   7  10
ENDBRANCH   3   6
TORSDOF 3
ENDMDL
MODEL       55
REMARK 921   NORMALIZED FREE ENERGY PREDICTED BY IDOCK:   -4.34 KCAL/MOL
REMARK 922        TOTAL FREE ENERGY PREDICTED BY IDOCK:   -5.42 KCAL/MOL
REMARK 923 INTER-LIGAND FREE ENERGY PREDICTED BY IDOCK:   -4.97 KCAL/MOL
REMARK 924 INTRA-LIGAND FREE ENERGY PREDICTED BY IDOCK:   -0.45 KCAL/MOL
REMARK 927      BINDING AFFINITY PREDICTED BY RF-SCORE:    0.00 PKD
ROOT
HETATM    1  N   UNL     1      -9.205  17.489  68.137  1.00  0.00    -0.269 N  
HETATM    2  H1  UNL     1      -9.764  17.193  68.937  1.00  0.00     0.000 HD 
HETATM    3  C   UNL     1      -9.444  17.028  66.893  1.00  0.00    -0.257 C  
HETATM    4  H2  UNL     1      -8.444  18.152  68.282  1.00  0.00     0.000 HD 
HETATM    5  O   UNL     1      -8.772  17.383  65.931  1.00  0.00    -0.522 OA 
ENDROOT
BRANCH   3   6
HETATM    6  N   UNL     1     -10.486  16.155  66.745  1.00  0.00    -0.298 N  
HETATM    7  C   UNL     1     -10.760  15.023  67.491  1.00  0.00    -0.284 C  
HETATM    8  H   UNL     1     -11.141  16.365  65.991  1.00  0.00     0.000 HD 
HETATM    9  O   UNL     1     -10.057  14.614  68.415  1.00  0.00    -0.224 OA 
BRANCH   7  10
HETATM   10  C   UNL     1     -12.017  14.290  67.057  1.00  0.00    -0.463 C  
BRANCH  10  11
HETATM   11  C   UNL     1     -11.795  13.372  65.880  1.00  0.00    -0.414 A  
HETATM   12  C   UNL     1     -12.278  13.712  64.607  1.00  0.00    -0.448 A  
HETATM   13  C   UNL     1     -12.043  12.878  63.512  1.00  0.00    -0.633 A  
HETATM   14  C   UNL     1     -11.315  11.703  63.676  1.00  0.00    -0.485 A  
HETATM   15  C   UNL     1     -10.823  11.358  64.932  1.00  0.00    -0.323 A  
HETATM   16  C   UNL     1     -11.060  12.188  66.030  1.00  0.00    -0.354 A  
ENDBRANCH  10  11
ENDBRANCH   7  10
ENDBRANCH   3   6
TORSDOF 3
ENDMDL
MODEL       56
REMARK 921   NORMALIZED FREE ENERGY PREDICTED BY IDOCK:   -4.34 KCAL/MOL
REMARK 922        TOTAL FREE ENERGY PREDICTED BY IDOCK:   -5.42 KCAL/MOL
REMARK 923 INTER-LIGAND FREE ENERGY PREDICTED BY IDOCK:   -5.04 KCAL/MOL
REMARK 924 INTRA-LIGAND FREE ENERGY PREDICTED BY IDOCK:   -0.39 KCAL/MOL
REMARK 927      BINDING AFFINITY PREDICTED BY RF-SCORE:    0.00 PKD
ROOT
HETATM    1  N   UNL     1     -12.410  13.888  68.053  1.00  0.00    -0.446 N  
HETATM    2  H1  UNL     1     -12.145  14.728  68.567  1.00  0.00     0.000 HD 
HETATM    3  C   UNL     1     -11.888  13.600  66.844  1.00  0.00    -0.411 C  
HETATM    4  H2  UNL     1     -13.088  13.248  68.465  1.00  0.00     0.000 HD 
HETATM    5  O   UNL     1     -12.206  12.590  66.226  1.00  0.00    -0.600 OA 
ENDROOT
BRANCH   3   6
HETATM    6  N   UNL     1     -10.969  14.477  66.340  1.00  0.00    -0.318 N  
HETATM    7  C   UNL     1     -10.107  15.302  67.040  1.00  0.00    -0.248 C  
HETATM    8  H   UNL     1     -10.913  14.531  65.323  1.00  0.00     0.000 HD 
HETATM    9  O   UNL     1     -10.066  15.380  68.268  1.00  0.00    -0.215 OA 
BRANCH   7  10
HETATM   10  C   UNL     1      -9.205  16.144  66.154  1.00  0.00    -0.382 C  
BRANCH  10  11
HETATM   11  C   UNL     1      -9.229  17.611  66.505  1.00  0.00    -0.286 A  
HETATM   12  C   UNL     1      -8.086  18.241  67.021  1.00  0.00    -0.241 A  
HETATM   13  C   UNL     1      -8.098  19.606  67.314  1.00  0.00    -0.317 A  
HETATM   14  C   UNL     1      -9.248  20.357  67.085  1.00  0.00    -0.511 A  
HETATM   15  C   UNL     1     -10.386  19.745  66.566  1.00  0.00    -0.621 A  
HETATM   16  C   UNL     1     -10.378  18.379  66.275  1.00  0.00    -0.440 A  
ENDBRANCH  10  11
ENDBRANCH   7  10
ENDBRANCH   3   6
TORSDOF 3
ENDMDL
MODEL       57
REMARK 921   NORMALIZED FREE ENERGY PREDICTED BY IDOCK:   -4.33 KCAL/MOL
REMARK 922        TOTAL FREE ENERGY PREDICTED BY IDOCK:   -5.41 KCAL/MOL
REMARK 923 INTER-LIGAND FREE ENERGY PREDICTED BY IDOCK:   -5.10 KCAL/MOL
REMARK 924 INTRA-LIGAND FREE ENERGY PREDICTED BY IDOCK:   -0.31 KCAL/MOL
REMARK 927      BINDING AFFINITY PREDICTED BY RF-SCORE:    0.00 PKD
ROOT
HETATM    1  N   UNL     1     -10.608   6.340  71.894  1.00  0.00    -0.213 N  
HETATM    2  H1  UNL     1     -11.080   6.535  71.010  1.00  0.00     0.000 HD 
HETATM    3  C   UNL     1     -10.857   7.059  73.007  1.00  0.00    -0.309 C  
HETATM    4  H2  UNL     1      -9.931   5.579  71.936  1.00  0.00     0.000 HD 
HETATM    5  O   UNL     1     -10.290   6.824  74.069  1.00  0.00    -0.352 OA 
ENDROOT
BRANCH   3   6
HETATM    6  N   UNL     1     -11.786   8.056  72.906  1.00  0.00    -0.566 N  
HETATM    7  C   UNL     1     -12.880   8.118  72.061  1.00  0.00    -0.318 C  
HETATM    8  H   UNL     1     -11.657   8.852  73.531  1.00  0.00     0.000 HD 
HETATM    9  O   UNL     1     -13.163   7.256  71.229  1.00  0.00    -0.372 OA 
BRANCH   7  10
HETATM   10  C   UNL     1     -13.715   9.375  72.227  1.00  0.00    -0.495 C  
BRANCH  10  11
HETATM   11  C   UNL     1     -13.153  10.564  71.489  1.00  0.00    -0.532 A  
HETATM   12  C   UNL     1     -13.351  11.867  71.974  1.00  0.00    -0.425 A  
HETATM   13  C   UNL     1     -12.802  12.964  71.308  1.00  0.00    -0.361 A  
HETATM   14  C   UNL     1     -12.043  12.772  70.157  1.00  0.00    -0.370 A  
HETATM   15  C   UNL     1     -11.833  11.484  69.669  1.00  0.00    -0.421 A  
HETATM   16  C   UNL     1     -12.384  10.385  70.331  1.00  0.00    -0.370 A  
ENDBRANCH  10  11
ENDBRANCH   7  10
ENDBRANCH   3   6
TORSDOF 3
ENDMDL
MODEL       58
REMARK 921   NORMALIZED FREE ENERGY PREDICTED BY IDOCK:   -4.33 KCAL/MOL
REMARK 922        TOTAL FREE ENERGY PREDICTED BY IDOCK:   -5.41 KCAL/MOL
REMARK 923 INTER-LIGAND FREE ENERGY PREDICTED BY IDOCK:   -4.99 KCAL/MOL
REMARK 924 INTRA-LIGAND FREE ENERGY PREDICTED BY IDOCK:   -0.42 KCAL/MOL
REMARK 927      BINDING AFFINITY PREDICTED BY RF-SCORE:    0.00 PKD
ROOT
HETATM    1  N   UNL     1     -10.790  12.297  65.487  1.00  0.00    -0.273 N  
HETATM    2  H1  UNL     1     -10.877  13.301  65.325  1.00  0.00     0.000 HD 
HETATM    3  C   UNL     1     -10.618  11.789  66.725  1.00  0.00    -0.238 C  
HETATM    4  H2  UNL     1     -10.834  11.661  64.692  1.00  0.00     0.000 HD 
HETATM    5  O   UNL     1     -10.514  10.583  66.920  1.00  0.00    -0.231 OA 
ENDROOT
BRANCH   3   6
HETATM    6  N   UNL     1     -10.584  12.679  67.761  1.00  0.00    -0.216 N  
HETATM    7  C   UNL     1     -11.370  13.804  67.944  1.00  0.00    -0.299 C  
HETATM    8  H   UNL     1      -9.894  12.492  68.489  1.00  0.00     0.000 HD 
HETATM    9  O   UNL     1     -12.228  14.187  67.149  1.00  0.00    -0.421 OA 
BRANCH   7  10
HETATM   10  C   UNL     1     -11.069  14.562  69.224  1.00  0.00    -0.296 C  
BRANCH  10  11
HETATM   11  C   UNL     1     -12.124  14.380  70.286  1.00  0.00    -0.396 A  
HETATM   12  C   UNL     1     -12.404  13.106  70.805  1.00  0.00    -0.404 A  
HETATM   13  C   UNL     1     -13.358  12.942  71.811  1.00  0.00    -0.451 A  
HETATM   14  C   UNL     1     -14.035  14.050  72.316  1.00  0.00    -0.651 A  
HETATM   15  C   UNL     1     -13.761  15.320  71.815  1.00  0.00    -0.605 A  
HETATM   16  C   UNL     1     -12.810  15.487  70.806  1.00  0.00    -0.513 A  
ENDBRANCH  10  11
ENDBRANCH   7  10
ENDBRANCH   3   6
TORSDOF 3
ENDMDL
MODEL       59
REMARK 921   NORMALIZED FREE ENERGY PREDICTED BY IDOCK:   -4.32 KCAL/MOL
REMARK 922        TOTAL FREE ENERGY PREDICTED BY IDOCK:   -5.40 KCAL/MOL
REMARK 923 INTER-LIGAND FREE ENERGY PREDICTED BY IDOCK:   -4.95 KCAL/MOL
REMARK 924 INTRA-LIGAND FREE ENERGY PREDICTED BY IDOCK:   -0.45 KCAL/MOL
REMARK 927      BINDING AFFINITY PREDICTED BY RF-SCORE:    0.00 PKD
ROOT
HETATM    1  N   UNL     1     -10.537  10.784  69.834  1.00  0.00    -0.451 N  
HETATM    2  H1  UNL     1      -9.818  11.081  69.174  1.00  0.00     0.000 HD 
HETATM    3  C   UNL     1     -11.811  11.215  69.740  1.00  0.00    -0.349 C  
HETATM    4  H2  UNL     1     -10.285  10.142  70.586  1.00  0.00     0.000 HD 
HETATM    5  O   UNL     1     -12.675  10.858  70.533  1.00  0.00    -0.323 OA 
ENDROOT
BRANCH   3   6
HETATM    6  N   UNL     1     -12.105  12.059  68.706  1.00  0.00    -0.217 N  
HETATM    7  C   UNL     1     -11.425  13.201  68.319  1.00  0.00    -0.314 C  
HETATM    8  H   UNL     1     -12.926  11.817  68.150  1.00  0.00     0.000 HD 
HETATM    9  O   UNL     1     -10.434  13.646  68.897  1.00  0.00    -0.226 OA 
BRANCH   7  10
HETATM   10  C   UNL     1     -12.025  13.893  67.108  1.00  0.00    -0.455 C  
BRANCH  10  11
HETATM   11  C   UNL     1     -11.717  13.193  65.809  1.00  0.00    -0.415 A  
HETATM   12  C   UNL     1     -12.731  12.948  64.870  1.00  0.00    -0.474 A  
HETATM   13  C   UNL     1     -12.439  12.329  63.653  1.00  0.00    -0.647 A  
HETATM   14  C   UNL     1     -11.130  11.959  63.357  1.00  0.00    -0.463 A  
HETATM   15  C   UNL     1     -10.113  12.203  64.276  1.00  0.00    -0.317 A  
HETATM   16  C   UNL     1     -10.403  12.818  65.496  1.00  0.00    -0.301 A  
ENDBRANCH  10  11
ENDBRANCH   7  10
ENDBRANCH   3   6
TORSDOF 3
ENDMDL
MODEL       60
REMARK 921   NORMALIZED FREE ENERGY PREDICTED BY IDOCK:   -4.32 KCAL/MOL
REMARK 922        TOTAL FREE ENERGY PREDICTED BY IDOCK:   -5.40 KCAL/MOL
REMARK 923 INTER-LIGAND FREE ENERGY PREDICTED BY IDOCK:   -5.16 KCAL/MOL
REMARK 924 INTRA-LIGAND FREE ENERGY PREDICTED BY IDOCK:   -0.24 KCAL/MOL
REMARK 927      BINDING AFFINITY PREDICTED BY RF-SCORE:    0.00 PKD
ROOT
HETATM    1  N   UNL     1     -12.500  14.002  63.229  1.00  0.00    -1.112 N  
HETATM    2  H1  UNL     1     -12.591  13.022  63.499  1.00  0.00     0.000 HD 
HETATM    3  C   UNL     1     -12.094  14.946  64.102  1.00  0.00    -0.267 C  
HETATM    4  H2  UNL     1     -12.721  14.275  62.271  1.00  0.00     0.000 HD 
HETATM    5  O   UNL     1     -11.983  16.123  63.777  1.00  0.00    -0.926 OA 
ENDROOT
BRANCH   3   6
HETATM    6  N   UNL     1     -11.791  14.530  65.368  1.00  0.00    -0.356 N  
HETATM    7  C   UNL     1     -12.030  13.291  65.937  1.00  0.00    -0.419 C  
HETATM    8  H   UNL     1     -11.332  15.216  65.967  1.00  0.00     0.000 HD 
HETATM    9  O   UNL     1     -12.599  12.362  65.363  1.00  0.00    -0.637 OA 
BRANCH   7  10
HETATM   10  C   UNL     1     -11.546  13.169  67.371  1.00  0.00    -0.403 C  
BRANCH  10  11
HETATM   11  C   UNL     1     -10.043  13.133  67.490  1.00  0.00    -0.222 A  
HETATM   12  C   UNL     1      -9.329  14.276  67.883  1.00  0.00    -0.198 A  
HETATM   13  C   UNL     1      -7.942  14.234  68.026  1.00  0.00    -0.142 A  
HETATM   14  C   UNL     1      -7.253  13.047  67.786  1.00  0.00    -0.139 A  
HETATM   15  C   UNL     1      -7.950  11.904  67.403  1.00  0.00    -0.162 A  
HETATM   16  C   UNL     1      -9.338  11.944  67.256  1.00  0.00    -0.177 A  
ENDBRANCH  10  11
ENDBRANCH   7  10
ENDBRANCH   3   6
TORSDOF 3
ENDMDL
MODEL       61
REMARK 921   NORMALIZED FREE ENERGY PREDICTED BY IDOCK:   -4.28 KCAL/MOL
REMARK 922        TOTAL FREE ENERGY PREDICTED BY IDOCK:   -5.35 KCAL/MOL
REMARK 923 INTER-LIGAND FREE ENERGY PREDICTED BY IDOCK:   -4.90 KCAL/MOL
REMARK 924 INTRA-LIGAND FREE ENERGY PREDICTED BY IDOCK:   -0.46 KCAL/MOL
REMARK 927      BINDING AFFINITY PREDICTED BY RF-SCORE:    0.00 PKD
ROOT
HETATM    1  N   UNL     1     -11.476  12.203  70.088  1.00  0.00    -0.522 N  
HETATM    2  H1  UNL     1     -11.343  12.059  71.090  1.00  0.00     0.000 HD 
HETATM    3  C   UNL     1     -12.000  11.246  69.296  1.00  0.00    -0.342 C  
HETATM    4  H2  UNL     1     -11.206  13.095  69.676  1.00  0.00     0.000 HD 
HETATM    5  O   UNL     1     -12.160  11.419  68.092  1.00  0.00    -0.623 OA 
ENDROOT
BRANCH   3   6
HETATM    6  N   UNL     1     -12.364  10.074  69.897  1.00  0.00    -0.489 N  
HETATM    7  C   UNL     1     -11.634   9.316  70.796  1.00  0.00    -0.285 C  
HETATM    8  H   UNL     1     -13.286   9.713  69.652  1.00  0.00     0.000 HD 
HETATM    9  O   UNL     1     -10.496   9.594  71.174  1.00  0.00    -0.307 OA 
BRANCH   7  10
HETATM   10  C   UNL     1     -12.356   8.070  71.277  1.00  0.00    -0.290 C  
BRANCH  10  11
HETATM   11  C   UNL     1     -11.539   6.811  71.120  1.00  0.00    -0.377 A  
HETATM   12  C   UNL     1     -11.192   6.338  69.845  1.00  0.00    -0.498 A  
HETATM   13  C   UNL     1     -10.408   5.193  69.701  1.00  0.00    -0.316 A  
HETATM   14  C   UNL     1      -9.955   4.513  70.828  1.00  0.00    -0.269 A  
HETATM   15  C   UNL     1     -10.286   4.976  72.099  1.00  0.00    -0.259 A  
HETATM   16  C   UNL     1     -11.073   6.120  72.247  1.00  0.00    -0.320 A  
ENDBRANCH  10  11
ENDBRANCH   7  10
ENDBRANCH   3   6
TORSDOF 3
ENDMDL
MODEL       62
REMARK 921   NORMALIZED FREE ENERGY PREDICTED BY IDOCK:   -4.26 KCAL/MOL
REMARK 922        TOTAL FREE ENERGY PREDICTED BY IDOCK:   -5.34 KCAL/MOL
REMARK 923 INTER-LIGAND FREE ENERGY PREDICTED BY IDOCK:   -4.91 KCAL/MOL
REMARK 924 INTRA-LIGAND FREE ENERGY PREDICTED BY IDOCK:   -0.42 KCAL/MOL
REMARK 927      BINDING AFFINITY PREDICTED BY RF-SCORE:    0.00 PKD
ROOT
HETATM    1  N   UNL     1     -11.083   9.402  67.858  1.00  0.00    -0.503 N  
HETATM    2  H1  UNL     1     -11.874   9.567  68.481  1.00  0.00     0.000 HD 
HETATM    3  C   UNL     1     -10.132  10.336  67.655  1.00  0.00    -0.191 C  
HETATM    4  H2  UNL     1     -11.009   8.506  67.377  1.00  0.00     0.000 HD 
HETATM    5  O   UNL     1      -9.180  10.138  66.907  1.00  0.00    -0.144 OA 
ENDROOT
BRANCH   3   6
HETATM    6  N   UNL     1     -10.264  11.514  68.336  1.00  0.00    -0.199 N  
HETATM    7  C   UNL     1     -11.291  12.437  68.249  1.00  0.00    -0.284 C  
HETATM    8  H   UNL     1      -9.512  11.740  68.988  1.00  0.00     0.000 HD 
HETATM    9  O   UNL     1     -12.257  12.330  67.494  1.00  0.00    -0.457 OA 
BRANCH   7  10
HETATM   10  C   UNL     1     -11.121  13.635  69.166  1.00  0.00    -0.275 C  
BRANCH  10  11
HETATM   11  C   UNL     1     -12.138  13.682  70.279  1.00  0.00    -0.427 A  
HETATM   12  C   UNL     1     -12.855  14.859  70.543  1.00  0.00    -0.376 A  
HETATM   13  C   UNL     1     -13.820  14.893  71.551  1.00  0.00    -0.550 A  
HETATM   14  C   UNL     1     -14.085  13.748  72.299  1.00  0.00    -0.627 A  
HETATM   15  C   UNL     1     -13.386  12.572  72.042  1.00  0.00    -0.528 A  
HETATM   16  C   UNL     1     -12.418  12.536  71.037  1.00  0.00    -0.353 A  
ENDBRANCH  10  11
ENDBRANCH   7  10
ENDBRANCH   3   6
TORSDOF 3
ENDMDL
MODEL       63
REMARK 921   NORMALIZED FREE ENERGY PREDICTED BY IDOCK:   -4.25 KCAL/MOL
REMARK 922        TOTAL FREE ENERGY PREDICTED BY IDOCK:   -5.32 KCAL/MOL
REMARK 923 INTER-LIGAND FREE ENERGY PREDICTED BY IDOCK:   -5.02 KCAL/MOL
REMARK 924 INTRA-LIGAND FREE ENERGY PREDICTED BY IDOCK:   -0.30 KCAL/MOL
REMARK 927      BINDING AFFINITY PREDICTED BY RF-SCORE:    0.00 PKD
ROOT
HETATM    1  N   UNL     1     -11.968   9.930  71.052  1.00  0.00    -0.337 N  
HETATM    2  H1  UNL     1     -12.689  10.495  70.604  1.00  0.00     0.000 HD 
HETATM    3  C   UNL     1     -10.670  10.019  70.696  1.00  0.00    -0.254 C  
HETATM    4  H2  UNL     1     -12.236   9.279  71.790  1.00  0.00     0.000 HD 
HETATM    5  O   UNL     1      -9.804   9.340  71.235  1.00  0.00    -0.289 OA 
ENDROOT
BRANCH   3   6
HETATM    6  N   UNL     1     -10.357  10.918  69.716  1.00  0.00    -0.449 N  
HETATM    7  C   UNL     1     -11.130  11.302  68.633  1.00  0.00    -0.232 C  
HETATM    8  H   UNL     1      -9.441  11.360  69.790  1.00  0.00     0.000 HD 
HETATM    9  O   UNL     1     -12.245  10.845  68.382  1.00  0.00    -0.540 OA 
BRANCH   7  10
HETATM   10  C   UNL     1     -10.471  12.340  67.744  1.00  0.00    -0.225 C  
BRANCH  10  11
HETATM   11  C   UNL     1     -10.938  12.279  66.311  1.00  0.00    -0.327 A  
HETATM   12  C   UNL     1     -10.262  11.485  65.371  1.00  0.00    -0.311 A  
HETATM   13  C   UNL     1     -10.714  11.403  64.054  1.00  0.00    -0.450 A  
HETATM   14  C   UNL     1     -11.852  12.105  63.663  1.00  0.00    -0.608 A  
HETATM   15  C   UNL     1     -12.536  12.891  64.587  1.00  0.00    -0.499 A  
HETATM   16  C   UNL     1     -12.084  12.978  65.906  1.00  0.00    -0.503 A  
ENDBRANCH  10  11
ENDBRANCH   7  10
ENDBRANCH   3   6
TORSDOF 3
ENDMDL
MODEL       64
REMARK 921   NORMALIZED FREE ENERGY PREDICTED BY IDOCK:   -4.23 KCAL/MOL
REMARK 922        TOTAL FREE ENERGY PREDICTED BY IDOCK:   -5.29 KCAL/MOL
REMARK 923 INTER-LIGAND FREE ENERGY PREDICTED BY IDOCK:   -4.84 KCAL/MOL
REMARK 924 INTRA-LIGAND FREE ENERGY PREDICTED BY IDOCK:   -0.45 KCAL/MOL
REMARK 927      BINDING AFFINITY PREDICTED BY RF-SCORE:    0.00 PKD
ROOT
HETATM    1  N   UNL     1     -12.495  14.370  69.438  1.00  0.00    -0.548 N  
HETATM    2  H1  UNL     1     -12.767  13.980  68.536  1.00  0.00     0.000 HD 
HETATM    3  C   UNL     1     -11.751  15.491  69.533  1.00  0.00    -0.365 C  
HETATM    4  H2  UNL     1     -12.795  13.901  70.292  1.00  0.00     0.000 HD 
HETATM    5  O   UNL     1     -11.424  15.961  70.618  1.00  0.00    -0.342 OA 
ENDROOT
BRANCH   3   6
HETATM    6  N   UNL     1     -11.388  16.095  68.363  1.00  0.00    -0.368 N  
HETATM    7  C   UNL     1     -10.637  15.565  67.328  1.00  0.00    -0.299 C  
HETATM    8  H   UNL     1     -11.710  17.055  68.236  1.00  0.00     0.000 HD 
HETATM    9  O   UNL     1     -10.150  14.435  67.333  1.00  0.00    -0.240 OA 
BRANCH   7  10
HETATM   10  C   UNL     1     -10.435  16.518  66.163  1.00  0.00    -0.301 C  
BRANCH  10  11
HETATM   11  C   UNL     1      -9.808  17.828  66.569  1.00  0.00    -0.331 A  
HETATM   12  C   UNL     1      -8.509  17.865  67.100  1.00  0.00    -0.242 A  
HETATM   13  C   UNL     1      -7.916  19.081  67.444  1.00  0.00    -0.272 A  
HETATM   14  C   UNL     1      -8.610  20.273  67.252  1.00  0.00    -0.425 A  
HETATM   15  C   UNL     1      -9.896  20.251  66.719  1.00  0.00    -0.586 A  
HETATM   16  C   UNL     1     -10.494  19.036  66.377  1.00  0.00    -0.524 A  
ENDBRANCH  10  11
ENDBRANCH   7  10
ENDBRANCH   3   6
TORSDOF 3
ENDMDL
MODEL       65
REMARK 921   NORMALIZED FREE ENERGY PREDICTED BY IDOCK:   -4.21 KCAL/MOL
REMARK 922        TOTAL FREE ENERGY PREDICTED BY IDOCK:   -5.27 KCAL/MOL
REMARK 923 INTER-LIGAND FREE ENERGY PREDICTED BY IDOCK:   -4.95 KCAL/MOL
REMARK 924 INTRA-LIGAND FREE ENERGY PREDICTED BY IDOCK:   -0.32 KCAL/MOL
REMARK 927      BINDING AFFINITY PREDICTED BY RF-SCORE:    0.00 PKD
ROOT
HETATM    1  N   UNL     1     -10.215  13.441  64.797  1.00  0.00    -0.553 N  
HETATM    2  H1  UNL     1      -9.735  12.550  64.672  1.00  0.00     0.000 HD 
HETATM    3  C   UNL     1     -10.572  13.893  66.016  1.00  0.00    -0.293 C  
HETATM    4  H2  UNL     1     -10.431  14.006  63.976  1.00  0.00     0.000 HD 
HETATM    5  O   UNL     1     -11.149  14.965  66.165  1.00  0.00    -0.331 OA 
ENDROOT
BRANCH   3   6
HETATM    6  N   UNL     1     -10.246  13.110  67.087  1.00  0.00    -0.243 N  
HETATM    7  C   UNL     1     -10.876  11.957  67.522  1.00  0.00    -0.238 C  
HETATM    8  H   UNL     1      -9.439  13.413  67.633  1.00  0.00     0.000 HD 
HETATM    9  O   UNL     1     -11.877  11.473  66.995  1.00  0.00    -0.568 OA 
BRANCH   7  10
HETATM   10  C   UNL     1     -10.234  11.330  68.747  1.00  0.00    -0.215 C  
BRANCH  10  11
HETATM   11  C   UNL     1     -11.221  11.024  69.845  1.00  0.00    -0.327 A  
HETATM   12  C   UNL     1     -12.070  12.024  70.344  1.00  0.00    -0.407 A  
HETATM   13  C   UNL     1     -13.007  11.732  71.337  1.00  0.00    -0.408 A  
HETATM   14  C   UNL     1     -13.112  10.435  71.835  1.00  0.00    -0.563 A  
HETATM   15  C   UNL     1     -12.281   9.432  71.343  1.00  0.00    -0.438 A  
HETATM   16  C   UNL     1     -11.341   9.722  70.352  1.00  0.00    -0.362 A  
ENDBRANCH  10  11
ENDBRANCH   7  10
ENDBRANCH   3   6
TORSDOF 3
ENDMDL
MODEL       66
REMARK 921   NORMALIZED FREE ENERGY PREDICTED BY IDOCK:   -4.20 KCAL/MOL
REMARK 922        TOTAL FREE ENERGY PREDICTED BY IDOCK:   -5.26 KCAL/MOL
REMARK 923 INTER-LIGAND FREE ENERGY PREDICTED BY IDOCK:   -4.84 KCAL/MOL
REMARK 924 INTRA-LIGAND FREE ENERGY PREDICTED BY IDOCK:   -0.42 KCAL/MOL
REMARK 927      BINDING AFFINITY PREDICTED BY RF-SCORE:    0.00 PKD
ROOT
HETATM    1  N   UNL     1     -10.128  16.478  65.550  1.00  0.00    -0.243 N  
HETATM    2  H1  UNL     1      -9.827  15.991  66.395  1.00  0.00     0.000 HD 
HETATM    3  C   UNL     1     -11.078  15.972  64.737  1.00  0.00    -0.365 C  
HETATM    4  H2  UNL     1      -9.700  17.373  65.315  1.00  0.00     0.000 HD 
HETATM    5  O   UNL     1     -11.440  16.557  63.723  1.00  0.00    -1.065 OA 
ENDROOT
BRANCH   3   6
HETATM    6  N   UNL     1     -11.636  14.780  65.104  1.00  0.00    -0.362 N  
HETATM    7  C   UNL     1     -11.005  13.560  65.272  1.00  0.00    -0.295 C  
HETATM    8  H   UNL     1     -12.642  14.791  65.274  1.00  0.00     0.000 HD 
HETATM    9  O   UNL     1      -9.804  13.368  65.081  1.00  0.00    -0.194 OA 
BRANCH   7  10
HETATM   10  C   UNL     1     -11.936  12.440  65.701  1.00  0.00    -0.449 C  
BRANCH  10  11
HETATM   11  C   UNL     1     -11.492  11.749  66.966  1.00  0.00    -0.368 A  
HETATM   12  C   UNL     1     -10.727  10.573  66.909  1.00  0.00    -0.281 A  
HETATM   13  C   UNL     1     -10.288   9.952  68.079  1.00  0.00    -0.244 A  
HETATM   14  C   UNL     1     -10.600  10.504  69.319  1.00  0.00    -0.265 A  
HETATM   15  C   UNL     1     -11.352  11.674  69.390  1.00  0.00    -0.342 A  
HETATM   16  C   UNL     1     -11.796  12.296  68.221  1.00  0.00    -0.367 A  
ENDBRANCH  10  11
ENDBRANCH   7  10
ENDBRANCH   3   6
TORSDOF 3
ENDMDL
MODEL       67
REMARK 921   NORMALIZED FREE ENERGY PREDICTED BY IDOCK:   -4.19 KCAL/MOL
REMARK 922        TOTAL FREE ENERGY PREDICTED BY IDOCK:   -5.25 KCAL/MOL
REMARK 923 INTER-LIGAND FREE ENERGY PREDICTED BY IDOCK:   -4.85 KCAL/MOL
REMARK 924 INTRA-LIGAND FREE ENERGY PREDICTED BY IDOCK:   -0.40 KCAL/MOL
REMARK 927      BINDING AFFINITY PREDICTED BY RF-SCORE:    0.00 PKD
ROOT
HETATM    1  N   UNL     1     -12.544   9.416  70.629  1.00  0.00    -0.507 N  
HETATM    2  H1  UNL     1     -12.015   8.878  69.943  1.00  0.00     0.000 HD 
HETATM    3  C   UNL     1     -12.292  10.721  70.857  1.00  0.00    -0.396 C  
HETATM    4  H2  UNL     1     -13.283   8.954  71.158  1.00  0.00     0.000 HD 
HETATM    5  O   UNL     1     -12.928  11.368  71.682  1.00  0.00    -0.448 OA 
ENDROOT
BRANCH   3   6
HETATM    6  N   UNL     1     -11.304  11.301  70.112  1.00  0.00    -0.480 N  
HETATM    7  C   UNL     1     -11.315  11.587  68.758  1.00  0.00    -0.265 C  
HETATM    8  H   UNL     1     -10.454  11.554  70.616  1.00  0.00     0.000 HD 
HETATM    9  O   UNL     1     -12.250  11.321  68.001  1.00  0.00    -0.621 OA 
BRANCH   7  10
HETATM   10  C   UNL     1     -10.045  12.250  68.259  1.00  0.00    -0.218 C  
BRANCH  10  11
HETATM   11  C   UNL     1     -10.304  13.390  67.306  1.00  0.00    -0.244 A  
HETATM   12  C   UNL     1     -10.677  14.655  67.787  1.00  0.00    -0.265 A  
HETATM   13  C   UNL     1     -10.884  15.718  66.907  1.00  0.00    -0.265 A  
HETATM   14  C   UNL     1     -10.711  15.532  65.538  1.00  0.00    -0.395 A  
HETATM   15  C   UNL     1     -10.334  14.285  65.048  1.00  0.00    -0.448 A  
HETATM   16  C   UNL     1     -10.129  13.218  65.925  1.00  0.00    -0.296 A  
ENDBRANCH  10  11
ENDBRANCH   7  10
ENDBRANCH   3   6
TORSDOF 3
ENDMDL
MODEL       68
REMARK 921   NORMALIZED FREE ENERGY PREDICTED BY IDOCK:   -4.19 KCAL/MOL
REMARK 922        TOTAL FREE ENERGY PREDICTED BY IDOCK:   -5.25 KCAL/MOL
REMARK 923 INTER-LIGAND FREE ENERGY PREDICTED BY IDOCK:   -4.93 KCAL/MOL
REMARK 924 INTRA-LIGAND FREE ENERGY PREDICTED BY IDOCK:   -0.32 KCAL/MOL
REMARK 927      BINDING AFFINITY PREDICTED BY RF-SCORE:    0.00 PKD
ROOT
HETATM    1  N   UNL     1      -7.933  13.047  68.946  1.00  0.00    -0.335 N  
HETATM    2  H1  UNL     1      -8.070  13.575  69.808  1.00  0.00     0.000 HD 
HETATM    3  C   UNL     1      -8.970  12.660  68.176  1.00  0.00    -0.199 C  
HETATM    4  H2  UNL     1      -6.985  12.806  68.659  1.00  0.00     0.000 HD 
HETATM    5  O   UNL     1      -8.805  12.026  67.140  1.00  0.00    -0.174 OA 
ENDROOT
BRANCH   3   6
HETATM    6  N   UNL     1     -10.220  13.023  68.592  1.00  0.00    -0.372 N  
HETATM    7  C   UNL     1     -10.784  14.287  68.593  1.00  0.00    -0.249 C  
HETATM    8  H   UNL     1     -10.810  12.270  68.946  1.00  0.00     0.000 HD 
HETATM    9  O   UNL     1     -10.200  15.307  68.226  1.00  0.00    -0.222 OA 
BRANCH   7  10
HETATM   10  C   UNL     1     -12.209  14.324  69.115  1.00  0.00    -0.272 C  
BRANCH  10  11
HETATM   11  C   UNL     1     -12.293  14.608  70.594  1.00  0.00    -0.398 A  
HETATM   12  C   UNL     1     -11.719  15.769  71.134  1.00  0.00    -0.476 A  
HETATM   13  C   UNL     1     -11.825  16.048  72.497  1.00  0.00    -0.630 A  
HETATM   14  C   UNL     1     -12.515  15.174  73.334  1.00  0.00    -0.632 A  
HETATM   15  C   UNL     1     -13.096  14.022  72.810  1.00  0.00    -0.537 A  
HETATM   16  C   UNL     1     -12.988  13.739  71.447  1.00  0.00    -0.433 A  
ENDBRANCH  10  11
ENDBRANCH   7  10
ENDBRANCH   3   6
TORSDOF 3
ENDMDL
MODEL       69
REMARK 921   NORMALIZED FREE ENERGY PREDICTED BY IDOCK:   -4.17 KCAL/MOL
REMARK 922        TOTAL FREE ENERGY PREDICTED BY IDOCK:   -5.23 KCAL/MOL
REMARK 923 INTER-LIGAND FREE ENERGY PREDICTED BY IDOCK:   -4.88 KCAL/MOL
REMARK 924 INTRA-LIGAND FREE ENERGY PREDICTED BY IDOCK:   -0.35 KCAL/MOL
REMARK 927      BINDING AFFINITY PREDICTED BY RF-SCORE:    0.00 PKD
ROOT
HETATM    1  N   UNL     1     -12.486  14.388  63.668  1.00  0.00    -1.086 N  
HETATM    2  H1  UNL     1     -12.015  15.259  63.917  1.00  0.00     0.000 HD 
HETATM    3  C   UNL     1     -12.497  13.324  64.496  1.00  0.00    -0.319 C  
HETATM    4  H2  UNL     1     -12.963  14.323  62.769  1.00  0.00     0.000 HD 
HETATM    5  O   UNL     1     -13.064  12.278  64.197  1.00  0.00    -0.749 OA 
ENDROOT
BRANCH   3   6
HETATM    6  N   UNL     1     -11.860  13.466  65.696  1.00  0.00    -0.351 N  
HETATM    7  C   UNL     1     -10.809  14.310  66.008  1.00  0.00    -0.303 C  
HETATM    8  H   UNL     1     -12.201  12.876  66.456  1.00  0.00     0.000 HD 
HETATM    9  O   UNL     1     -10.263  15.064  65.203  1.00  0.00    -0.379 OA 
BRANCH   7  10
HETATM   10  C   UNL     1     -10.354  14.218  67.454  1.00  0.00    -0.259 C  
BRANCH  10  11
HETATM   11  C   UNL     1      -9.818  15.520  67.993  1.00  0.00    -0.212 A  
HETATM   12  C   UNL     1      -8.435  15.745  68.078  1.00  0.00    -0.161 A  
HETATM   13  C   UNL     1      -7.940  16.963  68.546  1.00  0.00    -0.242 A  
HETATM   14  C   UNL     1      -8.821  17.973  68.926  1.00  0.00    -0.133 A  
HETATM   15  C   UNL     1     -10.195  17.765  68.840  1.00  0.00    -0.345 A  
HETATM   16  C   UNL     1     -10.694  16.546  68.375  1.00  0.00    -0.339 A  
ENDBRANCH  10  11
ENDBRANCH   7  10
ENDBRANCH   3   6
TORSDOF 3
ENDMDL
MODEL       70
REMARK 921   NORMALIZED FREE ENERGY PREDICTED BY IDOCK:   -4.17 KCAL/MOL
REMARK 922        TOTAL FREE ENERGY PREDICTED BY IDOCK:   -5.22 KCAL/MOL
REMARK 923 INTER-LIGAND FREE ENERGY PREDICTED BY IDOCK:   -4.85 KCAL/MOL
REMARK 924 INTRA-LIGAND FREE ENERGY PREDICTED BY IDOCK:   -0.38 KCAL/MOL
REMARK 927      BINDING AFFINITY PREDICTED BY RF-SCORE:    0.00 PKD
ROOT
HETATM    1  N   UNL     1     -11.892  12.667  70.319  1.00  0.00    -0.537 N  
HETATM    2  H1  UNL     1     -11.444  12.784  71.228  1.00  0.00     0.000 HD 
HETATM    3  C   UNL     1     -11.646  11.596  69.537  1.00  0.00    -0.331 C  
HETATM    4  H2  UNL     1     -12.543  13.380  69.992  1.00  0.00     0.000 HD 
HETATM    5  O   UNL     1     -12.185  11.456  68.444  1.00  0.00    -0.571 OA 
ENDROOT
BRANCH   3   6
HETATM    6  N   UNL     1     -10.780  10.658  70.025  1.00  0.00    -0.448 N  
HETATM    7  C   UNL     1     -10.959   9.815  71.108  1.00  0.00    -0.316 C  
HETATM    8  H   UNL     1      -9.893  10.569  69.530  1.00  0.00     0.000 HD 
HETATM    9  O   UNL     1     -11.958   9.814  71.827  1.00  0.00    -0.392 OA 
BRANCH   7  10
HETATM   10  C   UNL     1      -9.789   8.882  71.361  1.00  0.00    -0.376 C  
BRANCH  10  11
HETATM   11  C   UNL     1     -10.160   7.672  72.181  1.00  0.00    -0.246 A  
HETATM   12  C   UNL     1     -10.808   6.577  71.588  1.00  0.00    -0.281 A  
HETATM   13  C   UNL     1     -11.121   5.444  72.340  1.00  0.00    -0.289 A  
HETATM   14  C   UNL     1     -10.781   5.388  73.690  1.00  0.00    -0.337 A  
HETATM   15  C   UNL     1     -10.131   6.464  74.288  1.00  0.00    -0.365 A  
HETATM   16  C   UNL     1      -9.820   7.601  73.539  1.00  0.00    -0.357 A  
ENDBRANCH  10  11
ENDBRANCH   7  10
ENDBRANCH   3   6
TORSDOF 3
ENDMDL
MODEL       71
REMARK 921   NORMALIZED FREE ENERGY PREDICTED BY IDOCK:   -4.11 KCAL/MOL
REMARK 922        TOTAL FREE ENERGY PREDICTED BY IDOCK:   -5.16 KCAL/MOL
REMARK 923 INTER-LIGAND FREE ENERGY PREDICTED BY IDOCK:   -4.92 KCAL/MOL
REMARK 924 INTRA-LIGAND FREE ENERGY PREDICTED BY IDOCK:   -0.24 KCAL/MOL
REMARK 927      BINDING AFFINITY PREDICTED BY RF-SCORE:    0.00 PKD
ROOT
HETATM    1  N   UNL     1     -10.106  13.060  64.033  1.00  0.00    -0.612 N  
HETATM    2  H1  UNL     1      -9.485  13.591  64.643  1.00  0.00     0.000 HD 
HETATM    3  C   UNL     1     -11.082  12.270  64.525  1.00  0.00    -0.321 C  
HETATM    4  H2  UNL     1      -9.986  13.129  63.022  1.00  0.00     0.000 HD 
HETATM    5  O   UNL     1     -11.829  11.632  63.792  1.00  0.00    -0.396 OA 
ENDROOT
BRANCH   3   6
HETATM    6  N   UNL     1     -11.216  12.224  65.884  1.00  0.00    -0.325 N  
HETATM    7  C   UNL     1     -11.893  13.111  66.704  1.00  0.00    -0.391 C  
HETATM    8  H   UNL     1     -10.761  11.440  66.352  1.00  0.00     0.000 HD 
HETATM    9  O   UNL     1     -12.470  14.122  66.303  1.00  0.00    -0.466 OA 
BRANCH   7  10
HETATM   10  C   UNL     1     -11.848  12.744  68.176  1.00  0.00    -0.372 C  
BRANCH  10  11
HETATM   11  C   UNL     1     -11.645  13.935  69.080  1.00  0.00    -0.351 A  
HETATM   12  C   UNL     1     -10.539  14.782  68.909  1.00  0.00    -0.250 A  
HETATM   13  C   UNL     1     -10.370  15.902  69.724  1.00  0.00    -0.290 A  
HETATM   14  C   UNL     1     -11.307  16.193  70.712  1.00  0.00    -0.397 A  
HETATM   15  C   UNL     1     -12.412  15.365  70.887  1.00  0.00    -0.474 A  
HETATM   16  C   UNL     1     -12.583  14.241  70.075  1.00  0.00    -0.277 A  
ENDBRANCH  10  11
ENDBRANCH   7  10
ENDBRANCH   3   6
TORSDOF 3
ENDMDL
MODEL       72
REMARK 921   NORMALIZED FREE ENERGY PREDICTED BY IDOCK:   -4.08 KCAL/MOL
REMARK 922        TOTAL FREE ENERGY PREDICTED BY IDOCK:   -5.12 KCAL/MOL
REMARK 923 INTER-LIGAND FREE ENERGY PREDICTED BY IDOCK:   -4.88 KCAL/MOL
REMARK 924 INTRA-LIGAND FREE ENERGY PREDICTED BY IDOCK:   -0.23 KCAL/MOL
REMARK 927      BINDING AFFINITY PREDICTED BY RF-SCORE:    0.00 PKD
ROOT
HETATM    1  N   UNL     1      -9.443  14.854  69.335  1.00  0.00    -0.404 N  
HETATM    2  H1  UNL     1      -8.799  14.095  69.559  1.00  0.00     0.000 HD 
HETATM    3  C   UNL     1     -10.710  14.618  68.939  1.00  0.00    -0.248 C  
HETATM    4  H2  UNL     1      -9.118  15.818  69.412  1.00  0.00     0.000 HD 
HETATM    5  O   UNL     1     -11.484  15.531  68.669  1.00  0.00    -0.322 OA 
ENDROOT
BRANCH   3   6
HETATM    6  N   UNL     1     -11.105  13.312  68.868  1.00  0.00    -0.258 N  
HETATM    7  C   UNL     1     -11.821  12.587  69.804  1.00  0.00    -0.310 C  
HETATM    8  H   UNL     1     -10.838  12.809  68.021  1.00  0.00     0.000 HD 
HETATM    9  O   UNL     1     -12.195  13.034  70.888  1.00  0.00    -0.354 OA 
BRANCH   7  10
HETATM   10  C   UNL     1     -12.099  11.153  69.390  1.00  0.00    -0.396 C  
BRANCH  10  11
HETATM   11  C   UNL     1     -11.947  10.167  70.521  1.00  0.00    -0.400 A  
HETATM   12  C   UNL     1     -13.064   9.751  71.262  1.00  0.00    -0.465 A  
HETATM   13  C   UNL     1     -12.927   8.813  72.287  1.00  0.00    -0.462 A  
HETATM   14  C   UNL     1     -11.676   8.274  72.576  1.00  0.00    -0.451 A  
HETATM   15  C   UNL     1     -10.561   8.673  71.843  1.00  0.00    -0.411 A  
HETATM   16  C   UNL     1     -10.694   9.614  70.819  1.00  0.00    -0.401 A  
ENDBRANCH  10  11
ENDBRANCH   7  10
ENDBRANCH   3   6
TORSDOF 3
ENDMDL
MODEL       73
REMARK 921   NORMALIZED FREE ENERGY PREDICTED BY IDOCK:   -4.07 KCAL/MOL
REMARK 922        TOTAL FREE ENERGY PREDICTED BY IDOCK:   -5.11 KCAL/MOL
REMARK 923 INTER-LIGAND FREE ENERGY PREDICTED BY IDOCK:   -4.93 KCAL/MOL
REMARK 924 INTRA-LIGAND FREE ENERGY PREDICTED BY IDOCK:   -0.18 KCAL/MOL
REMARK 927      BINDING AFFINITY PREDICTED BY RF-SCORE:    0.00 PKD
ROOT
HETATM    1  N   UNL     1     -11.993  10.311  70.876  1.00  0.00    -0.344 N  
HETATM    2  H1  UNL     1     -12.556  11.002  70.380  1.00  0.00     0.000 HD 
HETATM    3  C   UNL     1     -10.741   9.999  70.483  1.00  0.00    -0.285 C  
HETATM    4  H2  UNL     1     -12.387   9.844  71.692  1.00  0.00     0.000 HD 
HETATM    5  O   UNL     1     -10.064   9.169  71.080  1.00  0.00    -0.252 OA 
ENDROOT
BRANCH   3   6
HETATM    6  N   UNL     1     -10.249  10.664  69.396  1.00  0.00    -0.313 N  
HETATM    7  C   UNL     1     -10.946  11.124  68.292  1.00  0.00    -0.226 C  
HETATM    8  H   UNL     1      -9.244  10.842  69.397  1.00  0.00     0.000 HD 
HETATM    9  O   UNL     1     -12.154  10.967  68.120  1.00  0.00    -0.610 OA 
BRANCH   7  10
HETATM   10  C   UNL     1     -10.078  11.838  67.270  1.00  0.00    -0.211 C  
BRANCH  10  11
HETATM   11  C   UNL     1     -10.799  12.132  65.979  1.00  0.00    -0.318 A  
HETATM   12  C   UNL     1     -11.769  13.145  65.915  1.00  0.00    -0.427 A  
HETATM   13  C   UNL     1     -12.412  13.439  64.712  1.00  0.00    -0.416 A  
HETATM   14  C   UNL     1     -12.087  12.731  63.558  1.00  0.00    -0.642 A  
HETATM   15  C   UNL     1     -11.122  11.728  63.606  1.00  0.00    -0.518 A  
HETATM   16  C   UNL     1     -10.479  11.429  64.809  1.00  0.00    -0.366 A  
ENDBRANCH  10  11
ENDBRANCH   7  10
ENDBRANCH   3   6
TORSDOF 3
ENDMDL
MODEL       74
REMARK 921   NORMALIZED FREE ENERGY PREDICTED BY IDOCK:   -4.07 KCAL/MOL
REMARK 922        TOTAL FREE ENERGY PREDICTED BY IDOCK:   -5.10 KCAL/MOL
REMARK 923 INTER-LIGAND FREE ENERGY PREDICTED BY IDOCK:   -4.68 KCAL/MOL
REMARK 924 INTRA-LIGAND FREE ENERGY PREDICTED BY IDOCK:   -0.43 KCAL/MOL
REMARK 927      BINDING AFFINITY PREDICTED BY RF-SCORE:    0.00 PKD
ROOT
HETATM    1  N   UNL     1     -10.338  19.029  67.771  1.00  0.00    -0.396 N  
HETATM    2  H1  UNL     1     -10.468  18.183  68.327  1.00  0.00     0.000 HD 
HETATM    3  C   UNL     1     -10.458  19.024  66.428  1.00  0.00    -0.446 C  
HETATM    4  H2  UNL     1     -10.110  19.902  68.245  1.00  0.00     0.000 HD 
HETATM    5  O   UNL     1     -10.302  20.040  65.761  1.00  0.00    -0.479 OA 
ENDROOT
BRANCH   3   6
HETATM    6  N   UNL     1     -10.782  17.834  65.840  1.00  0.00    -0.239 N  
HETATM    7  C   UNL     1     -10.091  16.637  65.902  1.00  0.00    -0.320 C  
HETATM    8  H   UNL     1     -11.639  17.827  65.286  1.00  0.00     0.000 HD 
HETATM    9  O   UNL     1      -9.027  16.481  66.502  1.00  0.00    -0.232 OA 
BRANCH   7  10
HETATM   10  C   UNL     1     -10.749  15.505  65.134  1.00  0.00    -0.460 C  
BRANCH  10  11
HETATM   11  C   UNL     1     -11.016  14.286  65.982  1.00  0.00    -0.312 A  
HETATM   12  C   UNL     1     -11.733  14.394  67.184  1.00  0.00    -0.424 A  
HETATM   13  C   UNL     1     -12.008  13.261  67.951  1.00  0.00    -0.349 A  
HETATM   14  C   UNL     1     -11.577  12.008  67.522  1.00  0.00    -0.401 A  
HETATM   15  C   UNL     1     -10.871  11.887  66.328  1.00  0.00    -0.323 A  
HETATM   16  C   UNL     1     -10.592  13.019  65.560  1.00  0.00    -0.297 A  
ENDBRANCH  10  11
ENDBRANCH   7  10
ENDBRANCH   3   6
TORSDOF 3
ENDMDL
MODEL       75
REMARK 921   NORMALIZED FREE ENERGY PREDICTED BY IDOCK:   -4.06 KCAL/MOL
REMARK 922        TOTAL FREE ENERGY PREDICTED BY IDOCK:   -5.10 KCAL/MOL
REMARK 923 INTER-LIGAND FREE ENERGY PREDICTED BY IDOCK:   -4.80 KCAL/MOL
REMARK 924 INTRA-LIGAND FREE ENERGY PREDICTED BY IDOCK:   -0.30 KCAL/MOL
REMARK 927      BINDING AFFINITY PREDICTED BY RF-SCORE:    0.00 PKD
ROOT
HETATM    1  N   UNL     1     -10.095   5.178  68.779  1.00  0.00    -0.176 N  
HETATM    2  H1  UNL     1      -9.960   4.981  69.771  1.00  0.00     0.000 HD 
HETATM    3  C   UNL     1     -10.976   6.105  68.351  1.00  0.00    -0.305 C  
HETATM    4  H2  UNL     1      -9.547   4.661  68.092  1.00  0.00     0.000 HD 
HETATM    5  O   UNL     1     -11.137   6.342  67.158  1.00  0.00    -0.377 OA 
ENDROOT
BRANCH   3   6
HETATM    6  N   UNL     1     -11.674   6.786  69.308  1.00  0.00    -0.605 N  
HETATM    7  C   UNL     1     -11.192   7.337  70.483  1.00  0.00    -0.279 C  
HETATM    8  H   UNL     1     -12.673   6.902  69.136  1.00  0.00     0.000 HD 
HETATM    9  O   UNL     1     -10.020   7.263  70.854  1.00  0.00    -0.185 OA 
BRANCH   7  10
HETATM   10  C   UNL     1     -12.251   8.040  71.312  1.00  0.00    -0.308 C  
BRANCH  10  11
HETATM   11  C   UNL     1     -12.276   9.534  71.103  1.00  0.00    -0.421 A  
HETATM   12  C   UNL     1     -11.572  10.119  70.039  1.00  0.00    -0.323 A  
HETATM   13  C   UNL     1     -11.622  11.498  69.827  1.00  0.00    -0.401 A  
HETATM   14  C   UNL     1     -12.384  12.305  70.667  1.00  0.00    -0.375 A  
HETATM   15  C   UNL     1     -13.094  11.736  71.722  1.00  0.00    -0.480 A  
HETATM   16  C   UNL     1     -13.043  10.357  71.940  1.00  0.00    -0.563 A  
ENDBRANCH  10  11
ENDBRANCH   7  10
ENDBRANCH   3   6
TORSDOF 3
ENDMDL
MODEL       76
REMARK 921   NORMALIZED FREE ENERGY PREDICTED BY IDOCK:   -4.06 KCAL/MOL
REMARK 922        TOTAL FREE ENERGY PREDICTED BY IDOCK:   -5.10 KCAL/MOL
REMARK 923 INTER-LIGAND FREE ENERGY PREDICTED BY IDOCK:   -4.67 KCAL/MOL
REMARK 924 INTRA-LIGAND FREE ENERGY PREDICTED BY IDOCK:   -0.42 KCAL/MOL
REMARK 927      BINDING AFFINITY PREDICTED BY RF-SCORE:    0.00 PKD
ROOT
HETATM    1  N   UNL     1     -13.937   9.007  72.929  1.00  0.00    -0.896 N  
HETATM    2  H1  UNL     1     -13.771   8.021  73.130  1.00  0.00     0.000 HD 
HETATM    3  C   UNL     1     -13.069   9.742  72.204  1.00  0.00    -0.422 C  
HETATM    4  H2  UNL     1     -14.783   9.450  73.286  1.00  0.00     0.000 HD 
HETATM    5  O   UNL     1     -13.269  10.927  71.962  1.00  0.00    -0.492 OA 
ENDROOT
BRANCH   3   6
HETATM    6  N   UNL     1     -11.959   9.100  71.731  1.00  0.00    -0.358 N  
HETATM    7  C   UNL     1     -11.860   7.803  71.260  1.00  0.00    -0.295 C  
HETATM    8  H   UNL     1     -11.096   9.645  71.725  1.00  0.00     0.000 HD 
HETATM    9  O   UNL     1     -12.797   7.005  71.226  1.00  0.00    -0.377 OA 
BRANCH   7  10
HETATM   10  C   UNL     1     -10.466   7.420  70.798  1.00  0.00    -0.221 C  
BRANCH  10  11
HETATM   11  C   UNL     1     -10.426   6.925  69.373  1.00  0.00    -0.237 A  
HETATM   12  C   UNL     1     -10.471   7.829  68.300  1.00  0.00    -0.215 A  
HETATM   13  C   UNL     1     -10.401   7.373  66.983  1.00  0.00    -0.384 A  
HETATM   14  C   UNL     1     -10.276   6.010  66.724  1.00  0.00    -0.268 A  
HETATM   15  C   UNL     1     -10.223   5.104  67.780  1.00  0.00    -0.190 A  
HETATM   16  C   UNL     1     -10.296   5.557  69.099  1.00  0.00    -0.318 A  
ENDBRANCH  10  11
ENDBRANCH   7  10
ENDBRANCH   3   6
TORSDOF 3
ENDMDL
MODEL       77
REMARK 921   NORMALIZED FREE ENERGY PREDICTED BY IDOCK:   -4.05 KCAL/MOL
REMARK 922        TOTAL FREE ENERGY PREDICTED BY IDOCK:   -5.09 KCAL/MOL
REMARK 923 INTER-LIGAND FREE ENERGY PREDICTED BY IDOCK:   -4.67 KCAL/MOL
REMARK 924 INTRA-LIGAND FREE ENERGY PREDICTED BY IDOCK:   -0.42 KCAL/MOL
REMARK 927      BINDING AFFINITY PREDICTED BY RF-SCORE:    0.00 PKD
ROOT
HETATM    1  N   UNL     1     -10.540  10.364  70.095  1.00  0.00    -0.436 N  
HETATM    2  H1  UNL     1     -10.462  11.369  69.940  1.00  0.00     0.000 HD 
HETATM    3  C   UNL     1     -10.553   9.486  69.072  1.00  0.00    -0.219 C  
HETATM    4  H2  UNL     1     -10.609  10.014  71.050  1.00  0.00     0.000 HD 
HETATM    5  O   UNL     1     -10.646   8.277  69.258  1.00  0.00    -0.223 OA 
ENDROOT
BRANCH   3   6
HETATM    6  N   UNL     1     -10.439  10.000  67.812  1.00  0.00    -0.216 N  
HETATM    7  C   UNL     1     -11.154  11.044  67.250  1.00  0.00    -0.294 C  
HETATM    8  H   UNL     1      -9.742   9.561  67.210  1.00  0.00     0.000 HD 
HETATM    9  O   UNL     1     -12.049  11.661  67.829  1.00  0.00    -0.613 OA 
BRANCH   7  10
HETATM   10  C   UNL     1     -10.756  11.364  65.821  1.00  0.00    -0.309 C  
BRANCH  10  11
HETATM   11  C   UNL     1     -10.949  12.816  65.460  1.00  0.00    -0.310 A  
HETATM   12  C   UNL     1     -10.000  13.779  65.837  1.00  0.00    -0.308 A  
HETATM   13  C   UNL     1     -10.162  15.117  65.475  1.00  0.00    -0.405 A  
HETATM   14  C   UNL     1     -11.268  15.505  64.723  1.00  0.00    -0.399 A  
HETATM   15  C   UNL     1     -12.213  14.558  64.336  1.00  0.00    -0.480 A  
HETATM   16  C   UNL     1     -12.055  13.219  64.700  1.00  0.00    -0.458 A  
ENDBRANCH  10  11
ENDBRANCH   7  10
ENDBRANCH   3   6
TORSDOF 3
ENDMDL
MODEL       78
REMARK 921   NORMALIZED FREE ENERGY PREDICTED BY IDOCK:   -4.05 KCAL/MOL
REMARK 922        TOTAL FREE ENERGY PREDICTED BY IDOCK:   -5.08 KCAL/MOL
REMARK 923 INTER-LIGAND FREE ENERGY PREDICTED BY IDOCK:   -4.95 KCAL/MOL
REMARK 924 INTRA-LIGAND FREE ENERGY PREDICTED BY IDOCK:   -0.13 KCAL/MOL
REMARK 927      BINDING AFFINITY PREDICTED BY RF-SCORE:    0.00 PKD
ROOT
HETATM    1  N   UNL     1     -13.637  12.397  72.434  1.00  0.00    -0.567 N  
HETATM    2  H1  UNL     1     -14.257  11.967  73.120  1.00  0.00     0.000 HD 
HETATM    3  C   UNL     1     -12.984  11.664  71.508  1.00  0.00    -0.358 C  
HETATM    4  H2  UNL     1     -13.507  13.408  72.447  1.00  0.00     0.000 HD 
HETATM    5  O   UNL     1     -12.239  12.180  70.682  1.00  0.00    -0.372 OA 
ENDROOT
BRANCH   3   6
HETATM    6  N   UNL     1     -13.204  10.315  71.518  1.00  0.00    -0.391 N  
HETATM    7  C   UNL     1     -12.269   9.301  71.624  1.00  0.00    -0.370 C  
HETATM    8  H   UNL     1     -14.177  10.020  71.437  1.00  0.00     0.000 HD 
HETATM    9  O   UNL     1     -11.054   9.484  71.701  1.00  0.00    -0.371 OA 
BRANCH   7  10
HETATM   10  C   UNL     1     -12.870   7.907  71.614  1.00  0.00    -0.357 C  
BRANCH  10  11
HETATM   11  C   UNL     1     -11.865   6.828  71.296  1.00  0.00    -0.396 A  
HETATM   12  C   UNL     1     -11.304   6.048  72.320  1.00  0.00    -0.353 A  
HETATM   13  C   UNL     1     -10.400   5.028  72.022  1.00  0.00    -0.276 A  
HETATM   14  C   UNL     1     -10.053   4.769  70.699  1.00  0.00    -0.288 A  
HETATM   15  C   UNL     1     -10.607   5.531  69.673  1.00  0.00    -0.375 A  
HETATM   16  C   UNL     1     -11.510   6.555  69.968  1.00  0.00    -0.476 A  
ENDBRANCH  10  11
ENDBRANCH   7  10
ENDBRANCH   3   6
TORSDOF 3
ENDMDL
MODEL       79
REMARK 921   NORMALIZED FREE ENERGY PREDICTED BY IDOCK:   -4.03 KCAL/MOL
REMARK 922        TOTAL FREE ENERGY PREDICTED BY IDOCK:   -5.06 KCAL/MOL
REMARK 923 INTER-LIGAND FREE ENERGY PREDICTED BY IDOCK:   -4.85 KCAL/MOL
REMARK 924 INTRA-LIGAND FREE ENERGY PREDICTED BY IDOCK:   -0.21 KCAL/MOL
REMARK 927      BINDING AFFINITY PREDICTED BY RF-SCORE:    0.00 PKD
ROOT
HETATM    1  N   UNL     1     -11.289  14.457  64.215  1.00  0.00    -0.619 N  
HETATM    2  H1  UNL     1     -10.871  13.592  64.558  1.00  0.00     0.000 HD 
HETATM    3  C   UNL     1     -10.956  15.660  64.726  1.00  0.00    -0.400 C  
HETATM    4  H2  UNL     1     -11.978  14.411  63.464  1.00  0.00     0.000 HD 
HETATM    5  O   UNL     1     -11.459  16.699  64.313  1.00  0.00    -1.075 OA 
ENDROOT
BRANCH   3   6
HETATM    6  N   UNL     1     -10.016  15.673  65.717  1.00  0.00    -0.336 N  
HETATM    7  C   UNL     1     -10.221  15.725  67.085  1.00  0.00    -0.279 C  
HETATM    8  H   UNL     1      -9.043  15.641  65.411  1.00  0.00     0.000 HD 
HETATM    9  O   UNL     1     -11.329  15.796  67.617  1.00  0.00    -0.297 OA 
BRANCH   7  10
HETATM   10  C   UNL     1      -8.940  15.710  67.900  1.00  0.00    -0.180 C  
BRANCH  10  11
HETATM   11  C   UNL     1      -8.350  17.083  68.105  1.00  0.00    -0.222 A  
HETATM   12  C   UNL     1      -9.156  18.153  68.524  1.00  0.00    -0.318 A  
HETATM   13  C   UNL     1      -8.603  19.415  68.746  1.00  0.00    -0.371 A  
HETATM   14  C   UNL     1      -7.238  19.620  68.562  1.00  0.00    -0.363 A  
HETATM   15  C   UNL     1      -6.426  18.565  68.154  1.00  0.00    -0.212 A  
HETATM   16  C   UNL     1      -6.977  17.301  67.928  1.00  0.00    -0.173 A  
ENDBRANCH  10  11
ENDBRANCH   7  10
ENDBRANCH   3   6
TORSDOF 3
ENDMDL
MODEL       80
REMARK 921   NORMALIZED FREE ENERGY PREDICTED BY IDOCK:   -4.02 KCAL/MOL
REMARK 922        TOTAL FREE ENERGY PREDICTED BY IDOCK:   -5.05 KCAL/MOL
REMARK 923 INTER-LIGAND FREE ENERGY PREDICTED BY IDOCK:   -4.79 KCAL/MOL
REMARK 924 INTRA-LIGAND FREE ENERGY PREDICTED BY IDOCK:   -0.27 KCAL/MOL
REMARK 927      BINDING AFFINITY PREDICTED BY RF-SCORE:    0.00 PKD
ROOT
HETATM    1  N   UNL     1     -11.569   8.084  70.404  1.00  0.00    -0.459 N  
HETATM    2  H1  UNL     1     -11.204   8.108  69.452  1.00  0.00     0.000 HD 
HETATM    3  C   UNL     1     -12.189   9.147  70.956  1.00  0.00    -0.242 C  
HETATM    4  H2  UNL     1     -11.463   7.231  70.954  1.00  0.00     0.000 HD 
HETATM    5  O   UNL     1     -12.628   9.117  72.100  1.00  0.00    -0.369 OA 
ENDROOT
BRANCH   3   6
HETATM    6  N   UNL     1     -12.323  10.260  70.175  1.00  0.00    -0.493 N  
HETATM    7  C   UNL     1     -11.331  10.961  69.512  1.00  0.00    -0.283 C  
HETATM    8  H   UNL     1     -13.272  10.618  70.067  1.00  0.00     0.000 HD 
HETATM    9  O   UNL     1     -10.133  10.679  69.561  1.00  0.00    -0.209 OA 
BRANCH   7  10
HETATM   10  C   UNL     1     -11.842  12.149  68.719  1.00  0.00    -0.356 C  
BRANCH  10  11
HETATM   11  C   UNL     1     -11.849  13.434  69.509  1.00  0.00    -0.391 A  
HETATM   12  C   UNL     1     -11.463  14.644  68.912  1.00  0.00    -0.323 A  
HETATM   13  C   UNL     1     -11.501  15.837  69.634  1.00  0.00    -0.348 A  
HETATM   14  C   UNL     1     -11.936  15.837  70.957  1.00  0.00    -0.462 A  
HETATM   15  C   UNL     1     -12.329  14.645  71.559  1.00  0.00    -0.415 A  
HETATM   16  C   UNL     1     -12.288  13.448  70.840  1.00  0.00    -0.436 A  
ENDBRANCH  10  11
ENDBRANCH   7  10
ENDBRANCH   3   6
TORSDOF 3
ENDMDL
MODEL       81
REMARK 921   NORMALIZED FREE ENERGY PREDICTED BY IDOCK:   -4.02 KCAL/MOL
REMARK 922        TOTAL FREE ENERGY PREDICTED BY IDOCK:   -5.05 KCAL/MOL
REMARK 923 INTER-LIGAND FREE ENERGY PREDICTED BY IDOCK:   -4.80 KCAL/MOL
REMARK 924 INTRA-LIGAND FREE ENERGY PREDICTED BY IDOCK:   -0.24 KCAL/MOL
REMARK 927      BINDING AFFINITY PREDICTED BY RF-SCORE:    0.00 PKD
ROOT
HETATM    1  N   UNL     1     -11.985   8.996  71.925  1.00  0.00    -0.360 N  
HETATM    2  H1  UNL     1     -11.448   8.297  71.411  1.00  0.00     0.000 HD 
HETATM    3  C   UNL     1     -12.496  10.088  71.321  1.00  0.00    -0.392 C  
HETATM    4  H2  UNL     1     -12.140   8.865  72.924  1.00  0.00     0.000 HD 
HETATM    5  O   UNL     1     -13.142  10.927  71.939  1.00  0.00    -0.482 OA 
ENDROOT
BRANCH   3   6
HETATM    6  N   UNL     1     -12.278  10.211  69.977  1.00  0.00    -0.494 N  
HETATM    7  C   UNL     1     -11.074  10.408  69.324  1.00  0.00    -0.253 C  
HETATM    8  H   UNL     1     -13.105  10.151  69.383  1.00  0.00     0.000 HD 
HETATM    9  O   UNL     1      -9.989  10.531  69.893  1.00  0.00    -0.138 OA 
BRANCH   7  10
HETATM   10  C   UNL     1     -11.199  10.487  67.813  1.00  0.00    -0.344 C  
BRANCH  10  11
HETATM   11  C   UNL     1     -11.455  11.885  67.309  1.00  0.00    -0.385 A  
HETATM   12  C   UNL     1     -11.615  12.133  65.937  1.00  0.00    -0.425 A  
HETATM   13  C   UNL     1     -11.885  13.421  65.474  1.00  0.00    -0.394 A  
HETATM   14  C   UNL     1     -12.008  14.474  66.377  1.00  0.00    -0.350 A  
HETATM   15  C   UNL     1     -11.859  14.241  67.741  1.00  0.00    -0.414 A  
HETATM   16  C   UNL     1     -11.585  12.953  68.208  1.00  0.00    -0.374 A  
ENDBRANCH  10  11
ENDBRANCH   7  10
ENDBRANCH   3   6
TORSDOF 3
ENDMDL
MODEL       82
REMARK 921   NORMALIZED FREE ENERGY PREDICTED BY IDOCK:   -4.01 KCAL/MOL
REMARK 922        TOTAL FREE ENERGY PREDICTED BY IDOCK:   -5.04 KCAL/MOL
REMARK 923 INTER-LIGAND FREE ENERGY PREDICTED BY IDOCK:   -4.94 KCAL/MOL
REMARK 924 INTRA-LIGAND FREE ENERGY PREDICTED BY IDOCK:   -0.11 KCAL/MOL
REMARK 927      BINDING AFFINITY PREDICTED BY RF-SCORE:    0.00 PKD
ROOT
HETATM    1  N   UNL     1     -11.370  15.417  69.231  1.00  0.00    -0.292 N  
HETATM    2  H1  UNL     1     -11.532  15.178  70.209  1.00  0.00     0.000 HD 
HETATM    3  C   UNL     1     -10.862  14.525  68.356  1.00  0.00    -0.243 C  
HETATM    4  H2  UNL     1     -11.600  16.355  68.905  1.00  0.00     0.000 HD 
HETATM    5  O   UNL     1     -10.668  14.812  67.179  1.00  0.00    -0.287 OA 
ENDROOT
BRANCH   3   6
HETATM    6  N   UNL     1     -10.587  13.275  68.834  1.00  0.00    -0.386 N  
HETATM    7  C   UNL     1     -11.136  12.070  68.431  1.00  0.00    -0.245 C  
HETATM    8  H   UNL     1      -9.893  13.224  69.579  1.00  0.00     0.000 HD 
HETATM    9  O   UNL     1     -12.004  11.958  67.565  1.00  0.00    -0.586 OA 
BRANCH   7  10
HETATM   10  C   UNL     1     -10.586  10.865  69.173  1.00  0.00    -0.253 C  
BRANCH  10  11
HETATM   11  C   UNL     1     -11.513  10.355  70.248  1.00  0.00    -0.406 A  
HETATM   12  C   UNL     1     -11.431   9.025  70.691  1.00  0.00    -0.291 A  
HETATM   13  C   UNL     1     -12.266   8.563  71.709  1.00  0.00    -0.388 A  
HETATM   14  C   UNL     1     -13.185   9.425  72.302  1.00  0.00    -0.528 A  
HETATM   15  C   UNL     1     -13.271  10.748  71.876  1.00  0.00    -0.524 A  
HETATM   16  C   UNL     1     -12.439  11.213  70.855  1.00  0.00    -0.509 A  
ENDBRANCH  10  11
ENDBRANCH   7  10
ENDBRANCH   3   6
TORSDOF 3
ENDMDL
MODEL       83
REMARK 921   NORMALIZED FREE ENERGY PREDICTED BY IDOCK:   -4.00 KCAL/MOL
REMARK 922        TOTAL FREE ENERGY PREDICTED BY IDOCK:   -5.03 KCAL/MOL
REMARK 923 INTER-LIGAND FREE ENERGY PREDICTED BY IDOCK:   -4.69 KCAL/MOL
REMARK 924 INTRA-LIGAND FREE ENERGY PREDICTED BY IDOCK:   -0.34 KCAL/MOL
REMARK 927      BINDING AFFINITY PREDICTED BY RF-SCORE:    0.00 PKD
ROOT
HETATM    1  N   UNL     1     -11.320  11.149  63.170  1.00  0.00    -0.764 N  
HETATM    2  H1  UNL     1     -10.496  10.673  63.537  1.00  0.00     0.000 HD 
HETATM    3  C   UNL     1     -11.678  12.379  63.592  1.00  0.00    -0.514 C  
HETATM    4  H2  UNL     1     -11.888  10.682  62.463  1.00  0.00     0.000 HD 
HETATM    5  O   UNL     1     -12.668  12.951  63.150  1.00  0.00    -0.606 OA 
ENDROOT
BRANCH   3   6
HETATM    6  N   UNL     1     -10.875  12.972  64.525  1.00  0.00    -0.349 N  
HETATM    7  C   UNL     1     -10.330  12.404  65.664  1.00  0.00    -0.258 C  
HETATM    8  H   UNL     1     -10.651  13.954  64.363  1.00  0.00     0.000 HD 
HETATM    9  O   UNL     1     -10.524  11.242  66.019  1.00  0.00    -0.245 OA 
BRANCH   7  10
HETATM   10  C   UNL     1      -9.469  13.356  66.474  1.00  0.00    -0.252 C  
BRANCH  10  11
HETATM   11  C   UNL     1     -10.257  14.167  67.472  1.00  0.00    -0.241 A  
HETATM   12  C   UNL     1      -9.851  15.466  67.818  1.00  0.00    -0.220 A  
HETATM   13  C   UNL     1     -10.599  16.228  68.717  1.00  0.00    -0.298 A  
HETATM   14  C   UNL     1     -11.765  15.706  69.272  1.00  0.00    -0.388 A  
HETATM   15  C   UNL     1     -12.182  14.422  68.931  1.00  0.00    -0.214 A  
HETATM   16  C   UNL     1     -11.434  13.655  68.035  1.00  0.00    -0.345 A  
ENDBRANCH  10  11
ENDBRANCH   7  10
ENDBRANCH   3   6
TORSDOF 3
ENDMDL
MODEL       84
REMARK 921   NORMALIZED FREE ENERGY PREDICTED BY IDOCK:   -4.00 KCAL/MOL
REMARK 922        TOTAL FREE ENERGY PREDICTED BY IDOCK:   -5.03 KCAL/MOL
REMARK 923 INTER-LIGAND FREE ENERGY PREDICTED BY IDOCK:   -4.89 KCAL/MOL
REMARK 924 INTRA-LIGAND FREE ENERGY PREDICTED BY IDOCK:   -0.14 KCAL/MOL
REMARK 927      BINDING AFFINITY PREDICTED BY RF-SCORE:    0.00 PKD
ROOT
HETATM    1  N   UNL     1      -9.028  17.349  68.066  1.00  0.00    -0.249 N  
HETATM    2  H1  UNL     1      -8.794  17.137  69.036  1.00  0.00     0.000 HD 
HETATM    3  C   UNL     1     -10.268  17.152  67.575  1.00  0.00    -0.323 C  
HETATM    4  H2  UNL     1      -8.305  17.721  67.452  1.00  0.00     0.000 HD 
HETATM    5  O   UNL     1     -10.551  17.408  66.409  1.00  0.00    -0.294 OA 
ENDROOT
BRANCH   3   6
HETATM    6  N   UNL     1     -11.209  16.669  68.441  1.00  0.00    -0.316 N  
HETATM    7  C   UNL     1     -11.011  15.870  69.553  1.00  0.00    -0.311 C  
HETATM    8  H   UNL     1     -12.175  16.929  68.243  1.00  0.00     0.000 HD 
HETATM    9  O   UNL     1      -9.914  15.445  69.915  1.00  0.00    -0.277 OA 
BRANCH   7  10
HETATM   10  C   UNL     1     -12.288  15.529  70.301  1.00  0.00    -0.431 C  
BRANCH  10  11
HETATM   11  C   UNL     1     -12.449  14.053  70.562  1.00  0.00    -0.429 A  
HETATM   12  C   UNL     1     -11.888  13.107  69.689  1.00  0.00    -0.390 A  
HETATM   13  C   UNL     1     -12.009  11.741  69.949  1.00  0.00    -0.405 A  
HETATM   14  C   UNL     1     -12.682  11.305  71.088  1.00  0.00    -0.492 A  
HETATM   15  C   UNL     1     -13.237  12.233  71.965  1.00  0.00    -0.508 A  
HETATM   16  C   UNL     1     -13.121  13.601  71.706  1.00  0.00    -0.468 A  
ENDBRANCH  10  11
ENDBRANCH   7  10
ENDBRANCH   3   6
TORSDOF 3
ENDMDL
MODEL       85
REMARK 921   NORMALIZED FREE ENERGY PREDICTED BY IDOCK:   -3.98 KCAL/MOL
REMARK 922        TOTAL FREE ENERGY PREDICTED BY IDOCK:   -5.00 KCAL/MOL
REMARK 923 INTER-LIGAND FREE ENERGY PREDICTED BY IDOCK:   -4.67 KCAL/MOL
REMARK 924 INTRA-LIGAND FREE ENERGY PREDICTED BY IDOCK:   -0.33 KCAL/MOL
REMARK 927      BINDING AFFINITY PREDICTED BY RF-SCORE:    0.00 PKD
ROOT
HETATM    1  N   UNL     1      -9.495  16.714  66.830  1.00  0.00    -0.228 N  
HETATM    2  H1  UNL     1      -9.221  16.293  65.942  1.00  0.00     0.000 HD 
HETATM    3  C   UNL     1     -10.509  16.221  67.569  1.00  0.00    -0.302 C  
HETATM    4  H2  UNL     1      -8.986  17.530  67.169  1.00  0.00     0.000 HD 
HETATM    5  O   UNL     1     -10.837  16.727  68.637  1.00  0.00    -0.336 OA 
ENDROOT
BRANCH   3   6
HETATM    6  N   UNL     1     -11.149  15.115  67.084  1.00  0.00    -0.335 N  
HETATM    7  C   UNL     1     -11.267  14.710  65.766  1.00  0.00    -0.336 C  
HETATM    8  H   UNL     1     -11.594  14.515  67.778  1.00  0.00     0.000 HD 
HETATM    9  O   UNL     1     -10.814  15.333  64.806  1.00  0.00    -0.411 OA 
BRANCH   7  10
HETATM   10  C   UNL     1     -12.040  13.415  65.588  1.00  0.00    -0.476 C  
BRANCH  10  11
HETATM   11  C   UNL     1     -11.197  12.291  65.038  1.00  0.00    -0.367 A  
HETATM   12  C   UNL     1     -11.015  12.145  63.654  1.00  0.00    -0.527 A  
HETATM   13  C   UNL     1     -10.209  11.125  63.147  1.00  0.00    -0.347 A  
HETATM   14  C   UNL     1      -9.568  10.246  64.017  1.00  0.00    -0.365 A  
HETATM   15  C   UNL     1      -9.735  10.384  65.392  1.00  0.00    -0.325 A  
HETATM   16  C   UNL     1     -10.544  11.402  65.903  1.00  0.00    -0.317 A  
ENDBRANCH  10  11
ENDBRANCH   7  10
ENDBRANCH   3   6
TORSDOF 3
ENDMDL
MODEL       86
REMARK 921   NORMALIZED FREE ENERGY PREDICTED BY IDOCK:   -3.97 KCAL/MOL
REMARK 922        TOTAL FREE ENERGY PREDICTED BY IDOCK:   -4.99 KCAL/MOL
REMARK 923 INTER-LIGAND FREE ENERGY PREDICTED BY IDOCK:   -4.81 KCAL/MOL
REMARK 924 INTRA-LIGAND FREE ENERGY PREDICTED BY IDOCK:   -0.18 KCAL/MOL
REMARK 927      BINDING AFFINITY PREDICTED BY RF-SCORE:    0.00 PKD
ROOT
HETATM    1  N   UNL     1      -8.015  14.955  69.794  1.00  0.00    -0.414 N  
HETATM    2  H1  UNL     1      -7.670  14.001  69.899  1.00  0.00     0.000 HD 
HETATM    3  C   UNL     1      -9.168  15.229  69.150  1.00  0.00    -0.234 C  
HETATM    4  H2  UNL     1      -7.473  15.724  70.187  1.00  0.00     0.000 HD 
HETATM    5  O   UNL     1      -9.583  16.376  69.024  1.00  0.00    -0.249 OA 
ENDROOT
BRANCH   3   6
HETATM    6  N   UNL     1      -9.870  14.165  68.656  1.00  0.00    -0.265 N  
HETATM    7  C   UNL     1     -11.182  13.814  68.920  1.00  0.00    -0.272 C  
HETATM    8  H   UNL     1      -9.363  13.554  68.015  1.00  0.00     0.000 HD 
HETATM    9  O   UNL     1     -11.921  14.425  69.691  1.00  0.00    -0.298 OA 
BRANCH   7  10
HETATM   10  C   UNL     1     -11.646  12.570  68.184  1.00  0.00    -0.390 C  
BRANCH  10  11
HETATM   11  C   UNL     1     -11.786  12.776  66.696  1.00  0.00    -0.459 A  
HETATM   12  C   UNL     1     -12.406  13.929  66.189  1.00  0.00    -0.504 A  
HETATM   13  C   UNL     1     -12.506  14.135  64.813  1.00  0.00    -0.395 A  
HETATM   14  C   UNL     1     -11.978  13.198  63.928  1.00  0.00    -0.550 A  
HETATM   15  C   UNL     1     -11.353  12.054  64.418  1.00  0.00    -0.411 A  
HETATM   16  C   UNL     1     -11.255  11.843  65.795  1.00  0.00    -0.365 A  
ENDBRANCH  10  11
ENDBRANCH   7  10
ENDBRANCH   3   6
TORSDOF 3
ENDMDL
MODEL       87
REMARK 921   NORMALIZED FREE ENERGY PREDICTED BY IDOCK:   -3.96 KCAL/MOL
REMARK 922        TOTAL FREE ENERGY PREDICTED BY IDOCK:   -4.98 KCAL/MOL
REMARK 923 INTER-LIGAND FREE ENERGY PREDICTED BY IDOCK:   -4.59 KCAL/MOL
REMARK 924 INTRA-LIGAND FREE ENERGY PREDICTED BY IDOCK:   -0.39 KCAL/MOL
REMARK 927      BINDING AFFINITY PREDICTED BY RF-SCORE:    0.00 PKD
ROOT
HETATM    1  N   UNL     1     -14.015   9.298  72.962  1.00  0.00    -0.793 N  
HETATM    2  H1  UNL     1     -13.959   8.332  73.286  1.00  0.00     0.000 HD 
HETATM    3  C   UNL     1     -13.073   9.834  72.159  1.00  0.00    -0.422 C  
HETATM    4  H2  UNL     1     -14.805   9.873  73.252  1.00  0.00     0.000 HD 
HETATM    5  O   UNL     1     -13.140  10.994  71.769  1.00  0.00    -0.469 OA 
ENDROOT
BRANCH   3   6
HETATM    6  N   UNL     1     -12.043   9.019  71.782  1.00  0.00    -0.343 N  
HETATM    7  C   UNL     1     -12.056   7.643  71.636  1.00  0.00    -0.306 C  
HETATM    8  H   UNL     1     -11.156   9.482  71.584  1.00  0.00     0.000 HD 
HETATM    9  O   UNL     1     -13.035   6.931  71.862  1.00  0.00    -0.325 OA 
BRANCH   7  10
HETATM   10  C   UNL     1     -10.729   7.060  71.185  1.00  0.00    -0.253 C  
BRANCH  10  11
HETATM   11  C   UNL     1     -10.513   7.152  69.695  1.00  0.00    -0.241 A  
HETATM   12  C   UNL     1     -11.236   6.331  68.816  1.00  0.00    -0.357 A  
HETATM   13  C   UNL     1     -11.060   6.440  67.435  1.00  0.00    -0.412 A  
HETATM   14  C   UNL     1     -10.169   7.377  66.918  1.00  0.00    -0.346 A  
HETATM   15  C   UNL     1      -9.452   8.203  67.780  1.00  0.00    -0.164 A  
HETATM   16  C   UNL     1      -9.622   8.094  69.162  1.00  0.00    -0.157 A  
ENDBRANCH  10  11
ENDBRANCH   7  10
ENDBRANCH   3   6
TORSDOF 3
ENDMDL
MODEL       88
REMARK 921   NORMALIZED FREE ENERGY PREDICTED BY IDOCK:   -3.96 KCAL/MOL
REMARK 922        TOTAL FREE ENERGY PREDICTED BY IDOCK:   -4.98 KCAL/MOL
REMARK 923 INTER-LIGAND FREE ENERGY PREDICTED BY IDOCK:   -5.45 KCAL/MOL
REMARK 924 INTRA-LIGAND FREE ENERGY PREDICTED BY IDOCK:    0.47 KCAL/MOL
REMARK 927      BINDING AFFINITY PREDICTED BY RF-SCORE:    0.00 PKD
ROOT
HETATM    1  N   UNL     1     -11.836  16.262  70.733  1.00  0.00    -0.527 N  
HETATM    2  H1  UNL     1     -12.072  15.632  69.967  1.00  0.00     0.000 HD 
HETATM    3  C   UNL     1     -12.106  15.953  72.018  1.00  0.00    -0.506 C  
HETATM    4  H2  UNL     1     -11.382  17.151  70.523  1.00  0.00     0.000 HD 
HETATM    5  O   UNL     1     -11.822  16.710  72.939  1.00  0.00    -0.507 OA 
ENDROOT
BRANCH   3   6
HETATM    6  N   UNL     1     -12.699  14.744  72.252  1.00  0.00    -0.319 N  
HETATM    7  C   UNL     1     -12.837  13.679  71.379  1.00  0.00    -0.360 C  
HETATM    8  H   UNL     1     -13.087  14.610  73.186  1.00  0.00     0.000 HD 
HETATM    9  O   UNL     1     -12.450  13.687  70.210  1.00  0.00    -0.316 OA 
BRANCH   7  10
HETATM   10  C   UNL     1     -13.541  12.477  71.981  1.00  0.00    -0.387 C  
BRANCH  10  11
HETATM   11  C   UNL     1     -12.905  11.163  71.600  1.00  0.00    -0.524 A  
HETATM   12  C   UNL     1     -11.828  11.123  70.700  1.00  0.00    -0.403 A  
HETATM   13  C   UNL     1     -11.219   9.911  70.374  1.00  0.00    -0.379 A  
HETATM   14  C   UNL     1     -11.672   8.727  70.950  1.00  0.00    -0.299 A  
HETATM   15  C   UNL     1     -12.734   8.753  71.850  1.00  0.00    -0.427 A  
HETATM   16  C   UNL     1     -13.348   9.964  72.176  1.00  0.00    -0.498 A  
ENDBRANCH  10  11
ENDBRANCH   7  10
ENDBRANCH   3   6
TORSDOF 3
ENDMDL
MODEL       89
REMARK 921   NORMALIZED FREE ENERGY PREDICTED BY IDOCK:   -3.95 KCAL/MOL
REMARK 922        TOTAL FREE ENERGY PREDICTED BY IDOCK:   -4.97 KCAL/MOL
REMARK 923 INTER-LIGAND FREE ENERGY PREDICTED BY IDOCK:   -4.54 KCAL/MOL
REMARK 924 INTRA-LIGAND FREE ENERGY PREDICTED BY IDOCK:   -0.42 KCAL/MOL
REMARK 927      BINDING AFFINITY PREDICTED BY RF-SCORE:    0.00 PKD
ROOT
HETATM    1  N   UNL     1     -10.319  18.181  69.172  1.00  0.00    -0.417 N  
HETATM    2  H1  UNL     1      -9.747  18.651  68.470  1.00  0.00     0.000 HD 
HETATM    3  C   UNL     1     -10.652  16.879  69.064  1.00  0.00    -0.338 C  
HETATM    4  H2  UNL     1     -10.648  18.712  69.979  1.00  0.00     0.000 HD 
HETATM    5  O   UNL     1     -11.340  16.315  69.909  1.00  0.00    -0.323 OA 
ENDROOT
BRANCH   3   6
HETATM    6  N   UNL     1     -10.173  16.205  67.977  1.00  0.00    -0.246 N  
HETATM    7  C   UNL     1      -9.956  16.694  66.700  1.00  0.00    -0.283 C  
HETATM    8  H   UNL     1      -9.949  15.221  68.123  1.00  0.00     0.000 HD 
HETATM    9  O   UNL     1     -10.200  17.848  66.349  1.00  0.00    -0.343 OA 
BRANCH   7  10
HETATM   10  C   UNL     1      -9.399  15.664  65.734  1.00  0.00    -0.303 C  
BRANCH  10  11
HETATM   11  C   UNL     1     -10.370  14.553  65.423  1.00  0.00    -0.405 A  
HETATM   12  C   UNL     1     -10.160  13.258  65.921  1.00  0.00    -0.296 A  
HETATM   13  C   UNL     1     -11.077  12.238  65.661  1.00  0.00    -0.357 A  
HETATM   14  C   UNL     1     -12.218  12.504  64.908  1.00  0.00    -0.534 A  
HETATM   15  C   UNL     1     -12.443  13.786  64.415  1.00  0.00    -0.317 A  
HETATM   16  C   UNL     1     -11.526  14.808  64.670  1.00  0.00    -0.381 A  
ENDBRANCH  10  11
ENDBRANCH   7  10
ENDBRANCH   3   6
TORSDOF 3
ENDMDL
MODEL       90
REMARK 921   NORMALIZED FREE ENERGY PREDICTED BY IDOCK:   -3.94 KCAL/MOL
REMARK 922        TOTAL FREE ENERGY PREDICTED BY IDOCK:   -4.95 KCAL/MOL
REMARK 923 INTER-LIGAND FREE ENERGY PREDICTED BY IDOCK:   -4.69 KCAL/MOL
REMARK 924 INTRA-LIGAND FREE ENERGY PREDICTED BY IDOCK:   -0.26 KCAL/MOL
REMARK 927      BINDING AFFINITY PREDICTED BY RF-SCORE:    0.00 PKD
ROOT
HETATM    1  N   UNL     1     -14.021   9.073  72.596  1.00  0.00    -0.795 N  
HETATM    2  H1  UNL     1     -13.525   9.950  72.432  1.00  0.00     0.000 HD 
HETATM    3  C   UNL     1     -13.805   7.980  71.836  1.00  0.00    -0.349 C  
HETATM    4  H2  UNL     1     -14.697   9.021  73.358  1.00  0.00     0.000 HD 
HETATM    5  O   UNL     1     -14.400   6.927  72.034  1.00  0.00    -0.310 OA 
ENDROOT
BRANCH   3   6
HETATM    6  N   UNL     1     -12.876   8.092  70.840  1.00  0.00    -0.506 N  
HETATM    7  C   UNL     1     -11.619   8.667  70.908  1.00  0.00    -0.269 C  
HETATM    8  H   UNL     1     -13.142   7.704  69.935  1.00  0.00     0.000 HD 
HETATM    9  O   UNL     1     -11.156   9.204  71.914  1.00  0.00    -0.364 OA 
BRANCH   7  10
HETATM   10  C   UNL     1     -10.842   8.604  69.605  1.00  0.00    -0.163 C  
BRANCH  10  11
HETATM   11  C   UNL     1     -10.942   9.869  68.791  1.00  0.00    -0.217 A  
HETATM   12  C   UNL     1     -10.350   9.952  67.521  1.00  0.00    -0.289 A  
HETATM   13  C   UNL     1     -10.471  11.111  66.754  1.00  0.00    -0.297 A  
HETATM   14  C   UNL     1     -11.193  12.198  67.243  1.00  0.00    -0.366 A  
HETATM   15  C   UNL     1     -11.791  12.126  68.498  1.00  0.00    -0.365 A  
HETATM   16  C   UNL     1     -11.669  10.969  69.270  1.00  0.00    -0.397 A  
ENDBRANCH  10  11
ENDBRANCH   7  10
ENDBRANCH   3   6
TORSDOF 3
ENDMDL
MODEL       91
REMARK 921   NORMALIZED FREE ENERGY PREDICTED BY IDOCK:   -3.91 KCAL/MOL
REMARK 922        TOTAL FREE ENERGY PREDICTED BY IDOCK:   -4.93 KCAL/MOL
REMARK 923 INTER-LIGAND FREE ENERGY PREDICTED BY IDOCK:   -4.49 KCAL/MOL
REMARK 924 INTRA-LIGAND FREE ENERGY PREDICTED BY IDOCK:   -0.43 KCAL/MOL
REMARK 927      BINDING AFFINITY PREDICTED BY RF-SCORE:    0.00 PKD
ROOT
HETATM    1  N   UNL     1     -11.348   6.674  66.745  1.00  0.00    -0.795 N  
HETATM    2  H1  UNL     1     -12.145   7.124  67.194  1.00  0.00     0.000 HD 
HETATM    3  C   UNL     1     -10.078   6.956  67.102  1.00  0.00    -0.209 C  
HETATM    4  H2  UNL     1     -11.515   5.992  66.006  1.00  0.00     0.000 HD 
HETATM    5  O   UNL     1      -9.119   6.414  66.563  1.00  0.00    -0.142 OA 
ENDROOT
BRANCH   3   6
HETATM    6  N   UNL     1      -9.904   7.862  68.110  1.00  0.00    -0.163 N  
HETATM    7  C   UNL     1     -10.334   9.177  68.156  1.00  0.00    -0.216 C  
HETATM    8  H   UNL     1      -9.395   7.529  68.928  1.00  0.00     0.000 HD 
HETATM    9  O   UNL     1     -10.937   9.742  67.242  1.00  0.00    -0.235 OA 
BRANCH   7  10
HETATM   10  C   UNL     1      -9.977   9.896  69.444  1.00  0.00    -0.227 C  
BRANCH  10  11
HETATM   11  C   UNL     1     -11.172  10.173  70.322  1.00  0.00    -0.387 A  
HETATM   12  C   UNL     1     -11.645   9.199  71.215  1.00  0.00    -0.401 A  
HETATM   13  C   UNL     1     -12.730   9.468  72.051  1.00  0.00    -0.479 A  
HETATM   14  C   UNL     1     -13.349  10.715  72.010  1.00  0.00    -0.409 A  
HETATM   15  C   UNL     1     -12.885  11.692  71.133  1.00  0.00    -0.392 A  
HETATM   16  C   UNL     1     -11.802  11.426  70.293  1.00  0.00    -0.438 A  
ENDBRANCH  10  11
ENDBRANCH   7  10
ENDBRANCH   3   6
TORSDOF 3
ENDMDL
MODEL       92
REMARK 921   NORMALIZED FREE ENERGY PREDICTED BY IDOCK:   -3.91 KCAL/MOL
REMARK 922        TOTAL FREE ENERGY PREDICTED BY IDOCK:   -4.92 KCAL/MOL
REMARK 923 INTER-LIGAND FREE ENERGY PREDICTED BY IDOCK:   -4.65 KCAL/MOL
REMARK 924 INTRA-LIGAND FREE ENERGY PREDICTED BY IDOCK:   -0.28 KCAL/MOL
REMARK 927      BINDING AFFINITY PREDICTED BY RF-SCORE:    0.00 PKD
ROOT
HETATM    1  N   UNL     1      -8.749  18.791  67.047  1.00  0.00    -0.276 N  
HETATM    2  H1  UNL     1      -8.341  17.973  67.500  1.00  0.00     0.000 HD 
HETATM    3  C   UNL     1     -10.084  18.952  66.939  1.00  0.00    -0.364 C  
HETATM    4  H2  UNL     1      -8.131  19.507  66.667  1.00  0.00     0.000 HD 
HETATM    5  O   UNL     1     -10.575  19.935  66.395  1.00  0.00    -0.462 OA 
ENDROOT
BRANCH   3   6
HETATM    6  N   UNL     1     -10.872  17.975  67.480  1.00  0.00    -0.325 N  
HETATM    7  C   UNL     1     -10.496  16.707  67.889  1.00  0.00    -0.322 C  
HETATM    8  H   UNL     1     -11.858  18.209  67.597  1.00  0.00     0.000 HD 
HETATM    9  O   UNL     1      -9.354  16.258  67.792  1.00  0.00    -0.213 OA 
BRANCH   7  10
HETATM   10  C   UNL     1     -11.636  15.883  68.461  1.00  0.00    -0.351 C  
BRANCH  10  11
HETATM   11  C   UNL     1     -11.705  14.488  67.892  1.00  0.00    -0.381 A  
HETATM   12  C   UNL     1     -11.959  14.285  66.526  1.00  0.00    -0.448 A  
HETATM   13  C   UNL     1     -11.990  12.995  65.994  1.00  0.00    -0.498 A  
HETATM   14  C   UNL     1     -11.759  11.896  66.817  1.00  0.00    -0.281 A  
HETATM   15  C   UNL     1     -11.499  12.084  68.172  1.00  0.00    -0.383 A  
HETATM   16  C   UNL     1     -11.471  13.373  68.709  1.00  0.00    -0.344 A  
ENDBRANCH  10  11
ENDBRANCH   7  10
ENDBRANCH   3   6
TORSDOF 3
ENDMDL
MODEL       93
REMARK 921   NORMALIZED FREE ENERGY PREDICTED BY IDOCK:   -3.91 KCAL/MOL
REMARK 922        TOTAL FREE ENERGY PREDICTED BY IDOCK:   -4.92 KCAL/MOL
REMARK 923 INTER-LIGAND FREE ENERGY PREDICTED BY IDOCK:   -4.48 KCAL/MOL
REMARK 924 INTRA-LIGAND FREE ENERGY PREDICTED BY IDOCK:   -0.44 KCAL/MOL
REMARK 927      BINDING AFFINITY PREDICTED BY RF-SCORE:    0.00 PKD
ROOT
HETATM    1  N   UNL     1     -10.883   8.677  67.976  1.00  0.00    -0.477 N  
HETATM    2  H1  UNL     1     -11.191   8.973  68.902  1.00  0.00     0.000 HD 
HETATM    3  C   UNL     1     -10.436   9.559  67.059  1.00  0.00    -0.232 C  
HETATM    4  H2  UNL     1     -10.912   7.686  67.737  1.00  0.00     0.000 HD 
HETATM    5  O   UNL     1     -10.065   9.203  65.946  1.00  0.00    -0.273 OA 
ENDROOT
BRANCH   3   6
HETATM    6  N   UNL     1     -10.398  10.874  67.431  1.00  0.00    -0.201 N  
HETATM    7  C   UNL     1     -11.311  11.566  68.207  1.00  0.00    -0.286 C  
HETATM    8  H   UNL     1      -9.598  11.410  67.095  1.00  0.00     0.000 HD 
HETATM    9  O   UNL     1     -12.342  11.076  68.667  1.00  0.00    -0.539 OA 
BRANCH   7  10
HETATM   10  C   UNL     1     -10.945  13.022  68.435  1.00  0.00    -0.288 C  
BRANCH  10  11
HETATM   11  C   UNL     1     -10.964  13.845  67.172  1.00  0.00    -0.298 A  
HETATM   12  C   UNL     1     -12.091  13.845  66.335  1.00  0.00    -0.489 A  
HETATM   13  C   UNL     1     -12.121  14.633  65.183  1.00  0.00    -0.308 A  
HETATM   14  C   UNL     1     -11.030  15.436  64.860  1.00  0.00    -0.453 A  
HETATM   15  C   UNL     1      -9.909  15.451  65.686  1.00  0.00    -0.387 A  
HETATM   16  C   UNL     1      -9.874  14.661  66.837  1.00  0.00    -0.252 A  
ENDBRANCH  10  11
ENDBRANCH   7  10
ENDBRANCH   3   6
TORSDOF 3
ENDMDL
MODEL       94
REMARK 921   NORMALIZED FREE ENERGY PREDICTED BY IDOCK:   -3.91 KCAL/MOL
REMARK 922        TOTAL FREE ENERGY PREDICTED BY IDOCK:   -4.92 KCAL/MOL
REMARK 923 INTER-LIGAND FREE ENERGY PREDICTED BY IDOCK:   -4.57 KCAL/MOL
REMARK 924 INTRA-LIGAND FREE ENERGY PREDICTED BY IDOCK:   -0.35 KCAL/MOL
REMARK 927      BINDING AFFINITY PREDICTED BY RF-SCORE:    0.00 PKD
ROOT
HETATM    1  N   UNL     1      -8.629  16.608  68.982  1.00  0.00    -0.229 N  
HETATM    2  H1  UNL     1      -9.428  17.242  68.976  1.00  0.00     0.000 HD 
HETATM    3  C   UNL     1      -8.708  15.369  69.508  1.00  0.00    -0.210 C  
HETATM    4  H2  UNL     1      -7.746  16.920  68.579  1.00  0.00     0.000 HD 
HETATM    5  O   UNL     1      -7.747  14.606  69.514  1.00  0.00    -0.111 OA 
ENDROOT
BRANCH   3   6
HETATM    6  N   UNL     1      -9.916  14.989  70.020  1.00  0.00    -0.491 N  
HETATM    7  C   UNL     1     -11.113  14.820  69.344  1.00  0.00    -0.281 C  
HETATM    8  H   UNL     1      -9.940  14.808  71.024  1.00  0.00     0.000 HD 
HETATM    9  O   UNL     1     -11.263  15.023  68.140  1.00  0.00    -0.281 OA 
BRANCH   7  10
HETATM   10  C   UNL     1     -12.262  14.374  70.231  1.00  0.00    -0.397 C  
BRANCH  10  11
HETATM   11  C   UNL     1     -12.293  12.883  70.459  1.00  0.00    -0.362 A  
HETATM   12  C   UNL     1     -12.914  12.347  71.598  1.00  0.00    -0.409 A  
HETATM   13  C   UNL     1     -12.972  10.966  71.792  1.00  0.00    -0.557 A  
HETATM   14  C   UNL     1     -12.419  10.106  70.846  1.00  0.00    -0.455 A  
HETATM   15  C   UNL     1     -11.807  10.625  69.708  1.00  0.00    -0.377 A  
HETATM   16  C   UNL     1     -11.744  12.006  69.513  1.00  0.00    -0.408 A  
ENDBRANCH  10  11
ENDBRANCH   7  10
ENDBRANCH   3   6
TORSDOF 3
ENDMDL
MODEL       95
REMARK 921   NORMALIZED FREE ENERGY PREDICTED BY IDOCK:   -3.89 KCAL/MOL
REMARK 922        TOTAL FREE ENERGY PREDICTED BY IDOCK:   -4.90 KCAL/MOL
REMARK 923 INTER-LIGAND FREE ENERGY PREDICTED BY IDOCK:   -4.80 KCAL/MOL
REMARK 924 INTRA-LIGAND FREE ENERGY PREDICTED BY IDOCK:   -0.10 KCAL/MOL
REMARK 927      BINDING AFFINITY PREDICTED BY RF-SCORE:    0.00 PKD
ROOT
HETATM    1  N   UNL     1      -9.864  12.593  68.716  1.00  0.00    -0.421 N  
HETATM    2  H1  UNL     1      -9.567  12.755  69.679  1.00  0.00     0.000 HD 
HETATM    3  C   UNL     1     -10.090  13.611  67.861  1.00  0.00    -0.244 C  
HETATM    4  H2  UNL     1      -9.993  11.635  68.392  1.00  0.00     0.000 HD 
HETATM    5  O   UNL     1     -10.447  13.416  66.704  1.00  0.00    -0.274 OA 
ENDROOT
BRANCH   3   6
HETATM    6  N   UNL     1      -9.887  14.876  68.335  1.00  0.00    -0.210 N  
HETATM    7  C   UNL     1     -10.824  15.751  68.856  1.00  0.00    -0.260 C  
HETATM    8  H   UNL     1      -8.927  15.218  68.300  1.00  0.00     0.000 HD 
HETATM    9  O   UNL     1     -12.027  15.506  68.943  1.00  0.00    -0.351 OA 
BRANCH   7  10
HETATM   10  C   UNL     1     -10.243  17.080  69.304  1.00  0.00    -0.246 C  
BRANCH  10  11
HETATM   11  C   UNL     1     -10.226  18.120  68.211  1.00  0.00    -0.402 A  
HETATM   12  C   UNL     1      -9.893  19.453  68.498  1.00  0.00    -0.509 A  
HETATM   13  C   UNL     1      -9.845  20.408  67.481  1.00  0.00    -0.564 A  
HETATM   14  C   UNL     1     -10.120  20.040  66.166  1.00  0.00    -0.588 A  
HETATM   15  C   UNL     1     -10.445  18.719  65.868  1.00  0.00    -0.424 A  
HETATM   16  C   UNL     1     -10.497  17.762  66.883  1.00  0.00    -0.308 A  
ENDBRANCH  10  11
ENDBRANCH   7  10
ENDBRANCH   3   6
TORSDOF 3
ENDMDL
MODEL       96
REMARK 921   NORMALIZED FREE ENERGY PREDICTED BY IDOCK:   -3.88 KCAL/MOL
REMARK 922        TOTAL FREE ENERGY PREDICTED BY IDOCK:   -4.89 KCAL/MOL
REMARK 923 INTER-LIGAND FREE ENERGY PREDICTED BY IDOCK:   -4.51 KCAL/MOL
REMARK 924 INTRA-LIGAND FREE ENERGY PREDICTED BY IDOCK:   -0.38 KCAL/MOL
REMARK 927      BINDING AFFINITY PREDICTED BY RF-SCORE:    0.00 PKD
ROOT
HETATM    1  N   UNL     1     -11.296   4.599  65.199  1.00  0.00    -0.966 N  
HETATM    2  H1  UNL     1     -12.168   4.638  65.726  1.00  0.00     0.000 HD 
HETATM    3  C   UNL     1     -10.094   4.653  65.808  1.00  0.00    -0.244 C  
HETATM    4  H2  UNL     1     -11.334   4.516  64.183  1.00  0.00     0.000 HD 
HETATM    5  O   UNL     1      -9.045   4.605  65.174  1.00  0.00    -0.148 OA 
ENDROOT
BRANCH   3   6
HETATM    6  N   UNL     1     -10.093   4.745  67.171  1.00  0.00    -0.188 N  
HETATM    7  C   UNL     1     -10.676   5.723  67.959  1.00  0.00    -0.209 C  
HETATM    8  H   UNL     1      -9.603   4.003  67.670  1.00  0.00     0.000 HD 
HETATM    9  O   UNL     1     -11.279   6.701  67.516  1.00  0.00    -0.319 OA 
BRANCH   7  10
HETATM   10  C   UNL     1     -10.490   5.504  69.449  1.00  0.00    -0.360 C  
BRANCH  10  11
HETATM   11  C   UNL     1     -10.865   6.706  70.279  1.00  0.00    -0.321 A  
HETATM   12  C   UNL     1     -12.111   6.772  70.921  1.00  0.00    -0.421 A  
HETATM   13  C   UNL     1     -12.444   7.871  71.716  1.00  0.00    -0.352 A  
HETATM   14  C   UNL     1     -11.533   8.910  71.885  1.00  0.00    -0.442 A  
HETATM   15  C   UNL     1     -10.290   8.853  71.259  1.00  0.00    -0.355 A  
HETATM   16  C   UNL     1      -9.955   7.758  70.460  1.00  0.00    -0.187 A  
ENDBRANCH  10  11
ENDBRANCH   7  10
ENDBRANCH   3   6
TORSDOF 3
ENDMDL
MODEL       97
REMARK 921   NORMALIZED FREE ENERGY PREDICTED BY IDOCK:   -3.88 KCAL/MOL
REMARK 922        TOTAL FREE ENERGY PREDICTED BY IDOCK:   -4.88 KCAL/MOL
REMARK 923 INTER-LIGAND FREE ENERGY PREDICTED BY IDOCK:   -4.50 KCAL/MOL
REMARK 924 INTRA-LIGAND FREE ENERGY PREDICTED BY IDOCK:   -0.38 KCAL/MOL
REMARK 927      BINDING AFFINITY PREDICTED BY RF-SCORE:    0.00 PKD
ROOT
HETATM    1  N   UNL     1      -9.722  16.913  67.629  1.00  0.00    -0.246 N  
HETATM    2  H1  UNL     1      -9.823  16.268  68.413  1.00  0.00     0.000 HD 
HETATM    3  C   UNL     1     -10.287  16.670  66.430  1.00  0.00    -0.306 C  
HETATM    4  H2  UNL     1      -9.178  17.766  67.757  1.00  0.00     0.000 HD 
HETATM    5  O   UNL     1     -10.166  17.446  65.488  1.00  0.00    -0.604 OA 
ENDROOT
BRANCH   3   6
HETATM    6  N   UNL     1     -11.022  15.524  66.312  1.00  0.00    -0.287 N  
HETATM    7  C   UNL     1     -10.821  14.314  66.953  1.00  0.00    -0.298 C  
HETATM    8  H   UNL     1     -11.816  15.565  65.672  1.00  0.00     0.000 HD 
HETATM    9  O   UNL     1      -9.895  14.088  67.732  1.00  0.00    -0.223 OA 
BRANCH   7  10
HETATM   10  C   UNL     1     -11.844  13.251  66.595  1.00  0.00    -0.447 C  
BRANCH  10  11
HETATM   11  C   UNL     1     -11.229  11.900  66.326  1.00  0.00    -0.392 A  
HETATM   12  C   UNL     1     -10.644  11.614  65.083  1.00  0.00    -0.343 A  
HETATM   13  C   UNL     1     -10.046  10.376  64.846  1.00  0.00    -0.382 A  
HETATM   14  C   UNL     1     -10.017   9.413  65.852  1.00  0.00    -0.327 A  
HETATM   15  C   UNL     1     -10.587   9.687  67.093  1.00  0.00    -0.298 A  
HETATM   16  C   UNL     1     -11.190  10.924  67.331  1.00  0.00    -0.345 A  
ENDBRANCH  10  11
ENDBRANCH   7  10
ENDBRANCH   3   6
TORSDOF 3
ENDMDL
MODEL       98
REMARK 921   NORMALIZED FREE ENERGY PREDICTED BY IDOCK:   -3.87 KCAL/MOL
REMARK 922        TOTAL FREE ENERGY PREDICTED BY IDOCK:   -4.87 KCAL/MOL
REMARK 923 INTER-LIGAND FREE ENERGY PREDICTED BY IDOCK:   -4.63 KCAL/MOL
REMARK 924 INTRA-LIGAND FREE ENERGY PREDICTED BY IDOCK:   -0.24 KCAL/MOL
REMARK 927      BINDING AFFINITY PREDICTED BY RF-SCORE:    0.00 PKD
ROOT
HETATM    1  N   UNL     1     -12.203  16.396  71.613  1.00  0.00    -0.558 N  
HETATM    2  H1  UNL     1     -11.381  16.394  71.008  1.00  0.00     0.000 HD 
HETATM    3  C   UNL     1     -13.177  15.471  71.493  1.00  0.00    -0.509 C  
HETATM    4  H2  UNL     1     -12.289  17.117  72.329  1.00  0.00     0.000 HD 
HETATM    5  O   UNL     1     -14.164  15.474  72.220  1.00  0.00    -0.549 OA 
ENDROOT
BRANCH   3   6
HETATM    6  N   UNL     1     -13.009  14.515  70.532  1.00  0.00    -0.492 N  
HETATM    7  C   UNL     1     -11.865  14.229  69.806  1.00  0.00    -0.324 C  
HETATM    8  H   UNL     1     -13.826  13.941  70.323  1.00  0.00     0.000 HD 
HETATM    9  O   UNL     1     -10.804  14.843  69.915  1.00  0.00    -0.250 OA 
BRANCH   7  10
HETATM   10  C   UNL     1     -12.031  13.084  68.823  1.00  0.00    -0.302 C  
BRANCH  10  11
HETATM   11  C   UNL     1     -11.278  11.841  69.226  1.00  0.00    -0.318 A  
HETATM   12  C   UNL     1     -11.905  10.838  69.983  1.00  0.00    -0.424 A  
HETATM   13  C   UNL     1     -11.218   9.673  70.327  1.00  0.00    -0.324 A  
HETATM   14  C   UNL     1      -9.901   9.492  69.911  1.00  0.00    -0.254 A  
HETATM   15  C   UNL     1      -9.270  10.476  69.153  1.00  0.00    -0.183 A  
HETATM   16  C   UNL     1      -9.954  11.644  68.810  1.00  0.00    -0.147 A  
ENDBRANCH  10  11
ENDBRANCH   7  10
ENDBRANCH   3   6
TORSDOF 3
ENDMDL
MODEL       99
REMARK 921   NORMALIZED FREE ENERGY PREDICTED BY IDOCK:   -3.87 KCAL/MOL
REMARK 922        TOTAL FREE ENERGY PREDICTED BY IDOCK:   -4.87 KCAL/MOL
REMARK 923 INTER-LIGAND FREE ENERGY PREDICTED BY IDOCK:   -4.52 KCAL/MOL
REMARK 924 INTRA-LIGAND FREE ENERGY PREDICTED BY IDOCK:   -0.35 KCAL/MOL
REMARK 927      BINDING AFFINITY PREDICTED BY RF-SCORE:    0.00 PKD
ROOT
HETATM    1  N   UNL     1     -12.120   7.593  70.750  1.00  0.00    -0.484 N  
HETATM    2  H1  UNL     1     -12.448   7.847  69.818  1.00  0.00     0.000 HD 
HETATM    3  C   UNL     1     -11.528   8.490  71.564  1.00  0.00    -0.287 C  
HETATM    4  H2  UNL     1     -12.243   6.634  71.074  1.00  0.00     0.000 HD 
HETATM    5  O   UNL     1     -11.134   8.185  72.685  1.00  0.00    -0.365 OA 
ENDROOT
BRANCH   3   6
HETATM    6  N   UNL     1     -11.402   9.767  71.093  1.00  0.00    -0.373 N  
HETATM    7  C   UNL     1     -12.394  10.590  70.587  1.00  0.00    -0.356 C  
HETATM    8  H   UNL     1     -10.462  10.162  71.117  1.00  0.00     0.000 HD 
HETATM    9  O   UNL     1     -13.573  10.259  70.464  1.00  0.00    -0.069 OA 
BRANCH   7  10
HETATM   10  C   UNL     1     -11.898  11.961  70.165  1.00  0.00    -0.390 C  
BRANCH  10  11
HETATM   11  C   UNL     1     -11.678  12.081  68.677  1.00  0.00    -0.380 A  
HETATM   12  C   UNL     1     -11.840  13.315  68.028  1.00  0.00    -0.392 A  
HETATM   13  C   UNL     1     -11.604  13.433  66.657  1.00  0.00    -0.399 A  
HETATM   14  C   UNL     1     -11.194  12.323  65.923  1.00  0.00    -0.381 A  
HETATM   15  C   UNL     1     -11.022  11.095  66.557  1.00  0.00    -0.270 A  
HETATM   16  C   UNL     1     -11.261  10.973  67.927  1.00  0.00    -0.375 A  
ENDBRANCH  10  11
ENDBRANCH   7  10
ENDBRANCH   3   6
TORSDOF 3
ENDMDL
MODEL      100
REMARK 921   NORMALIZED FREE ENERGY PREDICTED BY IDOCK:   -3.86 KCAL/MOL
REMARK 922        TOTAL FREE ENERGY PREDICTED BY IDOCK:   -4.86 KCAL/MOL
REMARK 923 INTER-LIGAND FREE ENERGY PREDICTED BY IDOCK:   -4.66 KCAL/MOL
REMARK 924 INTRA-LIGAND FREE ENERGY PREDICTED BY IDOCK:   -0.21 KCAL/MOL
REMARK 927      BINDING AFFINITY PREDICTED BY RF-SCORE:    0.00 PKD
ROOT
HETATM    1  N   UNL     1     -10.113   7.451  71.519  1.00  0.00    -0.185 N  
HETATM    2  H1  UNL     1     -10.693   7.208  70.716  1.00  0.00     0.000 HD 
HETATM    3  C   UNL     1      -9.911   8.731  71.890  1.00  0.00    -0.324 C  
HETATM    4  H2  UNL     1      -9.675   6.704  72.058  1.00  0.00     0.000 HD 
HETATM    5  O   UNL     1      -9.214   9.023  72.855  1.00  0.00    -0.052 OA 
ENDROOT
BRANCH   3   6
HETATM    6  N   UNL     1     -10.533   9.696  71.149  1.00  0.00    -0.282 N  
HETATM    7  C   UNL     1     -11.884   9.996  71.104  1.00  0.00    -0.393 C  
HETATM    8  H   UNL     1      -9.929  10.266  70.557  1.00  0.00     0.000 HD 
HETATM    9  O   UNL     1     -12.750   9.388  71.733  1.00  0.00    -0.336 OA 
BRANCH   7  10
HETATM   10  C   UNL     1     -12.228  11.147  70.176  1.00  0.00    -0.417 C  
BRANCH  10  11
HETATM   11  C   UNL     1     -12.475  12.444  70.904  1.00  0.00    -0.367 A  
HETATM   12  C   UNL     1     -11.935  13.648  70.425  1.00  0.00    -0.372 A  
HETATM   13  C   UNL     1     -12.192  14.853  71.081  1.00  0.00    -0.380 A  
HETATM   14  C   UNL     1     -12.999  14.870  72.216  1.00  0.00    -0.423 A  
HETATM   15  C   UNL     1     -13.548  13.684  72.697  1.00  0.00    -0.596 A  
HETATM   16  C   UNL     1     -13.289  12.476  72.045  1.00  0.00    -0.528 A  
ENDBRANCH  10  11
ENDBRANCH   7  10
ENDBRANCH   3   6
TORSDOF 3
ENDMDL
MODEL      101
REMARK 921   NORMALIZED FREE ENERGY PREDICTED BY IDOCK:   -3.86 KCAL/MOL
REMARK 922        TOTAL FREE ENERGY PREDICTED BY IDOCK:   -4.86 KCAL/MOL
REMARK 923 INTER-LIGAND FREE ENERGY PREDICTED BY IDOCK:   -4.59 KCAL/MOL
REMARK 924 INTRA-LIGAND FREE ENERGY PREDICTED BY IDOCK:   -0.27 KCAL/MOL
REMARK 927      BINDING AFFINITY PREDICTED BY RF-SCORE:    0.00 PKD
ROOT
HETATM    1  N   UNL     1      -9.019  11.722  65.671  1.00  0.00    -0.407 N  
HETATM    2  H1  UNL     1      -8.567  11.246  66.453  1.00  0.00     0.000 HD 
HETATM    3  C   UNL     1     -10.342  11.980  65.664  1.00  0.00    -0.253 C  
HETATM    4  H2  UNL     1      -8.453  12.010  64.873  1.00  0.00     0.000 HD 
HETATM    5  O   UNL     1     -10.885  12.552  64.725  1.00  0.00    -0.277 OA 
ENDROOT
BRANCH   3   6
HETATM    6  N   UNL     1     -11.056  11.591  66.763  1.00  0.00    -0.298 N  
HETATM    7  C   UNL     1     -10.637  11.557  68.082  1.00  0.00    -0.196 C  
HETATM    8  H   UNL     1     -12.014  11.289  66.591  1.00  0.00     0.000 HD 
HETATM    9  O   UNL     1      -9.504  11.861  68.457  1.00  0.00    -0.198 OA 
BRANCH   7  10
HETATM   10  C   UNL     1     -11.702  11.081  69.054  1.00  0.00    -0.402 C  
BRANCH  10  11
HETATM   11  C   UNL     1     -12.133  12.145  70.031  1.00  0.00    -0.352 A  
HETATM   12  C   UNL     1     -11.971  13.506  69.726  1.00  0.00    -0.405 A  
HETATM   13  C   UNL     1     -12.401  14.490  70.617  1.00  0.00    -0.407 A  
HETATM   14  C   UNL     1     -13.005  14.127  71.817  1.00  0.00    -0.427 A  
HETATM   15  C   UNL     1     -13.179  12.781  72.129  1.00  0.00    -0.546 A  
HETATM   16  C   UNL     1     -12.747  11.793  71.242  1.00  0.00    -0.420 A  
ENDBRANCH  10  11
ENDBRANCH   7  10
ENDBRANCH   3   6
TORSDOF 3
ENDMDL
MODEL      102
REMARK 921   NORMALIZED FREE ENERGY PREDICTED BY IDOCK:   -3.86 KCAL/MOL
REMARK 922        TOTAL FREE ENERGY PREDICTED BY IDOCK:   -4.86 KCAL/MOL
REMARK 923 INTER-LIGAND FREE ENERGY PREDICTED BY IDOCK:   -4.47 KCAL/MOL
REMARK 924 INTRA-LIGAND FREE ENERGY PREDICTED BY IDOCK:   -0.39 KCAL/MOL
REMARK 927      BINDING AFFINITY PREDICTED BY RF-SCORE:    0.00 PKD
ROOT
HETATM    1  N   UNL     1     -12.294  11.527  62.863  1.00  0.00    -0.871 N  
HETATM    2  H1  UNL     1     -12.011  10.568  63.064  1.00  0.00     0.000 HD 
HETATM    3  C   UNL     1     -12.195  12.507  63.784  1.00  0.00    -0.525 C  
HETATM    4  H2  UNL     1     -12.662  11.751  61.939  1.00  0.00     0.000 HD 
HETATM    5  O   UNL     1     -12.534  13.660  63.541  1.00  0.00    -0.736 OA 
ENDROOT
BRANCH   3   6
HETATM    6  N   UNL     1     -11.679  12.163  65.002  1.00  0.00    -0.340 N  
HETATM    7  C   UNL     1     -10.646  11.281  65.271  1.00  0.00    -0.261 C  
HETATM    8  H   UNL     1     -12.108  12.610  65.812  1.00  0.00     0.000 HD 
HETATM    9  O   UNL     1     -10.042  10.638  64.412  1.00  0.00    -0.325 OA 
BRANCH   7  10
HETATM   10  C   UNL     1     -10.321  11.147  66.747  1.00  0.00    -0.284 C  
BRANCH  10  11
HETATM   11  C   UNL     1      -9.769   9.792  67.114  1.00  0.00    -0.223 A  
HETATM   12  C   UNL     1      -8.412   9.636  67.438  1.00  0.00    -0.125 A  
HETATM   13  C   UNL     1      -7.909   8.388  67.810  1.00  0.00    -0.107 A  
HETATM   14  C   UNL     1      -8.757   7.285  67.870  1.00  0.00    -0.123 A  
HETATM   15  C   UNL     1     -10.106   7.428  67.558  1.00  0.00    -0.250 A  
HETATM   16  C   UNL     1     -10.613   8.674  67.183  1.00  0.00    -0.304 A  
ENDBRANCH  10  11
ENDBRANCH   7  10
ENDBRANCH   3   6
TORSDOF 3
ENDMDL
MODEL      103
REMARK 921   NORMALIZED FREE ENERGY PREDICTED BY IDOCK:   -3.85 KCAL/MOL
REMARK 922        TOTAL FREE ENERGY PREDICTED BY IDOCK:   -4.85 KCAL/MOL
REMARK 923 INTER-LIGAND FREE ENERGY PREDICTED BY IDOCK:   -4.44 KCAL/MOL
REMARK 924 INTRA-LIGAND FREE ENERGY PREDICTED BY IDOCK:   -0.42 KCAL/MOL
REMARK 927      BINDING AFFINITY PREDICTED BY RF-SCORE:    0.00 PKD
ROOT
HETATM    1  N   UNL     1      -9.921   8.576  65.980  1.00  0.00    -0.465 N  
HETATM    2  H1  UNL     1      -9.609   9.542  66.077  1.00  0.00     0.000 HD 
HETATM    3  C   UNL     1     -10.568   7.934  66.974  1.00  0.00    -0.311 C  
HETATM    4  H2  UNL     1      -9.738   8.082  65.107  1.00  0.00     0.000 HD 
HETATM    5  O   UNL     1     -10.943   6.773  66.857  1.00  0.00    -0.378 OA 
ENDROOT
BRANCH   3   6
HETATM    6  N   UNL     1     -10.806   8.643  68.118  1.00  0.00    -0.464 N  
HETATM    7  C   UNL     1     -10.042   9.659  68.664  1.00  0.00    -0.179 C  
HETATM    8  H   UNL     1     -11.651   8.392  68.632  1.00  0.00     0.000 HD 
HETATM    9  O   UNL     1      -8.981  10.063  68.186  1.00  0.00    -0.121 OA 
BRANCH   7  10
HETATM   10  C   UNL     1     -10.614  10.239  69.945  1.00  0.00    -0.324 C  
BRANCH  10  11
HETATM   11  C   UNL     1     -10.569   9.276  71.106  1.00  0.00    -0.402 A  
HETATM   12  C   UNL     1      -9.350   8.962  71.728  1.00  0.00    -0.304 A  
HETATM   13  C   UNL     1      -9.313   8.097  72.823  1.00  0.00    -0.344 A  
HETATM   14  C   UNL     1     -10.493   7.544  73.314  1.00  0.00    -0.426 A  
HETATM   15  C   UNL     1     -11.709   7.853  72.710  1.00  0.00    -0.338 A  
HETATM   16  C   UNL     1     -11.750   8.715  71.612  1.00  0.00    -0.380 A  
ENDBRANCH  10  11
ENDBRANCH   7  10
ENDBRANCH   3   6
TORSDOF 3
ENDMDL
MODEL      104
REMARK 921   NORMALIZED FREE ENERGY PREDICTED BY IDOCK:   -3.85 KCAL/MOL
REMARK 922        TOTAL FREE ENERGY PREDICTED BY IDOCK:   -4.85 KCAL/MOL
REMARK 923 INTER-LIGAND FREE ENERGY PREDICTED BY IDOCK:   -4.43 KCAL/MOL
REMARK 924 INTRA-LIGAND FREE ENERGY PREDICTED BY IDOCK:   -0.42 KCAL/MOL
REMARK 927      BINDING AFFINITY PREDICTED BY RF-SCORE:    0.00 PKD
ROOT
HETATM    1  N   UNL     1     -14.331   8.616  72.770  1.00  0.00    -0.673 N  
HETATM    2  H1  UNL     1     -14.381   7.637  73.052  1.00  0.00     0.000 HD 
HETATM    3  C   UNL     1     -13.160   9.207  72.456  1.00  0.00    -0.377 C  
HETATM    4  H2  UNL     1     -15.190   9.162  72.723  1.00  0.00     0.000 HD 
HETATM    5  O   UNL     1     -13.100  10.384  72.117  1.00  0.00    -0.445 OA 
ENDROOT
BRANCH   3   6
HETATM    6  N   UNL     1     -12.038   8.430  72.516  1.00  0.00    -0.466 N  
HETATM    7  C   UNL     1     -11.798   7.229  71.870  1.00  0.00    -0.297 C  
HETATM    8  H   UNL     1     -11.284   8.776  73.110  1.00  0.00     0.000 HD 
HETATM    9  O   UNL     1     -12.610   6.660  71.141  1.00  0.00    -0.303 OA 
BRANCH   7  10
HETATM   10  C   UNL     1     -10.427   6.641  72.154  1.00  0.00    -0.228 C  
BRANCH  10  11
HETATM   11  C   UNL     1     -10.433   5.135  72.239  1.00  0.00    -0.277 A  
HETATM   12  C   UNL     1      -9.808   4.360  71.249  1.00  0.00    -0.260 A  
HETATM   13  C   UNL     1      -9.785   2.968  71.347  1.00  0.00    -0.219 A  
HETATM   14  C   UNL     1     -10.376   2.336  72.438  1.00  0.00    -0.197 A  
HETATM   15  C   UNL     1     -10.992   3.093  73.431  1.00  0.00    -0.302 A  
HETATM   16  C   UNL     1     -11.020   4.486  73.335  1.00  0.00    -0.382 A  
ENDBRANCH  10  11
ENDBRANCH   7  10
ENDBRANCH   3   6
TORSDOF 3
ENDMDL
MODEL      105
REMARK 921   NORMALIZED FREE ENERGY PREDICTED BY IDOCK:   -3.84 KCAL/MOL
REMARK 922        TOTAL FREE ENERGY PREDICTED BY IDOCK:   -4.84 KCAL/MOL
REMARK 923 INTER-LIGAND FREE ENERGY PREDICTED BY IDOCK:   -4.49 KCAL/MOL
REMARK 924 INTRA-LIGAND FREE ENERGY PREDICTED BY IDOCK:   -0.34 KCAL/MOL
REMARK 927      BINDING AFFINITY PREDICTED BY RF-SCORE:    0.00 PKD
ROOT
HETATM    1  N   UNL     1     -11.894  12.057  70.471  1.00  0.00    -0.510 N  
HETATM    2  H1  UNL     1     -11.826  11.849  71.468  1.00  0.00     0.000 HD 
HETATM    3  C   UNL     1     -12.011  11.082  69.547  1.00  0.00    -0.342 C  
HETATM    4  H2  UNL     1     -11.873  13.029  70.166  1.00  0.00     0.000 HD 
HETATM    5  O   UNL     1     -12.093  11.332  68.350  1.00  0.00    -0.598 OA 
ENDROOT
BRANCH   3   6
HETATM    6  N   UNL     1     -12.053   9.795  70.006  1.00  0.00    -0.466 N  
HETATM    7  C   UNL     1     -11.058   9.092  70.662  1.00  0.00    -0.265 C  
HETATM    8  H   UNL     1     -12.926   9.291  69.845  1.00  0.00     0.000 HD 
HETATM    9  O   UNL     1      -9.939   9.542  70.909  1.00  0.00    -0.284 OA 
BRANCH   7  10
HETATM   10  C   UNL     1     -11.454   7.676  71.043  1.00  0.00    -0.294 C  
BRANCH  10  11
HETATM   11  C   UNL     1     -10.934   6.634  70.085  1.00  0.00    -0.358 A  
HETATM   12  C   UNL     1     -11.020   6.831  68.698  1.00  0.00    -0.261 A  
HETATM   13  C   UNL     1     -10.509   5.881  67.812  1.00  0.00    -0.300 A  
HETATM   14  C   UNL     1      -9.897   4.730  68.302  1.00  0.00    -0.181 A  
HETATM   15  C   UNL     1      -9.798   4.527  69.676  1.00  0.00    -0.288 A  
HETATM   16  C   UNL     1     -10.312   5.473  70.565  1.00  0.00    -0.342 A  
ENDBRANCH  10  11
ENDBRANCH   7  10
ENDBRANCH   3   6
TORSDOF 3
ENDMDL
MODEL      106
REMARK 921   NORMALIZED FREE ENERGY PREDICTED BY IDOCK:   -3.83 KCAL/MOL
REMARK 922        TOTAL FREE ENERGY PREDICTED BY IDOCK:   -4.83 KCAL/MOL
REMARK 923 INTER-LIGAND FREE ENERGY PREDICTED BY IDOCK:   -4.44 KCAL/MOL
REMARK 924 INTRA-LIGAND FREE ENERGY PREDICTED BY IDOCK:   -0.39 KCAL/MOL
REMARK 927      BINDING AFFINITY PREDICTED BY RF-SCORE:    0.00 PKD
ROOT
HETATM    1  N   UNL     1     -13.139  11.390  71.910  1.00  0.00    -0.473 N  
HETATM    2  H1  UNL     1     -13.267  12.273  72.405  1.00  0.00     0.000 HD 
HETATM    3  C   UNL     1     -12.367  11.298  70.808  1.00  0.00    -0.398 C  
HETATM    4  H2  UNL     1     -13.607  10.554  72.258  1.00  0.00     0.000 HD 
HETATM    5  O   UNL     1     -12.213  10.237  70.213  1.00  0.00    -0.267 OA 
ENDROOT
BRANCH   3   6
HETATM    6  N   UNL     1     -11.746  12.441  70.389  1.00  0.00    -0.540 N  
HETATM    7  C   UNL     1     -12.257  13.727  70.360  1.00  0.00    -0.363 C  
HETATM    8  H   UNL     1     -10.787  12.333  70.057  1.00  0.00     0.000 HD 
HETATM    9  O   UNL     1     -13.402  14.025  70.698  1.00  0.00    -0.158 OA 
BRANCH   7  10
HETATM   10  C   UNL     1     -11.278  14.766  69.843  1.00  0.00    -0.293 C  
BRANCH  10  11
HETATM   11  C   UNL     1     -10.974  14.618  68.374  1.00  0.00    -0.260 A  
HETATM   12  C   UNL     1      -9.665  14.784  67.894  1.00  0.00    -0.211 A  
HETATM   13  C   UNL     1      -9.378  14.615  66.539  1.00  0.00    -0.313 A  
HETATM   14  C   UNL     1     -10.393  14.268  65.650  1.00  0.00    -0.352 A  
HETATM   15  C   UNL     1     -11.694  14.093  66.114  1.00  0.00    -0.402 A  
HETATM   16  C   UNL     1     -11.985  14.265  67.469  1.00  0.00    -0.411 A  
ENDBRANCH  10  11
ENDBRANCH   7  10
ENDBRANCH   3   6
TORSDOF 3
ENDMDL
MODEL      107
REMARK 921   NORMALIZED FREE ENERGY PREDICTED BY IDOCK:   -3.83 KCAL/MOL
REMARK 922        TOTAL FREE ENERGY PREDICTED BY IDOCK:   -4.83 KCAL/MOL
REMARK 923 INTER-LIGAND FREE ENERGY PREDICTED BY IDOCK:   -4.44 KCAL/MOL
REMARK 924 INTRA-LIGAND FREE ENERGY PREDICTED BY IDOCK:   -0.39 KCAL/MOL
REMARK 927      BINDING AFFINITY PREDICTED BY RF-SCORE:    0.00 PKD
ROOT
HETATM    1  N   UNL     1      -9.603   7.691  66.041  1.00  0.00    -0.432 N  
HETATM    2  H1  UNL     1      -9.492   8.621  65.638  1.00  0.00     0.000 HD 
HETATM    3  C   UNL     1     -10.370   7.474  67.129  1.00  0.00    -0.313 C  
HETATM    4  H2  UNL     1      -9.122   6.903  65.609  1.00  0.00     0.000 HD 
HETATM    5  O   UNL     1     -10.504   6.355  67.613  1.00  0.00    -0.169 OA 
ENDROOT
BRANCH   3   6
HETATM    6  N   UNL     1     -11.010   8.557  67.662  1.00  0.00    -0.481 N  
HETATM    7  C   UNL     1     -10.447   9.719  68.161  1.00  0.00    -0.216 C  
HETATM    8  H   UNL     1     -12.029   8.503  67.696  1.00  0.00     0.000 HD 
HETATM    9  O   UNL     1      -9.236   9.932  68.219  1.00  0.00    -0.128 OA 
BRANCH   7  10
HETATM   10  C   UNL     1     -11.463  10.727  68.666  1.00  0.00    -0.365 C  
BRANCH  10  11
HETATM   11  C   UNL     1     -11.573  11.950  67.791  1.00  0.00    -0.393 A  
HETATM   12  C   UNL     1     -11.750  13.222  68.357  1.00  0.00    -0.389 A  
HETATM   13  C   UNL     1     -11.818  14.358  67.549  1.00  0.00    -0.418 A  
HETATM   14  C   UNL     1     -11.700  14.236  66.166  1.00  0.00    -0.397 A  
HETATM   15  C   UNL     1     -11.516  12.981  65.592  1.00  0.00    -0.365 A  
HETATM   16  C   UNL     1     -11.451  11.843  66.398  1.00  0.00    -0.371 A  
ENDBRANCH  10  11
ENDBRANCH   7  10
ENDBRANCH   3   6
TORSDOF 3
ENDMDL
MODEL      108
REMARK 921   NORMALIZED FREE ENERGY PREDICTED BY IDOCK:   -3.83 KCAL/MOL
REMARK 922        TOTAL FREE ENERGY PREDICTED BY IDOCK:   -4.83 KCAL/MOL
REMARK 923 INTER-LIGAND FREE ENERGY PREDICTED BY IDOCK:   -4.45 KCAL/MOL
REMARK 924 INTRA-LIGAND FREE ENERGY PREDICTED BY IDOCK:   -0.38 KCAL/MOL
REMARK 927      BINDING AFFINITY PREDICTED BY RF-SCORE:    0.00 PKD
ROOT
HETATM    1  N   UNL     1      -8.721  17.573  67.869  1.00  0.00    -0.241 N  
HETATM    2  H1  UNL     1      -8.829  16.980  68.691  1.00  0.00     0.000 HD 
HETATM    3  C   UNL     1      -9.520  17.446  66.790  1.00  0.00    -0.273 C  
HETATM    4  H2  UNL     1      -7.989  18.283  67.862  1.00  0.00     0.000 HD 
HETATM    5  O   UNL     1      -9.391  18.159  65.801  1.00  0.00    -0.476 OA 
ENDROOT
BRANCH   3   6
HETATM    6  N   UNL     1     -10.498  16.493  66.852  1.00  0.00    -0.301 N  
HETATM    7  C   UNL     1     -10.410  15.215  67.376  1.00  0.00    -0.244 C  
HETATM    8  H   UNL     1     -11.404  16.757  66.465  1.00  0.00     0.000 HD 
HETATM    9  O   UNL     1      -9.384  14.732  67.855  1.00  0.00    -0.188 OA 
BRANCH   7  10
HETATM   10  C   UNL     1     -11.704  14.425  67.291  1.00  0.00    -0.429 C  
BRANCH  10  11
HETATM   11  C   UNL     1     -11.705  13.192  68.160  1.00  0.00    -0.391 A  
HETATM   12  C   UNL     1     -12.003  13.281  69.528  1.00  0.00    -0.366 A  
HETATM   13  C   UNL     1     -12.038  12.135  70.325  1.00  0.00    -0.385 A  
HETATM   14  C   UNL     1     -11.784  10.888  69.760  1.00  0.00    -0.413 A  
HETATM   15  C   UNL     1     -11.494  10.785  68.402  1.00  0.00    -0.358 A  
HETATM   16  C   UNL     1     -11.456  11.930  67.604  1.00  0.00    -0.387 A  
ENDBRANCH  10  11
ENDBRANCH   7  10
ENDBRANCH   3   6
TORSDOF 3
ENDMDL
MODEL      109
REMARK 921   NORMALIZED FREE ENERGY PREDICTED BY IDOCK:   -3.83 KCAL/MOL
REMARK 922        TOTAL FREE ENERGY PREDICTED BY IDOCK:   -4.82 KCAL/MOL
REMARK 923 INTER-LIGAND FREE ENERGY PREDICTED BY IDOCK:   -4.62 KCAL/MOL
REMARK 924 INTRA-LIGAND FREE ENERGY PREDICTED BY IDOCK:   -0.20 KCAL/MOL
REMARK 927      BINDING AFFINITY PREDICTED BY RF-SCORE:    0.00 PKD
ROOT
HETATM    1  N   UNL     1     -12.472  16.194  71.775  1.00  0.00    -0.567 N  
HETATM    2  H1  UNL     1     -11.765  16.756  71.301  1.00  0.00     0.000 HD 
HETATM    3  C   UNL     1     -13.116  15.187  71.152  1.00  0.00    -0.450 C  
HETATM    4  H2  UNL     1     -12.698  16.400  72.748  1.00  0.00     0.000 HD 
HETATM    5  O   UNL     1     -13.966  14.512  71.722  1.00  0.00    -0.398 OA 
ENDROOT
BRANCH   3   6
HETATM    6  N   UNL     1     -12.767  14.937  69.855  1.00  0.00    -0.589 N  
HETATM    7  C   UNL     1     -12.152  13.808  69.341  1.00  0.00    -0.328 C  
HETATM    8  H   UNL     1     -12.987  15.672  69.182  1.00  0.00     0.000 HD 
HETATM    9  O   UNL     1     -11.796  12.844  70.018  1.00  0.00    -0.326 OA 
BRANCH   7  10
HETATM   10  C   UNL     1     -11.923  13.862  67.841  1.00  0.00    -0.393 C  
BRANCH  10  11
HETATM   11  C   UNL     1     -10.767  14.747  67.447  1.00  0.00    -0.281 A  
HETATM   12  C   UNL     1     -10.846  15.562  66.307  1.00  0.00    -0.283 A  
HETATM   13  C   UNL     1      -9.789  16.406  65.962  1.00  0.00    -0.362 A  
HETATM   14  C   UNL     1      -8.646  16.451  66.756  1.00  0.00    -0.270 A  
HETATM   15  C   UNL     1      -8.558  15.652  67.893  1.00  0.00    -0.163 A  
HETATM   16  C   UNL     1      -9.612  14.805  68.240  1.00  0.00    -0.215 A  
ENDBRANCH  10  11
ENDBRANCH   7  10
ENDBRANCH   3   6
TORSDOF 3
ENDMDL
MODEL      110
REMARK 921   NORMALIZED FREE ENERGY PREDICTED BY IDOCK:   -3.82 KCAL/MOL
REMARK 922        TOTAL FREE ENERGY PREDICTED BY IDOCK:   -4.82 KCAL/MOL
REMARK 923 INTER-LIGAND FREE ENERGY PREDICTED BY IDOCK:   -4.64 KCAL/MOL
REMARK 924 INTRA-LIGAND FREE ENERGY PREDICTED BY IDOCK:   -0.18 KCAL/MOL
REMARK 927      BINDING AFFINITY PREDICTED BY RF-SCORE:    0.00 PKD
ROOT
HETATM    1  N   UNL     1     -13.146   9.950  70.801  1.00  0.00    -0.578 N  
HETATM    2  H1  UNL     1     -12.738   9.398  70.046  1.00  0.00     0.000 HD 
HETATM    3  C   UNL     1     -12.665  11.165  71.134  1.00  0.00    -0.408 C  
HETATM    4  H2  UNL     1     -13.941   9.573  71.317  1.00  0.00     0.000 HD 
HETATM    5  O   UNL     1     -13.156  11.828  72.041  1.00  0.00    -0.467 OA 
ENDROOT
BRANCH   3   6
HETATM    6  N   UNL     1     -11.612  11.636  70.402  1.00  0.00    -0.503 N  
HETATM    7  C   UNL     1     -11.461  11.631  69.027  1.00  0.00    -0.294 C  
HETATM    8  H   UNL     1     -10.843  12.042  70.936  1.00  0.00     0.000 HD 
HETATM    9  O   UNL     1     -12.281  11.156  68.241  1.00  0.00    -0.613 OA 
BRANCH   7  10
HETATM   10  C   UNL     1     -10.161  12.254  68.548  1.00  0.00    -0.213 C  
BRANCH  10  11
HETATM   11  C   UNL     1     -10.237  13.753  68.407  1.00  0.00    -0.248 A  
HETATM   12  C   UNL     1      -9.724  14.391  67.266  1.00  0.00    -0.233 A  
HETATM   13  C   UNL     1      -9.823  15.775  67.121  1.00  0.00    -0.227 A  
HETATM   14  C   UNL     1     -10.445  16.537  68.108  1.00  0.00    -0.313 A  
HETATM   15  C   UNL     1     -10.964  15.916  69.240  1.00  0.00    -0.293 A  
HETATM   16  C   UNL     1     -10.863  14.531  69.391  1.00  0.00    -0.249 A  
ENDBRANCH  10  11
ENDBRANCH   7  10
ENDBRANCH   3   6
TORSDOF 3
ENDMDL
MODEL      111
REMARK 921   NORMALIZED FREE ENERGY PREDICTED BY IDOCK:   -3.79 KCAL/MOL
REMARK 922        TOTAL FREE ENERGY PREDICTED BY IDOCK:   -4.78 KCAL/MOL
REMARK 923 INTER-LIGAND FREE ENERGY PREDICTED BY IDOCK:   -4.39 KCAL/MOL
REMARK 924 INTRA-LIGAND FREE ENERGY PREDICTED BY IDOCK:   -0.39 KCAL/MOL
REMARK 927      BINDING AFFINITY PREDICTED BY RF-SCORE:    0.00 PKD
ROOT
HETATM    1  N   UNL     1     -12.537  16.144  71.813  1.00  0.00    -0.540 N  
HETATM    2  H1  UNL     1     -12.026  17.011  71.646  1.00  0.00     0.000 HD 
HETATM    3  C   UNL     1     -12.823  15.283  70.815  1.00  0.00    -0.437 C  
HETATM    4  H2  UNL     1     -12.838  15.922  72.761  1.00  0.00     0.000 HD 
HETATM    5  O   UNL     1     -13.437  14.241  71.017  1.00  0.00    -0.326 OA 
ENDROOT
BRANCH   3   6
HETATM    6  N   UNL     1     -12.384  15.615  69.565  1.00  0.00    -0.557 N  
HETATM    7  C   UNL     1     -11.081  15.632  69.097  1.00  0.00    -0.284 C  
HETATM    8  H   UNL     1     -13.104  15.884  68.894  1.00  0.00     0.000 HD 
HETATM    9  O   UNL     1     -10.095  15.364  69.783  1.00  0.00    -0.263 OA 
BRANCH   7  10
HETATM   10  C   UNL     1     -10.956  16.041  67.640  1.00  0.00    -0.284 C  
BRANCH  10  11
HETATM   11  C   UNL     1      -9.731  16.873  67.358  1.00  0.00    -0.247 A  
HETATM   12  C   UNL     1      -8.608  16.306  66.736  1.00  0.00    -0.273 A  
HETATM   13  C   UNL     1      -7.486  17.084  66.446  1.00  0.00    -0.336 A  
HETATM   14  C   UNL     1      -7.478  18.440  66.765  1.00  0.00    -0.240 A  
HETATM   15  C   UNL     1      -8.589  19.017  67.376  1.00  0.00    -0.301 A  
HETATM   16  C   UNL     1      -9.711  18.240  67.671  1.00  0.00    -0.306 A  
ENDBRANCH  10  11
ENDBRANCH   7  10
ENDBRANCH   3   6
TORSDOF 3
ENDMDL
MODEL      112
REMARK 921   NORMALIZED FREE ENERGY PREDICTED BY IDOCK:   -3.76 KCAL/MOL
REMARK 922        TOTAL FREE ENERGY PREDICTED BY IDOCK:   -4.75 KCAL/MOL
REMARK 923 INTER-LIGAND FREE ENERGY PREDICTED BY IDOCK:   -4.32 KCAL/MOL
REMARK 924 INTRA-LIGAND FREE ENERGY PREDICTED BY IDOCK:   -0.42 KCAL/MOL
REMARK 927      BINDING AFFINITY PREDICTED BY RF-SCORE:    0.00 PKD
ROOT
HETATM    1  N   UNL     1      -8.084  20.473  66.275  1.00  0.00    -0.535 N  
HETATM    2  H1  UNL     1      -8.296  20.212  65.312  1.00  0.00     0.000 HD 
HETATM    3  C   UNL     1      -8.076  19.566  67.273  1.00  0.00    -0.274 C  
HETATM    4  H2  UNL     1      -7.871  21.447  66.488  1.00  0.00     0.000 HD 
HETATM    5  O   UNL     1      -7.821  19.881  68.430  1.00  0.00    -0.308 OA 
ENDROOT
BRANCH   3   6
HETATM    6  N   UNL     1      -8.350  18.271  66.935  1.00  0.00    -0.239 N  
HETATM    7  C   UNL     1      -9.541  17.746  66.464  1.00  0.00    -0.308 C  
HETATM    8  H   UNL     1      -7.582  17.608  67.045  1.00  0.00     0.000 HD 
HETATM    9  O   UNL     1     -10.570  18.402  66.302  1.00  0.00    -0.395 OA 
BRANCH   7  10
HETATM   10  C   UNL     1      -9.486  16.257  66.175  1.00  0.00    -0.373 C  
BRANCH  10  11
HETATM   11  C   UNL     1     -10.356  15.440  67.097  1.00  0.00    -0.271 A  
HETATM   12  C   UNL     1     -11.327  14.569  66.578  1.00  0.00    -0.354 A  
HETATM   13  C   UNL     1     -12.110  13.788  67.430  1.00  0.00    -0.378 A  
HETATM   14  C   UNL     1     -11.925  13.862  68.808  1.00  0.00    -0.393 A  
HETATM   15  C   UNL     1     -10.960  14.717  69.335  1.00  0.00    -0.279 A  
HETATM   16  C   UNL     1     -10.177  15.502  68.486  1.00  0.00    -0.215 A  
ENDBRANCH  10  11
ENDBRANCH   7  10
ENDBRANCH   3   6
TORSDOF 3
ENDMDL
MODEL      113
REMARK 921   NORMALIZED FREE ENERGY PREDICTED BY IDOCK:   -3.71 KCAL/MOL
REMARK 922        TOTAL FREE ENERGY PREDICTED BY IDOCK:   -4.69 KCAL/MOL
REMARK 923 INTER-LIGAND FREE ENERGY PREDICTED BY IDOCK:   -4.43 KCAL/MOL
REMARK 924 INTRA-LIGAND FREE ENERGY PREDICTED BY IDOCK:   -0.25 KCAL/MOL
REMARK 927      BINDING AFFINITY PREDICTED BY RF-SCORE:    0.00 PKD
ROOT
HETATM    1  N   UNL     1     -10.292  11.104  65.798  1.00  0.00    -0.254 N  
HETATM    2  H1  UNL     1     -10.475  11.646  66.643  1.00  0.00     0.000 HD 
HETATM    3  C   UNL     1     -10.133  11.693  64.595  1.00  0.00    -0.262 C  
HETATM    4  H2  UNL     1     -10.226  10.089  65.866  1.00  0.00     0.000 HD 
HETATM    5  O   UNL     1      -9.912  11.041  63.580  1.00  0.00    -0.295 OA 
ENDROOT
BRANCH   3   6
HETATM    6  N   UNL     1     -10.210  13.057  64.558  1.00  0.00    -0.547 N  
HETATM    7  C   UNL     1     -11.306  13.855  64.836  1.00  0.00    -0.347 C  
HETATM    8  H   UNL     1      -9.356  13.546  64.292  1.00  0.00     0.000 HD 
HETATM    9  O   UNL     1     -12.417  13.424  65.144  1.00  0.00    -0.430 OA 
BRANCH   7  10
HETATM   10  C   UNL     1     -11.032  15.343  64.707  1.00  0.00    -0.411 C  
BRANCH  10  11
HETATM   11  C   UNL     1     -10.743  16.011  66.028  1.00  0.00    -0.271 A  
HETATM   12  C   UNL     1     -10.378  17.366  66.080  1.00  0.00    -0.329 A  
HETATM   13  C   UNL     1     -10.143  17.992  67.305  1.00  0.00    -0.346 A  
HETATM   14  C   UNL     1     -10.281  17.275  68.491  1.00  0.00    -0.358 A  
HETATM   15  C   UNL     1     -10.650  15.933  68.454  1.00  0.00    -0.266 A  
HETATM   16  C   UNL     1     -10.882  15.303  67.230  1.00  0.00    -0.318 A  
ENDBRANCH  10  11
ENDBRANCH   7  10
ENDBRANCH   3   6
TORSDOF 3
ENDMDL
MODEL      114
REMARK 921   NORMALIZED FREE ENERGY PREDICTED BY IDOCK:   -3.71 KCAL/MOL
REMARK 922        TOTAL FREE ENERGY PREDICTED BY IDOCK:   -4.69 KCAL/MOL
REMARK 923 INTER-LIGAND FREE ENERGY PREDICTED BY IDOCK:   -4.53 KCAL/MOL
REMARK 924 INTRA-LIGAND FREE ENERGY PREDICTED BY IDOCK:   -0.16 KCAL/MOL
REMARK 927      BINDING AFFINITY PREDICTED BY RF-SCORE:    0.00 PKD
ROOT
HETATM    1  N   UNL     1     -11.120   5.278  66.077  1.00  0.00    -0.793 N  
HETATM    2  H1  UNL     1     -10.814   5.239  65.105  1.00  0.00     0.000 HD 
HETATM    3  C   UNL     1     -10.917   6.368  66.844  1.00  0.00    -0.341 C  
HETATM    4  H2  UNL     1     -11.594   4.470  66.481  1.00  0.00     0.000 HD 
HETATM    5  O   UNL     1     -11.285   6.416  68.012  1.00  0.00    -0.311 OA 
ENDROOT
BRANCH   3   6
HETATM    6  N   UNL     1     -10.295   7.433  66.254  1.00  0.00    -0.396 N  
HETATM    7  C   UNL     1      -9.069   7.989  66.578  1.00  0.00    -0.173 C  
HETATM    8  H   UNL     1     -10.795   7.872  65.481  1.00  0.00     0.000 HD 
HETATM    9  O   UNL     1      -8.353   7.599  67.499  1.00  0.00    -0.119 OA 
BRANCH   7  10
HETATM   10  C   UNL     1      -8.676   9.164  65.700  1.00  0.00    -0.203 C  
BRANCH  10  11
HETATM   11  C   UNL     1      -9.696  10.275  65.700  1.00  0.00    -0.308 A  
HETATM   12  C   UNL     1     -10.152  10.828  64.494  1.00  0.00    -0.415 A  
HETATM   13  C   UNL     1     -11.120  11.833  64.494  1.00  0.00    -0.376 A  
HETATM   14  C   UNL     1     -11.651  12.289  65.698  1.00  0.00    -0.433 A  
HETATM   15  C   UNL     1     -11.212  11.743  66.902  1.00  0.00    -0.387 A  
HETATM   16  C   UNL     1     -10.241  10.740  66.905  1.00  0.00    -0.274 A  
ENDBRANCH  10  11
ENDBRANCH   7  10
ENDBRANCH   3   6
TORSDOF 3
ENDMDL
MODEL      115
REMARK 921   NORMALIZED FREE ENERGY PREDICTED BY IDOCK:   -3.69 KCAL/MOL
REMARK 922        TOTAL FREE ENERGY PREDICTED BY IDOCK:   -4.67 KCAL/MOL
REMARK 923 INTER-LIGAND FREE ENERGY PREDICTED BY IDOCK:   -4.40 KCAL/MOL
REMARK 924 INTRA-LIGAND FREE ENERGY PREDICTED BY IDOCK:   -0.27 KCAL/MOL
REMARK 927      BINDING AFFINITY PREDICTED BY RF-SCORE:    0.00 PKD
ROOT
HETATM    1  N   UNL     1     -11.523   6.514  71.237  1.00  0.00    -0.304 N  
HETATM    2  H1  UNL     1     -10.629   6.805  70.840  1.00  0.00     0.000 HD 
HETATM    3  C   UNL     1     -12.601   7.324  71.231  1.00  0.00    -0.366 C  
HETATM    4  H2  UNL     1     -11.604   5.584  71.647  1.00  0.00     0.000 HD 
HETATM    5  O   UNL     1     -13.676   6.974  71.707  1.00  0.00    -0.338 OA 
ENDROOT
BRANCH   3   6
HETATM    6  N   UNL     1     -12.450   8.553  70.654  1.00  0.00    -0.457 N  
HETATM    7  C   UNL     1     -11.406   9.447  70.815  1.00  0.00    -0.300 C  
HETATM    8  H   UNL     1     -13.199   8.848  70.027  1.00  0.00     0.000 HD 
HETATM    9  O   UNL     1     -10.440   9.259  71.554  1.00  0.00    -0.334 OA 
BRANCH   7  10
HETATM   10  C   UNL     1     -11.558  10.723  70.005  1.00  0.00    -0.417 C  
BRANCH  10  11
HETATM   11  C   UNL     1     -11.095  10.579  68.577  1.00  0.00    -0.329 A  
HETATM   12  C   UNL     1     -11.189  11.657  67.683  1.00  0.00    -0.345 A  
HETATM   13  C   UNL     1     -10.730  11.534  66.370  1.00  0.00    -0.320 A  
HETATM   14  C   UNL     1     -10.164  10.336  65.940  1.00  0.00    -0.293 A  
HETATM   15  C   UNL     1     -10.059   9.262  66.819  1.00  0.00    -0.331 A  
HETATM   16  C   UNL     1     -10.520   9.381  68.132  1.00  0.00    -0.267 A  
ENDBRANCH  10  11
ENDBRANCH   7  10
ENDBRANCH   3   6
TORSDOF 3
ENDMDL
MODEL      116
REMARK 921   NORMALIZED FREE ENERGY PREDICTED BY IDOCK:   -3.67 KCAL/MOL
REMARK 922        TOTAL FREE ENERGY PREDICTED BY IDOCK:   -4.64 KCAL/MOL
REMARK 923 INTER-LIGAND FREE ENERGY PREDICTED BY IDOCK:   -4.20 KCAL/MOL
REMARK 924 INTRA-LIGAND FREE ENERGY PREDICTED BY IDOCK:   -0.44 KCAL/MOL
REMARK 927      BINDING AFFINITY PREDICTED BY RF-SCORE:    0.00 PKD
ROOT
HETATM    1  N   UNL     1      -7.707  11.112  69.622  1.00  0.00    -0.357 N  
HETATM    2  H1  UNL     1      -8.461  10.788  70.227  1.00  0.00     0.000 HD 
HETATM    3  C   UNL     1      -7.940  11.906  68.557  1.00  0.00    -0.137 C  
HETATM    4  H2  UNL     1      -6.749  10.829  69.829  1.00  0.00     0.000 HD 
HETATM    5  O   UNL     1      -7.033  12.296  67.830  1.00  0.00    -0.085 OA 
ENDROOT
BRANCH   3   6
HETATM    6  N   UNL     1      -9.236  12.274  68.331  1.00  0.00    -0.294 N  
HETATM    7  C   UNL     1     -10.362  11.469  68.326  1.00  0.00    -0.197 C  
HETATM    8  H   UNL     1      -9.393  13.264  68.141  1.00  0.00     0.000 HD 
HETATM    9  O   UNL     1     -10.344  10.252  68.509  1.00  0.00    -0.163 OA 
BRANCH   7  10
HETATM   10  C   UNL     1     -11.653  12.218  68.050  1.00  0.00    -0.408 C  
BRANCH  10  11
HETATM   11  C   UNL     1     -11.789  12.659  66.614  1.00  0.00    -0.449 A  
HETATM   12  C   UNL     1     -11.490  11.778  65.563  1.00  0.00    -0.241 A  
HETATM   13  C   UNL     1     -11.648  12.175  64.235  1.00  0.00    -0.444 A  
HETATM   14  C   UNL     1     -12.116  13.454  63.942  1.00  0.00    -0.514 A  
HETATM   15  C   UNL     1     -12.423  14.336  64.975  1.00  0.00    -0.409 A  
HETATM   16  C   UNL     1     -12.263  13.942  66.305  1.00  0.00    -0.498 A  
ENDBRANCH  10  11
ENDBRANCH   7  10
ENDBRANCH   3   6
TORSDOF 3
ENDMDL
MODEL      117
REMARK 921   NORMALIZED FREE ENERGY PREDICTED BY IDOCK:   -3.65 KCAL/MOL
REMARK 922        TOTAL FREE ENERGY PREDICTED BY IDOCK:   -4.62 KCAL/MOL
REMARK 923 INTER-LIGAND FREE ENERGY PREDICTED BY IDOCK:   -4.33 KCAL/MOL
REMARK 924 INTRA-LIGAND FREE ENERGY PREDICTED BY IDOCK:   -0.29 KCAL/MOL
REMARK 927      BINDING AFFINITY PREDICTED BY RF-SCORE:    0.00 PKD
ROOT
HETATM    1  N   UNL     1     -12.488  14.058  64.778  1.00  0.00    -0.609 N  
HETATM    2  H1  UNL     1     -12.762  14.920  64.307  1.00  0.00     0.000 HD 
HETATM    3  C   UNL     1     -11.690  14.064  65.865  1.00  0.00    -0.366 C  
HETATM    4  H2  UNL     1     -12.829  13.167  64.418  1.00  0.00     0.000 HD 
HETATM    5  O   UNL     1     -11.361  13.027  66.431  1.00  0.00    -0.295 OA 
ENDROOT
BRANCH   3   6
HETATM    6  N   UNL     1     -11.273  15.282  66.322  1.00  0.00    -0.278 N  
HETATM    7  C   UNL     1     -10.902  16.389  65.578  1.00  0.00    -0.215 C  
HETATM    8  H   UNL     1     -11.231  15.389  67.335  1.00  0.00     0.000 HD 
HETATM    9  O   UNL     1     -10.869  16.418  64.348  1.00  0.00    -0.732 OA 
BRANCH   7  10
HETATM   10  C   UNL     1     -10.505  17.589  66.418  1.00  0.00    -0.277 C  
BRANCH  10  11
HETATM   11  C   UNL     1      -9.057  17.568  66.840  1.00  0.00    -0.265 A  
HETATM   12  C   UNL     1      -8.605  18.383  67.890  1.00  0.00    -0.285 A  
HETATM   13  C   UNL     1      -7.272  18.338  68.301  1.00  0.00    -0.266 A  
HETATM   14  C   UNL     1      -6.379  17.472  67.675  1.00  0.00    -0.163 A  
HETATM   15  C   UNL     1      -6.816  16.653  66.638  1.00  0.00    -0.219 A  
HETATM   16  C   UNL     1      -8.148  16.698  66.221  1.00  0.00    -0.361 A  
ENDBRANCH  10  11
ENDBRANCH   7  10
ENDBRANCH   3   6
TORSDOF 3
ENDMDL
MODEL      118
REMARK 921   NORMALIZED FREE ENERGY PREDICTED BY IDOCK:   -3.64 KCAL/MOL
REMARK 922        TOTAL FREE ENERGY PREDICTED BY IDOCK:   -4.60 KCAL/MOL
REMARK 923 INTER-LIGAND FREE ENERGY PREDICTED BY IDOCK:   -4.31 KCAL/MOL
REMARK 924 INTRA-LIGAND FREE ENERGY PREDICTED BY IDOCK:   -0.29 KCAL/MOL
REMARK 927      BINDING AFFINITY PREDICTED BY RF-SCORE:    0.00 PKD
ROOT
HETATM    1  N   UNL     1      -9.995  12.730  63.694  1.00  0.00    -0.466 N  
HETATM    2  H1  UNL     1     -10.194  13.720  63.842  1.00  0.00     0.000 HD 
HETATM    3  C   UNL     1     -10.445  11.779  64.537  1.00  0.00    -0.304 C  
HETATM    4  H2  UNL     1      -9.441  12.453  62.884  1.00  0.00     0.000 HD 
HETATM    5  O   UNL     1     -10.206  10.590  64.358  1.00  0.00    -0.346 OA 
ENDROOT
BRANCH   3   6
HETATM    6  N   UNL     1     -11.199  12.197  65.597  1.00  0.00    -0.324 N  
HETATM    7  C   UNL     1     -10.786  12.919  66.704  1.00  0.00    -0.265 C  
HETATM    8  H   UNL     1     -12.187  11.947  65.570  1.00  0.00     0.000 HD 
HETATM    9  O   UNL     1      -9.625  13.275  66.905  1.00  0.00    -0.234 OA 
BRANCH   7  10
HETATM   10  C   UNL     1     -11.900  13.226  67.689  1.00  0.00    -0.400 C  
BRANCH  10  11
HETATM   11  C   UNL     1     -11.946  12.267  68.852  1.00  0.00    -0.300 A  
HETATM   12  C   UNL     1     -12.409  12.688  70.108  1.00  0.00    -0.222 A  
HETATM   13  C   UNL     1     -12.484  11.791  71.175  1.00  0.00    -0.390 A  
HETATM   14  C   UNL     1     -12.105  10.463  70.997  1.00  0.00    -0.488 A  
HETATM   15  C   UNL     1     -11.651  10.031  69.754  1.00  0.00    -0.193 A  
HETATM   16  C   UNL     1     -11.572  10.926  68.685  1.00  0.00    -0.373 A  
ENDBRANCH  10  11
ENDBRANCH   7  10
ENDBRANCH   3   6
TORSDOF 3
ENDMDL
MODEL      119
REMARK 921   NORMALIZED FREE ENERGY PREDICTED BY IDOCK:   -3.62 KCAL/MOL
REMARK 922        TOTAL FREE ENERGY PREDICTED BY IDOCK:   -4.58 KCAL/MOL
REMARK 923 INTER-LIGAND FREE ENERGY PREDICTED BY IDOCK:   -4.21 KCAL/MOL
REMARK 924 INTRA-LIGAND FREE ENERGY PREDICTED BY IDOCK:   -0.37 KCAL/MOL
REMARK 927      BINDING AFFINITY PREDICTED BY RF-SCORE:    0.00 PKD
ROOT
HETATM    1  N   UNL     1      -7.506  13.061  68.843  1.00  0.00    -0.285 N  
HETATM    2  H1  UNL     1      -6.956  13.912  68.968  1.00  0.00     0.000 HD 
HETATM    3  C   UNL     1      -8.423  12.945  67.861  1.00  0.00    -0.181 C  
HETATM    4  H2  UNL     1      -7.357  12.278  69.477  1.00  0.00     0.000 HD 
HETATM    5  O   UNL     1      -9.084  11.923  67.711  1.00  0.00    -0.168 OA 
ENDROOT
BRANCH   3   6
HETATM    6  N   UNL     1      -8.575  14.015  67.025  1.00  0.00    -0.329 N  
HETATM    7  C   UNL     1      -8.569  15.360  67.352  1.00  0.00    -0.179 C  
HETATM    8  H   UNL     1      -8.709  13.795  66.037  1.00  0.00     0.000 HD 
HETATM    9  O   UNL     1      -8.447  15.794  68.497  1.00  0.00    -0.166 OA 
BRANCH   7  10
HETATM   10  C   UNL     1      -8.751  16.283  66.161  1.00  0.00    -0.353 C  
BRANCH  10  11
HETATM   11  C   UNL     1      -9.089  17.700  66.553  1.00  0.00    -0.284 A  
HETATM   12  C   UNL     1      -8.104  18.700  66.540  1.00  0.00    -0.301 A  
HETATM   13  C   UNL     1      -8.424  20.018  66.871  1.00  0.00    -0.385 A  
HETATM   14  C   UNL     1      -9.733  20.352  67.209  1.00  0.00    -0.602 A  
HETATM   15  C   UNL     1     -10.721  19.371  67.219  1.00  0.00    -0.603 A  
HETATM   16  C   UNL     1     -10.403  18.051  66.891  1.00  0.00    -0.377 A  
ENDBRANCH  10  11
ENDBRANCH   7  10
ENDBRANCH   3   6
TORSDOF 3
ENDMDL
MODEL      120
REMARK 921   NORMALIZED FREE ENERGY PREDICTED BY IDOCK:   -3.60 KCAL/MOL
REMARK 922        TOTAL FREE ENERGY PREDICTED BY IDOCK:   -4.56 KCAL/MOL
REMARK 923 INTER-LIGAND FREE ENERGY PREDICTED BY IDOCK:   -4.11 KCAL/MOL
REMARK 924 INTRA-LIGAND FREE ENERGY PREDICTED BY IDOCK:   -0.45 KCAL/MOL
REMARK 927      BINDING AFFINITY PREDICTED BY RF-SCORE:    0.00 PKD
ROOT
HETATM    1  N   UNL     1      -6.889  14.399  70.286  1.00  0.00    -0.399 N  
HETATM    2  H1  UNL     1      -7.611  13.736  70.570  1.00  0.00     0.000 HD 
HETATM    3  C   UNL     1      -7.168  15.467  69.512  1.00  0.00    -0.201 C  
HETATM    4  H2  UNL     1      -5.930  14.249  70.598  1.00  0.00     0.000 HD 
HETATM    5  O   UNL     1      -6.300  16.264  69.172  1.00  0.00    -0.146 OA 
ENDROOT
BRANCH   3   6
HETATM    6  N   UNL     1      -8.470  15.636  69.135  1.00  0.00    -0.237 N  
HETATM    7  C   UNL     1      -9.324  14.700  68.579  1.00  0.00    -0.201 C  
HETATM    8  H   UNL     1      -8.861  16.567  69.281  1.00  0.00     0.000 HD 
HETATM    9  O   UNL     1      -9.003  13.541  68.313  1.00  0.00    -0.183 OA 
BRANCH   7  10
HETATM   10  C   UNL     1     -10.718  15.230  68.294  1.00  0.00    -0.254 C  
BRANCH  10  11
HETATM   11  C   UNL     1     -11.186  14.946  66.889  1.00  0.00    -0.343 A  
HETATM   12  C   UNL     1     -12.134  13.941  66.640  1.00  0.00    -0.485 A  
HETATM   13  C   UNL     1     -12.592  13.701  65.344  1.00  0.00    -0.533 A  
HETATM   14  C   UNL     1     -12.116  14.468  64.284  1.00  0.00    -0.448 A  
HETATM   15  C   UNL     1     -11.182  15.474  64.518  1.00  0.00    -0.327 A  
HETATM   16  C   UNL     1     -10.719  15.714  65.813  1.00  0.00    -0.350 A  
ENDBRANCH  10  11
ENDBRANCH   7  10
ENDBRANCH   3   6
TORSDOF 3
ENDMDL
MODEL      121
REMARK 921   NORMALIZED FREE ENERGY PREDICTED BY IDOCK:   -3.60 KCAL/MOL
REMARK 922        TOTAL FREE ENERGY PREDICTED BY IDOCK:   -4.55 KCAL/MOL
REMARK 923 INTER-LIGAND FREE ENERGY PREDICTED BY IDOCK:   -4.36 KCAL/MOL
REMARK 924 INTRA-LIGAND FREE ENERGY PREDICTED BY IDOCK:   -0.20 KCAL/MOL
REMARK 927      BINDING AFFINITY PREDICTED BY RF-SCORE:    0.00 PKD
ROOT
HETATM    1  N   UNL     1      -8.782  14.878  69.440  1.00  0.00    -0.411 N  
HETATM    2  H1  UNL     1      -9.548  14.566  70.038  1.00  0.00     0.000 HD 
HETATM    3  C   UNL     1      -8.726  14.560  68.131  1.00  0.00    -0.171 C  
HETATM    4  H2  UNL     1      -8.039  15.446  69.845  1.00  0.00     0.000 HD 
HETATM    5  O   UNL     1      -7.806  14.936  67.413  1.00  0.00    -0.170 OA 
ENDROOT
BRANCH   3   6
HETATM    6  N   UNL     1      -9.754  13.812  67.630  1.00  0.00    -0.221 N  
HETATM    7  C   UNL     1     -11.077  14.186  67.464  1.00  0.00    -0.291 C  
HETATM    8  H   UNL     1      -9.518  12.862  67.344  1.00  0.00     0.000 HD 
HETATM    9  O   UNL     1     -11.532  15.284  67.784  1.00  0.00    -0.335 OA 
BRANCH   7  10
HETATM   10  C   UNL     1     -11.951  13.101  66.862  1.00  0.00    -0.421 C  
BRANCH  10  11
HETATM   11  C   UNL     1     -11.247  12.287  65.806  1.00  0.00    -0.378 A  
HETATM   12  C   UNL     1     -11.217  12.719  64.471  1.00  0.00    -0.373 A  
HETATM   13  C   UNL     1     -10.536  11.982  63.500  1.00  0.00    -0.514 A  
HETATM   14  C   UNL     1      -9.870  10.811  63.854  1.00  0.00    -0.389 A  
HETATM   15  C   UNL     1      -9.886  10.376  65.177  1.00  0.00    -0.378 A  
HETATM   16  C   UNL     1     -10.569  11.109  66.150  1.00  0.00    -0.305 A  
ENDBRANCH  10  11
ENDBRANCH   7  10
ENDBRANCH   3   6
TORSDOF 3
ENDMDL
MODEL      122
REMARK 921   NORMALIZED FREE ENERGY PREDICTED BY IDOCK:   -3.59 KCAL/MOL
REMARK 922        TOTAL FREE ENERGY PREDICTED BY IDOCK:   -4.54 KCAL/MOL
REMARK 923 INTER-LIGAND FREE ENERGY PREDICTED BY IDOCK:   -4.30 KCAL/MOL
REMARK 924 INTRA-LIGAND FREE ENERGY PREDICTED BY IDOCK:   -0.24 KCAL/MOL
REMARK 927      BINDING AFFINITY PREDICTED BY RF-SCORE:    0.00 PKD
ROOT
HETATM    1  N   UNL     1      -9.782  12.341  63.817  1.00  0.00    -0.589 N  
HETATM    2  H1  UNL     1     -10.070  13.320  63.827  1.00  0.00     0.000 HD 
HETATM    3  C   UNL     1     -10.245  11.454  64.721  1.00  0.00    -0.286 C  
HETATM    4  H2  UNL     1      -9.127  12.025  63.103  1.00  0.00     0.000 HD 
HETATM    5  O   UNL     1      -9.899  10.277  64.708  1.00  0.00    -0.307 OA 
ENDROOT
BRANCH   3   6
HETATM    6  N   UNL     1     -11.135  11.919  65.647  1.00  0.00    -0.313 N  
HETATM    7  C   UNL     1     -10.899  12.228  66.975  1.00  0.00    -0.250 C  
HETATM    8  H   UNL     1     -12.092  12.056  65.319  1.00  0.00     0.000 HD 
HETATM    9  O   UNL     1      -9.811  12.094  67.535  1.00  0.00    -0.187 OA 
BRANCH   7  10
HETATM   10  C   UNL     1     -12.123  12.737  67.715  1.00  0.00    -0.191 C  
BRANCH  10  11
HETATM   11  C   UNL     1     -11.815  13.863  68.671  1.00  0.00    -0.407 A  
HETATM   12  C   UNL     1     -11.973  13.690  70.055  1.00  0.00    -0.413 A  
HETATM   13  C   UNL     1     -11.656  14.722  70.940  1.00  0.00    -0.316 A  
HETATM   14  C   UNL     1     -11.169  15.932  70.454  1.00  0.00    -0.392 A  
HETATM   15  C   UNL     1     -11.001  16.114  69.084  1.00  0.00    -0.309 A  
HETATM   16  C   UNL     1     -11.320  15.085  68.194  1.00  0.00    -0.343 A  
ENDBRANCH  10  11
ENDBRANCH   7  10
ENDBRANCH   3   6
TORSDOF 3
ENDMDL
MODEL      123
REMARK 921   NORMALIZED FREE ENERGY PREDICTED BY IDOCK:   -3.58 KCAL/MOL
REMARK 922        TOTAL FREE ENERGY PREDICTED BY IDOCK:   -4.53 KCAL/MOL
REMARK 923 INTER-LIGAND FREE ENERGY PREDICTED BY IDOCK:   -4.25 KCAL/MOL
REMARK 924 INTRA-LIGAND FREE ENERGY PREDICTED BY IDOCK:   -0.28 KCAL/MOL
REMARK 927      BINDING AFFINITY PREDICTED BY RF-SCORE:    0.00 PKD
ROOT
HETATM    1  N   UNL     1      -9.052   4.469  70.438  1.00  0.00    -0.104 N  
HETATM    2  H1  UNL     1      -9.965   4.029  70.319  1.00  0.00     0.000 HD 
HETATM    3  C   UNL     1      -8.915   5.679  71.017  1.00  0.00    -0.141 C  
HETATM    4  H2  UNL     1      -8.220   3.979  70.110  1.00  0.00     0.000 HD 
HETATM    5  O   UNL     1      -7.818   6.208  71.159  1.00  0.00    -0.107 OA 
ENDROOT
BRANCH   3   6
HETATM    6  N   UNL     1     -10.056   6.288  71.457  1.00  0.00    -0.188 N  
HETATM    7  C   UNL     1     -11.248   6.460  70.774  1.00  0.00    -0.327 C  
HETATM    8  H   UNL     1     -10.026   6.663  72.405  1.00  0.00     0.000 HD 
HETATM    9  O   UNL     1     -11.441   6.093  69.615  1.00  0.00    -0.429 OA 
BRANCH   7  10
HETATM   10  C   UNL     1     -12.320   7.174  71.577  1.00  0.00    -0.406 C  
BRANCH  10  11
HETATM   11  C   UNL     1     -12.352   8.663  71.336  1.00  0.00    -0.344 A  
HETATM   12  C   UNL     1     -13.221   9.488  72.066  1.00  0.00    -0.539 A  
HETATM   13  C   UNL     1     -13.227  10.869  71.866  1.00  0.00    -0.508 A  
HETATM   14  C   UNL     1     -12.357  11.442  70.941  1.00  0.00    -0.483 A  
HETATM   15  C   UNL     1     -11.484  10.635  70.216  1.00  0.00    -0.422 A  
HETATM   16  C   UNL     1     -11.478   9.253  70.411  1.00  0.00    -0.255 A  
ENDBRANCH  10  11
ENDBRANCH   7  10
ENDBRANCH   3   6
TORSDOF 3
ENDMDL
MODEL      124
REMARK 921   NORMALIZED FREE ENERGY PREDICTED BY IDOCK:   -3.57 KCAL/MOL
REMARK 922        TOTAL FREE ENERGY PREDICTED BY IDOCK:   -4.53 KCAL/MOL
REMARK 923 INTER-LIGAND FREE ENERGY PREDICTED BY IDOCK:   -4.08 KCAL/MOL
REMARK 924 INTRA-LIGAND FREE ENERGY PREDICTED BY IDOCK:   -0.45 KCAL/MOL
REMARK 927      BINDING AFFINITY PREDICTED BY RF-SCORE:    0.00 PKD
ROOT
HETATM    1  N   UNL     1      -7.462  10.635  65.056  1.00  0.00    -0.350 N  
HETATM    2  H1  UNL     1      -8.147  10.512  64.310  1.00  0.00     0.000 HD 
HETATM    3  C   UNL     1      -7.743  11.339  66.171  1.00  0.00     0.004 C  
HETATM    4  H2  UNL     1      -6.538  10.215  64.955  1.00  0.00     0.000 HD 
HETATM    5  O   UNL     1      -6.920  11.487  67.068  1.00  0.00    -0.126 OA 
ENDROOT
BRANCH   3   6
HETATM    6  N   UNL     1      -8.999  11.868  66.270  1.00  0.00    -0.313 N  
HETATM    7  C   UNL     1     -10.212  11.216  66.125  1.00  0.00    -0.244 C  
HETATM    8  H   UNL     1      -9.050  12.865  66.476  1.00  0.00     0.000 HD 
HETATM    9  O   UNL     1     -10.328  10.022  65.849  1.00  0.00    -0.225 OA 
BRANCH   7  10
HETATM   10  C   UNL     1     -11.420  12.115  66.315  1.00  0.00    -0.433 C  
BRANCH  10  11
HETATM   11  C   UNL     1     -11.724  12.405  67.764  1.00  0.00    -0.413 A  
HETATM   12  C   UNL     1     -11.763  11.367  68.708  1.00  0.00    -0.404 A  
HETATM   13  C   UNL     1     -12.011  11.640  70.054  1.00  0.00    -0.429 A  
HETATM   14  C   UNL     1     -12.213  12.953  70.473  1.00  0.00    -0.395 A  
HETATM   15  C   UNL     1     -12.170  13.992  69.547  1.00  0.00    -0.355 A  
HETATM   16  C   UNL     1     -11.925  13.722  68.199  1.00  0.00    -0.394 A  
ENDBRANCH  10  11
ENDBRANCH   7  10
ENDBRANCH   3   6
TORSDOF 3
ENDMDL
MODEL      125
REMARK 921   NORMALIZED FREE ENERGY PREDICTED BY IDOCK:   -3.56 KCAL/MOL
REMARK 922        TOTAL FREE ENERGY PREDICTED BY IDOCK:   -4.50 KCAL/MOL
REMARK 923 INTER-LIGAND FREE ENERGY PREDICTED BY IDOCK:   -4.48 KCAL/MOL
REMARK 924 INTRA-LIGAND FREE ENERGY PREDICTED BY IDOCK:   -0.03 KCAL/MOL
REMARK 927      BINDING AFFINITY PREDICTED BY RF-SCORE:    0.00 PKD
ROOT
HETATM    1  N   UNL     1     -11.274   5.871  66.677  1.00  0.00    -0.706 N  
HETATM    2  H1  UNL     1     -12.255   5.603  66.759  1.00  0.00     0.000 HD 
HETATM    3  C   UNL     1     -10.558   6.282  67.743  1.00  0.00    -0.262 C  
HETATM    4  H2  UNL     1     -10.822   5.825  65.764  1.00  0.00     0.000 HD 
HETATM    5  O   UNL     1      -9.378   6.603  67.646  1.00  0.00    -0.121 OA 
ENDROOT
BRANCH   3   6
HETATM    6  N   UNL     1     -11.200   6.309  68.949  1.00  0.00    -0.499 N  
HETATM    7  C   UNL     1     -10.798   5.733  70.142  1.00  0.00    -0.313 C  
HETATM    8  H   UNL     1     -12.086   6.815  68.973  1.00  0.00     0.000 HD 
HETATM    9  O   UNL     1      -9.773   5.066  70.278  1.00  0.00    -0.179 OA 
BRANCH   7  10
HETATM   10  C   UNL     1     -11.756   5.974  71.295  1.00  0.00    -0.104 C  
BRANCH  10  11
HETATM   11  C   UNL     1     -12.305   7.379  71.328  1.00  0.00    -0.380 A  
HETATM   12  C   UNL     1     -13.690   7.605  71.335  1.00  0.00    -0.392 A  
HETATM   13  C   UNL     1     -14.198   8.903  71.399  1.00  0.00    -0.241 A  
HETATM   14  C   UNL     1     -13.328   9.989  71.467  1.00  0.00    -0.451 A  
HETATM   15  C   UNL     1     -11.952   9.778  71.468  1.00  0.00    -0.488 A  
HETATM   16  C   UNL     1     -11.440   8.480  71.400  1.00  0.00    -0.344 A  
ENDBRANCH  10  11
ENDBRANCH   7  10
ENDBRANCH   3   6
TORSDOF 3
ENDMDL
MODEL      126
REMARK 921   NORMALIZED FREE ENERGY PREDICTED BY IDOCK:   -3.55 KCAL/MOL
REMARK 922        TOTAL FREE ENERGY PREDICTED BY IDOCK:   -4.50 KCAL/MOL
REMARK 923 INTER-LIGAND FREE ENERGY PREDICTED BY IDOCK:   -4.06 KCAL/MOL
REMARK 924 INTRA-LIGAND FREE ENERGY PREDICTED BY IDOCK:   -0.44 KCAL/MOL
REMARK 927      BINDING AFFINITY PREDICTED BY RF-SCORE:    0.00 PKD
ROOT
HETATM    1  N   UNL     1      -6.691  15.402  67.428  1.00  0.00    -0.179 N  
HETATM    2  H1  UNL     1      -6.980  14.901  66.587  1.00  0.00     0.000 HD 
HETATM    3  C   UNL     1      -7.588  15.941  68.277  1.00  0.00    -0.135 C  
HETATM    4  H2  UNL     1      -5.697  15.497  67.631  1.00  0.00     0.000 HD 
HETATM    5  O   UNL     1      -7.241  16.544  69.288  1.00  0.00    -0.229 OA 
ENDROOT
BRANCH   3   6
HETATM    6  N   UNL     1      -8.910  15.773  67.973  1.00  0.00    -0.175 N  
HETATM    7  C   UNL     1      -9.572  16.148  66.818  1.00  0.00    -0.240 C  
HETATM    8  H   UNL     1      -9.478  15.314  68.686  1.00  0.00     0.000 HD 
HETATM    9  O   UNL     1      -9.042  16.735  65.875  1.00  0.00    -0.492 OA 
BRANCH   7  10
HETATM   10  C   UNL     1     -11.048  15.791  66.811  1.00  0.00    -0.116 C  
BRANCH  10  11
HETATM   11  C   UNL     1     -11.361  14.574  65.977  1.00  0.00    -0.341 A  
HETATM   12  C   UNL     1     -11.682  14.703  64.616  1.00  0.00    -0.431 A  
HETATM   13  C   UNL     1     -11.939  13.574  63.837  1.00  0.00    -0.491 A  
HETATM   14  C   UNL     1     -11.870  12.304  64.405  1.00  0.00    -0.464 A  
HETATM   15  C   UNL     1     -11.546  12.163  65.752  1.00  0.00    -0.414 A  
HETATM   16  C   UNL     1     -11.292  13.290  66.535  1.00  0.00    -0.353 A  
ENDBRANCH  10  11
ENDBRANCH   7  10
ENDBRANCH   3   6
TORSDOF 3
ENDMDL
MODEL      127
REMARK 921   NORMALIZED FREE ENERGY PREDICTED BY IDOCK:   -3.52 KCAL/MOL
REMARK 922        TOTAL FREE ENERGY PREDICTED BY IDOCK:   -4.47 KCAL/MOL
REMARK 923 INTER-LIGAND FREE ENERGY PREDICTED BY IDOCK:   -4.05 KCAL/MOL
REMARK 924 INTRA-LIGAND FREE ENERGY PREDICTED BY IDOCK:   -0.41 KCAL/MOL
REMARK 927      BINDING AFFINITY PREDICTED BY RF-SCORE:    0.00 PKD
ROOT
HETATM    1  N   UNL     1      -8.591  11.455  62.662  1.00  0.00    -0.509 N  
HETATM    2  H1  UNL     1      -8.741  12.329  63.166  1.00  0.00     0.000 HD 
HETATM    3  C   UNL     1      -9.243  10.322  62.993  1.00  0.00    -0.291 C  
HETATM    4  H2  UNL     1      -7.930  11.438  61.885  1.00  0.00     0.000 HD 
HETATM    5  O   UNL     1      -9.063   9.271  62.387  1.00  0.00    -0.251 OA 
ENDROOT
BRANCH   3   6
HETATM    6  N   UNL     1     -10.132  10.398  64.028  1.00  0.00    -0.401 N  
HETATM    7  C   UNL     1      -9.922  10.913  65.295  1.00  0.00    -0.273 C  
HETATM    8  H   UNL     1     -11.066  10.031  63.843  1.00  0.00     0.000 HD 
HETATM    9  O   UNL     1      -8.848  11.368  65.689  1.00  0.00    -0.174 OA 
BRANCH   7  10
HETATM   10  C   UNL     1     -11.143  10.850  66.195  1.00  0.00    -0.009 C  
BRANCH  10  11
HETATM   11  C   UNL     1     -11.359  12.111  66.994  1.00  0.00    -0.398 A  
HETATM   12  C   UNL     1     -10.893  12.210  68.314  1.00  0.00    -0.256 A  
HETATM   13  C   UNL     1     -11.064  13.389  69.041  1.00  0.00    -0.293 A  
HETATM   14  C   UNL     1     -11.692  14.485  68.454  1.00  0.00    -0.367 A  
HETATM   15  C   UNL     1     -12.152  14.402  67.143  1.00  0.00    -0.367 A  
HETATM   16  C   UNL     1     -11.986  13.222  66.414  1.00  0.00    -0.465 A  
ENDBRANCH  10  11
ENDBRANCH   7  10
ENDBRANCH   3   6
TORSDOF 3
ENDMDL
MODEL      128
REMARK 921   NORMALIZED FREE ENERGY PREDICTED BY IDOCK:   -3.52 KCAL/MOL
REMARK 922        TOTAL FREE ENERGY PREDICTED BY IDOCK:   -4.46 KCAL/MOL
REMARK 923 INTER-LIGAND FREE ENERGY PREDICTED BY IDOCK:   -4.37 KCAL/MOL
REMARK 924 INTRA-LIGAND FREE ENERGY PREDICTED BY IDOCK:   -0.10 KCAL/MOL
REMARK 927      BINDING AFFINITY PREDICTED BY RF-SCORE:    0.00 PKD
ROOT
HETATM    1  N   UNL     1     -10.520   8.544  68.637  1.00  0.00    -0.297 N  
HETATM    2  H1  UNL     1     -10.993   8.734  69.520  1.00  0.00     0.000 HD 
HETATM    3  C   UNL     1     -10.030   9.535  67.864  1.00  0.00    -0.172 C  
HETATM    4  H2  UNL     1     -10.414   7.577  68.329  1.00  0.00     0.000 HD 
HETATM    5  O   UNL     1      -9.461   9.306  66.803  1.00  0.00    -0.156 OA 
ENDROOT
BRANCH   3   6
HETATM    6  N   UNL     1     -10.180  10.812  68.326  1.00  0.00    -0.161 N  
HETATM    7  C   UNL     1     -11.353  11.531  68.477  1.00  0.00    -0.277 C  
HETATM    8  H   UNL     1      -9.322  11.295  68.593  1.00  0.00     0.000 HD 
HETATM    9  O   UNL     1     -12.469  11.107  68.177  1.00  0.00    -0.202 OA 
BRANCH   7  10
HETATM   10  C   UNL     1     -11.150  12.929  69.034  1.00  0.00    -0.284 C  
BRANCH  10  11
HETATM   11  C   UNL     1     -12.040  13.233  70.214  1.00  0.00    -0.405 A  
HETATM   12  C   UNL     1     -12.584  12.195  70.986  1.00  0.00    -0.359 A  
HETATM   13  C   UNL     1     -13.380  12.478  72.097  1.00  0.00    -0.540 A  
HETATM   14  C   UNL     1     -13.632  13.800  72.454  1.00  0.00    -0.690 A  
HETATM   15  C   UNL     1     -13.092  14.839  71.701  1.00  0.00    -0.418 A  
HETATM   16  C   UNL     1     -12.298  14.560  70.587  1.00  0.00    -0.407 A  
ENDBRANCH  10  11
ENDBRANCH   7  10
ENDBRANCH   3   6
TORSDOF 3
ENDMDL
MODEL      129
REMARK 921   NORMALIZED FREE ENERGY PREDICTED BY IDOCK:   -3.50 KCAL/MOL
REMARK 922        TOTAL FREE ENERGY PREDICTED BY IDOCK:   -4.44 KCAL/MOL
REMARK 923 INTER-LIGAND FREE ENERGY PREDICTED BY IDOCK:   -4.00 KCAL/MOL
REMARK 924 INTRA-LIGAND FREE ENERGY PREDICTED BY IDOCK:   -0.44 KCAL/MOL
REMARK 927      BINDING AFFINITY PREDICTED BY RF-SCORE:    0.00 PKD
ROOT
HETATM    1  N   UNL     1      -9.624   8.477  66.097  1.00  0.00    -0.360 N  
HETATM    2  H1  UNL     1      -9.818   8.771  65.140  1.00  0.00     0.000 HD 
HETATM    3  C   UNL     1     -10.118   9.143  67.161  1.00  0.00    -0.236 C  
HETATM    4  H2  UNL     1      -9.040   7.656  66.254  1.00  0.00     0.000 HD 
HETATM    5  O   UNL     1      -9.885   8.789  68.311  1.00  0.00    -0.155 OA 
ENDROOT
BRANCH   3   6
HETATM    6  N   UNL     1     -10.910  10.226  66.900  1.00  0.00    -0.185 N  
HETATM    7  C   UNL     1     -10.587  11.364  66.181  1.00  0.00    -0.265 C  
HETATM    8  H   UNL     1     -11.855  10.191  67.283  1.00  0.00     0.000 HD 
HETATM    9  O   UNL     1      -9.484  11.576  65.678  1.00  0.00    -0.223 OA 
BRANCH   7  10
HETATM   10  C   UNL     1     -11.721  12.368  66.077  1.00  0.00    -0.469 C  
BRANCH  10  11
HETATM   11  C   UNL     1     -11.552  13.554  66.993  1.00  0.00    -0.394 A  
HETATM   12  C   UNL     1     -11.871  13.457  68.356  1.00  0.00    -0.401 A  
HETATM   13  C   UNL     1     -11.683  14.545  69.209  1.00  0.00    -0.350 A  
HETATM   14  C   UNL     1     -11.165  15.738  68.712  1.00  0.00    -0.342 A  
HETATM   15  C   UNL     1     -10.837  15.845  67.363  1.00  0.00    -0.291 A  
HETATM   16  C   UNL     1     -11.027  14.760  66.506  1.00  0.00    -0.325 A  
ENDBRANCH  10  11
ENDBRANCH   7  10
ENDBRANCH   3   6
TORSDOF 3
ENDMDL
MODEL      130
REMARK 921   NORMALIZED FREE ENERGY PREDICTED BY IDOCK:   -3.50 KCAL/MOL
REMARK 922        TOTAL FREE ENERGY PREDICTED BY IDOCK:   -4.44 KCAL/MOL
REMARK 923 INTER-LIGAND FREE ENERGY PREDICTED BY IDOCK:   -4.00 KCAL/MOL
REMARK 924 INTRA-LIGAND FREE ENERGY PREDICTED BY IDOCK:   -0.43 KCAL/MOL
REMARK 927      BINDING AFFINITY PREDICTED BY RF-SCORE:    0.00 PKD
ROOT
HETATM    1  N   UNL     1      -6.352   8.632  64.067  1.00  0.00    -0.072 N  
HETATM    2  H1  UNL     1      -6.955   8.177  63.381  1.00  0.00     0.000 HD 
HETATM    3  C   UNL     1      -6.482   9.939  64.372  1.00  0.00    -0.125 C  
HETATM    4  H2  UNL     1      -5.632   8.082  64.535  1.00  0.00     0.000 HD 
HETATM    5  O   UNL     1      -5.758  10.485  65.197  1.00  0.00    -0.126 OA 
ENDROOT
BRANCH   3   6
HETATM    6  N   UNL     1      -7.473  10.629  63.733  1.00  0.00    -0.353 N  
HETATM    7  C   UNL     1      -8.841  10.458  63.849  1.00  0.00    -0.210 C  
HETATM    8  H   UNL     1      -7.166  11.360  63.090  1.00  0.00     0.000 HD 
HETATM    9  O   UNL     1      -9.375   9.605  64.557  1.00  0.00    -0.261 OA 
BRANCH   7  10
HETATM   10  C   UNL     1      -9.655  11.415  62.996  1.00  0.00    -0.397 C  
BRANCH  10  11
HETATM   11  C   UNL     1     -10.652  12.220  63.792  1.00  0.00    -0.488 A  
HETATM   12  C   UNL     1     -12.020  11.908  63.751  1.00  0.00    -0.547 A  
HETATM   13  C   UNL     1     -12.937  12.633  64.513  1.00  0.00    -0.236 A  
HETATM   14  C   UNL     1     -12.498  13.670  65.332  1.00  0.00    -0.537 A  
HETATM   15  C   UNL     1     -11.142  13.985  65.387  1.00  0.00    -0.318 A  
HETATM   16  C   UNL     1     -10.222  13.265  64.623  1.00  0.00    -0.334 A  
ENDBRANCH  10  11
ENDBRANCH   7  10
ENDBRANCH   3   6
TORSDOF 3
ENDMDL
MODEL      131
REMARK 921   NORMALIZED FREE ENERGY PREDICTED BY IDOCK:   -3.49 KCAL/MOL
REMARK 922        TOTAL FREE ENERGY PREDICTED BY IDOCK:   -4.42 KCAL/MOL
REMARK 923 INTER-LIGAND FREE ENERGY PREDICTED BY IDOCK:   -3.99 KCAL/MOL
REMARK 924 INTRA-LIGAND FREE ENERGY PREDICTED BY IDOCK:   -0.43 KCAL/MOL
REMARK 927      BINDING AFFINITY PREDICTED BY RF-SCORE:    0.00 PKD
ROOT
HETATM    1  N   UNL     1      -9.594  10.741  68.030  1.00  0.00    -0.160 N  
HETATM    2  H1  UNL     1      -8.876  10.125  68.410  1.00  0.00     0.000 HD 
HETATM    3  C   UNL     1     -10.851  10.311  67.798  1.00  0.00    -0.292 C  
HETATM    4  H2  UNL     1      -9.355  11.710  67.819  1.00  0.00     0.000 HD 
HETATM    5  O   UNL     1     -11.715  11.052  67.341  1.00  0.00    -0.539 OA 
ENDROOT
BRANCH   3   6
HETATM    6  N   UNL     1     -11.129   9.011  68.114  1.00  0.00    -0.470 N  
HETATM    7  C   UNL     1     -10.457   7.873  67.704  1.00  0.00    -0.234 C  
HETATM    8  H   UNL     1     -11.930   8.861  68.727  1.00  0.00     0.000 HD 
HETATM    9  O   UNL     1      -9.489   7.876  66.943  1.00  0.00    -0.166 OA 
BRANCH   7  10
HETATM   10  C   UNL     1     -11.033   6.583  68.260  1.00  0.00    -0.362 C  
BRANCH  10  11
HETATM   11  C   UNL     1     -10.826   6.432  69.746  1.00  0.00    -0.373 A  
HETATM   12  C   UNL     1     -11.886   6.644  70.642  1.00  0.00    -0.443 A  
HETATM   13  C   UNL     1     -11.703   6.471  72.014  1.00  0.00    -0.367 A  
HETATM   14  C   UNL     1     -10.461   6.076  72.507  1.00  0.00    -0.233 A  
HETATM   15  C   UNL     1      -9.403   5.855  71.628  1.00  0.00    -0.162 A  
HETATM   16  C   UNL     1      -9.583   6.030  70.255  1.00  0.00    -0.194 A  
ENDBRANCH  10  11
ENDBRANCH   7  10
ENDBRANCH   3   6
TORSDOF 3
ENDMDL
MODEL      132
REMARK 921   NORMALIZED FREE ENERGY PREDICTED BY IDOCK:   -3.49 KCAL/MOL
REMARK 922        TOTAL FREE ENERGY PREDICTED BY IDOCK:   -4.42 KCAL/MOL
REMARK 923 INTER-LIGAND FREE ENERGY PREDICTED BY IDOCK:   -4.25 KCAL/MOL
REMARK 924 INTRA-LIGAND FREE ENERGY PREDICTED BY IDOCK:   -0.17 KCAL/MOL
REMARK 927      BINDING AFFINITY PREDICTED BY RF-SCORE:    0.00 PKD
ROOT
HETATM    1  N   UNL     1     -11.777  11.698  62.910  1.00  0.00    -0.688 N  
HETATM    2  H1  UNL     1     -11.051  11.025  63.157  1.00  0.00     0.000 HD 
HETATM    3  C   UNL     1     -11.891  12.885  63.539  1.00  0.00    -0.536 C  
HETATM    4  H2  UNL     1     -12.435  11.466  62.166  1.00  0.00     0.000 HD 
HETATM    5  O   UNL     1     -12.764  13.694  63.242  1.00  0.00    -0.765 OA 
ENDROOT
BRANCH   3   6
HETATM    6  N   UNL     1     -10.976  13.158  64.516  1.00  0.00    -0.352 N  
HETATM    7  C   UNL     1     -11.044  12.835  65.861  1.00  0.00    -0.287 C  
HETATM    8  H   UNL     1     -10.141  13.663  64.219  1.00  0.00     0.000 HD 
HETATM    9  O   UNL     1     -11.992  12.253  66.387  1.00  0.00    -0.589 OA 
BRANCH   7  10
HETATM   10  C   UNL     1      -9.835  13.284  66.663  1.00  0.00    -0.276 C  
BRANCH  10  11
HETATM   11  C   UNL     1      -8.822  12.188  66.876  1.00  0.00    -0.202 A  
HETATM   12  C   UNL     1      -8.162  12.053  68.107  1.00  0.00    -0.163 A  
HETATM   13  C   UNL     1      -7.249  11.018  68.315  1.00  0.00    -0.085 A  
HETATM   14  C   UNL     1      -6.991  10.102  67.298  1.00  0.00    -0.083 A  
HETATM   15  C   UNL     1      -7.644  10.221  66.074  1.00  0.00    -0.128 A  
HETATM   16  C   UNL     1      -8.556  11.257  65.862  1.00  0.00    -0.096 A  
ENDBRANCH  10  11
ENDBRANCH   7  10
ENDBRANCH   3   6
TORSDOF 3
ENDMDL
MODEL      133
REMARK 921   NORMALIZED FREE ENERGY PREDICTED BY IDOCK:   -3.48 KCAL/MOL
REMARK 922        TOTAL FREE ENERGY PREDICTED BY IDOCK:   -4.42 KCAL/MOL
REMARK 923 INTER-LIGAND FREE ENERGY PREDICTED BY IDOCK:   -4.12 KCAL/MOL
REMARK 924 INTRA-LIGAND FREE ENERGY PREDICTED BY IDOCK:   -0.30 KCAL/MOL
REMARK 927      BINDING AFFINITY PREDICTED BY RF-SCORE:    0.00 PKD
ROOT
HETATM    1  N   UNL     1      -9.024  11.127  69.023  1.00  0.00    -0.370 N  
HETATM    2  H1  UNL     1      -8.481  11.876  68.593  1.00  0.00     0.000 HD 
HETATM    3  C   UNL     1     -10.365  11.201  69.147  1.00  0.00    -0.161 C  
HETATM    4  H2  UNL     1      -8.539  10.298  69.367  1.00  0.00     0.000 HD 
HETATM    5  O   UNL     1     -11.018  10.300  69.662  1.00  0.00    -0.234 OA 
ENDROOT
BRANCH   3   6
HETATM    6  N   UNL     1     -10.971  12.322  68.654  1.00  0.00    -0.228 N  
HETATM    7  C   UNL     1     -11.554  12.498  67.411  1.00  0.00    -0.370 C  
HETATM    8  H   UNL     1     -10.998  13.128  69.279  1.00  0.00     0.000 HD 
HETATM    9  O   UNL     1     -11.583  11.638  66.531  1.00  0.00    -0.473 OA 
BRANCH   7  10
HETATM   10  C   UNL     1     -12.151  13.878  67.202  1.00  0.00    -0.422 C  
BRANCH  10  11
HETATM   11  C   UNL     1     -11.112  14.966  67.093  1.00  0.00    -0.332 A  
HETATM   12  C   UNL     1     -10.182  14.964  66.041  1.00  0.00    -0.317 A  
HETATM   13  C   UNL     1      -9.242  15.989  65.921  1.00  0.00    -0.321 A  
HETATM   14  C   UNL     1      -9.227  17.031  66.845  1.00  0.00    -0.254 A  
HETATM   15  C   UNL     1     -10.148  17.048  67.889  1.00  0.00    -0.306 A  
HETATM   16  C   UNL     1     -11.088  16.023  68.013  1.00  0.00    -0.334 A  
ENDBRANCH  10  11
ENDBRANCH   7  10
ENDBRANCH   3   6
TORSDOF 3
ENDMDL
MODEL      134
REMARK 921   NORMALIZED FREE ENERGY PREDICTED BY IDOCK:   -3.47 KCAL/MOL
REMARK 922        TOTAL FREE ENERGY PREDICTED BY IDOCK:   -4.41 KCAL/MOL
REMARK 923 INTER-LIGAND FREE ENERGY PREDICTED BY IDOCK:   -4.10 KCAL/MOL
REMARK 924 INTRA-LIGAND FREE ENERGY PREDICTED BY IDOCK:   -0.31 KCAL/MOL
REMARK 927      BINDING AFFINITY PREDICTED BY RF-SCORE:    0.00 PKD
ROOT
HETATM    1  N   UNL     1     -14.409   7.929  70.883  1.00  0.00    -0.576 N  
HETATM    2  H1  UNL     1     -14.426   6.974  70.525  1.00  0.00     0.000 HD 
HETATM    3  C   UNL     1     -13.619   8.288  71.915  1.00  0.00    -0.357 C  
HETATM    4  H2  UNL     1     -15.005   8.632  70.448  1.00  0.00     0.000 HD 
HETATM    5  O   UNL     1     -13.598   9.436  72.345  1.00  0.00    -0.457 OA 
ENDROOT
BRANCH   3   6
HETATM    6  N   UNL     1     -12.824   7.316  72.454  1.00  0.00    -0.484 N  
HETATM    7  C   UNL     1     -11.899   6.516  71.806  1.00  0.00    -0.335 C  
HETATM    8  H   UNL     1     -12.924   7.161  73.457  1.00  0.00     0.000 HD 
HETATM    9  O   UNL     1     -11.677   6.555  70.596  1.00  0.00    -0.373 OA 
BRANCH   7  10
HETATM   10  C   UNL     1     -11.177   5.544  72.722  1.00  0.00    -0.358 C  
BRANCH  10  11
HETATM   11  C   UNL     1      -9.856   6.069  73.223  1.00  0.00    -0.168 A  
HETATM   12  C   UNL     1      -9.694   7.431  73.522  1.00  0.00    -0.338 A  
HETATM   13  C   UNL     1      -8.481   7.911  74.018  1.00  0.00    -0.321 A  
HETATM   14  C   UNL     1      -7.419   7.035  74.230  1.00  0.00    -0.119 A  
HETATM   15  C   UNL     1      -7.569   5.680  73.944  1.00  0.00    -0.097 A  
HETATM   16  C   UNL     1      -8.780   5.197  73.445  1.00  0.00    -0.114 A  
ENDBRANCH  10  11
ENDBRANCH   7  10
ENDBRANCH   3   6
TORSDOF 3
ENDMDL
MODEL      135
REMARK 921   NORMALIZED FREE ENERGY PREDICTED BY IDOCK:   -3.46 KCAL/MOL
REMARK 922        TOTAL FREE ENERGY PREDICTED BY IDOCK:   -4.39 KCAL/MOL
REMARK 923 INTER-LIGAND FREE ENERGY PREDICTED BY IDOCK:   -4.09 KCAL/MOL
REMARK 924 INTRA-LIGAND FREE ENERGY PREDICTED BY IDOCK:   -0.30 KCAL/MOL
REMARK 927      BINDING AFFINITY PREDICTED BY RF-SCORE:    0.00 PKD
ROOT
HETATM    1  N   UNL     1     -11.455  10.459  68.981  1.00  0.00    -0.423 N  
HETATM    2  H1  UNL     1     -11.186  10.965  68.137  1.00  0.00     0.000 HD 
HETATM    3  C   UNL     1     -11.748  11.099  70.131  1.00  0.00    -0.353 C  
HETATM    4  H2  UNL     1     -11.505   9.441  68.954  1.00  0.00     0.000 HD 
HETATM    5  O   UNL     1     -12.072  10.491  71.145  1.00  0.00    -0.354 OA 
ENDROOT
BRANCH   3   6
HETATM    6  N   UNL     1     -11.686  12.464  70.114  1.00  0.00    -0.534 N  
HETATM    7  C   UNL     1     -11.757  13.306  69.018  1.00  0.00    -0.322 C  
HETATM    8  H   UNL     1     -11.573  12.918  71.020  1.00  0.00     0.000 HD 
HETATM    9  O   UNL     1     -11.864  12.920  67.854  1.00  0.00    -0.346 OA 
BRANCH   7  10
HETATM   10  C   UNL     1     -11.667  14.780  69.368  1.00  0.00    -0.358 C  
BRANCH  10  11
HETATM   11  C   UNL     1     -10.535  15.490  68.667  1.00  0.00    -0.237 A  
HETATM   12  C   UNL     1     -10.760  16.698  67.989  1.00  0.00    -0.350 A  
HETATM   13  C   UNL     1      -9.706  17.372  67.369  1.00  0.00    -0.269 A  
HETATM   14  C   UNL     1      -8.416  16.851  67.428  1.00  0.00    -0.204 A  
HETATM   15  C   UNL     1      -8.178  15.657  68.104  1.00  0.00    -0.144 A  
HETATM   16  C   UNL     1      -9.231  14.979  68.722  1.00  0.00    -0.200 A  
ENDBRANCH  10  11
ENDBRANCH   7  10
ENDBRANCH   3   6
TORSDOF 3
ENDMDL
MODEL      136
REMARK 921   NORMALIZED FREE ENERGY PREDICTED BY IDOCK:   -3.46 KCAL/MOL
REMARK 922        TOTAL FREE ENERGY PREDICTED BY IDOCK:   -4.39 KCAL/MOL
REMARK 923 INTER-LIGAND FREE ENERGY PREDICTED BY IDOCK:   -4.11 KCAL/MOL
REMARK 924 INTRA-LIGAND FREE ENERGY PREDICTED BY IDOCK:   -0.28 KCAL/MOL
REMARK 927      BINDING AFFINITY PREDICTED BY RF-SCORE:    0.00 PKD
ROOT
HETATM    1  N   UNL     1     -11.661  13.966  70.405  1.00  0.00    -0.489 N  
HETATM    2  H1  UNL     1     -11.297  13.398  71.170  1.00  0.00     0.000 HD 
HETATM    3  C   UNL     1     -11.352  13.707  69.118  1.00  0.00    -0.285 C  
HETATM    4  H2  UNL     1     -12.277  14.750  70.619  1.00  0.00     0.000 HD 
HETATM    5  O   UNL     1     -11.790  14.389  68.198  1.00  0.00    -0.327 OA 
ENDROOT
BRANCH   3   6
HETATM    6  N   UNL     1     -10.538  12.636  68.879  1.00  0.00    -0.399 N  
HETATM    7  C   UNL     1     -10.854  11.291  68.965  1.00  0.00    -0.222 C  
HETATM    8  H   UNL     1      -9.580  12.854  68.605  1.00  0.00     0.000 HD 
HETATM    9  O   UNL     1     -11.954  10.858  69.308  1.00  0.00    -0.321 OA 
BRANCH   7  10
HETATM   10  C   UNL     1      -9.703  10.365  68.615  1.00  0.00    -0.178 C  
BRANCH  10  11
HETATM   11  C   UNL     1     -10.115   8.918  68.508  1.00  0.00    -0.209 A  
HETATM   12  C   UNL     1     -10.185   8.108  69.652  1.00  0.00    -0.205 A  
HETATM   13  C   UNL     1     -10.598   6.778  69.557  1.00  0.00    -0.265 A  
HETATM   14  C   UNL     1     -10.954   6.246  68.320  1.00  0.00    -0.408 A  
HETATM   15  C   UNL     1     -10.896   7.041  67.179  1.00  0.00    -0.427 A  
HETATM   16  C   UNL     1     -10.480   8.371  67.270  1.00  0.00    -0.373 A  
ENDBRANCH  10  11
ENDBRANCH   7  10
ENDBRANCH   3   6
TORSDOF 3
ENDMDL
MODEL      137
REMARK 921   NORMALIZED FREE ENERGY PREDICTED BY IDOCK:   -3.45 KCAL/MOL
REMARK 922        TOTAL FREE ENERGY PREDICTED BY IDOCK:   -4.37 KCAL/MOL
REMARK 923 INTER-LIGAND FREE ENERGY PREDICTED BY IDOCK:   -4.21 KCAL/MOL
REMARK 924 INTRA-LIGAND FREE ENERGY PREDICTED BY IDOCK:   -0.16 KCAL/MOL
REMARK 927      BINDING AFFINITY PREDICTED BY RF-SCORE:    0.00 PKD
ROOT
HETATM    1  N   UNL     1     -11.951  14.940  71.414  1.00  0.00    -0.327 N  
HETATM    2  H1  UNL     1     -11.395  15.366  70.671  1.00  0.00     0.000 HD 
HETATM    3  C   UNL     1     -12.567  13.752  71.248  1.00  0.00    -0.362 C  
HETATM    4  H2  UNL     1     -12.042  15.426  72.305  1.00  0.00     0.000 HD 
HETATM    5  O   UNL     1     -13.235  13.240  72.141  1.00  0.00    -0.441 OA 
ENDROOT
BRANCH   3   6
HETATM    6  N   UNL     1     -12.401  13.130  70.043  1.00  0.00    -0.224 N  
HETATM    7  C   UNL     1     -11.907  11.860  69.801  1.00  0.00    -0.340 C  
HETATM    8  H   UNL     1     -12.676  13.668  69.221  1.00  0.00     0.000 HD 
HETATM    9  O   UNL     1     -11.506  11.094  70.678  1.00  0.00    -0.223 OA 
BRANCH   7  10
HETATM   10  C   UNL     1     -11.873  11.483  68.331  1.00  0.00    -0.353 C  
BRANCH  10  11
HETATM   11  C   UNL     1     -11.183  12.510  67.469  1.00  0.00    -0.342 A  
HETATM   12  C   UNL     1     -11.895  13.212  66.484  1.00  0.00    -0.456 A  
HETATM   13  C   UNL     1     -11.263  14.186  65.709  1.00  0.00    -0.312 A  
HETATM   14  C   UNL     1      -9.917  14.475  65.915  1.00  0.00    -0.352 A  
HETATM   15  C   UNL     1      -9.201  13.791  66.894  1.00  0.00    -0.263 A  
HETATM   16  C   UNL     1      -9.829  12.813  67.669  1.00  0.00    -0.214 A  
ENDBRANCH  10  11
ENDBRANCH   7  10
ENDBRANCH   3   6
TORSDOF 3
ENDMDL
MODEL      138
REMARK 921   NORMALIZED FREE ENERGY PREDICTED BY IDOCK:   -3.42 KCAL/MOL
REMARK 922        TOTAL FREE ENERGY PREDICTED BY IDOCK:   -4.35 KCAL/MOL
REMARK 923 INTER-LIGAND FREE ENERGY PREDICTED BY IDOCK:   -4.12 KCAL/MOL
REMARK 924 INTRA-LIGAND FREE ENERGY PREDICTED BY IDOCK:   -0.23 KCAL/MOL
REMARK 927      BINDING AFFINITY PREDICTED BY RF-SCORE:    0.00 PKD
ROOT
HETATM    1  N   UNL     1     -10.667  13.654  69.099  1.00  0.00    -0.416 N  
HETATM    2  H1  UNL     1      -9.786  13.310  68.717  1.00  0.00     0.000 HD 
HETATM    3  C   UNL     1     -10.959  14.970  69.142  1.00  0.00    -0.261 C  
HETATM    4  H2  UNL     1     -11.347  12.983  69.456  1.00  0.00     0.000 HD 
HETATM    5  O   UNL     1     -12.019  15.383  69.599  1.00  0.00    -0.320 OA 
ENDROOT
BRANCH   3   6
HETATM    6  N   UNL     1     -10.025  15.828  68.634  1.00  0.00    -0.203 N  
HETATM    7  C   UNL     1      -8.678  15.902  68.944  1.00  0.00    -0.225 C  
HETATM    8  H   UNL     1     -10.362  16.497  67.941  1.00  0.00     0.000 HD 
HETATM    9  O   UNL     1      -8.119  15.189  69.777  1.00  0.00    -0.179 OA 
BRANCH   7  10
HETATM   10  C   UNL     1      -7.927  16.974  68.174  1.00  0.00    -0.206 C  
BRANCH  10  11
HETATM   11  C   UNL     1      -8.812  18.105  67.713  1.00  0.00    -0.259 A  
HETATM   12  C   UNL     1      -9.236  18.182  66.377  1.00  0.00    -0.267 A  
HETATM   13  C   UNL     1     -10.082  19.210  65.958  1.00  0.00    -0.437 A  
HETATM   14  C   UNL     1     -10.520  20.166  66.871  1.00  0.00    -0.432 A  
HETATM   15  C   UNL     1     -10.113  20.097  68.201  1.00  0.00    -0.498 A  
HETATM   16  C   UNL     1      -9.264  19.071  68.622  1.00  0.00    -0.414 A  
ENDBRANCH  10  11
ENDBRANCH   7  10
ENDBRANCH   3   6
TORSDOF 3
ENDMDL
MODEL      139
REMARK 921   NORMALIZED FREE ENERGY PREDICTED BY IDOCK:   -3.39 KCAL/MOL
REMARK 922        TOTAL FREE ENERGY PREDICTED BY IDOCK:   -4.31 KCAL/MOL
REMARK 923 INTER-LIGAND FREE ENERGY PREDICTED BY IDOCK:   -4.84 KCAL/MOL
REMARK 924 INTRA-LIGAND FREE ENERGY PREDICTED BY IDOCK:    0.53 KCAL/MOL
REMARK 927      BINDING AFFINITY PREDICTED BY RF-SCORE:    0.00 PKD
ROOT
HETATM    1  N   UNL     1     -12.472  16.194  71.775  1.00  0.00    -0.567 N  
HETATM    2  H1  UNL     1     -11.765  16.756  71.301  1.00  0.00     0.000 HD 
HETATM    3  C   UNL     1     -13.116  15.187  71.152  1.00  0.00    -0.450 C  
HETATM    4  H2  UNL     1     -12.698  16.400  72.748  1.00  0.00     0.000 HD 
HETATM    5  O   UNL     1     -13.966  14.512  71.722  1.00  0.00    -0.398 OA 
ENDROOT
BRANCH   3   6
HETATM    6  N   UNL     1     -12.767  14.937  69.855  1.00  0.00    -0.589 N  
HETATM    7  C   UNL     1     -12.152  13.808  69.341  1.00  0.00    -0.328 C  
HETATM    8  H   UNL     1     -12.987  15.672  69.182  1.00  0.00     0.000 HD 
HETATM    9  O   UNL     1     -11.796  12.844  70.018  1.00  0.00    -0.326 OA 
BRANCH   7  10
HETATM   10  C   UNL     1     -11.923  13.862  67.841  1.00  0.00    -0.393 C  
BRANCH  10  11
HETATM   11  C   UNL     1     -11.269  12.618  67.294  1.00  0.00    -0.346 A  
HETATM   12  C   UNL     1     -10.292  12.705  66.290  1.00  0.00    -0.269 A  
HETATM   13  C   UNL     1      -9.663  11.556  65.808  1.00  0.00    -0.263 A  
HETATM   14  C   UNL     1      -9.995  10.309  66.331  1.00  0.00    -0.287 A  
HETATM   15  C   UNL     1     -10.957  10.209  67.333  1.00  0.00    -0.295 A  
HETATM   16  C   UNL     1     -11.591  11.356  67.815  1.00  0.00    -0.325 A  
ENDBRANCH  10  11
ENDBRANCH   7  10
ENDBRANCH   3   6
TORSDOF 3
ENDMDL
MODEL      140
REMARK 921   NORMALIZED FREE ENERGY PREDICTED BY IDOCK:   -3.38 KCAL/MOL
REMARK 922        TOTAL FREE ENERGY PREDICTED BY IDOCK:   -4.30 KCAL/MOL
REMARK 923 INTER-LIGAND FREE ENERGY PREDICTED BY IDOCK:   -3.83 KCAL/MOL
REMARK 924 INTRA-LIGAND FREE ENERGY PREDICTED BY IDOCK:   -0.47 KCAL/MOL
REMARK 927      BINDING AFFINITY PREDICTED BY RF-SCORE:    0.00 PKD
ROOT
HETATM    1  N   UNL     1     -12.970  15.621  70.108  1.00  0.00    -0.662 N  
HETATM    2  H1  UNL     1     -13.577  14.929  70.549  1.00  0.00     0.000 HD 
HETATM    3  C   UNL     1     -12.133  15.296  69.102  1.00  0.00    -0.235 C  
HETATM    4  H2  UNL     1     -12.998  16.586  70.438  1.00  0.00     0.000 HD 
HETATM    5  O   UNL     1     -11.405  16.128  68.573  1.00  0.00    -0.359 OA 
ENDROOT
BRANCH   3   6
HETATM    6  N   UNL     1     -12.144  13.996  68.682  1.00  0.00    -0.488 N  
HETATM    7  C   UNL     1     -12.125  12.850  69.458  1.00  0.00    -0.214 C  
HETATM    8  H   UNL     1     -12.170  13.852  67.672  1.00  0.00     0.000 HD 
HETATM    9  O   UNL     1     -12.067  12.847  70.688  1.00  0.00    -0.349 OA 
BRANCH   7  10
HETATM   10  C   UNL     1     -12.160  11.562  68.655  1.00  0.00    -0.197 C  
BRANCH  10  11
HETATM   11  C   UNL     1     -10.905  11.327  67.853  1.00  0.00    -0.278 A  
HETATM   12  C   UNL     1     -10.956  11.238  66.453  1.00  0.00    -0.285 A  
HETATM   13  C   UNL     1      -9.789  11.053  65.710  1.00  0.00    -0.282 A  
HETATM   14  C   UNL     1      -8.558  10.965  66.356  1.00  0.00    -0.160 A  
HETATM   15  C   UNL     1      -8.493  11.059  67.744  1.00  0.00    -0.122 A  
HETATM   16  C   UNL     1      -9.659  11.240  68.491  1.00  0.00    -0.199 A  
ENDBRANCH  10  11
ENDBRANCH   7  10
ENDBRANCH   3   6
TORSDOF 3
ENDMDL
MODEL      141
REMARK 921   NORMALIZED FREE ENERGY PREDICTED BY IDOCK:   -3.37 KCAL/MOL
REMARK 922        TOTAL FREE ENERGY PREDICTED BY IDOCK:   -4.29 KCAL/MOL
REMARK 923 INTER-LIGAND FREE ENERGY PREDICTED BY IDOCK:   -4.28 KCAL/MOL
REMARK 924 INTRA-LIGAND FREE ENERGY PREDICTED BY IDOCK:   -0.00 KCAL/MOL
REMARK 927      BINDING AFFINITY PREDICTED BY RF-SCORE:    0.00 PKD
ROOT
HETATM    1  N   UNL     1     -10.616   6.823  67.394  1.00  0.00    -0.259 N  
HETATM    2  H1  UNL     1     -10.779   6.395  66.483  1.00  0.00     0.000 HD 
HETATM    3  C   UNL     1     -10.501   8.159  67.542  1.00  0.00    -0.256 C  
HETATM    4  H2  UNL     1     -10.537   6.225  68.216  1.00  0.00     0.000 HD 
HETATM    5  O   UNL     1     -10.305   8.674  68.638  1.00  0.00    -0.196 OA 
ENDROOT
BRANCH   3   6
HETATM    6  N   UNL     1     -10.632   8.921  66.416  1.00  0.00    -0.134 N  
HETATM    7  C   UNL     1      -9.744   9.855  65.912  1.00  0.00    -0.262 C  
HETATM    8  H   UNL     1     -11.490   8.785  65.880  1.00  0.00     0.000 HD 
HETATM    9  O   UNL     1      -8.679  10.159  66.449  1.00  0.00    -0.128 OA 
BRANCH   7  10
HETATM   10  C   UNL     1     -10.207  10.511  64.623  1.00  0.00    -0.364 C  
BRANCH  10  11
HETATM   11  C   UNL     1     -10.996  11.776  64.849  1.00  0.00    -0.358 A  
HETATM   12  C   UNL     1     -11.408  12.566  63.764  1.00  0.00    -0.534 A  
HETATM   13  C   UNL     1     -12.166  13.719  63.972  1.00  0.00    -0.429 A  
HETATM   14  C   UNL     1     -12.530  14.090  65.264  1.00  0.00    -0.495 A  
HETATM   15  C   UNL     1     -12.134  13.311  66.348  1.00  0.00    -0.454 A  
HETATM   16  C   UNL     1     -11.372  12.159  66.144  1.00  0.00    -0.414 A  
ENDBRANCH  10  11
ENDBRANCH   7  10
ENDBRANCH   3   6
TORSDOF 3
ENDMDL
MODEL      142
REMARK 921   NORMALIZED FREE ENERGY PREDICTED BY IDOCK:   -3.37 KCAL/MOL
REMARK 922        TOTAL FREE ENERGY PREDICTED BY IDOCK:   -4.28 KCAL/MOL
REMARK 923 INTER-LIGAND FREE ENERGY PREDICTED BY IDOCK:   -4.28 KCAL/MOL
REMARK 924 INTRA-LIGAND FREE ENERGY PREDICTED BY IDOCK:   -0.00 KCAL/MOL
REMARK 927      BINDING AFFINITY PREDICTED BY RF-SCORE:    0.00 PKD
ROOT
HETATM    1  N   UNL     1     -13.100  15.341  70.515  1.00  0.00    -0.668 N  
HETATM    2  H1  UNL     1     -13.233  15.331  69.503  1.00  0.00     0.000 HD 
HETATM    3  C   UNL     1     -12.609  14.276  71.179  1.00  0.00    -0.362 C  
HETATM    4  H2  UNL     1     -13.345  16.182  71.038  1.00  0.00     0.000 HD 
HETATM    5  O   UNL     1     -12.448  14.289  72.395  1.00  0.00    -0.267 OA 
ENDROOT
BRANCH   3   6
HETATM    6  N   UNL     1     -12.278  13.179  70.434  1.00  0.00    -0.353 N  
HETATM    7  C   UNL     1     -12.534  11.849  70.716  1.00  0.00    -0.291 C  
HETATM    8  H   UNL     1     -11.782  13.364  69.562  1.00  0.00     0.000 HD 
HETATM    9  O   UNL     1     -13.096  11.453  71.737  1.00  0.00    -0.480 OA 
BRANCH   7  10
HETATM   10  C   UNL     1     -12.034  10.887  69.654  1.00  0.00    -0.414 C  
BRANCH  10  11
HETATM   11  C   UNL     1     -10.661  10.336  69.948  1.00  0.00    -0.324 A  
HETATM   12  C   UNL     1     -10.421   9.600  71.119  1.00  0.00    -0.281 A  
HETATM   13  C   UNL     1      -9.159   9.062  71.375  1.00  0.00    -0.271 A  
HETATM   14  C   UNL     1      -8.125   9.246  70.460  1.00  0.00    -0.198 A  
HETATM   15  C   UNL     1      -8.352   9.968  69.291  1.00  0.00    -0.154 A  
HETATM   16  C   UNL     1      -9.612  10.510  69.034  1.00  0.00    -0.213 A  
ENDBRANCH  10  11
ENDBRANCH   7  10
ENDBRANCH   3   6
TORSDOF 3
ENDMDL
MODEL      143
REMARK 921   NORMALIZED FREE ENERGY PREDICTED BY IDOCK:   -3.37 KCAL/MOL
REMARK 922        TOTAL FREE ENERGY PREDICTED BY IDOCK:   -4.28 KCAL/MOL
REMARK 923 INTER-LIGAND FREE ENERGY PREDICTED BY IDOCK:   -4.10 KCAL/MOL
REMARK 924 INTRA-LIGAND FREE ENERGY PREDICTED BY IDOCK:   -0.18 KCAL/MOL
REMARK 927      BINDING AFFINITY PREDICTED BY RF-SCORE:    0.00 PKD
ROOT
HETATM    1  N   UNL     1     -11.396   4.703  65.327  1.00  0.00    -0.982 N  
HETATM    2  H1  UNL     1     -12.400   4.698  65.510  1.00  0.00     0.000 HD 
HETATM    3  C   UNL     1     -10.523   5.295  66.167  1.00  0.00    -0.206 C  
HETATM    4  H2  UNL     1     -11.044   4.247  64.486  1.00  0.00     0.000 HD 
HETATM    5  O   UNL     1      -9.317   5.300  65.948  1.00  0.00    -0.157 OA 
ENDROOT
BRANCH   3   6
HETATM    6  N   UNL     1     -11.041   5.877  67.290  1.00  0.00    -0.463 N  
HETATM    7  C   UNL     1     -10.722   5.613  68.611  1.00  0.00    -0.179 C  
HETATM    8  H   UNL     1     -11.750   6.594  67.136  1.00  0.00     0.000 HD 
HETATM    9  O   UNL     1      -9.910   4.760  68.970  1.00  0.00    -0.169 OA 
BRANCH   7  10
HETATM   10  C   UNL     1     -11.486   6.462  69.610  1.00  0.00    -0.446 C  
BRANCH  10  11
HETATM   11  C   UNL     1     -10.592   7.166  70.599  1.00  0.00    -0.243 A  
HETATM   12  C   UNL     1      -9.570   8.022  70.158  1.00  0.00    -0.175 A  
HETATM   13  C   UNL     1      -8.765   8.699  71.075  1.00  0.00    -0.227 A  
HETATM   14  C   UNL     1      -8.977   8.536  72.442  1.00  0.00    -0.284 A  
HETATM   15  C   UNL     1      -9.992   7.696  72.893  1.00  0.00    -0.319 A  
HETATM   16  C   UNL     1     -10.797   7.015  71.978  1.00  0.00    -0.253 A  
ENDBRANCH  10  11
ENDBRANCH   7  10
ENDBRANCH   3   6
TORSDOF 3
ENDMDL
MODEL      144
REMARK 921   NORMALIZED FREE ENERGY PREDICTED BY IDOCK:   -3.34 KCAL/MOL
REMARK 922        TOTAL FREE ENERGY PREDICTED BY IDOCK:   -4.25 KCAL/MOL
REMARK 923 INTER-LIGAND FREE ENERGY PREDICTED BY IDOCK:   -3.87 KCAL/MOL
REMARK 924 INTRA-LIGAND FREE ENERGY PREDICTED BY IDOCK:   -0.37 KCAL/MOL
REMARK 927      BINDING AFFINITY PREDICTED BY RF-SCORE:    0.00 PKD
ROOT
HETATM    1  N   UNL     1      -7.114  15.133  67.643  1.00  0.00    -0.170 N  
HETATM    2  H1  UNL     1      -6.816  14.300  67.135  1.00  0.00     0.000 HD 
HETATM    3  C   UNL     1      -8.351  15.241  68.168  1.00  0.00    -0.149 C  
HETATM    4  H2  UNL     1      -6.458  15.905  67.758  1.00  0.00     0.000 HD 
HETATM    5  O   UNL     1      -8.710  16.242  68.779  1.00  0.00    -0.219 OA 
ENDROOT
BRANCH   3   6
HETATM    6  N   UNL     1      -9.189  14.174  68.004  1.00  0.00    -0.188 N  
HETATM    7  C   UNL     1      -8.856  12.832  67.933  1.00  0.00    -0.186 C  
HETATM    8  H   UNL     1     -10.183  14.393  67.925  1.00  0.00     0.000 HD 
HETATM    9  O   UNL     1      -7.704  12.401  67.983  1.00  0.00    -0.113 OA 
BRANCH   7  10
HETATM   10  C   UNL     1     -10.050  11.910  67.760  1.00  0.00    -0.200 C  
BRANCH  10  11
HETATM   11  C   UNL     1     -10.664  11.983  66.385  1.00  0.00    -0.294 A  
HETATM   12  C   UNL     1     -11.803  12.770  66.151  1.00  0.00    -0.484 A  
HETATM   13  C   UNL     1     -12.351  12.864  64.871  1.00  0.00    -0.532 A  
HETATM   14  C   UNL     1     -11.763  12.180  63.809  1.00  0.00    -0.576 A  
HETATM   15  C   UNL     1     -10.629  11.402  64.027  1.00  0.00    -0.444 A  
HETATM   16  C   UNL     1     -10.080  11.304  65.307  1.00  0.00    -0.318 A  
ENDBRANCH  10  11
ENDBRANCH   7  10
ENDBRANCH   3   6
TORSDOF 3
ENDMDL
MODEL      145
REMARK 921   NORMALIZED FREE ENERGY PREDICTED BY IDOCK:   -3.33 KCAL/MOL
REMARK 922        TOTAL FREE ENERGY PREDICTED BY IDOCK:   -4.24 KCAL/MOL
REMARK 923 INTER-LIGAND FREE ENERGY PREDICTED BY IDOCK:   -3.79 KCAL/MOL
REMARK 924 INTRA-LIGAND FREE ENERGY PREDICTED BY IDOCK:   -0.45 KCAL/MOL
REMARK 927      BINDING AFFINITY PREDICTED BY RF-SCORE:    0.00 PKD
ROOT
HETATM    1  N   UNL     1      -6.551  16.269  67.498  1.00  0.00    -0.148 N  
HETATM    2  H1  UNL     1      -7.155  15.652  66.955  1.00  0.00     0.000 HD 
HETATM    3  C   UNL     1      -7.047  17.124  68.415  1.00  0.00    -0.206 C  
HETATM    4  H2  UNL     1      -5.543  16.239  67.342  1.00  0.00     0.000 HD 
HETATM    5  O   UNL     1      -6.320  17.866  69.067  1.00  0.00    -0.212 OA 
ENDROOT
BRANCH   3   6
HETATM    6  N   UNL     1      -8.400  17.116  68.602  1.00  0.00    -0.258 N  
HETATM    7  C   UNL     1      -9.388  17.424  67.683  1.00  0.00    -0.245 C  
HETATM    8  H   UNL     1      -8.722  16.850  69.532  1.00  0.00     0.000 HD 
HETATM    9  O   UNL     1      -9.171  17.789  66.527  1.00  0.00    -0.262 OA 
BRANCH   7  10
HETATM   10  C   UNL     1     -10.799  17.296  68.230  1.00  0.00    -0.287 C  
BRANCH  10  11
HETATM   11  C   UNL     1     -11.188  15.873  68.544  1.00  0.00    -0.362 A  
HETATM   12  C   UNL     1     -11.446  15.478  69.866  1.00  0.00    -0.338 A  
HETATM   13  C   UNL     1     -11.838  14.169  70.153  1.00  0.00    -0.382 A  
HETATM   14  C   UNL     1     -11.985  13.245  69.122  1.00  0.00    -0.343 A  
HETATM   15  C   UNL     1     -11.740  13.626  67.806  1.00  0.00    -0.397 A  
HETATM   16  C   UNL     1     -11.344  14.934  67.516  1.00  0.00    -0.351 A  
ENDBRANCH  10  11
ENDBRANCH   7  10
ENDBRANCH   3   6
TORSDOF 3
ENDMDL
MODEL      146
REMARK 921   NORMALIZED FREE ENERGY PREDICTED BY IDOCK:   -3.33 KCAL/MOL
REMARK 922        TOTAL FREE ENERGY PREDICTED BY IDOCK:   -4.24 KCAL/MOL
REMARK 923 INTER-LIGAND FREE ENERGY PREDICTED BY IDOCK:   -3.95 KCAL/MOL
REMARK 924 INTRA-LIGAND FREE ENERGY PREDICTED BY IDOCK:   -0.29 KCAL/MOL
REMARK 927      BINDING AFFINITY PREDICTED BY RF-SCORE:    0.00 PKD
ROOT
HETATM    1  N   UNL     1      -8.266   8.713  67.026  1.00  0.00    -0.106 N  
HETATM    2  H1  UNL     1      -7.620   9.205  67.643  1.00  0.00     0.000 HD 
HETATM    3  C   UNL     1      -9.399   8.145  67.488  1.00  0.00    -0.140 C  
HETATM    4  H2  UNL     1      -8.050   8.649  66.031  1.00  0.00     0.000 HD 
HETATM    5  O   UNL     1     -10.175   7.554  66.745  1.00  0.00    -0.263 OA 
ENDROOT
BRANCH   3   6
HETATM    6  N   UNL     1      -9.655   8.272  68.824  1.00  0.00    -0.148 N  
HETATM    7  C   UNL     1      -9.845   9.437  69.548  1.00  0.00    -0.183 C  
HETATM    8  H   UNL     1      -9.714   7.402  69.353  1.00  0.00     0.000 HD 
HETATM    9  O   UNL     1      -9.779  10.569  69.069  1.00  0.00    -0.192 OA 
BRANCH   7  10
HETATM   10  C   UNL     1     -10.126   9.206  71.022  1.00  0.00    -0.373 C  
BRANCH  10  11
HETATM   11  C   UNL     1     -11.549   8.791  71.298  1.00  0.00    -0.353 A  
HETATM   12  C   UNL     1     -11.965   7.469  71.075  1.00  0.00    -0.317 A  
HETATM   13  C   UNL     1     -13.274   7.077  71.363  1.00  0.00    -0.352 A  
HETATM   14  C   UNL     1     -14.178   7.999  71.885  1.00  0.00    -0.514 A  
HETATM   15  C   UNL     1     -13.776   9.312  72.118  1.00  0.00    -0.517 A  
HETATM   16  C   UNL     1     -12.468   9.708  71.828  1.00  0.00    -0.487 A  
ENDBRANCH  10  11
ENDBRANCH   7  10
ENDBRANCH   3   6
TORSDOF 3
ENDMDL
MODEL      147
REMARK 921   NORMALIZED FREE ENERGY PREDICTED BY IDOCK:   -3.33 KCAL/MOL
REMARK 922        TOTAL FREE ENERGY PREDICTED BY IDOCK:   -4.24 KCAL/MOL
REMARK 923 INTER-LIGAND FREE ENERGY PREDICTED BY IDOCK:   -3.86 KCAL/MOL
REMARK 924 INTRA-LIGAND FREE ENERGY PREDICTED BY IDOCK:   -0.37 KCAL/MOL
REMARK 927      BINDING AFFINITY PREDICTED BY RF-SCORE:    0.00 PKD
ROOT
HETATM    1  N   UNL     1     -11.409   4.946  65.675  1.00  0.00    -0.911 N  
HETATM    2  H1  UNL     1     -12.006   5.714  65.983  1.00  0.00     0.000 HD 
HETATM    3  C   UNL     1     -10.238   4.667  66.284  1.00  0.00    -0.275 C  
HETATM    4  H2  UNL     1     -11.706   4.373  64.886  1.00  0.00     0.000 HD 
HETATM    5  O   UNL     1      -9.521   3.743  65.914  1.00  0.00    -0.163 OA 
ENDROOT
BRANCH   3   6
HETATM    6  N   UNL     1      -9.891   5.450  67.348  1.00  0.00    -0.143 N  
HETATM    7  C   UNL     1     -10.170   6.792  67.545  1.00  0.00    -0.190 C  
HETATM    8  H   UNL     1      -9.360   4.990  68.088  1.00  0.00     0.000 HD 
HETATM    9  O   UNL     1     -10.774   7.499  66.739  1.00  0.00    -0.319 OA 
BRANCH   7  10
HETATM   10  C   UNL     1      -9.640   7.344  68.856  1.00  0.00    -0.148 C  
BRANCH  10  11
HETATM   11  C   UNL     1     -10.278   6.713  70.069  1.00  0.00    -0.215 A  
HETATM   12  C   UNL     1      -9.600   5.729  70.804  1.00  0.00    -0.210 A  
HETATM   13  C   UNL     1     -10.177   5.170  71.945  1.00  0.00    -0.269 A  
HETATM   14  C   UNL     1     -11.434   5.595  72.369  1.00  0.00    -0.309 A  
HETATM   15  C   UNL     1     -12.114   6.576  71.653  1.00  0.00    -0.381 A  
HETATM   16  C   UNL     1     -11.541   7.135  70.509  1.00  0.00    -0.331 A  
ENDBRANCH  10  11
ENDBRANCH   7  10
ENDBRANCH   3   6
TORSDOF 3
ENDMDL
MODEL      148
REMARK 921   NORMALIZED FREE ENERGY PREDICTED BY IDOCK:   -3.33 KCAL/MOL
REMARK 922        TOTAL FREE ENERGY PREDICTED BY IDOCK:   -4.24 KCAL/MOL
REMARK 923 INTER-LIGAND FREE ENERGY PREDICTED BY IDOCK:   -4.15 KCAL/MOL
REMARK 924 INTRA-LIGAND FREE ENERGY PREDICTED BY IDOCK:   -0.09 KCAL/MOL
REMARK 927      BINDING AFFINITY PREDICTED BY RF-SCORE:    0.00 PKD
ROOT
HETATM    1  N   UNL     1      -8.428  12.349  68.646  1.00  0.00    -0.356 N  
HETATM    2  H1  UNL     1      -8.602  13.111  69.301  1.00  0.00     0.000 HD 
HETATM    3  C   UNL     1      -9.062  11.163  68.750  1.00  0.00    -0.139 C  
HETATM    4  H2  UNL     1      -7.757  12.487  67.891  1.00  0.00     0.000 HD 
HETATM    5  O   UNL     1      -8.854  10.247  67.963  1.00  0.00    -0.121 OA 
ENDROOT
BRANCH   3   6
HETATM    6  N   UNL     1      -9.966  11.031  69.767  1.00  0.00    -0.347 N  
HETATM    7  C   UNL     1     -11.329  11.270  69.732  1.00  0.00    -0.271 C  
HETATM    8  H   UNL     1      -9.589  10.717  70.662  1.00  0.00     0.000 HD 
HETATM    9  O   UNL     1     -11.935  11.678  68.741  1.00  0.00    -0.335 OA 
BRANCH   7  10
HETATM   10  C   UNL     1     -12.034  11.005  71.050  1.00  0.00    -0.334 C  
BRANCH  10  11
HETATM   11  C   UNL     1     -12.515   9.582  71.192  1.00  0.00    -0.399 A  
HETATM   12  C   UNL     1     -11.664   8.506  70.894  1.00  0.00    -0.274 A  
HETATM   13  C   UNL     1     -12.098   7.190  71.058  1.00  0.00    -0.391 A  
HETATM   14  C   UNL     1     -13.384   6.934  71.529  1.00  0.00    -0.303 A  
HETATM   15  C   UNL     1     -14.235   7.993  71.834  1.00  0.00    -0.514 A  
HETATM   16  C   UNL     1     -13.805   9.311  71.669  1.00  0.00    -0.366 A  
ENDBRANCH  10  11
ENDBRANCH   7  10
ENDBRANCH   3   6
TORSDOF 3
ENDMDL
MODEL      149
REMARK 921   NORMALIZED FREE ENERGY PREDICTED BY IDOCK:   -3.32 KCAL/MOL
REMARK 922        TOTAL FREE ENERGY PREDICTED BY IDOCK:   -4.23 KCAL/MOL
REMARK 923 INTER-LIGAND FREE ENERGY PREDICTED BY IDOCK:   -3.98 KCAL/MOL
REMARK 924 INTRA-LIGAND FREE ENERGY PREDICTED BY IDOCK:   -0.25 KCAL/MOL
REMARK 927      BINDING AFFINITY PREDICTED BY RF-SCORE:    0.00 PKD
ROOT
HETATM    1  N   UNL     1      -9.686  13.177  65.790  1.00  0.00    -0.454 N  
HETATM    2  H1  UNL     1      -9.647  12.446  65.080  1.00  0.00     0.000 HD 
HETATM    3  C   UNL     1      -9.814  12.891  67.101  1.00  0.00    -0.225 C  
HETATM    4  H2  UNL     1      -9.627  14.153  65.499  1.00  0.00     0.000 HD 
HETATM    5  O   UNL     1      -9.861  13.770  67.954  1.00  0.00    -0.220 OA 
ENDROOT
BRANCH   3   6
HETATM    6  N   UNL     1      -9.872  11.569  67.444  1.00  0.00    -0.185 N  
HETATM    7  C   UNL     1     -10.969  10.852  67.888  1.00  0.00    -0.271 C  
HETATM    8  H   UNL     1      -8.999  11.047  67.362  1.00  0.00     0.000 HD 
HETATM    9  O   UNL     1     -12.087  11.335  68.068  1.00  0.00    -0.638 OA 
BRANCH   7  10
HETATM   10  C   UNL     1     -10.676   9.388  68.166  1.00  0.00    -0.230 C  
BRANCH  10  11
HETATM   11  C   UNL     1     -10.330   9.114  69.608  1.00  0.00    -0.226 A  
HETATM   12  C   UNL     1      -8.991   9.039  70.021  1.00  0.00    -0.184 A  
HETATM   13  C   UNL     1      -8.671   8.818  71.362  1.00  0.00    -0.278 A  
HETATM   14  C   UNL     1      -9.686   8.680  72.305  1.00  0.00    -0.357 A  
HETATM   15  C   UNL     1     -11.019   8.760  71.910  1.00  0.00    -0.435 A  
HETATM   16  C   UNL     1     -11.342   8.977  70.569  1.00  0.00    -0.282 A  
ENDBRANCH  10  11
ENDBRANCH   7  10
ENDBRANCH   3   6
TORSDOF 3
ENDMDL
MODEL      150
REMARK 921   NORMALIZED FREE ENERGY PREDICTED BY IDOCK:   -3.30 KCAL/MOL
REMARK 922        TOTAL FREE ENERGY PREDICTED BY IDOCK:   -4.20 KCAL/MOL
REMARK 923 INTER-LIGAND FREE ENERGY PREDICTED BY IDOCK:   -3.93 KCAL/MOL
REMARK 924 INTRA-LIGAND FREE ENERGY PREDICTED BY IDOCK:   -0.28 KCAL/MOL
REMARK 927      BINDING AFFINITY PREDICTED BY RF-SCORE:    0.00 PKD
ROOT
HETATM    1  N   UNL     1      -9.891  14.392  65.437  1.00  0.00    -0.541 N  
HETATM    2  H1  UNL     1     -10.264  13.905  64.622  1.00  0.00     0.000 HD 
HETATM    3  C   UNL     1      -9.474  13.727  66.534  1.00  0.00    -0.269 C  
HETATM    4  H2  UNL     1      -9.830  15.409  65.421  1.00  0.00     0.000 HD 
HETATM    5  O   UNL     1      -9.025  14.313  67.513  1.00  0.00    -0.179 OA 
ENDROOT
BRANCH   3   6
HETATM    6  N   UNL     1      -9.558  12.364  66.502  1.00  0.00    -0.236 N  
HETATM    7  C   UNL     1     -10.682  11.584  66.289  1.00  0.00    -0.272 C  
HETATM    8  H   UNL     1      -8.685  11.858  66.653  1.00  0.00     0.000 HD 
HETATM    9  O   UNL     1     -11.815  12.034  66.119  1.00  0.00    -0.546 OA 
BRANCH   7  10
HETATM   10  C   UNL     1     -10.408  10.091  66.305  1.00  0.00    -0.235 C  
BRANCH  10  11
HETATM   11  C   UNL     1     -10.572   9.471  67.670  1.00  0.00    -0.329 A  
HETATM   12  C   UNL     1     -10.292   8.111  67.876  1.00  0.00    -0.280 A  
HETATM   13  C   UNL     1     -10.413   7.545  69.146  1.00  0.00    -0.220 A  
HETATM   14  C   UNL     1     -10.806   8.333  70.225  1.00  0.00    -0.241 A  
HETATM   15  C   UNL     1     -11.080   9.685  70.036  1.00  0.00    -0.293 A  
HETATM   16  C   UNL     1     -10.963  10.253  68.765  1.00  0.00    -0.285 A  
ENDBRANCH  10  11
ENDBRANCH   7  10
ENDBRANCH   3   6
TORSDOF 3
ENDMDL
MODEL      151
REMARK 921   NORMALIZED FREE ENERGY PREDICTED BY IDOCK:   -3.30 KCAL/MOL
REMARK 922        TOTAL FREE ENERGY PREDICTED BY IDOCK:   -4.20 KCAL/MOL
REMARK 923 INTER-LIGAND FREE ENERGY PREDICTED BY IDOCK:   -3.80 KCAL/MOL
REMARK 924 INTRA-LIGAND FREE ENERGY PREDICTED BY IDOCK:   -0.40 KCAL/MOL
REMARK 927      BINDING AFFINITY PREDICTED BY RF-SCORE:    0.00 PKD
ROOT
HETATM    1  N   UNL     1      -6.603  14.188  70.094  1.00  0.00    -0.361 N  
HETATM    2  H1  UNL     1      -7.061  14.589  70.912  1.00  0.00     0.000 HD 
HETATM    3  C   UNL     1      -7.240  14.065  68.912  1.00  0.00    -0.108 C  
HETATM    4  H2  UNL     1      -5.637  13.873  70.171  1.00  0.00     0.000 HD 
HETATM    5  O   UNL     1      -6.689  13.583  67.927  1.00  0.00    -0.115 OA 
ENDROOT
BRANCH   3   6
HETATM    6  N   UNL     1      -8.528  14.518  68.851  1.00  0.00    -0.277 N  
HETATM    7  C   UNL     1      -8.970  15.829  68.840  1.00  0.00    -0.226 C  
HETATM    8  H   UNL     1      -9.253  13.801  68.809  1.00  0.00     0.000 HD 
HETATM    9  O   UNL     1      -8.230  16.810  68.913  1.00  0.00    -0.244 OA 
BRANCH   7  10
HETATM   10  C   UNL     1     -10.479  15.969  68.751  1.00  0.00    -0.248 C  
BRANCH  10  11
HETATM   11  C   UNL     1     -11.203  15.346  69.918  1.00  0.00    -0.310 A  
HETATM   12  C   UNL     1     -11.147  15.932  71.192  1.00  0.00    -0.245 A  
HETATM   13  C   UNL     1     -11.845  15.373  72.263  1.00  0.00    -0.551 A  
HETATM   14  C   UNL     1     -12.614  14.228  72.072  1.00  0.00    -0.381 A  
HETATM   15  C   UNL     1     -12.685  13.641  70.811  1.00  0.00    -0.338 A  
HETATM   16  C   UNL     1     -11.985  14.196  69.738  1.00  0.00    -0.396 A  
ENDBRANCH  10  11
ENDBRANCH   7  10
ENDBRANCH   3   6
TORSDOF 3
ENDMDL
MODEL      152
REMARK 921   NORMALIZED FREE ENERGY PREDICTED BY IDOCK:   -3.29 KCAL/MOL
REMARK 922        TOTAL FREE ENERGY PREDICTED BY IDOCK:   -4.19 KCAL/MOL
REMARK 923 INTER-LIGAND FREE ENERGY PREDICTED BY IDOCK:   -3.80 KCAL/MOL
REMARK 924 INTRA-LIGAND FREE ENERGY PREDICTED BY IDOCK:   -0.39 KCAL/MOL
REMARK 927      BINDING AFFINITY PREDICTED BY RF-SCORE:    0.00 PKD
ROOT
HETATM    1  N   UNL     1     -10.587   5.225  69.710  1.00  0.00    -0.281 N  
HETATM    2  H1  UNL     1      -9.962   5.003  68.935  1.00  0.00     0.000 HD 
HETATM    3  C   UNL     1     -11.354   6.334  69.710  1.00  0.00    -0.436 C  
HETATM    4  H2  UNL     1     -10.634   4.590  70.507  1.00  0.00     0.000 HD 
HETATM    5  O   UNL     1     -12.106   6.601  70.641  1.00  0.00    -0.394 OA 
ENDROOT
BRANCH   3   6
HETATM    6  N   UNL     1     -11.271   7.145  68.613  1.00  0.00    -0.474 N  
HETATM    7  C   UNL     1     -10.130   7.625  67.993  1.00  0.00    -0.187 C  
HETATM    8  H   UNL     1     -12.159   7.431  68.200  1.00  0.00     0.000 HD 
HETATM    9  O   UNL     1      -8.984   7.397  68.379  1.00  0.00    -0.135 OA 
BRANCH   7  10
HETATM   10  C   UNL     1     -10.409   8.495  66.781  1.00  0.00    -0.346 C  
BRANCH  10  11
HETATM   11  C   UNL     1     -10.382   9.971  67.089  1.00  0.00    -0.300 A  
HETATM   12  C   UNL     1     -11.345  10.543  67.936  1.00  0.00    -0.297 A  
HETATM   13  C   UNL     1     -11.300  11.903  68.247  1.00  0.00    -0.335 A  
HETATM   14  C   UNL     1     -10.288  12.704  67.725  1.00  0.00    -0.221 A  
HETATM   15  C   UNL     1      -9.322  12.148  66.891  1.00  0.00    -0.203 A  
HETATM   16  C   UNL     1      -9.366  10.788  66.574  1.00  0.00    -0.192 A  
ENDBRANCH  10  11
ENDBRANCH   7  10
ENDBRANCH   3   6
TORSDOF 3
ENDMDL
MODEL      153
REMARK 921   NORMALIZED FREE ENERGY PREDICTED BY IDOCK:   -3.27 KCAL/MOL
REMARK 922        TOTAL FREE ENERGY PREDICTED BY IDOCK:   -4.17 KCAL/MOL
REMARK 923 INTER-LIGAND FREE ENERGY PREDICTED BY IDOCK:   -3.77 KCAL/MOL
REMARK 924 INTRA-LIGAND FREE ENERGY PREDICTED BY IDOCK:   -0.40 KCAL/MOL
REMARK 927      BINDING AFFINITY PREDICTED BY RF-SCORE:    0.00 PKD
ROOT
HETATM    1  N   UNL     1     -14.284   7.376  71.060  1.00  0.00    -0.579 N  
HETATM    2  H1  UNL     1     -13.721   6.753  70.481  1.00  0.00     0.000 HD 
HETATM    3  C   UNL     1     -13.721   8.268  71.900  1.00  0.00    -0.369 C  
HETATM    4  H2  UNL     1     -15.301   7.322  71.002  1.00  0.00     0.000 HD 
HETATM    5  O   UNL     1     -14.398   9.018  72.596  1.00  0.00    -0.603 OA 
ENDROOT
BRANCH   3   6
HETATM    6  N   UNL     1     -12.356   8.316  71.929  1.00  0.00    -0.319 N  
HETATM    7  C   UNL     1     -11.471   7.269  72.121  1.00  0.00    -0.273 C  
HETATM    8  H   UNL     1     -11.937   9.236  71.794  1.00  0.00     0.000 HD 
HETATM    9  O   UNL     1     -11.811   6.104  72.327  1.00  0.00    -0.319 OA 
BRANCH   7  10
HETATM   10  C   UNL     1     -10.011   7.682  72.080  1.00  0.00    -0.232 C  
BRANCH  10  11
HETATM   11  C   UNL     1      -9.562   8.147  70.717  1.00  0.00    -0.185 A  
HETATM   12  C   UNL     1      -9.254   7.218  69.711  1.00  0.00    -0.140 A  
HETATM   13  C   UNL     1      -8.871   7.649  68.440  1.00  0.00    -0.130 A  
HETATM   14  C   UNL     1      -8.801   9.011  68.158  1.00  0.00    -0.133 A  
HETATM   15  C   UNL     1      -9.111   9.942  69.145  1.00  0.00    -0.175 A  
HETATM   16  C   UNL     1      -9.491   9.515  70.419  1.00  0.00    -0.317 A  
ENDBRANCH  10  11
ENDBRANCH   7  10
ENDBRANCH   3   6
TORSDOF 3
ENDMDL
MODEL      154
REMARK 921   NORMALIZED FREE ENERGY PREDICTED BY IDOCK:   -3.27 KCAL/MOL
REMARK 922        TOTAL FREE ENERGY PREDICTED BY IDOCK:   -4.16 KCAL/MOL
REMARK 923 INTER-LIGAND FREE ENERGY PREDICTED BY IDOCK:   -3.74 KCAL/MOL
REMARK 924 INTRA-LIGAND FREE ENERGY PREDICTED BY IDOCK:   -0.43 KCAL/MOL
REMARK 927      BINDING AFFINITY PREDICTED BY RF-SCORE:    0.00 PKD
ROOT
HETATM    1  N   UNL     1     -11.281  14.773  65.371  1.00  0.00    -0.336 N  
HETATM    2  H1  UNL     1     -11.956  15.359  64.880  1.00  0.00     0.000 HD 
HETATM    3  C   UNL     1     -10.380  15.291  66.230  1.00  0.00    -0.294 C  
HETATM    4  H2  UNL     1     -11.289  13.766  65.209  1.00  0.00     0.000 HD 
HETATM    5  O   UNL     1      -9.570  14.586  66.821  1.00  0.00    -0.241 OA 
ENDROOT
BRANCH   3   6
HETATM    6  N   UNL     1     -10.420  16.643  66.429  1.00  0.00    -0.294 N  
HETATM    7  C   UNL     1     -10.788  17.626  65.527  1.00  0.00     0.056 C  
HETATM    8  H   UNL     1     -10.145  16.967  67.356  1.00  0.00     0.000 HD 
HETATM    9  O   UNL     1     -11.119  17.408  64.361  1.00  0.00    -0.873 OA 
BRANCH   7  10
HETATM   10  C   UNL     1     -10.728  19.033  66.093  1.00  0.00    -0.405 C  
BRANCH  10  11
HETATM   11  C   UNL     1      -9.348  19.432  66.552  1.00  0.00    -0.414 A  
HETATM   12  C   UNL     1      -8.300  19.572  65.630  1.00  0.00     0.212 A  
HETATM   13  C   UNL     1      -7.031  19.973  66.051  1.00  0.00    -0.286 A  
HETATM   14  C   UNL     1      -6.799  20.248  67.397  1.00  0.00    -0.295 A  
HETATM   15  C   UNL     1      -7.832  20.120  68.321  1.00  0.00    -0.169 A  
HETATM   16  C   UNL     1      -9.102  19.715  67.903  1.00  0.00    -0.396 A  
ENDBRANCH  10  11
ENDBRANCH   7  10
ENDBRANCH   3   6
TORSDOF 3
ENDMDL
MODEL      155
REMARK 921   NORMALIZED FREE ENERGY PREDICTED BY IDOCK:   -3.26 KCAL/MOL
REMARK 922        TOTAL FREE ENERGY PREDICTED BY IDOCK:   -4.16 KCAL/MOL
REMARK 923 INTER-LIGAND FREE ENERGY PREDICTED BY IDOCK:   -3.75 KCAL/MOL
REMARK 924 INTRA-LIGAND FREE ENERGY PREDICTED BY IDOCK:   -0.41 KCAL/MOL
REMARK 927      BINDING AFFINITY PREDICTED BY RF-SCORE:    0.00 PKD
ROOT
HETATM    1  N   UNL     1     -12.672  10.734  71.323  1.00  0.00    -0.408 N  
HETATM    2  H1  UNL     1     -12.148  10.009  70.832  1.00  0.00     0.000 HD 
HETATM    3  C   UNL     1     -12.488  12.044  71.063  1.00  0.00    -0.276 C  
HETATM    4  H2  UNL     1     -13.354  10.460  72.030  1.00  0.00     0.000 HD 
HETATM    5  O   UNL     1     -13.118  12.916  71.653  1.00  0.00    -0.394 OA 
ENDROOT
BRANCH   3   6
HETATM    6  N   UNL     1     -11.578  12.362  70.095  1.00  0.00    -0.539 N  
HETATM    7  C   UNL     1     -11.571  11.965  68.769  1.00  0.00    -0.309 C  
HETATM    8  H   UNL     1     -10.808  12.966  70.385  1.00  0.00     0.000 HD 
HETATM    9  O   UNL     1     -12.408  11.216  68.265  1.00  0.00    -0.532 OA 
BRANCH   7  10
HETATM   10  C   UNL     1     -10.408  12.521  67.966  1.00  0.00    -0.226 C  
BRANCH  10  11
HETATM   11  C   UNL     1      -9.632  11.458  67.230  1.00  0.00    -0.187 A  
HETATM   12  C   UNL     1      -9.925  11.157  65.890  1.00  0.00    -0.285 A  
HETATM   13  C   UNL     1      -9.184  10.197  65.199  1.00  0.00    -0.262 A  
HETATM   14  C   UNL     1      -8.138   9.533  65.835  1.00  0.00    -0.115 A  
HETATM   15  C   UNL     1      -7.832   9.828  67.161  1.00  0.00    -0.099 A  
HETATM   16  C   UNL     1      -8.573  10.785  67.857  1.00  0.00    -0.125 A  
ENDBRANCH  10  11
ENDBRANCH   7  10
ENDBRANCH   3   6
TORSDOF 3
ENDMDL
MODEL      156
REMARK 921   NORMALIZED FREE ENERGY PREDICTED BY IDOCK:   -3.25 KCAL/MOL
REMARK 922        TOTAL FREE ENERGY PREDICTED BY IDOCK:   -4.14 KCAL/MOL
REMARK 923 INTER-LIGAND FREE ENERGY PREDICTED BY IDOCK:   -3.75 KCAL/MOL
REMARK 924 INTRA-LIGAND FREE ENERGY PREDICTED BY IDOCK:   -0.39 KCAL/MOL
REMARK 927      BINDING AFFINITY PREDICTED BY RF-SCORE:    0.00 PKD
ROOT
HETATM    1  N   UNL     1     -12.770   8.531  72.232  1.00  0.00    -0.436 N  
HETATM    2  H1  UNL     1     -11.893   8.956  71.927  1.00  0.00     0.000 HD 
HETATM    3  C   UNL     1     -13.336   7.509  71.559  1.00  0.00    -0.352 C  
HETATM    4  H2  UNL     1     -13.230   8.890  73.068  1.00  0.00     0.000 HD 
HETATM    5  O   UNL     1     -14.389   6.998  71.925  1.00  0.00    -0.376 OA 
ENDROOT
BRANCH   3   6
HETATM    6  N   UNL     1     -12.674   7.050  70.455  1.00  0.00    -0.559 N  
HETATM    7  C   UNL     1     -11.338   6.705  70.346  1.00  0.00    -0.365 C  
HETATM    8  H   UNL     1     -13.232   6.951  69.608  1.00  0.00     0.000 HD 
HETATM    9  O   UNL     1     -10.522   6.793  71.264  1.00  0.00    -0.211 OA 
BRANCH   7  10
HETATM   10  C   UNL     1     -10.939   6.218  68.965  1.00  0.00    -0.437 C  
BRANCH  10  11
HETATM   11  C   UNL     1     -10.187   7.251  68.164  1.00  0.00    -0.222 A  
HETATM   12  C   UNL     1     -10.629   8.582  68.118  1.00  0.00    -0.181 A  
HETATM   13  C   UNL     1      -9.914   9.545  67.404  1.00  0.00    -0.241 A  
HETATM   14  C   UNL     1      -8.745   9.190  66.736  1.00  0.00    -0.138 A  
HETATM   15  C   UNL     1      -8.291   7.874  66.779  1.00  0.00    -0.120 A  
HETATM   16  C   UNL     1      -9.007   6.908  67.490  1.00  0.00    -0.116 A  
ENDBRANCH  10  11
ENDBRANCH   7  10
ENDBRANCH   3   6
TORSDOF 3
ENDMDL
MODEL      157
REMARK 921   NORMALIZED FREE ENERGY PREDICTED BY IDOCK:   -3.24 KCAL/MOL
REMARK 922        TOTAL FREE ENERGY PREDICTED BY IDOCK:   -4.13 KCAL/MOL
REMARK 923 INTER-LIGAND FREE ENERGY PREDICTED BY IDOCK:   -3.79 KCAL/MOL
REMARK 924 INTRA-LIGAND FREE ENERGY PREDICTED BY IDOCK:   -0.34 KCAL/MOL
REMARK 927      BINDING AFFINITY PREDICTED BY RF-SCORE:    0.00 PKD
ROOT
HETATM    1  N   UNL     1     -13.963   9.542  70.796  1.00  0.00    -0.406 N  
HETATM    2  H1  UNL     1     -13.884   9.768  69.804  1.00  0.00     0.000 HD 
HETATM    3  C   UNL     1     -12.926   9.040  71.496  1.00  0.00    -0.337 C  
HETATM    4  H2  UNL     1     -14.852   9.700  71.271  1.00  0.00     0.000 HD 
HETATM    5  O   UNL     1     -13.021   8.768  72.688  1.00  0.00    -0.389 OA 
ENDROOT
BRANCH   3   6
HETATM    6  N   UNL     1     -11.751   8.862  70.822  1.00  0.00    -0.377 N  
HETATM    7  C   UNL     1     -10.986   9.818  70.176  1.00  0.00    -0.291 C  
HETATM    8  H   UNL     1     -11.394   7.907  70.790  1.00  0.00     0.000 HD 
HETATM    9  O   UNL     1     -11.289  11.009  70.096  1.00  0.00    -0.290 OA 
BRANCH   7  10
HETATM   10  C   UNL     1      -9.724   9.268  69.538  1.00  0.00    -0.179 C  
BRANCH  10  11
HETATM   11  C   UNL     1      -9.942   7.960  68.819  1.00  0.00    -0.194 A  
HETATM   12  C   UNL     1      -9.545   6.747  69.403  1.00  0.00    -0.146 A  
HETATM   13  C   UNL     1      -9.777   5.535  68.753  1.00  0.00    -0.190 A  
HETATM   14  C   UNL     1     -10.417   5.519  67.516  1.00  0.00    -0.269 A  
HETATM   15  C   UNL     1     -10.823   6.715  66.928  1.00  0.00    -0.415 A  
HETATM   16  C   UNL     1     -10.589   7.930  67.575  1.00  0.00    -0.312 A  
ENDBRANCH  10  11
ENDBRANCH   7  10
ENDBRANCH   3   6
TORSDOF 3
ENDMDL
MODEL      158
REMARK 921   NORMALIZED FREE ENERGY PREDICTED BY IDOCK:   -3.24 KCAL/MOL
REMARK 922        TOTAL FREE ENERGY PREDICTED BY IDOCK:   -4.13 KCAL/MOL
REMARK 923 INTER-LIGAND FREE ENERGY PREDICTED BY IDOCK:   -3.71 KCAL/MOL
REMARK 924 INTRA-LIGAND FREE ENERGY PREDICTED BY IDOCK:   -0.42 KCAL/MOL
REMARK 927      BINDING AFFINITY PREDICTED BY RF-SCORE:    0.00 PKD
ROOT
HETATM    1  N   UNL     1     -11.390   9.476  69.191  1.00  0.00    -0.449 N  
HETATM    2  H1  UNL     1     -11.145   8.873  68.406  1.00  0.00     0.000 HD 
HETATM    3  C   UNL     1     -11.036   9.173  70.457  1.00  0.00    -0.260 C  
HETATM    4  H2  UNL     1     -11.916  10.331  69.014  1.00  0.00     0.000 HD 
HETATM    5  O   UNL     1     -11.330   9.898  71.401  1.00  0.00    -0.364 OA 
ENDROOT
BRANCH   3   6
HETATM    6  N   UNL     1     -10.316   8.027  70.643  1.00  0.00    -0.200 N  
HETATM    7  C   UNL     1     -10.609   6.754  70.184  1.00  0.00    -0.218 C  
HETATM    8  H   UNL     1      -9.458   8.121  71.186  1.00  0.00     0.000 HD 
HETATM    9  O   UNL     1     -11.617   6.464  69.540  1.00  0.00    -0.404 OA 
BRANCH   7  10
HETATM   10  C   UNL     1      -9.575   5.710  70.566  1.00  0.00    -0.221 C  
BRANCH  10  11
HETATM   11  C   UNL     1     -10.064   4.746  71.618  1.00  0.00    -0.264 A  
HETATM   12  C   UNL     1     -10.774   5.208  72.737  1.00  0.00    -0.294 A  
HETATM   13  C   UNL     1     -11.255   4.312  73.694  1.00  0.00    -0.325 A  
HETATM   14  C   UNL     1     -11.039   2.945  73.538  1.00  0.00    -0.316 A  
HETATM   15  C   UNL     1     -10.343   2.473  72.429  1.00  0.00    -0.179 A  
HETATM   16  C   UNL     1      -9.857   3.367  71.472  1.00  0.00    -0.212 A  
ENDBRANCH  10  11
ENDBRANCH   7  10
ENDBRANCH   3   6
TORSDOF 3
ENDMDL
MODEL      159
REMARK 921   NORMALIZED FREE ENERGY PREDICTED BY IDOCK:   -3.23 KCAL/MOL
REMARK 922        TOTAL FREE ENERGY PREDICTED BY IDOCK:   -4.12 KCAL/MOL
REMARK 923 INTER-LIGAND FREE ENERGY PREDICTED BY IDOCK:   -4.46 KCAL/MOL
REMARK 924 INTRA-LIGAND FREE ENERGY PREDICTED BY IDOCK:    0.34 KCAL/MOL
REMARK 927      BINDING AFFINITY PREDICTED BY RF-SCORE:    0.00 PKD
ROOT
HETATM    1  N   UNL     1     -10.047  12.458  64.006  1.00  0.00    -0.537 N  
HETATM    2  H1  UNL     1     -10.383  13.398  64.215  1.00  0.00     0.000 HD 
HETATM    3  C   UNL     1     -10.014  11.490  64.945  1.00  0.00    -0.259 C  
HETATM    4  H2  UNL     1      -9.727  12.244  63.062  1.00  0.00     0.000 HD 
HETATM    5  O   UNL     1      -9.610  10.360  64.695  1.00  0.00    -0.248 OA 
ENDROOT
BRANCH   3   6
HETATM    6  N   UNL     1     -10.469  11.819  66.191  1.00  0.00    -0.237 N  
HETATM    7  C   UNL     1     -10.908  10.967  67.190  1.00  0.00    -0.282 C  
HETATM    8  H   UNL     1     -10.489  12.815  66.411  1.00  0.00     0.000 HD 
HETATM    9  O   UNL     1     -10.974   9.743  67.077  1.00  0.00    -0.162 OA 
BRANCH   7  10
HETATM   10  C   UNL     1     -11.333  11.679  68.462  1.00  0.00    -0.332 C  
BRANCH  10  11
HETATM   11  C   UNL     1     -11.346  10.778  69.671  1.00  0.00    -0.362 A  
HETATM   12  C   UNL     1     -12.511  10.626  70.438  1.00  0.00    -0.421 A  
HETATM   13  C   UNL     1     -12.532   9.766  71.538  1.00  0.00    -0.495 A  
HETATM   14  C   UNL     1     -11.392   9.043  71.877  1.00  0.00    -0.438 A  
HETATM   15  C   UNL     1     -10.231   9.178  71.120  1.00  0.00    -0.384 A  
HETATM   16  C   UNL     1     -10.206  10.040  70.022  1.00  0.00    -0.306 A  
ENDBRANCH  10  11
ENDBRANCH   7  10
ENDBRANCH   3   6
TORSDOF 3
ENDMDL
MODEL      160
REMARK 921   NORMALIZED FREE ENERGY PREDICTED BY IDOCK:   -3.19 KCAL/MOL
REMARK 922        TOTAL FREE ENERGY PREDICTED BY IDOCK:   -4.07 KCAL/MOL
REMARK 923 INTER-LIGAND FREE ENERGY PREDICTED BY IDOCK:   -3.92 KCAL/MOL
REMARK 924 INTRA-LIGAND FREE ENERGY PREDICTED BY IDOCK:   -0.15 KCAL/MOL
REMARK 927      BINDING AFFINITY PREDICTED BY RF-SCORE:    0.00 PKD
ROOT
HETATM    1  N   UNL     1      -7.462  12.060  66.530  1.00  0.00    -0.369 N  
HETATM    2  H1  UNL     1      -7.265  12.344  65.570  1.00  0.00     0.000 HD 
HETATM    3  C   UNL     1      -8.300  12.759  67.322  1.00  0.00    -0.187 C  
HETATM    4  H2  UNL     1      -7.014  11.222  66.900  1.00  0.00     0.000 HD 
HETATM    5  O   UNL     1      -8.537  12.417  68.475  1.00  0.00    -0.148 OA 
ENDROOT
BRANCH   3   6
HETATM    6  N   UNL     1      -8.891  13.864  66.776  1.00  0.00    -0.406 N  
HETATM    7  C   UNL     1      -9.858  13.910  65.786  1.00  0.00    -0.239 C  
HETATM    8  H   UNL     1      -8.583  14.764  67.143  1.00  0.00     0.000 HD 
HETATM    9  O   UNL     1     -10.318  12.919  65.219  1.00  0.00    -0.291 OA 
BRANCH   7  10
HETATM   10  C   UNL     1     -10.304  15.317  65.428  1.00  0.00    -0.421 C  
BRANCH  10  11
HETATM   11  C   UNL     1      -9.852  16.356  66.423  1.00  0.00    -0.312 A  
HETATM   12  C   UNL     1      -8.639  17.039  66.244  1.00  0.00    -0.298 A  
HETATM   13  C   UNL     1      -8.237  18.024  67.148  1.00  0.00    -0.231 A  
HETATM   14  C   UNL     1      -9.048  18.344  68.234  1.00  0.00    -0.330 A  
HETATM   15  C   UNL     1     -10.257  17.679  68.419  1.00  0.00    -0.381 A  
HETATM   16  C   UNL     1     -10.660  16.691  67.519  1.00  0.00    -0.311 A  
ENDBRANCH  10  11
ENDBRANCH   7  10
ENDBRANCH   3   6
TORSDOF 3
ENDMDL
MODEL      161
REMARK 921   NORMALIZED FREE ENERGY PREDICTED BY IDOCK:   -3.18 KCAL/MOL
REMARK 922        TOTAL FREE ENERGY PREDICTED BY IDOCK:   -4.07 KCAL/MOL
REMARK 923 INTER-LIGAND FREE ENERGY PREDICTED BY IDOCK:   -3.65 KCAL/MOL
REMARK 924 INTRA-LIGAND FREE ENERGY PREDICTED BY IDOCK:   -0.42 KCAL/MOL
REMARK 927      BINDING AFFINITY PREDICTED BY RF-SCORE:    0.00 PKD
ROOT
HETATM    1  N   UNL     1      -8.470  11.177  63.349  1.00  0.00    -0.393 N  
HETATM    2  H1  UNL     1      -8.586  12.144  63.651  1.00  0.00     0.000 HD 
HETATM    3  C   UNL     1      -9.164  10.167  63.912  1.00  0.00    -0.280 C  
HETATM    4  H2  UNL     1      -7.811  10.968  62.599  1.00  0.00     0.000 HD 
HETATM    5  O   UNL     1      -9.024   9.005  63.548  1.00  0.00    -0.087 OA 
ENDROOT
BRANCH   3   6
HETATM    6  N   UNL     1     -10.048  10.498  64.900  1.00  0.00    -0.329 N  
HETATM    7  C   UNL     1      -9.780  11.099  66.117  1.00  0.00    -0.218 C  
HETATM    8  H   UNL     1     -11.027  10.275  64.717  1.00  0.00     0.000 HD 
HETATM    9  O   UNL     1      -8.652  11.408  66.504  1.00  0.00    -0.169 OA 
BRANCH   7  10
HETATM   10  C   UNL     1     -11.012  11.335  66.972  1.00  0.00    -0.352 C  
BRANCH  10  11
HETATM   11  C   UNL     1     -11.018  10.525  68.244  1.00  0.00    -0.314 A  
HETATM   12  C   UNL     1     -10.650   9.170  68.230  1.00  0.00    -0.223 A  
HETATM   13  C   UNL     1     -10.624   8.429  69.413  1.00  0.00    -0.204 A  
HETATM   14  C   UNL     1     -10.955   9.035  70.622  1.00  0.00    -0.308 A  
HETATM   15  C   UNL     1     -11.315  10.380  70.650  1.00  0.00    -0.411 A  
HETATM   16  C   UNL     1     -11.345  11.123  69.468  1.00  0.00    -0.359 A  
ENDBRANCH  10  11
ENDBRANCH   7  10
ENDBRANCH   3   6
TORSDOF 3
ENDMDL
MODEL      162
REMARK 921   NORMALIZED FREE ENERGY PREDICTED BY IDOCK:   -3.18 KCAL/MOL
REMARK 922        TOTAL FREE ENERGY PREDICTED BY IDOCK:   -4.06 KCAL/MOL
REMARK 923 INTER-LIGAND FREE ENERGY PREDICTED BY IDOCK:   -3.77 KCAL/MOL
REMARK 924 INTRA-LIGAND FREE ENERGY PREDICTED BY IDOCK:   -0.30 KCAL/MOL
REMARK 927      BINDING AFFINITY PREDICTED BY RF-SCORE:    0.00 PKD
ROOT
HETATM    1  N   UNL     1     -13.503   9.155  71.062  1.00  0.00    -0.564 N  
HETATM    2  H1  UNL     1     -13.234   8.530  70.302  1.00  0.00     0.000 HD 
HETATM    3  C   UNL     1     -13.006  10.404  71.166  1.00  0.00    -0.412 C  
HETATM    4  H2  UNL     1     -14.168   8.826  71.762  1.00  0.00     0.000 HD 
HETATM    5  O   UNL     1     -13.330  11.155  72.079  1.00  0.00    -0.454 OA 
ENDROOT
BRANCH   3   6
HETATM    6  N   UNL     1     -12.133  10.807  70.195  1.00  0.00    -0.319 N  
HETATM    7  C   UNL     1     -10.825  10.396  70.001  1.00  0.00    -0.289 C  
HETATM    8  H   UNL     1     -12.489  11.494  69.530  1.00  0.00     0.000 HD 
HETATM    9  O   UNL     1     -10.236   9.596  70.727  1.00  0.00    -0.290 OA 
BRANCH   7  10
HETATM   10  C   UNL     1     -10.148  11.043  68.807  1.00  0.00    -0.214 C  
BRANCH  10  11
HETATM   11  C   UNL     1      -9.685  10.046  67.773  1.00  0.00    -0.174 A  
HETATM   12  C   UNL     1     -10.430   8.885  67.516  1.00  0.00    -0.337 A  
HETATM   13  C   UNL     1     -10.020   7.979  66.537  1.00  0.00    -0.283 A  
HETATM   14  C   UNL     1      -8.866   8.229  65.797  1.00  0.00    -0.194 A  
HETATM   15  C   UNL     1      -8.122   9.382  66.037  1.00  0.00    -0.111 A  
HETATM   16  C   UNL     1      -8.529  10.288  67.019  1.00  0.00    -0.129 A  
ENDBRANCH  10  11
ENDBRANCH   7  10
ENDBRANCH   3   6
TORSDOF 3
ENDMDL
MODEL      163
REMARK 921   NORMALIZED FREE ENERGY PREDICTED BY IDOCK:   -3.18 KCAL/MOL
REMARK 922        TOTAL FREE ENERGY PREDICTED BY IDOCK:   -4.06 KCAL/MOL
REMARK 923 INTER-LIGAND FREE ENERGY PREDICTED BY IDOCK:   -3.81 KCAL/MOL
REMARK 924 INTRA-LIGAND FREE ENERGY PREDICTED BY IDOCK:   -0.25 KCAL/MOL
REMARK 927      BINDING AFFINITY PREDICTED BY RF-SCORE:    0.00 PKD
ROOT
HETATM    1  N   UNL     1     -10.555   6.940  68.622  1.00  0.00    -0.215 N  
HETATM    2  H1  UNL     1     -10.574   6.522  67.691  1.00  0.00     0.000 HD 
HETATM    3  C   UNL     1     -10.653   8.272  68.805  1.00  0.00    -0.123 C  
HETATM    4  H2  UNL     1     -10.462   6.333  69.436  1.00  0.00     0.000 HD 
HETATM    5  O   UNL     1     -10.631   8.774  69.924  1.00  0.00    -0.218 OA 
ENDROOT
BRANCH   3   6
HETATM    6  N   UNL     1     -10.796   9.043  67.686  1.00  0.00    -0.481 N  
HETATM    7  C   UNL     1      -9.803   9.660  66.944  1.00  0.00    -0.200 C  
HETATM    8  H   UNL     1     -11.751   9.181  67.357  1.00  0.00     0.000 HD 
HETATM    9  O   UNL     1      -8.604   9.617  67.220  1.00  0.00    -0.130 OA 
BRANCH   7  10
HETATM   10  C   UNL     1     -10.322  10.433  65.745  1.00  0.00    -0.257 C  
BRANCH  10  11
HETATM   11  C   UNL     1     -10.894  11.780  66.108  1.00  0.00    -0.336 A  
HETATM   12  C   UNL     1     -10.270  12.586  67.074  1.00  0.00    -0.231 A  
HETATM   13  C   UNL     1     -10.781  13.847  67.385  1.00  0.00    -0.275 A  
HETATM   14  C   UNL     1     -11.914  14.320  66.729  1.00  0.00    -0.462 A  
HETATM   15  C   UNL     1     -12.538  13.534  65.763  1.00  0.00    -0.490 A  
HETATM   16  C   UNL     1     -12.031  12.271  65.452  1.00  0.00    -0.395 A  
ENDBRANCH  10  11
ENDBRANCH   7  10
ENDBRANCH   3   6
TORSDOF 3
ENDMDL
MODEL      164
REMARK 921   NORMALIZED FREE ENERGY PREDICTED BY IDOCK:   -3.17 KCAL/MOL
REMARK 922        TOTAL FREE ENERGY PREDICTED BY IDOCK:   -4.05 KCAL/MOL
REMARK 923 INTER-LIGAND FREE ENERGY PREDICTED BY IDOCK:   -3.67 KCAL/MOL
REMARK 924 INTRA-LIGAND FREE ENERGY PREDICTED BY IDOCK:   -0.38 KCAL/MOL
REMARK 927      BINDING AFFINITY PREDICTED BY RF-SCORE:    0.00 PKD
ROOT
HETATM    1  N   UNL     1     -11.622   9.255  70.893  1.00  0.00    -0.286 N  
HETATM    2  H1  UNL     1     -12.593   9.444  70.643  1.00  0.00     0.000 HD 
HETATM    3  C   UNL     1     -10.593   9.736  70.167  1.00  0.00    -0.285 C  
HETATM    4  H2  UNL     1     -11.425   8.685  71.716  1.00  0.00     0.000 HD 
HETATM    5  O   UNL     1      -9.427   9.509  70.468  1.00  0.00    -0.252 OA 
ENDROOT
BRANCH   3   6
HETATM    6  N   UNL     1     -10.907  10.509  69.085  1.00  0.00    -0.220 N  
HETATM    7  C   UNL     1     -11.571  11.724  69.069  1.00  0.00    -0.311 C  
HETATM    8  H   UNL     1     -10.617  10.146  68.176  1.00  0.00     0.000 HD 
HETATM    9  O   UNL     1     -12.012  12.285  70.072  1.00  0.00    -0.327 OA 
BRANCH   7  10
HETATM   10  C   UNL     1     -11.738  12.315  67.681  1.00  0.00    -0.403 C  
BRANCH  10  11
HETATM   11  C   UNL     1     -10.928  13.570  67.467  1.00  0.00    -0.283 A  
HETATM   12  C   UNL     1      -9.683  13.733  68.095  1.00  0.00    -0.227 A  
HETATM   13  C   UNL     1      -8.919  14.879  67.871  1.00  0.00    -0.177 A  
HETATM   14  C   UNL     1      -9.385  15.870  67.010  1.00  0.00    -0.230 A  
HETATM   15  C   UNL     1     -10.615  15.717  66.376  1.00  0.00    -0.308 A  
HETATM   16  C   UNL     1     -11.384  14.573  66.601  1.00  0.00    -0.359 A  
ENDBRANCH  10  11
ENDBRANCH   7  10
ENDBRANCH   3   6
TORSDOF 3
ENDMDL
MODEL      165
REMARK 921   NORMALIZED FREE ENERGY PREDICTED BY IDOCK:   -3.16 KCAL/MOL
REMARK 922        TOTAL FREE ENERGY PREDICTED BY IDOCK:   -4.04 KCAL/MOL
REMARK 923 INTER-LIGAND FREE ENERGY PREDICTED BY IDOCK:   -4.21 KCAL/MOL
REMARK 924 INTRA-LIGAND FREE ENERGY PREDICTED BY IDOCK:    0.17 KCAL/MOL
REMARK 927      BINDING AFFINITY PREDICTED BY RF-SCORE:    0.00 PKD
ROOT
HETATM    1  N   UNL     1     -11.494  16.466  70.308  1.00  0.00    -0.455 N  
HETATM    2  H1  UNL     1     -12.106  15.888  70.886  1.00  0.00     0.000 HD 
HETATM    3  C   UNL     1     -11.061  16.056  69.099  1.00  0.00    -0.317 C  
HETATM    4  H2  UNL     1     -11.204  17.380  70.655  1.00  0.00     0.000 HD 
HETATM    5  O   UNL     1     -10.327  16.751  68.405  1.00  0.00    -0.281 OA 
ENDROOT
BRANCH   3   6
HETATM    6  N   UNL     1     -11.492  14.833  68.669  1.00  0.00    -0.287 N  
HETATM    7  C   UNL     1     -11.292  14.246  67.431  1.00  0.00    -0.332 C  
HETATM    8  H   UNL     1     -12.027  14.284  69.342  1.00  0.00     0.000 HD 
HETATM    9  O   UNL     1     -10.693  14.783  66.499  1.00  0.00    -0.306 OA 
BRANCH   7  10
HETATM   10  C   UNL     1     -11.902  12.862  67.300  1.00  0.00    -0.416 C  
BRANCH  10  11
HETATM   11  C   UNL     1     -11.389  11.886  68.328  1.00  0.00    -0.335 A  
HETATM   12  C   UNL     1     -12.170  11.542  69.442  1.00  0.00    -0.273 A  
HETATM   13  C   UNL     1     -11.708  10.613  70.375  1.00  0.00    -0.446 A  
HETATM   14  C   UNL     1     -10.465  10.010  70.201  1.00  0.00    -0.338 A  
HETATM   15  C   UNL     1      -9.683  10.337  69.096  1.00  0.00    -0.229 A  
HETATM   16  C   UNL     1     -10.141  11.268  68.162  1.00  0.00    -0.195 A  
ENDBRANCH  10  11
ENDBRANCH   7  10
ENDBRANCH   3   6
TORSDOF 3
ENDMDL
MODEL      166
REMARK 921   NORMALIZED FREE ENERGY PREDICTED BY IDOCK:   -3.16 KCAL/MOL
REMARK 922        TOTAL FREE ENERGY PREDICTED BY IDOCK:   -4.04 KCAL/MOL
REMARK 923 INTER-LIGAND FREE ENERGY PREDICTED BY IDOCK:   -4.09 KCAL/MOL
REMARK 924 INTRA-LIGAND FREE ENERGY PREDICTED BY IDOCK:    0.06 KCAL/MOL
REMARK 927      BINDING AFFINITY PREDICTED BY RF-SCORE:    0.00 PKD
ROOT
HETATM    1  N   UNL     1      -8.489  14.983  69.600  1.00  0.00    -0.443 N  
HETATM    2  H1  UNL     1      -9.200  15.162  70.309  1.00  0.00     0.000 HD 
HETATM    3  C   UNL     1      -8.667  14.062  68.631  1.00  0.00    -0.103 C  
HETATM    4  H2  UNL     1      -7.619  15.514  69.625  1.00  0.00     0.000 HD 
HETATM    5  O   UNL     1      -7.812  13.847  67.778  1.00  0.00    -0.137 OA 
ENDROOT
BRANCH   3   6
HETATM    6  N   UNL     1      -9.855  13.388  68.627  1.00  0.00    -0.392 N  
HETATM    7  C   UNL     1     -10.560  12.910  67.536  1.00  0.00    -0.226 C  
HETATM    8  H   UNL     1     -10.275  13.216  69.541  1.00  0.00     0.000 HD 
HETATM    9  O   UNL     1     -10.209  13.057  66.366  1.00  0.00    -0.267 OA 
BRANCH   7  10
HETATM   10  C   UNL     1     -11.846  12.190  67.902  1.00  0.00    -0.338 C  
BRANCH  10  11
HETATM   11  C   UNL     1     -11.693  11.259  69.078  1.00  0.00    -0.410 A  
HETATM   12  C   UNL     1     -12.434  11.463  70.253  1.00  0.00    -0.312 A  
HETATM   13  C   UNL     1     -12.316  10.582  71.329  1.00  0.00    -0.502 A  
HETATM   14  C   UNL     1     -11.465   9.483  71.240  1.00  0.00    -0.447 A  
HETATM   15  C   UNL     1     -10.730   9.266  70.078  1.00  0.00    -0.259 A  
HETATM   16  C   UNL     1     -10.842  10.147  69.001  1.00  0.00    -0.257 A  
ENDBRANCH  10  11
ENDBRANCH   7  10
ENDBRANCH   3   6
TORSDOF 3
ENDMDL
MODEL      167
REMARK 921   NORMALIZED FREE ENERGY PREDICTED BY IDOCK:   -3.15 KCAL/MOL
REMARK 922        TOTAL FREE ENERGY PREDICTED BY IDOCK:   -4.03 KCAL/MOL
REMARK 923 INTER-LIGAND FREE ENERGY PREDICTED BY IDOCK:   -3.61 KCAL/MOL
REMARK 924 INTRA-LIGAND FREE ENERGY PREDICTED BY IDOCK:   -0.41 KCAL/MOL
REMARK 927      BINDING AFFINITY PREDICTED BY RF-SCORE:    0.00 PKD
ROOT
HETATM    1  N   UNL     1     -11.013   8.150  66.713  1.00  0.00    -0.241 N  
HETATM    2  H1  UNL     1     -11.618   8.767  67.255  1.00  0.00     0.000 HD 
HETATM    3  C   UNL     1     -10.673   6.921  67.152  1.00  0.00    -0.366 C  
HETATM    4  H2  UNL     1     -10.656   8.471  65.813  1.00  0.00     0.000 HD 
HETATM    5  O   UNL     1      -9.946   6.179  66.499  1.00  0.00    -0.165 OA 
ENDROOT
BRANCH   3   6
HETATM    6  N   UNL     1     -11.189   6.527  68.354  1.00  0.00    -0.555 N  
HETATM    7  C   UNL     1     -10.940   7.063  69.605  1.00  0.00    -0.236 C  
HETATM    8  H   UNL     1     -11.839   5.741  68.325  1.00  0.00     0.000 HD 
HETATM    9  O   UNL     1     -10.162   7.994  69.817  1.00  0.00    -0.197 OA 
BRANCH   7  10
HETATM   10  C   UNL     1     -11.701   6.383  70.729  1.00  0.00    -0.378 C  
BRANCH  10  11
HETATM   11  C   UNL     1     -10.833   6.043  71.914  1.00  0.00    -0.304 A  
HETATM   12  C   UNL     1      -9.971   4.936  71.876  1.00  0.00    -0.250 A  
HETATM   13  C   UNL     1      -9.144   4.641  72.961  1.00  0.00    -0.128 A  
HETATM   14  C   UNL     1      -9.162   5.454  74.091  1.00  0.00    -0.122 A  
HETATM   15  C   UNL     1     -10.007   6.559  74.139  1.00  0.00    -0.344 A  
HETATM   16  C   UNL     1     -10.839   6.855  73.057  1.00  0.00    -0.328 A  
ENDBRANCH  10  11
ENDBRANCH   7  10
ENDBRANCH   3   6
TORSDOF 3
ENDMDL
MODEL      168
REMARK 921   NORMALIZED FREE ENERGY PREDICTED BY IDOCK:   -3.15 KCAL/MOL
REMARK 922        TOTAL FREE ENERGY PREDICTED BY IDOCK:   -4.03 KCAL/MOL
REMARK 923 INTER-LIGAND FREE ENERGY PREDICTED BY IDOCK:   -3.83 KCAL/MOL
REMARK 924 INTRA-LIGAND FREE ENERGY PREDICTED BY IDOCK:   -0.20 KCAL/MOL
REMARK 927      BINDING AFFINITY PREDICTED BY RF-SCORE:    0.00 PKD
ROOT
HETATM    1  N   UNL     1      -9.057   8.695  69.282  1.00  0.00    -0.148 N  
HETATM    2  H1  UNL     1      -9.683   8.653  68.478  1.00  0.00     0.000 HD 
HETATM    3  C   UNL     1      -8.497   9.852  69.689  1.00  0.00    -0.187 C  
HETATM    4  H2  UNL     1      -8.850   7.838  69.794  1.00  0.00     0.000 HD 
HETATM    5  O   UNL     1      -7.746   9.902  70.657  1.00  0.00    -0.289 OA 
ENDROOT
BRANCH   3   6
HETATM    6  N   UNL     1      -8.818  10.978  68.984  1.00  0.00    -0.341 N  
HETATM    7  C   UNL     1      -8.698  11.193  67.622  1.00  0.00    -0.129 C  
HETATM    8  H   UNL     1      -9.193  11.755  69.528  1.00  0.00     0.000 HD 
HETATM    9  O   UNL     1      -8.239  10.370  66.828  1.00  0.00    -0.122 OA 
BRANCH   7  10
HETATM   10  C   UNL     1      -9.166  12.565  67.172  1.00  0.00    -0.205 C  
BRANCH  10  11
HETATM   11  C   UNL     1     -10.338  12.513  66.225  1.00  0.00    -0.269 A  
HETATM   12  C   UNL     1     -11.560  13.114  66.566  1.00  0.00    -0.402 A  
HETATM   13  C   UNL     1     -12.635  13.094  65.675  1.00  0.00    -0.414 A  
HETATM   14  C   UNL     1     -12.498  12.482  64.432  1.00  0.00    -0.530 A  
HETATM   15  C   UNL     1     -11.289  11.888  64.079  1.00  0.00    -0.475 A  
HETATM   16  C   UNL     1     -10.213  11.903  64.969  1.00  0.00    -0.316 A  
ENDBRANCH  10  11
ENDBRANCH   7  10
ENDBRANCH   3   6
TORSDOF 3
ENDMDL
MODEL      169
REMARK 921   NORMALIZED FREE ENERGY PREDICTED BY IDOCK:   -3.14 KCAL/MOL
REMARK 922        TOTAL FREE ENERGY PREDICTED BY IDOCK:   -4.01 KCAL/MOL
REMARK 923 INTER-LIGAND FREE ENERGY PREDICTED BY IDOCK:   -3.56 KCAL/MOL
REMARK 924 INTRA-LIGAND FREE ENERGY PREDICTED BY IDOCK:   -0.45 KCAL/MOL
REMARK 927      BINDING AFFINITY PREDICTED BY RF-SCORE:    0.00 PKD
ROOT
HETATM    1  N   UNL     1     -11.176   7.524  73.175  1.00  0.00    -0.584 N  
HETATM    2  H1  UNL     1     -11.933   6.868  72.977  1.00  0.00     0.000 HD 
HETATM    3  C   UNL     1     -10.412   8.045  72.194  1.00  0.00    -0.265 C  
HETATM    4  H2  UNL     1     -10.994   7.793  74.141  1.00  0.00     0.000 HD 
HETATM    5  O   UNL     1      -9.503   8.833  72.432  1.00  0.00    -0.293 OA 
ENDROOT
BRANCH   3   6
HETATM    6  N   UNL     1     -10.705   7.669  70.914  1.00  0.00    -0.232 N  
HETATM    7  C   UNL     1     -10.678   6.395  70.373  1.00  0.00    -0.262 C  
HETATM    8  H   UNL     1     -10.977   8.419  70.278  1.00  0.00     0.000 HD 
HETATM    9  O   UNL     1     -10.346   5.386  70.994  1.00  0.00    -0.219 OA 
BRANCH   7  10
HETATM   10  C   UNL     1     -11.079   6.340  68.909  1.00  0.00    -0.434 C  
BRANCH  10  11
HETATM   11  C   UNL     1     -10.088   7.016  67.995  1.00  0.00    -0.199 A  
HETATM   12  C   UNL     1     -10.511   7.987  67.074  1.00  0.00    -0.410 A  
HETATM   13  C   UNL     1      -9.589   8.636  66.251  1.00  0.00    -0.322 A  
HETATM   14  C   UNL     1      -8.234   8.330  66.347  1.00  0.00    -0.107 A  
HETATM   15  C   UNL     1      -7.800   7.374  67.262  1.00  0.00    -0.114 A  
HETATM   16  C   UNL     1      -8.720   6.720  68.084  1.00  0.00    -0.122 A  
ENDBRANCH  10  11
ENDBRANCH   7  10
ENDBRANCH   3   6
TORSDOF 3
ENDMDL
MODEL      170
REMARK 921   NORMALIZED FREE ENERGY PREDICTED BY IDOCK:   -3.13 KCAL/MOL
REMARK 922        TOTAL FREE ENERGY PREDICTED BY IDOCK:   -4.00 KCAL/MOL
REMARK 923 INTER-LIGAND FREE ENERGY PREDICTED BY IDOCK:   -3.61 KCAL/MOL
REMARK 924 INTRA-LIGAND FREE ENERGY PREDICTED BY IDOCK:   -0.39 KCAL/MOL
REMARK 927      BINDING AFFINITY PREDICTED BY RF-SCORE:    0.00 PKD
ROOT
HETATM    1  N   UNL     1      -5.987  11.183  66.414  1.00  0.00    -0.142 N  
HETATM    2  H1  UNL     1      -6.443  12.012  66.032  1.00  0.00     0.000 HD 
HETATM    3  C   UNL     1      -6.688  10.092  66.784  1.00  0.00    -0.077 C  
HETATM    4  H2  UNL     1      -4.972  11.179  66.518  1.00  0.00     0.000 HD 
HETATM    5  O   UNL     1      -6.140   9.096  67.243  1.00  0.00    -0.055 OA 
ENDROOT
BRANCH   3   6
HETATM    6  N   UNL     1      -8.042  10.137  66.609  1.00  0.00    -0.118 N  
HETATM    7  C   UNL     1      -8.744  10.264  65.422  1.00  0.00    -0.169 C  
HETATM    8  H   UNL     1      -8.606  10.069  67.456  1.00  0.00     0.000 HD 
HETATM    9  O   UNL     1      -8.218  10.385  64.316  1.00  0.00    -0.164 OA 
BRANCH   7  10
HETATM   10  C   UNL     1     -10.252  10.265  65.596  1.00  0.00    -0.301 C  
BRANCH  10  11
HETATM   11  C   UNL     1     -10.900  11.557  65.166  1.00  0.00    -0.326 A  
HETATM   12  C   UNL     1     -11.335  11.733  63.843  1.00  0.00    -0.494 A  
HETATM   13  C   UNL     1     -11.964  12.916  63.453  1.00  0.00    -0.612 A  
HETATM   14  C   UNL     1     -12.174  13.932  64.382  1.00  0.00    -0.449 A  
HETATM   15  C   UNL     1     -11.754  13.767  65.700  1.00  0.00    -0.360 A  
HETATM   16  C   UNL     1     -11.121  12.586  66.092  1.00  0.00    -0.336 A  
ENDBRANCH  10  11
ENDBRANCH   7  10
ENDBRANCH   3   6
TORSDOF 3
ENDMDL
MODEL      171
REMARK 921   NORMALIZED FREE ENERGY PREDICTED BY IDOCK:   -3.12 KCAL/MOL
REMARK 922        TOTAL FREE ENERGY PREDICTED BY IDOCK:   -3.99 KCAL/MOL
REMARK 923 INTER-LIGAND FREE ENERGY PREDICTED BY IDOCK:   -3.53 KCAL/MOL
REMARK 924 INTRA-LIGAND FREE ENERGY PREDICTED BY IDOCK:   -0.46 KCAL/MOL
REMARK 927      BINDING AFFINITY PREDICTED BY RF-SCORE:    0.00 PKD
ROOT
HETATM    1  N   UNL     1      -6.632   9.098  70.273  1.00  0.00    -0.047 N  
HETATM    2  H1  UNL     1      -7.156   8.275  69.976  1.00  0.00     0.000 HD 
HETATM    3  C   UNL     1      -7.102  10.348  70.082  1.00  0.00    -0.117 C  
HETATM    4  H2  UNL     1      -5.728   8.972  70.727  1.00  0.00     0.000 HD 
HETATM    5  O   UNL     1      -6.471  11.337  70.440  1.00  0.00    -0.266 OA 
ENDROOT
BRANCH   3   6
HETATM    6  N   UNL     1      -8.326  10.466  69.487  1.00  0.00    -0.304 N  
HETATM    7  C   UNL     1      -9.513   9.857  69.853  1.00  0.00    -0.220 C  
HETATM    8  H   UNL     1      -8.369  11.077  68.671  1.00  0.00     0.000 HD 
HETATM    9  O   UNL     1      -9.628   9.070  70.793  1.00  0.00    -0.206 OA 
BRANCH   7  10
HETATM   10  C   UNL     1     -10.692  10.226  68.970  1.00  0.00    -0.257 C  
BRANCH  10  11
HETATM   11  C   UNL     1     -11.205  11.623  69.216  1.00  0.00    -0.328 A  
HETATM   12  C   UNL     1     -11.117  12.604  68.216  1.00  0.00    -0.295 A  
HETATM   13  C   UNL     1     -11.622  13.887  68.432  1.00  0.00    -0.368 A  
HETATM   14  C   UNL     1     -12.229  14.201  69.646  1.00  0.00    -0.376 A  
HETATM   15  C   UNL     1     -12.329  13.235  70.643  1.00  0.00    -0.416 A  
HETATM   16  C   UNL     1     -11.822  11.951  70.431  1.00  0.00    -0.329 A  
ENDBRANCH  10  11
ENDBRANCH   7  10
ENDBRANCH   3   6
TORSDOF 3
ENDMDL
MODEL      172
REMARK 921   NORMALIZED FREE ENERGY PREDICTED BY IDOCK:   -3.12 KCAL/MOL
REMARK 922        TOTAL FREE ENERGY PREDICTED BY IDOCK:   -3.99 KCAL/MOL
REMARK 923 INTER-LIGAND FREE ENERGY PREDICTED BY IDOCK:   -3.74 KCAL/MOL
REMARK 924 INTRA-LIGAND FREE ENERGY PREDICTED BY IDOCK:   -0.25 KCAL/MOL
REMARK 927      BINDING AFFINITY PREDICTED BY RF-SCORE:    0.00 PKD
ROOT
HETATM    1  N   UNL     1      -9.278   4.306  70.716  1.00  0.00    -0.126 N  
HETATM    2  H1  UNL     1      -8.761   4.422  69.844  1.00  0.00     0.000 HD 
HETATM    3  C   UNL     1      -9.837   5.353  71.356  1.00  0.00    -0.167 C  
HETATM    4  H2  UNL     1      -9.374   3.372  71.115  1.00  0.00     0.000 HD 
HETATM    5  O   UNL     1     -10.458   5.214  72.404  1.00  0.00    -0.203 OA 
ENDROOT
BRANCH   3   6
HETATM    6  N   UNL     1      -9.698   6.581  70.774  1.00  0.00    -0.179 N  
HETATM    7  C   UNL     1     -10.351   7.075  69.659  1.00  0.00    -0.209 C  
HETATM    8  H   UNL     1      -9.029   7.213  71.217  1.00  0.00     0.000 HD 
HETATM    9  O   UNL     1     -11.166   6.434  68.993  1.00  0.00    -0.347 OA 
BRANCH   7  10
HETATM   10  C   UNL     1      -9.961   8.496  69.295  1.00  0.00    -0.195 C  
BRANCH  10  11
HETATM   11  C   UNL     1     -10.895   9.534  69.864  1.00  0.00    -0.272 A  
HETATM   12  C   UNL     1     -11.474   9.358  71.131  1.00  0.00    -0.422 A  
HETATM   13  C   UNL     1     -12.312  10.334  71.672  1.00  0.00    -0.445 A  
HETATM   14  C   UNL     1     -12.574  11.500  70.957  1.00  0.00    -0.457 A  
HETATM   15  C   UNL     1     -12.000  11.691  69.703  1.00  0.00    -0.390 A  
HETATM   16  C   UNL     1     -11.164  10.714  69.158  1.00  0.00    -0.324 A  
ENDBRANCH  10  11
ENDBRANCH   7  10
ENDBRANCH   3   6
TORSDOF 3
ENDMDL
MODEL      173
REMARK 921   NORMALIZED FREE ENERGY PREDICTED BY IDOCK:   -3.11 KCAL/MOL
REMARK 922        TOTAL FREE ENERGY PREDICTED BY IDOCK:   -3.98 KCAL/MOL
REMARK 923 INTER-LIGAND FREE ENERGY PREDICTED BY IDOCK:   -3.71 KCAL/MOL
REMARK 924 INTRA-LIGAND FREE ENERGY PREDICTED BY IDOCK:   -0.26 KCAL/MOL
REMARK 927      BINDING AFFINITY PREDICTED BY RF-SCORE:    0.00 PKD
ROOT
HETATM    1  N   UNL     1      -8.545  12.110  68.010  1.00  0.00    -0.167 N  
HETATM    2  H1  UNL     1      -7.813  12.809  68.144  1.00  0.00     0.000 HD 
HETATM    3  C   UNL     1      -9.827  12.348  68.354  1.00  0.00    -0.198 C  
HETATM    4  H2  UNL     1      -8.299  11.208  67.605  1.00  0.00     0.000 HD 
HETATM    5  O   UNL     1     -10.706  11.509  68.193  1.00  0.00    -0.188 OA 
ENDROOT
BRANCH   3   6
HETATM    6  N   UNL     1     -10.111  13.579  68.876  1.00  0.00    -0.425 N  
HETATM    7  C   UNL     1     -10.728  14.648  68.250  1.00  0.00    -0.239 C  
HETATM    8  H   UNL     1      -9.834  13.728  69.846  1.00  0.00     0.000 HD 
HETATM    9  O   UNL     1     -11.097  14.644  67.075  1.00  0.00    -0.315 OA 
BRANCH   7  10
HETATM   10  C   UNL     1     -10.897  15.867  69.138  1.00  0.00    -0.268 C  
BRANCH  10  11
HETATM   11  C   UNL     1      -9.999  17.015  68.752  1.00  0.00    -0.293 A  
HETATM   12  C   UNL     1     -10.535  18.283  68.481  1.00  0.00    -0.241 A  
HETATM   13  C   UNL     1      -9.700  19.353  68.155  1.00  0.00    -0.470 A  
HETATM   14  C   UNL     1      -8.321  19.170  68.106  1.00  0.00    -0.351 A  
HETATM   15  C   UNL     1      -7.775  17.919  68.380  1.00  0.00    -0.292 A  
HETATM   16  C   UNL     1      -8.608  16.845  68.703  1.00  0.00    -0.267 A  
ENDBRANCH  10  11
ENDBRANCH   7  10
ENDBRANCH   3   6
TORSDOF 3
ENDMDL
MODEL      174
REMARK 921   NORMALIZED FREE ENERGY PREDICTED BY IDOCK:   -3.10 KCAL/MOL
REMARK 922        TOTAL FREE ENERGY PREDICTED BY IDOCK:   -3.96 KCAL/MOL
REMARK 923 INTER-LIGAND FREE ENERGY PREDICTED BY IDOCK:   -3.79 KCAL/MOL
REMARK 924 INTRA-LIGAND FREE ENERGY PREDICTED BY IDOCK:   -0.18 KCAL/MOL
REMARK 927      BINDING AFFINITY PREDICTED BY RF-SCORE:    0.00 PKD
ROOT
HETATM    1  N   UNL     1     -13.098   9.619  70.690  1.00  0.00    -0.570 N  
HETATM    2  H1  UNL     1     -13.703   9.520  69.874  1.00  0.00     0.000 HD 
HETATM    3  C   UNL     1     -11.756   9.541  70.593  1.00  0.00    -0.262 C  
HETATM    4  H2  UNL     1     -13.521   9.783  71.603  1.00  0.00     0.000 HD 
HETATM    5  O   UNL     1     -11.029   9.660  71.574  1.00  0.00    -0.348 OA 
ENDROOT
BRANCH   3   6
HETATM    6  N   UNL     1     -11.235   9.338  69.346  1.00  0.00    -0.436 N  
HETATM    7  C   UNL     1     -11.378  10.135  68.224  1.00  0.00    -0.114 C  
HETATM    8  H   UNL     1     -10.671   8.497  69.228  1.00  0.00     0.000 HD 
HETATM    9  O   UNL     1     -12.048  11.168  68.188  1.00  0.00    -0.633 OA 
BRANCH   7  10
HETATM   10  C   UNL     1     -10.647   9.613  67.001  1.00  0.00    -0.267 C  
BRANCH  10  11
HETATM   11  C   UNL     1     -10.182   8.186  67.150  1.00  0.00    -0.366 A  
HETATM   12  C   UNL     1     -10.998   7.120  66.738  1.00  0.00    -0.051 A  
HETATM   13  C   UNL     1     -10.554   5.802  66.846  1.00  0.00    -0.377 A  
HETATM   14  C   UNL     1      -9.287   5.533  67.357  1.00  0.00    -0.115 A  
HETATM   15  C   UNL     1      -8.465   6.581  67.763  1.00  0.00    -0.118 A  
HETATM   16  C   UNL     1      -8.907   7.902  67.660  1.00  0.00    -0.128 A  
ENDBRANCH  10  11
ENDBRANCH   7  10
ENDBRANCH   3   6
TORSDOF 3
ENDMDL
MODEL      175
REMARK 921   NORMALIZED FREE ENERGY PREDICTED BY IDOCK:   -3.09 KCAL/MOL
REMARK 922        TOTAL FREE ENERGY PREDICTED BY IDOCK:   -3.96 KCAL/MOL
REMARK 923 INTER-LIGAND FREE ENERGY PREDICTED BY IDOCK:   -3.72 KCAL/MOL
REMARK 924 INTRA-LIGAND FREE ENERGY PREDICTED BY IDOCK:   -0.24 KCAL/MOL
REMARK 927      BINDING AFFINITY PREDICTED BY RF-SCORE:    0.00 PKD
ROOT
HETATM    1  N   UNL     1      -9.746  11.895  63.557  1.00  0.00    -0.560 N  
HETATM    2  H1  UNL     1      -9.666  12.839  63.178  1.00  0.00     0.000 HD 
HETATM    3  C   UNL     1     -10.146  11.669  64.825  1.00  0.00    -0.260 C  
HETATM    4  H2  UNL     1      -9.518  11.100  62.960  1.00  0.00     0.000 HD 
HETATM    5  O   UNL     1     -10.243  10.535  65.280  1.00  0.00    -0.298 OA 
ENDROOT
BRANCH   3   6
HETATM    6  N   UNL     1     -10.459  12.764  65.580  1.00  0.00    -0.273 N  
HETATM    7  C   UNL     1      -9.729  13.319  66.618  1.00  0.00    -0.270 C  
HETATM    8  H   UNL     1     -11.337  13.229  65.352  1.00  0.00     0.000 HD 
HETATM    9  O   UNL     1      -8.665  12.865  67.037  1.00  0.00    -0.206 OA 
BRANCH   7  10
HETATM   10  C   UNL     1     -10.372  14.550  67.231  1.00  0.00    -0.260 C  
BRANCH  10  11
HETATM   11  C   UNL     1      -9.446  15.740  67.283  1.00  0.00    -0.217 A  
HETATM   12  C   UNL     1      -9.223  16.421  68.490  1.00  0.00    -0.226 A  
HETATM   13  C   UNL     1      -8.341  17.501  68.544  1.00  0.00    -0.274 A  
HETATM   14  C   UNL     1      -7.666  17.908  67.396  1.00  0.00    -0.217 A  
HETATM   15  C   UNL     1      -7.873  17.236  66.193  1.00  0.00    -0.305 A  
HETATM   16  C   UNL     1      -8.758  16.157  66.135  1.00  0.00    -0.358 A  
ENDBRANCH  10  11
ENDBRANCH   7  10
ENDBRANCH   3   6
TORSDOF 3
ENDMDL
MODEL      176
REMARK 921   NORMALIZED FREE ENERGY PREDICTED BY IDOCK:   -3.08 KCAL/MOL
REMARK 922        TOTAL FREE ENERGY PREDICTED BY IDOCK:   -3.95 KCAL/MOL
REMARK 923 INTER-LIGAND FREE ENERGY PREDICTED BY IDOCK:   -4.02 KCAL/MOL
REMARK 924 INTRA-LIGAND FREE ENERGY PREDICTED BY IDOCK:    0.07 KCAL/MOL
REMARK 927      BINDING AFFINITY PREDICTED BY RF-SCORE:    0.00 PKD
ROOT
HETATM    1  N   UNL     1      -7.365  17.304  66.156  1.00  0.00    -0.304 N  
HETATM    2  H1  UNL     1      -6.883  16.407  66.224  1.00  0.00     0.000 HD 
HETATM    3  C   UNL     1      -8.678  17.429  66.438  1.00  0.00    -0.242 C  
HETATM    4  H2  UNL     1      -6.839  18.129  65.868  1.00  0.00     0.000 HD 
HETATM    5  O   UNL     1      -9.257  18.507  66.356  1.00  0.00    -0.303 OA 
ENDROOT
BRANCH   3   6
HETATM    6  N   UNL     1      -9.337  16.300  66.838  1.00  0.00    -0.216 N  
HETATM    7  C   UNL     1     -10.339  16.190  67.786  1.00  0.00    -0.283 C  
HETATM    8  H   UNL     1      -9.055  15.433  66.382  1.00  0.00     0.000 HD 
HETATM    9  O   UNL     1     -10.775  17.133  68.446  1.00  0.00    -0.361 OA 
BRANCH   7  10
HETATM   10  C   UNL     1     -10.858  14.775  67.970  1.00  0.00    -0.261 C  
BRANCH  10  11
HETATM   11  C   UNL     1     -10.901  13.985  66.686  1.00  0.00    -0.297 A  
HETATM   12  C   UNL     1      -9.936  13.001  66.419  1.00  0.00    -0.277 A  
HETATM   13  C   UNL     1      -9.996  12.248  65.246  1.00  0.00    -0.250 A  
HETATM   14  C   UNL     1     -11.025  12.462  64.332  1.00  0.00    -0.377 A  
HETATM   15  C   UNL     1     -11.992  13.430  64.588  1.00  0.00    -0.441 A  
HETATM   16  C   UNL     1     -11.933  14.188  65.760  1.00  0.00    -0.410 A  
ENDBRANCH  10  11
ENDBRANCH   7  10
ENDBRANCH   3   6
TORSDOF 3
ENDMDL
MODEL      177
REMARK 921   NORMALIZED FREE ENERGY PREDICTED BY IDOCK:   -3.08 KCAL/MOL
REMARK 922        TOTAL FREE ENERGY PREDICTED BY IDOCK:   -3.95 KCAL/MOL
REMARK 923 INTER-LIGAND FREE ENERGY PREDICTED BY IDOCK:   -3.74 KCAL/MOL
REMARK 924 INTRA-LIGAND FREE ENERGY PREDICTED BY IDOCK:   -0.20 KCAL/MOL
REMARK 927      BINDING AFFINITY PREDICTED BY RF-SCORE:    0.00 PKD
ROOT
HETATM    1  N   UNL     1      -7.188   9.530  67.557  1.00  0.00    -0.089 N  
HETATM    2  H1  UNL     1      -7.477   9.666  68.526  1.00  0.00     0.000 HD 
HETATM    3  C   UNL     1      -7.903  10.023  66.526  1.00  0.00    -0.112 C  
HETATM    4  H2  UNL     1      -6.334   9.007  67.364  1.00  0.00     0.000 HD 
HETATM    5  O   UNL     1      -7.555   9.860  65.361  1.00  0.00    -0.119 OA 
ENDROOT
BRANCH   3   6
HETATM    6  N   UNL     1      -9.029  10.732  66.835  1.00  0.00    -0.138 N  
HETATM    7  C   UNL     1     -10.322  10.258  66.976  1.00  0.00    -0.243 C  
HETATM    8  H   UNL     1      -8.902  11.734  66.980  1.00  0.00     0.000 HD 
HETATM    9  O   UNL     1     -10.652   9.084  66.808  1.00  0.00    -0.228 OA 
BRANCH   7  10
HETATM   10  C   UNL     1     -11.334  11.329  67.341  1.00  0.00    -0.349 C  
BRANCH  10  11
HETATM   11  C   UNL     1     -11.664  12.252  66.194  1.00  0.00    -0.440 A  
HETATM   12  C   UNL     1     -11.961  13.604  66.426  1.00  0.00    -0.466 A  
HETATM   13  C   UNL     1     -12.234  14.464  65.362  1.00  0.00    -0.362 A  
HETATM   14  C   UNL     1     -12.203  13.986  64.054  1.00  0.00    -0.395 A  
HETATM   15  C   UNL     1     -11.901  12.649  63.810  1.00  0.00    -0.574 A  
HETATM   16  C   UNL     1     -11.632  11.784  64.873  1.00  0.00    -0.226 A  
ENDBRANCH  10  11
ENDBRANCH   7  10
ENDBRANCH   3   6
TORSDOF 3
ENDMDL
MODEL      178
REMARK 921   NORMALIZED FREE ENERGY PREDICTED BY IDOCK:   -3.05 KCAL/MOL
REMARK 922        TOTAL FREE ENERGY PREDICTED BY IDOCK:   -3.90 KCAL/MOL
REMARK 923 INTER-LIGAND FREE ENERGY PREDICTED BY IDOCK:   -3.47 KCAL/MOL
REMARK 924 INTRA-LIGAND FREE ENERGY PREDICTED BY IDOCK:   -0.44 KCAL/MOL
REMARK 927      BINDING AFFINITY PREDICTED BY RF-SCORE:    0.00 PKD
ROOT
HETATM    1  N   UNL     1     -11.336   4.618  65.397  1.00  0.00    -0.963 N  
HETATM    2  H1  UNL     1     -11.912   5.342  65.829  1.00  0.00     0.000 HD 
HETATM    3  C   UNL     1      -9.992   4.711  65.354  1.00  0.00    -0.148 C  
HETATM    4  H2  UNL     1     -11.791   3.803  64.987  1.00  0.00     0.000 HD 
HETATM    5  O   UNL     1      -9.300   3.841  64.835  1.00  0.00    -0.137 OA 
ENDROOT
BRANCH   3   6
HETATM    6  N   UNL     1      -9.427   5.813  65.932  1.00  0.00    -0.324 N  
HETATM    7  C   UNL     1      -9.718   6.371  67.164  1.00  0.00    -0.141 C  
HETATM    8  H   UNL     1      -8.703   6.282  65.388  1.00  0.00     0.000 HD 
HETATM    9  O   UNL     1     -10.583   5.946  67.931  1.00  0.00    -0.218 OA 
BRANCH   7  10
HETATM   10  C   UNL     1      -8.882   7.594  67.499  1.00  0.00    -0.124 C  
BRANCH  10  11
HETATM   11  C   UNL     1      -9.677   8.875  67.499  1.00  0.00    -0.216 A  
HETATM   12  C   UNL     1      -9.955   9.545  68.701  1.00  0.00    -0.181 A  
HETATM   13  C   UNL     1     -10.662  10.748  68.697  1.00  0.00    -0.242 A  
HETATM   14  C   UNL     1     -11.090  11.301  67.492  1.00  0.00    -0.346 A  
HETATM   15  C   UNL     1     -10.814  10.651  66.292  1.00  0.00    -0.097 A  
HETATM   16  C   UNL     1     -10.110   9.444  66.293  1.00  0.00    -0.328 A  
ENDBRANCH  10  11
ENDBRANCH   7  10
ENDBRANCH   3   6
TORSDOF 3
ENDMDL
MODEL      179
REMARK 921   NORMALIZED FREE ENERGY PREDICTED BY IDOCK:   -3.04 KCAL/MOL
REMARK 922        TOTAL FREE ENERGY PREDICTED BY IDOCK:   -3.90 KCAL/MOL
REMARK 923 INTER-LIGAND FREE ENERGY PREDICTED BY IDOCK:   -3.68 KCAL/MOL
REMARK 924 INTRA-LIGAND FREE ENERGY PREDICTED BY IDOCK:   -0.23 KCAL/MOL
REMARK 927      BINDING AFFINITY PREDICTED BY RF-SCORE:    0.00 PKD
ROOT
HETATM    1  N   UNL     1      -6.621  12.789  69.710  1.00  0.00    -0.343 N  
HETATM    2  H1  UNL     1      -7.269  12.222  69.164  1.00  0.00     0.000 HD 
HETATM    3  C   UNL     1      -6.578  14.132  69.593  1.00  0.00    -0.120 C  
HETATM    4  H2  UNL     1      -5.987  12.328  70.363  1.00  0.00     0.000 HD 
HETATM    5  O   UNL     1      -5.799  14.814  70.249  1.00  0.00    -0.131 OA 
ENDROOT
BRANCH   3   6
HETATM    6  N   UNL     1      -7.458  14.706  68.719  1.00  0.00    -0.128 N  
HETATM    7  C   UNL     1      -7.175  15.378  67.543  1.00  0.00    -0.196 C  
HETATM    8  H   UNL     1      -8.446  14.630  68.964  1.00  0.00     0.000 HD 
HETATM    9  O   UNL     1      -6.037  15.582  67.118  1.00  0.00    -0.319 OA 
BRANCH   7  10
HETATM   10  C   UNL     1      -8.405  15.878  66.808  1.00  0.00    -0.306 C  
BRANCH  10  11
HETATM   11  C   UNL     1      -8.756  17.307  67.138  1.00  0.00    -0.231 A  
HETATM   12  C   UNL     1      -8.284  18.363  66.342  1.00  0.00    -0.280 A  
HETATM   13  C   UNL     1      -8.637  19.682  66.630  1.00  0.00    -0.380 A  
HETATM   14  C   UNL     1      -9.472  19.961  67.709  1.00  0.00    -0.474 A  
HETATM   15  C   UNL     1      -9.953  18.923  68.502  1.00  0.00    -0.463 A  
HETATM   16  C   UNL     1      -9.599  17.601  68.219  1.00  0.00    -0.306 A  
ENDBRANCH  10  11
ENDBRANCH   7  10
ENDBRANCH   3   6
TORSDOF 3
ENDMDL
MODEL      180
REMARK 921   NORMALIZED FREE ENERGY PREDICTED BY IDOCK:   -3.02 KCAL/MOL
REMARK 922        TOTAL FREE ENERGY PREDICTED BY IDOCK:   -3.87 KCAL/MOL
REMARK 923 INTER-LIGAND FREE ENERGY PREDICTED BY IDOCK:   -3.73 KCAL/MOL
REMARK 924 INTRA-LIGAND FREE ENERGY PREDICTED BY IDOCK:   -0.14 KCAL/MOL
REMARK 927      BINDING AFFINITY PREDICTED BY RF-SCORE:    0.00 PKD
ROOT
HETATM    1  N   UNL     1     -10.275  20.418  65.517  1.00  0.00    -0.400 N  
HETATM    2  H1  UNL     1      -9.723  20.281  64.670  1.00  0.00     0.000 HD 
HETATM    3  C   UNL     1     -10.049  19.702  66.637  1.00  0.00    -0.445 C  
HETATM    4  H2  UNL     1     -11.017  21.117  65.517  1.00  0.00     0.000 HD 
HETATM    5  O   UNL     1     -10.712  19.866  67.655  1.00  0.00    -0.375 OA 
ENDROOT
BRANCH   3   6
HETATM    6  N   UNL     1      -9.031  18.790  66.595  1.00  0.00    -0.306 N  
HETATM    7  C   UNL     1      -7.736  18.981  66.147  1.00  0.00    -0.271 C  
HETATM    8  H   UNL     1      -9.254  17.855  66.936  1.00  0.00     0.000 HD 
HETATM    9  O   UNL     1      -7.313  20.038  65.679  1.00  0.00    -0.323 OA 
BRANCH   7  10
HETATM   10  C   UNL     1      -6.859  17.746  66.258  1.00  0.00    -0.308 C  
BRANCH  10  11
HETATM   11  C   UNL     1      -7.510  16.621  67.023  1.00  0.00    -0.239 A  
HETATM   12  C   UNL     1      -8.368  15.718  66.376  1.00  0.00    -0.267 A  
HETATM   13  C   UNL     1      -8.944  14.658  67.077  1.00  0.00    -0.258 A  
HETATM   14  C   UNL     1      -8.661  14.482  68.429  1.00  0.00    -0.172 A  
HETATM   15  C   UNL     1      -7.805  15.366  69.081  1.00  0.00    -0.212 A  
HETATM   16  C   UNL     1      -7.230  16.431  68.383  1.00  0.00    -0.158 A  
ENDBRANCH  10  11
ENDBRANCH   7  10
ENDBRANCH   3   6
TORSDOF 3
ENDMDL
MODEL      181
REMARK 921   NORMALIZED FREE ENERGY PREDICTED BY IDOCK:   -3.01 KCAL/MOL
REMARK 922        TOTAL FREE ENERGY PREDICTED BY IDOCK:   -3.86 KCAL/MOL
REMARK 923 INTER-LIGAND FREE ENERGY PREDICTED BY IDOCK:   -3.85 KCAL/MOL
REMARK 924 INTRA-LIGAND FREE ENERGY PREDICTED BY IDOCK:   -0.01 KCAL/MOL
REMARK 927      BINDING AFFINITY PREDICTED BY RF-SCORE:    0.00 PKD
ROOT
HETATM    1  N   UNL     1     -10.159  20.220  65.573  1.00  0.00    -0.438 N  
HETATM    2  H1  UNL     1      -9.412  20.166  64.880  1.00  0.00     0.000 HD 
HETATM    3  C   UNL     1     -10.258  19.332  66.583  1.00  0.00    -0.421 C  
HETATM    4  H2  UNL     1     -10.849  20.967  65.500  1.00  0.00     0.000 HD 
HETATM    5  O   UNL     1     -11.156  19.397  67.416  1.00  0.00    -0.445 OA 
ENDROOT
BRANCH   3   6
HETATM    6  N   UNL     1      -9.300  18.361  66.650  1.00  0.00    -0.297 N  
HETATM    7  C   UNL     1      -9.341  17.085  66.114  1.00  0.00    -0.214 C  
HETATM    8  H   UNL     1      -8.449  18.605  67.158  1.00  0.00     0.000 HD 
HETATM    9  O   UNL     1     -10.301  16.623  65.498  1.00  0.00    -0.533 OA 
BRANCH   7  10
HETATM   10  C   UNL     1      -8.086  16.270  66.370  1.00  0.00    -0.334 C  
BRANCH  10  11
HETATM   11  C   UNL     1      -7.119  16.945  67.310  1.00  0.00    -0.197 A  
HETATM   12  C   UNL     1      -7.245  16.789  68.699  1.00  0.00    -0.207 A  
HETATM   13  C   UNL     1      -6.330  17.387  69.568  1.00  0.00    -0.233 A  
HETATM   14  C   UNL     1      -5.275  18.139  69.057  1.00  0.00    -0.183 A  
HETATM   15  C   UNL     1      -5.134  18.295  67.681  1.00  0.00    -0.140 A  
HETATM   16  C   UNL     1      -6.050  17.701  66.809  1.00  0.00    -0.206 A  
ENDBRANCH  10  11
ENDBRANCH   7  10
ENDBRANCH   3   6
TORSDOF 3
ENDMDL
MODEL      182
REMARK 921   NORMALIZED FREE ENERGY PREDICTED BY IDOCK:   -2.98 KCAL/MOL
REMARK 922        TOTAL FREE ENERGY PREDICTED BY IDOCK:   -3.83 KCAL/MOL
REMARK 923 INTER-LIGAND FREE ENERGY PREDICTED BY IDOCK:   -3.47 KCAL/MOL
REMARK 924 INTRA-LIGAND FREE ENERGY PREDICTED BY IDOCK:   -0.35 KCAL/MOL
REMARK 927      BINDING AFFINITY PREDICTED BY RF-SCORE:    0.00 PKD
ROOT
HETATM    1  N   UNL     1     -11.036  16.720  69.803  1.00  0.00    -0.388 N  
HETATM    2  H1  UNL     1     -10.777  15.820  70.209  1.00  0.00     0.000 HD 
HETATM    3  C   UNL     1     -10.614  17.096  68.579  1.00  0.00    -0.361 C  
HETATM    4  H2  UNL     1     -11.631  17.351  70.338  1.00  0.00     0.000 HD 
HETATM    5  O   UNL     1     -10.925  18.177  68.091  1.00  0.00    -0.213 OA 
ENDROOT
BRANCH   3   6
HETATM    6  N   UNL     1      -9.833  16.208  67.893  1.00  0.00    -0.233 N  
HETATM    7  C   UNL     1      -9.978  14.834  67.809  1.00  0.00    -0.223 C  
HETATM    8  H   UNL     1      -9.047  16.607  67.379  1.00  0.00     0.000 HD 
HETATM    9  O   UNL     1     -10.854  14.193  68.390  1.00  0.00    -0.241 OA 
BRANCH   7  10
HETATM   10  C   UNL     1      -8.932  14.157  66.942  1.00  0.00    -0.247 C  
BRANCH  10  11
HETATM   11  C   UNL     1      -9.458  12.945  66.213  1.00  0.00    -0.205 A  
HETATM   12  C   UNL     1      -9.371  11.669  66.791  1.00  0.00    -0.193 A  
HETATM   13  C   UNL     1      -9.887  10.553  66.131  1.00  0.00    -0.271 A  
HETATM   14  C   UNL     1     -10.504  10.701  64.891  1.00  0.00    -0.282 A  
HETATM   15  C   UNL     1     -10.603  11.962  64.310  1.00  0.00    -0.381 A  
HETATM   16  C   UNL     1     -10.084  13.081  64.967  1.00  0.00    -0.234 A  
ENDBRANCH  10  11
ENDBRANCH   7  10
ENDBRANCH   3   6
TORSDOF 3
ENDMDL
MODEL      183
REMARK 921   NORMALIZED FREE ENERGY PREDICTED BY IDOCK:   -2.98 KCAL/MOL
REMARK 922        TOTAL FREE ENERGY PREDICTED BY IDOCK:   -3.82 KCAL/MOL
REMARK 923 INTER-LIGAND FREE ENERGY PREDICTED BY IDOCK:   -3.41 KCAL/MOL
REMARK 924 INTRA-LIGAND FREE ENERGY PREDICTED BY IDOCK:   -0.41 KCAL/MOL
REMARK 927      BINDING AFFINITY PREDICTED BY RF-SCORE:    0.00 PKD
ROOT
HETATM    1  N   UNL     1      -6.767  13.922  68.570  1.00  0.00    -0.091 N  
HETATM    2  H1  UNL     1      -7.627  14.127  69.080  1.00  0.00     0.000 HD 
HETATM    3  C   UNL     1      -6.690  12.907  67.685  1.00  0.00    -0.153 C  
HETATM    4  H2  UNL     1      -5.944  14.501  68.734  1.00  0.00     0.000 HD 
HETATM    5  O   UNL     1      -5.657  12.661  67.072  1.00  0.00    -0.338 OA 
ENDROOT
BRANCH   3   6
HETATM    6  N   UNL     1      -7.824  12.171  67.486  1.00  0.00    -0.151 N  
HETATM    7  C   UNL     1      -9.061  12.614  67.049  1.00  0.00    -0.215 C  
HETATM    8  H   UNL     1      -7.750  11.173  67.683  1.00  0.00     0.000 HD 
HETATM    9  O   UNL     1      -9.326  13.789  66.794  1.00  0.00    -0.253 OA 
BRANCH   7  10
HETATM   10  C   UNL     1     -10.099  11.514  66.926  1.00  0.00    -0.241 C  
BRANCH  10  11
HETATM   11  C   UNL     1     -10.637  11.051  68.257  1.00  0.00    -0.220 A  
HETATM   12  C   UNL     1     -10.118   9.904  68.878  1.00  0.00    -0.194 A  
HETATM   13  C   UNL     1     -10.593   9.496  70.126  1.00  0.00    -0.298 A  
HETATM   14  C   UNL     1     -11.583  10.233  70.770  1.00  0.00    -0.446 A  
HETATM   15  C   UNL     1     -12.100  11.377  70.168  1.00  0.00    -0.439 A  
HETATM   16  C   UNL     1     -11.630  11.787  68.919  1.00  0.00    -0.370 A  
ENDBRANCH  10  11
ENDBRANCH   7  10
ENDBRANCH   3   6
TORSDOF 3
ENDMDL
MODEL      184
REMARK 921   NORMALIZED FREE ENERGY PREDICTED BY IDOCK:   -2.93 KCAL/MOL
REMARK 922        TOTAL FREE ENERGY PREDICTED BY IDOCK:   -3.77 KCAL/MOL
REMARK 923 INTER-LIGAND FREE ENERGY PREDICTED BY IDOCK:   -3.32 KCAL/MOL
REMARK 924 INTRA-LIGAND FREE ENERGY PREDICTED BY IDOCK:   -0.46 KCAL/MOL
REMARK 927      BINDING AFFINITY PREDICTED BY RF-SCORE:    0.00 PKD
ROOT
HETATM    1  N   UNL     1      -6.316  11.359  66.239  1.00  0.00    -0.350 N  
HETATM    2  H1  UNL     1      -6.957  12.151  66.189  1.00  0.00     0.000 HD 
HETATM    3  C   UNL     1      -6.743  10.114  66.534  1.00  0.00    -0.085 C  
HETATM    4  H2  UNL     1      -5.324  11.513  66.060  1.00  0.00     0.000 HD 
HETATM    5  O   UNL     1      -5.972   9.163  66.593  1.00  0.00    -0.057 OA 
ENDROOT
BRANCH   3   6
HETATM    6  N   UNL     1      -8.083   9.954  66.748  1.00  0.00    -0.116 N  
HETATM    7  C   UNL     1      -9.123  10.219  65.874  1.00  0.00    -0.163 C  
HETATM    8  H   UNL     1      -8.350   9.595  67.665  1.00  0.00     0.000 HD 
HETATM    9  O   UNL     1      -8.976  10.681  64.742  1.00  0.00    -0.190 OA 
BRANCH   7  10
HETATM   10  C   UNL     1     -10.497   9.909  66.440  1.00  0.00    -0.197 C  
BRANCH  10  11
HETATM   11  C   UNL     1     -10.968  10.926  67.449  1.00  0.00    -0.353 A  
HETATM   12  C   UNL     1     -11.312  12.226  67.047  1.00  0.00    -0.395 A  
HETATM   13  C   UNL     1     -11.780  13.157  67.976  1.00  0.00    -0.394 A  
HETATM   14  C   UNL     1     -11.916  12.797  69.314  1.00  0.00    -0.300 A  
HETATM   15  C   UNL     1     -11.585  11.509  69.725  1.00  0.00    -0.401 A  
HETATM   16  C   UNL     1     -11.114  10.576  68.799  1.00  0.00    -0.315 A  
ENDBRANCH  10  11
ENDBRANCH   7  10
ENDBRANCH   3   6
TORSDOF 3
ENDMDL
MODEL      185
REMARK 921   NORMALIZED FREE ENERGY PREDICTED BY IDOCK:   -2.93 KCAL/MOL
REMARK 922        TOTAL FREE ENERGY PREDICTED BY IDOCK:   -3.77 KCAL/MOL
REMARK 923 INTER-LIGAND FREE ENERGY PREDICTED BY IDOCK:   -3.58 KCAL/MOL
REMARK 924 INTRA-LIGAND FREE ENERGY PREDICTED BY IDOCK:   -0.19 KCAL/MOL
REMARK 927      BINDING AFFINITY PREDICTED BY RF-SCORE:    0.00 PKD
ROOT
HETATM    1  N   UNL     1      -9.575   5.362  72.472  1.00  0.00    -0.149 N  
HETATM    2  H1  UNL     1      -9.403   5.976  71.676  1.00  0.00     0.000 HD 
HETATM    3  C   UNL     1     -10.323   5.752  73.524  1.00  0.00    -0.236 C  
HETATM    4  H2  UNL     1      -9.170   4.426  72.472  1.00  0.00     0.000 HD 
HETATM    5  O   UNL     1     -10.530   5.013  74.480  1.00  0.00    -0.276 OA 
ENDROOT
BRANCH   3   6
HETATM    6  N   UNL     1     -10.860   7.007  73.471  1.00  0.00    -0.540 N  
HETATM    7  C   UNL     1     -11.924   7.447  72.701  1.00  0.00    -0.057 C  
HETATM    8  H   UNL     1     -10.423   7.706  74.071  1.00  0.00     0.000 HD 
HETATM    9  O   UNL     1     -12.542   6.740  71.905  1.00  0.00    -0.345 OA 
BRANCH   7  10
HETATM   10  C   UNL     1     -12.265   8.912  72.904  1.00  0.00     0.313 C  
BRANCH  10  11
HETATM   11  C   UNL     1     -11.989   9.761  71.687  1.00  0.00    -0.454 A  
HETATM   12  C   UNL     1     -11.172   9.282  70.651  1.00  0.00    -0.333 A  
HETATM   13  C   UNL     1     -10.945  10.054  69.511  1.00  0.00    -0.289 A  
HETATM   14  C   UNL     1     -11.538  11.308  69.389  1.00  0.00    -0.390 A  
HETATM   15  C   UNL     1     -12.357  11.791  70.407  1.00  0.00    -0.362 A  
HETATM   16  C   UNL     1     -12.584  11.023  71.550  1.00  0.00    -0.461 A  
ENDBRANCH  10  11
ENDBRANCH   7  10
ENDBRANCH   3   6
TORSDOF 3
ENDMDL
MODEL      186
REMARK 921   NORMALIZED FREE ENERGY PREDICTED BY IDOCK:   -2.89 KCAL/MOL
REMARK 922        TOTAL FREE ENERGY PREDICTED BY IDOCK:   -3.73 KCAL/MOL
REMARK 923 INTER-LIGAND FREE ENERGY PREDICTED BY IDOCK:   -3.48 KCAL/MOL
REMARK 924 INTRA-LIGAND FREE ENERGY PREDICTED BY IDOCK:   -0.25 KCAL/MOL
REMARK 927      BINDING AFFINITY PREDICTED BY RF-SCORE:    0.00 PKD
ROOT
HETATM    1  N   UNL     1     -10.283   8.598  72.168  1.00  0.00    -0.326 N  
HETATM    2  H1  UNL     1      -9.333   8.859  71.902  1.00  0.00     0.000 HD 
HETATM    3  C   UNL     1     -11.178   8.154  71.263  1.00  0.00    -0.260 C  
HETATM    4  H2  UNL     1     -10.562   8.675  73.145  1.00  0.00     0.000 HD 
HETATM    5  O   UNL     1     -12.319   7.840  71.582  1.00  0.00    -0.300 OA 
ENDROOT
BRANCH   3   6
HETATM    6  N   UNL     1     -10.752   8.050  69.968  1.00  0.00    -0.243 N  
HETATM    7  C   UNL     1      -9.691   8.704  69.366  1.00  0.00    -0.176 C  
HETATM    8  H   UNL     1     -11.281   7.413  69.373  1.00  0.00     0.000 HD 
HETATM    9  O   UNL     1      -8.970   9.525  69.934  1.00  0.00    -0.177 OA 
BRANCH   7  10
HETATM   10  C   UNL     1      -9.492   8.339  67.906  1.00  0.00    -0.163 C  
BRANCH  10  11
HETATM   11  C   UNL     1      -9.884   9.443  66.958  1.00  0.00    -0.258 A  
HETATM   12  C   UNL     1      -9.288   9.545  65.691  1.00  0.00    -0.302 A  
HETATM   13  C   UNL     1      -9.675  10.548  64.801  1.00  0.00    -0.365 A  
HETATM   14  C   UNL     1     -10.669  11.454  65.163  1.00  0.00    -0.332 A  
HETATM   15  C   UNL     1     -11.275  11.359  66.413  1.00  0.00    -0.250 A  
HETATM   16  C   UNL     1     -10.886  10.359  67.308  1.00  0.00    -0.324 A  
ENDBRANCH  10  11
ENDBRANCH   7  10
ENDBRANCH   3   6
TORSDOF 3
ENDMDL
MODEL      187
REMARK 921   NORMALIZED FREE ENERGY PREDICTED BY IDOCK:   -2.89 KCAL/MOL
REMARK 922        TOTAL FREE ENERGY PREDICTED BY IDOCK:   -3.72 KCAL/MOL
REMARK 923 INTER-LIGAND FREE ENERGY PREDICTED BY IDOCK:   -3.37 KCAL/MOL
REMARK 924 INTRA-LIGAND FREE ENERGY PREDICTED BY IDOCK:   -0.35 KCAL/MOL
REMARK 927      BINDING AFFINITY PREDICTED BY RF-SCORE:    0.00 PKD
ROOT
HETATM    1  N   UNL     1     -11.374   6.224  72.125  1.00  0.00    -0.282 N  
HETATM    2  H1  UNL     1     -10.452   5.929  71.803  1.00  0.00     0.000 HD 
HETATM    3  C   UNL     1     -12.291   6.740  71.282  1.00  0.00    -0.344 C  
HETATM    4  H2  UNL     1     -11.609   6.125  73.113  1.00  0.00     0.000 HD 
HETATM    5  O   UNL     1     -13.400   7.094  71.668  1.00  0.00    -0.376 OA 
ENDROOT
BRANCH   3   6
HETATM    6  N   UNL     1     -11.937   6.836  69.965  1.00  0.00    -0.656 N  
HETATM    7  C   UNL     1     -11.019   6.066  69.272  1.00  0.00    -0.366 C  
HETATM    8  H   UNL     1     -12.407   7.564  69.427  1.00  0.00     0.000 HD 
HETATM    9  O   UNL     1     -10.347   5.167  69.777  1.00  0.00    -0.271 OA 
BRANCH   7  10
HETATM   10  C   UNL     1     -10.884   6.441  67.807  1.00  0.00    -0.418 C  
BRANCH  10  11
HETATM   11  C   UNL     1      -9.455   6.659  67.378  1.00  0.00    -0.143 A  
HETATM   12  C   UNL     1      -8.900   5.910  66.329  1.00  0.00    -0.143 A  
HETATM   13  C   UNL     1      -7.588   6.135  65.910  1.00  0.00    -0.087 A  
HETATM   14  C   UNL     1      -6.819   7.118  66.529  1.00  0.00    -0.065 A  
HETATM   15  C   UNL     1      -7.360   7.874  67.566  1.00  0.00    -0.092 A  
HETATM   16  C   UNL     1      -8.671   7.648  67.989  1.00  0.00    -0.125 A  
ENDBRANCH  10  11
ENDBRANCH   7  10
ENDBRANCH   3   6
TORSDOF 3
ENDMDL
MODEL      188
REMARK 921   NORMALIZED FREE ENERGY PREDICTED BY IDOCK:   -2.88 KCAL/MOL
REMARK 922        TOTAL FREE ENERGY PREDICTED BY IDOCK:   -3.71 KCAL/MOL
REMARK 923 INTER-LIGAND FREE ENERGY PREDICTED BY IDOCK:   -3.31 KCAL/MOL
REMARK 924 INTRA-LIGAND FREE ENERGY PREDICTED BY IDOCK:   -0.41 KCAL/MOL
REMARK 927      BINDING AFFINITY PREDICTED BY RF-SCORE:    0.00 PKD
ROOT
HETATM    1  N   UNL     1      -7.296  14.714  69.130  1.00  0.00    -0.138 N  
HETATM    2  H1  UNL     1      -7.147  13.722  68.946  1.00  0.00     0.000 HD 
HETATM    3  C   UNL     1      -8.532  15.253  69.161  1.00  0.00    -0.234 C  
HETATM    4  H2  UNL     1      -6.489  15.314  69.295  1.00  0.00     0.000 HD 
HETATM    5  O   UNL     1      -8.712  16.446  69.382  1.00  0.00    -0.174 OA 
ENDROOT
BRANCH   3   6
HETATM    6  N   UNL     1      -9.584  14.406  68.953  1.00  0.00    -0.346 N  
HETATM    7  C   UNL     1      -9.816  13.590  67.859  1.00  0.00    -0.235 C  
HETATM    8  H   UNL     1     -10.283  14.370  69.694  1.00  0.00     0.000 HD 
HETATM    9  O   UNL     1      -9.087  13.534  66.869  1.00  0.00    -0.238 OA 
BRANCH   7  10
HETATM   10  C   UNL     1     -11.085  12.764  67.966  1.00  0.00    -0.284 C  
BRANCH  10  11
HETATM   11  C   UNL     1     -10.822  11.287  68.123  1.00  0.00    -0.263 A  
HETATM   12  C   UNL     1     -10.771  10.700  69.397  1.00  0.00    -0.281 A  
HETATM   13  C   UNL     1     -10.561   9.328  69.540  1.00  0.00    -0.236 A  
HETATM   14  C   UNL     1     -10.408   8.526  68.412  1.00  0.00    -0.241 A  
HETATM   15  C   UNL     1     -10.463   9.094  67.142  1.00  0.00    -0.325 A  
HETATM   16  C   UNL     1     -10.670  10.467  66.995  1.00  0.00    -0.310 A  
ENDBRANCH  10  11
ENDBRANCH   7  10
ENDBRANCH   3   6
TORSDOF 3
ENDMDL
MODEL      189
REMARK 921   NORMALIZED FREE ENERGY PREDICTED BY IDOCK:   -2.88 KCAL/MOL
REMARK 922        TOTAL FREE ENERGY PREDICTED BY IDOCK:   -3.70 KCAL/MOL
REMARK 923 INTER-LIGAND FREE ENERGY PREDICTED BY IDOCK:   -3.53 KCAL/MOL
REMARK 924 INTRA-LIGAND FREE ENERGY PREDICTED BY IDOCK:   -0.18 KCAL/MOL
REMARK 927      BINDING AFFINITY PREDICTED BY RF-SCORE:    0.00 PKD
ROOT
HETATM    1  N   UNL     1      -8.289  10.076  63.315  1.00  0.00    -0.155 N  
HETATM    2  H1  UNL     1      -8.841  10.922  63.456  1.00  0.00     0.000 HD 
HETATM    3  C   UNL     1      -8.505   8.956  64.034  1.00  0.00    -0.133 C  
HETATM    4  H2  UNL     1      -7.553  10.077  62.609  1.00  0.00     0.000 HD 
HETATM    5  O   UNL     1      -7.841   7.939  63.864  1.00  0.00    -0.134 OA 
ENDROOT
BRANCH   3   6
HETATM    6  N   UNL     1      -9.514   8.996  64.955  1.00  0.00    -0.430 N  
HETATM    7  C   UNL     1      -9.407   9.035  66.335  1.00  0.00    -0.206 C  
HETATM    8  H   UNL     1     -10.462   8.998  64.580  1.00  0.00     0.000 HD 
HETATM    9  O   UNL     1      -8.340   9.011  66.948  1.00  0.00    -0.117 OA 
BRANCH   7  10
HETATM   10  C   UNL     1     -10.743   9.088  67.054  1.00  0.00    -0.185 C  
BRANCH  10  11
HETATM   11  C   UNL     1     -11.146  10.484  67.458  1.00  0.00    -0.358 A  
HETATM   12  C   UNL     1     -11.219  11.512  66.505  1.00  0.00    -0.324 A  
HETATM   13  C   UNL     1     -11.625  12.795  66.874  1.00  0.00    -0.428 A  
HETATM   14  C   UNL     1     -11.970  13.064  68.196  1.00  0.00    -0.322 A  
HETATM   15  C   UNL     1     -11.908  12.052  69.150  1.00  0.00    -0.369 A  
HETATM   16  C   UNL     1     -11.500  10.767  68.785  1.00  0.00    -0.364 A  
ENDBRANCH  10  11
ENDBRANCH   7  10
ENDBRANCH   3   6
TORSDOF 3
ENDMDL
MODEL      190
REMARK 921   NORMALIZED FREE ENERGY PREDICTED BY IDOCK:   -2.87 KCAL/MOL
REMARK 922        TOTAL FREE ENERGY PREDICTED BY IDOCK:   -3.70 KCAL/MOL
REMARK 923 INTER-LIGAND FREE ENERGY PREDICTED BY IDOCK:   -3.84 KCAL/MOL
REMARK 924 INTRA-LIGAND FREE ENERGY PREDICTED BY IDOCK:    0.14 KCAL/MOL
REMARK 927      BINDING AFFINITY PREDICTED BY RF-SCORE:    0.00 PKD
ROOT
HETATM    1  N   UNL     1      -6.802  13.915  68.530  1.00  0.00    -0.090 N  
HETATM    2  H1  UNL     1      -7.644  14.115  69.070  1.00  0.00     0.000 HD 
HETATM    3  C   UNL     1      -6.764  12.933  67.607  1.00  0.00    -0.153 C  
HETATM    4  H2  UNL     1      -5.965  14.474  68.693  1.00  0.00     0.000 HD 
HETATM    5  O   UNL     1      -5.752  12.692  66.959  1.00  0.00    -0.330 OA 
ENDROOT
BRANCH   3   6
HETATM    6  N   UNL     1      -7.915  12.223  67.411  1.00  0.00    -0.162 N  
HETATM    7  C   UNL     1      -8.123  11.158  66.551  1.00  0.00    -0.163 C  
HETATM    8  H   UNL     1      -8.720  12.513  67.966  1.00  0.00     0.000 HD 
HETATM    9  O   UNL     1      -7.267  10.703  65.792  1.00  0.00    -0.144 OA 
BRANCH   7  10
HETATM   10  C   UNL     1      -9.532  10.594  66.599  1.00  0.00    -0.195 C  
BRANCH  10  11
HETATM   11  C   UNL     1     -10.534  11.433  65.847  1.00  0.00    -0.309 A  
HETATM   12  C   UNL     1     -11.353  12.350  66.525  1.00  0.00    -0.392 A  
HETATM   13  C   UNL     1     -12.257  13.150  65.825  1.00  0.00    -0.514 A  
HETATM   14  C   UNL     1     -12.347  13.050  64.439  1.00  0.00    -0.442 A  
HETATM   15  C   UNL     1     -11.536  12.149  63.753  1.00  0.00    -0.548 A  
HETATM   16  C   UNL     1     -10.632  11.345  64.451  1.00  0.00    -0.403 A  
ENDBRANCH  10  11
ENDBRANCH   7  10
ENDBRANCH   3   6
TORSDOF 3
ENDMDL
MODEL      191
REMARK 921   NORMALIZED FREE ENERGY PREDICTED BY IDOCK:   -2.86 KCAL/MOL
REMARK 922        TOTAL FREE ENERGY PREDICTED BY IDOCK:   -3.69 KCAL/MOL
REMARK 923 INTER-LIGAND FREE ENERGY PREDICTED BY IDOCK:   -3.24 KCAL/MOL
REMARK 924 INTRA-LIGAND FREE ENERGY PREDICTED BY IDOCK:   -0.44 KCAL/MOL
REMARK 927      BINDING AFFINITY PREDICTED BY RF-SCORE:    0.00 PKD
ROOT
HETATM    1  N   UNL     1     -12.520   8.356  72.661  1.00  0.00    -0.587 N  
HETATM    2  H1  UNL     1     -13.143   8.467  71.861  1.00  0.00     0.000 HD 
HETATM    3  C   UNL     1     -11.522   7.449  72.664  1.00  0.00    -0.291 C  
HETATM    4  H2  UNL     1     -12.654   8.948  73.480  1.00  0.00     0.000 HD 
HETATM    5  O   UNL     1     -10.772   7.316  73.625  1.00  0.00    -0.378 OA 
ENDROOT
BRANCH   3   6
HETATM    6  N   UNL     1     -11.368   6.692  71.537  1.00  0.00    -0.268 N  
HETATM    7  C   UNL     1     -11.182   7.128  70.237  1.00  0.00    -0.276 C  
HETATM    8  H   UNL     1     -11.395   5.681  71.670  1.00  0.00     0.000 HD 
HETATM    9  O   UNL     1     -11.153   8.312  69.900  1.00  0.00    -0.210 OA 
BRANCH   7  10
HETATM   10  C   UNL     1     -11.033   6.005  69.226  1.00  0.00    -0.436 C  
BRANCH  10  11
HETATM   11  C   UNL     1      -9.663   5.374  69.234  1.00  0.00    -0.224 A  
HETATM   12  C   UNL     1      -9.518   3.978  69.229  1.00  0.00    -0.260 A  
HETATM   13  C   UNL     1      -8.250   3.396  69.203  1.00  0.00    -0.075 A  
HETATM   14  C   UNL     1      -7.114   4.201  69.173  1.00  0.00    -0.050 A  
HETATM   15  C   UNL     1      -7.244   5.587  69.171  1.00  0.00    -0.069 A  
HETATM   16  C   UNL     1      -8.512   6.173  69.200  1.00  0.00    -0.119 A  
ENDBRANCH  10  11
ENDBRANCH   7  10
ENDBRANCH   3   6
TORSDOF 3
ENDMDL
MODEL      192
REMARK 921   NORMALIZED FREE ENERGY PREDICTED BY IDOCK:   -2.86 KCAL/MOL
REMARK 922        TOTAL FREE ENERGY PREDICTED BY IDOCK:   -3.68 KCAL/MOL
REMARK 923 INTER-LIGAND FREE ENERGY PREDICTED BY IDOCK:   -3.71 KCAL/MOL
REMARK 924 INTRA-LIGAND FREE ENERGY PREDICTED BY IDOCK:    0.03 KCAL/MOL
REMARK 927      BINDING AFFINITY PREDICTED BY RF-SCORE:    0.00 PKD
ROOT
HETATM    1  N   UNL     1      -8.748   4.210  66.281  1.00  0.00    -0.113 N  
HETATM    2  H1  UNL     1      -7.867   4.619  66.594  1.00  0.00     0.000 HD 
HETATM    3  C   UNL     1      -9.834   4.968  66.028  1.00  0.00    -0.188 C  
HETATM    4  H2  UNL     1      -8.807   3.200  66.154  1.00  0.00     0.000 HD 
HETATM    5  O   UNL     1     -10.892   4.476  65.651  1.00  0.00    -0.270 OA 
ENDROOT
BRANCH   3   6
HETATM    6  N   UNL     1      -9.700   6.317  66.194  1.00  0.00    -0.375 N  
HETATM    7  C   UNL     1     -10.420   7.147  67.037  1.00  0.00    -0.322 C  
HETATM    8  H   UNL     1      -8.982   6.769  65.628  1.00  0.00     0.000 HD 
HETATM    9  O   UNL     1     -11.337   6.768  67.765  1.00  0.00    -0.178 OA 
BRANCH   7  10
HETATM   10  C   UNL     1      -9.995   8.603  66.976  1.00  0.00    -0.317 C  
BRANCH  10  11
HETATM   11  C   UNL     1     -10.481   9.414  68.151  1.00  0.00    -0.267 A  
HETATM   12  C   UNL     1     -11.353  10.498  67.961  1.00  0.00    -0.319 A  
HETATM   13  C   UNL     1     -11.829  11.227  69.052  1.00  0.00    -0.421 A  
HETATM   14  C   UNL     1     -11.447  10.876  70.344  1.00  0.00    -0.367 A  
HETATM   15  C   UNL     1     -10.588   9.799  70.547  1.00  0.00    -0.376 A  
HETATM   16  C   UNL     1     -10.107   9.070  69.458  1.00  0.00    -0.199 A  
ENDBRANCH  10  11
ENDBRANCH   7  10
ENDBRANCH   3   6
TORSDOF 3
ENDMDL
MODEL      193
REMARK 921   NORMALIZED FREE ENERGY PREDICTED BY IDOCK:   -2.84 KCAL/MOL
REMARK 922        TOTAL FREE ENERGY PREDICTED BY IDOCK:   -3.66 KCAL/MOL
REMARK 923 INTER-LIGAND FREE ENERGY PREDICTED BY IDOCK:   -3.36 KCAL/MOL
REMARK 924 INTRA-LIGAND FREE ENERGY PREDICTED BY IDOCK:   -0.29 KCAL/MOL
REMARK 927      BINDING AFFINITY PREDICTED BY RF-SCORE:    0.00 PKD
ROOT
HETATM    1  N   UNL     1     -10.105  15.749  68.288  1.00  0.00    -0.220 N  
HETATM    2  H1  UNL     1     -10.607  15.344  69.079  1.00  0.00     0.000 HD 
HETATM    3  C   UNL     1      -9.686  14.996  67.250  1.00  0.00    -0.220 C  
HETATM    4  H2  UNL     1      -9.915  16.750  68.282  1.00  0.00     0.000 HD 
HETATM    5  O   UNL     1      -9.083  15.483  66.300  1.00  0.00    -0.289 OA 
ENDROOT
BRANCH   3   6
HETATM    6  N   UNL     1      -9.980  13.662  67.294  1.00  0.00    -0.237 N  
HETATM    7  C   UNL     1      -9.271  12.654  67.925  1.00  0.00    -0.201 C  
HETATM    8  H   UNL     1     -10.825  13.374  66.801  1.00  0.00     0.000 HD 
HETATM    9  O   UNL     1      -8.218  12.827  68.538  1.00  0.00    -0.142 OA 
BRANCH   7  10
HETATM   10  C   UNL     1      -9.897  11.279  67.780  1.00  0.00    -0.186 C  
BRANCH  10  11
HETATM   11  C   UNL     1     -10.344  10.687  69.093  1.00  0.00    -0.242 A  
HETATM   12  C   UNL     1      -9.666   9.593  69.653  1.00  0.00    -0.230 A  
HETATM   13  C   UNL     1     -10.060   9.067  70.884  1.00  0.00    -0.329 A  
HETATM   14  C   UNL     1     -11.129   9.634  71.573  1.00  0.00    -0.335 A  
HETATM   15  C   UNL     1     -11.805  10.724  71.033  1.00  0.00    -0.349 A  
HETATM   16  C   UNL     1     -11.416  11.250  69.799  1.00  0.00    -0.386 A  
ENDBRANCH  10  11
ENDBRANCH   7  10
ENDBRANCH   3   6
TORSDOF 3
ENDMDL
MODEL      194
REMARK 921   NORMALIZED FREE ENERGY PREDICTED BY IDOCK:   -2.79 KCAL/MOL
REMARK 922        TOTAL FREE ENERGY PREDICTED BY IDOCK:   -3.60 KCAL/MOL
REMARK 923 INTER-LIGAND FREE ENERGY PREDICTED BY IDOCK:   -3.25 KCAL/MOL
REMARK 924 INTRA-LIGAND FREE ENERGY PREDICTED BY IDOCK:   -0.36 KCAL/MOL
REMARK 927      BINDING AFFINITY PREDICTED BY RF-SCORE:    0.00 PKD
ROOT
HETATM    1  N   UNL     1     -10.488   5.193  70.112  1.00  0.00    -0.275 N  
HETATM    2  H1  UNL     1      -9.861   4.891  69.366  1.00  0.00     0.000 HD 
HETATM    3  C   UNL     1     -11.314   6.249  69.964  1.00  0.00    -0.416 C  
HETATM    4  H2  UNL     1     -10.492   4.681  70.994  1.00  0.00     0.000 HD 
HETATM    5  O   UNL     1     -12.068   6.611  70.861  1.00  0.00    -0.377 OA 
ENDROOT
BRANCH   3   6
HETATM    6  N   UNL     1     -11.287   6.892  68.758  1.00  0.00    -0.533 N  
HETATM    7  C   UNL     1     -10.185   7.373  68.074  1.00  0.00    -0.191 C  
HETATM    8  H   UNL     1     -12.191   7.035  68.308  1.00  0.00     0.000 HD 
HETATM    9  O   UNL     1      -9.028   7.307  68.489  1.00  0.00    -0.132 OA 
BRANCH   7  10
HETATM   10  C   UNL     1     -10.523   8.025  66.745  1.00  0.00    -0.319 C  
BRANCH  10  11
HETATM   11  C   UNL     1      -9.366   8.783  66.144  1.00  0.00    -0.297 A  
HETATM   12  C   UNL     1      -9.144  10.130  66.473  1.00  0.00    -0.166 A  
HETATM   13  C   UNL     1      -8.054  10.821  65.942  1.00  0.00    -0.148 A  
HETATM   14  C   UNL     1      -7.169  10.173  65.084  1.00  0.00    -0.141 A  
HETATM   15  C   UNL     1      -7.374   8.835  64.755  1.00  0.00    -0.093 A  
HETATM   16  C   UNL     1      -8.465   8.142  65.282  1.00  0.00    -0.157 A  
ENDBRANCH  10  11
ENDBRANCH   7  10
ENDBRANCH   3   6
TORSDOF 3
ENDMDL
MODEL      195
REMARK 921   NORMALIZED FREE ENERGY PREDICTED BY IDOCK:   -2.78 KCAL/MOL
REMARK 922        TOTAL FREE ENERGY PREDICTED BY IDOCK:   -3.60 KCAL/MOL
REMARK 923 INTER-LIGAND FREE ENERGY PREDICTED BY IDOCK:   -3.24 KCAL/MOL
REMARK 924 INTRA-LIGAND FREE ENERGY PREDICTED BY IDOCK:   -0.36 KCAL/MOL
REMARK 927      BINDING AFFINITY PREDICTED BY RF-SCORE:    0.00 PKD
ROOT
HETATM    1  N   UNL     1     -13.026  10.238  70.419  1.00  0.00    -0.554 N  
HETATM    2  H1  UNL     1     -13.028  10.463  69.424  1.00  0.00     0.000 HD 
HETATM    3  C   UNL     1     -12.038   9.516  70.984  1.00  0.00    -0.318 C  
HETATM    4  H2  UNL     1     -13.794  10.570  71.003  1.00  0.00     0.000 HD 
HETATM    5  O   UNL     1     -12.036   9.246  72.180  1.00  0.00    -0.344 OA 
ENDROOT
BRANCH   3   6
HETATM    6  N   UNL     1     -11.022   9.110  70.166  1.00  0.00    -0.239 N  
HETATM    7  C   UNL     1     -10.265   9.881  69.300  1.00  0.00    -0.209 C  
HETATM    8  H   UNL     1     -10.793   8.116  70.196  1.00  0.00     0.000 HD 
HETATM    9  O   UNL     1     -10.430  11.088  69.123  1.00  0.00    -0.217 OA 
BRANCH   7  10
HETATM   10  C   UNL     1      -9.202   9.100  68.549  1.00  0.00    -0.136 C  
BRANCH  10  11
HETATM   11  C   UNL     1      -8.946   9.627  67.159  1.00  0.00    -0.148 A  
HETATM   12  C   UNL     1      -7.675  10.099  66.796  1.00  0.00    -0.105 A  
HETATM   13  C   UNL     1      -7.430  10.557  65.500  1.00  0.00    -0.111 A  
HETATM   14  C   UNL     1      -8.450  10.539  64.551  1.00  0.00    -0.133 A  
HETATM   15  C   UNL     1      -9.713  10.067  64.897  1.00  0.00    -0.377 A  
HETATM   16  C   UNL     1      -9.962   9.612  66.194  1.00  0.00    -0.346 A  
ENDBRANCH  10  11
ENDBRANCH   7  10
ENDBRANCH   3   6
TORSDOF 3
ENDMDL
MODEL      196
REMARK 921   NORMALIZED FREE ENERGY PREDICTED BY IDOCK:   -2.78 KCAL/MOL
REMARK 922        TOTAL FREE ENERGY PREDICTED BY IDOCK:   -3.60 KCAL/MOL
REMARK 923 INTER-LIGAND FREE ENERGY PREDICTED BY IDOCK:   -3.71 KCAL/MOL
REMARK 924 INTRA-LIGAND FREE ENERGY PREDICTED BY IDOCK:    0.12 KCAL/MOL
REMARK 927      BINDING AFFINITY PREDICTED BY RF-SCORE:    0.00 PKD
ROOT
HETATM    1  N   UNL     1      -9.012   3.915  70.823  1.00  0.00    -0.085 N  
HETATM    2  H1  UNL     1      -8.987   4.060  69.814  1.00  0.00     0.000 HD 
HETATM    3  C   UNL     1      -9.244   4.929  71.682  1.00  0.00    -0.142 C  
HETATM    4  H2  UNL     1      -8.859   2.978  71.193  1.00  0.00     0.000 HD 
HETATM    5  O   UNL     1      -9.275   4.755  72.895  1.00  0.00    -0.124 OA 
ENDROOT
BRANCH   3   6
HETATM    6  N   UNL     1      -9.462   6.164  71.139  1.00  0.00    -0.167 N  
HETATM    7  C   UNL     1      -9.009   7.389  71.598  1.00  0.00    -0.123 C  
HETATM    8  H   UNL     1     -10.029   6.186  70.291  1.00  0.00     0.000 HD 
HETATM    9  O   UNL     1      -8.339   7.541  72.619  1.00  0.00    -0.107 OA 
BRANCH   7  10
HETATM   10  C   UNL     1      -9.432   8.564  70.734  1.00  0.00    -0.213 C  
BRANCH  10  11
HETATM   11  C   UNL     1     -10.759   9.155  71.142  1.00  0.00    -0.380 A  
HETATM   12  C   UNL     1     -11.235  10.329  70.538  1.00  0.00    -0.408 A  
HETATM   13  C   UNL     1     -12.478  10.857  70.892  1.00  0.00    -0.507 A  
HETATM   14  C   UNL     1     -13.261  10.213  71.847  1.00  0.00    -0.557 A  
HETATM   15  C   UNL     1     -12.804   9.043  72.448  1.00  0.00    -0.454 A  
HETATM   16  C   UNL     1     -11.559   8.514  72.098  1.00  0.00    -0.447 A  
ENDBRANCH  10  11
ENDBRANCH   7  10
ENDBRANCH   3   6
TORSDOF 3
ENDMDL
MODEL      197
REMARK 921   NORMALIZED FREE ENERGY PREDICTED BY IDOCK:   -2.78 KCAL/MOL
REMARK 922        TOTAL FREE ENERGY PREDICTED BY IDOCK:   -3.59 KCAL/MOL
REMARK 923 INTER-LIGAND FREE ENERGY PREDICTED BY IDOCK:   -3.44 KCAL/MOL
REMARK 924 INTRA-LIGAND FREE ENERGY PREDICTED BY IDOCK:   -0.15 KCAL/MOL
REMARK 927      BINDING AFFINITY PREDICTED BY RF-SCORE:    0.00 PKD
ROOT
HETATM    1  N   UNL     1      -8.101   7.833  66.134  1.00  0.00    -0.108 N  
HETATM    2  H1  UNL     1      -7.486   8.528  66.556  1.00  0.00     0.000 HD 
HETATM    3  C   UNL     1      -9.073   7.221  66.840  1.00  0.00    -0.141 C  
HETATM    4  H2  UNL     1      -7.978   7.595  65.150  1.00  0.00     0.000 HD 
HETATM    5  O   UNL     1      -9.813   6.386  66.332  1.00  0.00    -0.148 OA 
ENDROOT
BRANCH   3   6
HETATM    6  N   UNL     1      -9.212   7.586  68.149  1.00  0.00    -0.138 N  
HETATM    7  C   UNL     1      -8.895   8.800  68.733  1.00  0.00    -0.134 C  
HETATM    8  H   UNL     1      -9.596   6.876  68.773  1.00  0.00     0.000 HD 
HETATM    9  O   UNL     1      -8.398   9.751  68.129  1.00  0.00    -0.109 OA 
BRANCH   7  10
HETATM   10  C   UNL     1      -9.194   8.864  70.220  1.00  0.00    -0.207 C  
BRANCH  10  11
HETATM   11  C   UNL     1     -10.448   9.638  70.542  1.00  0.00    -0.367 A  
HETATM   12  C   UNL     1     -10.747  10.831  69.864  1.00  0.00    -0.202 A  
HETATM   13  C   UNL     1     -11.924  11.529  70.139  1.00  0.00    -0.452 A  
HETATM   14  C   UNL     1     -12.819  11.038  71.086  1.00  0.00    -0.491 A  
HETATM   15  C   UNL     1     -12.539   9.852  71.760  1.00  0.00    -0.506 A  
HETATM   16  C   UNL     1     -11.360   9.153  71.490  1.00  0.00    -0.439 A  
ENDBRANCH  10  11
ENDBRANCH   7  10
ENDBRANCH   3   6
TORSDOF 3
ENDMDL
MODEL      198
REMARK 921   NORMALIZED FREE ENERGY PREDICTED BY IDOCK:   -2.78 KCAL/MOL
REMARK 922        TOTAL FREE ENERGY PREDICTED BY IDOCK:   -3.59 KCAL/MOL
REMARK 923 INTER-LIGAND FREE ENERGY PREDICTED BY IDOCK:   -3.37 KCAL/MOL
REMARK 924 INTRA-LIGAND FREE ENERGY PREDICTED BY IDOCK:   -0.22 KCAL/MOL
REMARK 927      BINDING AFFINITY PREDICTED BY RF-SCORE:    0.00 PKD
ROOT
HETATM    1  N   UNL     1     -10.713  14.335  69.740  1.00  0.00    -0.456 N  
HETATM    2  H1  UNL     1     -10.614  13.546  70.379  1.00  0.00     0.000 HD 
HETATM    3  C   UNL     1     -10.578  14.191  68.406  1.00  0.00    -0.259 C  
HETATM    4  H2  UNL     1     -10.922  15.258  70.120  1.00  0.00     0.000 HD 
HETATM    5  O   UNL     1     -10.698  15.139  67.638  1.00  0.00    -0.272 OA 
ENDROOT
BRANCH   3   6
HETATM    6  N   UNL     1     -10.318  12.932  67.942  1.00  0.00    -0.225 N  
HETATM    7  C   UNL     1      -9.126  12.439  67.441  1.00  0.00    -0.183 C  
HETATM    8  H   UNL     1     -11.098  12.276  67.967  1.00  0.00     0.000 HD 
HETATM    9  O   UNL     1      -8.098  13.105  67.316  1.00  0.00    -0.174 OA 
BRANCH   7  10
HETATM   10  C   UNL     1      -9.190  10.980  67.025  1.00  0.00    -0.164 C  
BRANCH  10  11
HETATM   11  C   UNL     1      -9.178  10.787  65.530  1.00  0.00    -0.230 A  
HETATM   12  C   UNL     1      -8.430   9.751  64.948  1.00  0.00    -0.165 A  
HETATM   13  C   UNL     1      -8.446   9.552  63.566  1.00  0.00    -0.197 A  
HETATM   14  C   UNL     1      -9.216  10.379  62.753  1.00  0.00    -0.323 A  
HETATM   15  C   UNL     1      -9.969  11.405  63.318  1.00  0.00    -0.431 A  
HETATM   16  C   UNL     1      -9.952  11.610  64.699  1.00  0.00    -0.291 A  
ENDBRANCH  10  11
ENDBRANCH   7  10
ENDBRANCH   3   6
TORSDOF 3
ENDMDL
MODEL      199
REMARK 921   NORMALIZED FREE ENERGY PREDICTED BY IDOCK:   -2.76 KCAL/MOL
REMARK 922        TOTAL FREE ENERGY PREDICTED BY IDOCK:   -3.57 KCAL/MOL
REMARK 923 INTER-LIGAND FREE ENERGY PREDICTED BY IDOCK:   -3.13 KCAL/MOL
REMARK 924 INTRA-LIGAND FREE ENERGY PREDICTED BY IDOCK:   -0.44 KCAL/MOL
REMARK 927      BINDING AFFINITY PREDICTED BY RF-SCORE:    0.00 PKD
ROOT
HETATM    1  N   UNL     1     -11.965  11.735  70.043  1.00  0.00    -0.341 N  
HETATM    2  H1  UNL     1     -11.079  11.977  69.599  1.00  0.00     0.000 HD 
HETATM    3  C   UNL     1     -12.252  10.471  70.416  1.00  0.00    -0.328 C  
HETATM    4  H2  UNL     1     -12.652  12.470  70.210  1.00  0.00     0.000 HD 
HETATM    5  O   UNL     1     -13.317  10.181  70.950  1.00  0.00    -0.388 OA 
ENDROOT
BRANCH   3   6
HETATM    6  N   UNL     1     -11.294   9.524  70.188  1.00  0.00    -0.332 N  
HETATM    7  C   UNL     1     -10.548   9.327  69.039  1.00  0.00    -0.205 C  
HETATM    8  H   UNL     1     -11.105   8.884  70.959  1.00  0.00     0.000 HD 
HETATM    9  O   UNL     1     -10.670   9.992  68.010  1.00  0.00    -0.223 OA 
BRANCH   7  10
HETATM   10  C   UNL     1      -9.555   8.183  69.139  1.00  0.00    -0.157 C  
BRANCH  10  11
HETATM   11  C   UNL     1      -9.557   7.286  67.927  1.00  0.00    -0.153 A  
HETATM   12  C   UNL     1      -8.419   7.180  67.112  1.00  0.00    -0.121 A  
HETATM   13  C   UNL     1      -8.411   6.324  66.010  1.00  0.00    -0.138 A  
HETATM   14  C   UNL     1      -9.535   5.558  65.715  1.00  0.00    -0.071 A  
HETATM   15  C   UNL     1     -10.668   5.647  66.519  1.00  0.00    -0.296 A  
HETATM   16  C   UNL     1     -10.681   6.505  67.621  1.00  0.00    -0.381 A  
ENDBRANCH  10  11
ENDBRANCH   7  10
ENDBRANCH   3   6
TORSDOF 3
ENDMDL
MODEL      200
REMARK 921   NORMALIZED FREE ENERGY PREDICTED BY IDOCK:   -2.73 KCAL/MOL
REMARK 922        TOTAL FREE ENERGY PREDICTED BY IDOCK:   -3.54 KCAL/MOL
REMARK 923 INTER-LIGAND FREE ENERGY PREDICTED BY IDOCK:   -3.85 KCAL/MOL
REMARK 924 INTRA-LIGAND FREE ENERGY PREDICTED BY IDOCK:    0.31 KCAL/MOL
REMARK 927      BINDING AFFINITY PREDICTED BY RF-SCORE:    0.00 PKD
ROOT
HETATM    1  N   UNL     1      -8.663  14.286  68.205  1.00  0.00    -0.167 N  
HETATM    2  H1  UNL     1      -9.065  14.642  69.072  1.00  0.00     0.000 HD 
HETATM    3  C   UNL     1      -9.161  13.198  67.584  1.00  0.00    -0.201 C  
HETATM    4  H2  UNL     1      -7.862  14.767  67.796  1.00  0.00     0.000 HD 
HETATM    5  O   UNL     1      -8.678  12.770  66.541  1.00  0.00    -0.117 OA 
ENDROOT
BRANCH   3   6
HETATM    6  N   UNL     1     -10.245  12.598  68.159  1.00  0.00    -0.233 N  
HETATM    7  C   UNL     1     -10.281  11.419  68.884  1.00  0.00    -0.168 C  
HETATM    8  H   UNL     1     -11.138  13.077  68.040  1.00  0.00     0.000 HD 
HETATM    9  O   UNL     1      -9.301  10.705  69.095  1.00  0.00    -0.196 OA 
BRANCH   7  10
HETATM   10  C   UNL     1     -11.664  11.051  69.392  1.00  0.00    -0.394 C  
BRANCH  10  11
HETATM   11  C   UNL     1     -12.186  12.006  70.437  1.00  0.00    -0.379 A  
HETATM   12  C   UNL     1     -13.028  11.551  71.464  1.00  0.00    -0.485 A  
HETATM   13  C   UNL     1     -13.484  12.428  72.450  1.00  0.00    -0.294 A  
HETATM   14  C   UNL     1     -13.097  13.766  72.425  1.00  0.00    -0.520 A  
HETATM   15  C   UNL     1     -12.257  14.228  71.415  1.00  0.00    -0.408 A  
HETATM   16  C   UNL     1     -11.802  13.354  70.426  1.00  0.00    -0.283 A  
ENDBRANCH  10  11
ENDBRANCH   7  10
ENDBRANCH   3   6
TORSDOF 3
ENDMDL
MODEL      201
REMARK 921   NORMALIZED FREE ENERGY PREDICTED BY IDOCK:   -2.73 KCAL/MOL
REMARK 922        TOTAL FREE ENERGY PREDICTED BY IDOCK:   -3.54 KCAL/MOL
REMARK 923 INTER-LIGAND FREE ENERGY PREDICTED BY IDOCK:   -3.86 KCAL/MOL
REMARK 924 INTRA-LIGAND FREE ENERGY PREDICTED BY IDOCK:    0.32 KCAL/MOL
REMARK 927      BINDING AFFINITY PREDICTED BY RF-SCORE:    0.00 PKD
ROOT
HETATM    1  N   UNL     1     -12.991  13.849  65.279  1.00  0.00    -0.774 N  
HETATM    2  H1  UNL     1     -13.708  13.137  65.421  1.00  0.00     0.000 HD 
HETATM    3  C   UNL     1     -11.956  13.997  66.131  1.00  0.00    -0.420 C  
HETATM    4  H2  UNL     1     -13.059  14.466  64.470  1.00  0.00     0.000 HD 
HETATM    5  O   UNL     1     -11.094  14.852  65.960  1.00  0.00    -0.329 OA 
ENDROOT
BRANCH   3   6
HETATM    6  N   UNL     1     -11.898  13.135  67.190  1.00  0.00    -0.372 N  
HETATM    7  C   UNL     1     -11.599  11.784  67.174  1.00  0.00    -0.266 C  
HETATM    8  H   UNL     1     -12.100  13.538  68.106  1.00  0.00     0.000 HD 
HETATM    9  O   UNL     1     -11.360  11.140  66.152  1.00  0.00    -0.150 OA 
BRANCH   7  10
HETATM   10  C   UNL     1     -11.611  11.134  68.546  1.00  0.00    -0.385 C  
BRANCH  10  11
HETATM   11  C   UNL     1     -10.416  10.249  68.795  1.00  0.00    -0.222 A  
HETATM   12  C   UNL     1      -9.642   9.773  67.725  1.00  0.00    -0.157 A  
HETATM   13  C   UNL     1      -8.517   8.981  67.959  1.00  0.00    -0.125 A  
HETATM   14  C   UNL     1      -8.148   8.664  69.263  1.00  0.00    -0.112 A  
HETATM   15  C   UNL     1      -8.903   9.135  70.334  1.00  0.00    -0.253 A  
HETATM   16  C   UNL     1     -10.031   9.925  70.104  1.00  0.00    -0.291 A  
ENDBRANCH  10  11
ENDBRANCH   7  10
ENDBRANCH   3   6
TORSDOF 3
ENDMDL
MODEL      202
REMARK 921   NORMALIZED FREE ENERGY PREDICTED BY IDOCK:   -2.73 KCAL/MOL
REMARK 922        TOTAL FREE ENERGY PREDICTED BY IDOCK:   -3.53 KCAL/MOL
REMARK 923 INTER-LIGAND FREE ENERGY PREDICTED BY IDOCK:   -3.40 KCAL/MOL
REMARK 924 INTRA-LIGAND FREE ENERGY PREDICTED BY IDOCK:   -0.13 KCAL/MOL
REMARK 927      BINDING AFFINITY PREDICTED BY RF-SCORE:    0.00 PKD
ROOT
HETATM    1  N   UNL     1      -9.913  14.222  65.139  1.00  0.00    -0.563 N  
HETATM    2  H1  UNL     1     -10.345  13.592  64.462  1.00  0.00     0.000 HD 
HETATM    3  C   UNL     1      -9.810  13.901  66.444  1.00  0.00    -0.295 C  
HETATM    4  H2  UNL     1      -9.549  15.119  64.819  1.00  0.00     0.000 HD 
HETATM    5  O   UNL     1      -9.291  14.658  67.258  1.00  0.00    -0.196 OA 
ENDROOT
BRANCH   3   6
HETATM    6  N   UNL     1     -10.295  12.681  66.823  1.00  0.00    -0.233 N  
HETATM    7  C   UNL     1     -11.345  12.412  67.684  1.00  0.00    -0.312 C  
HETATM    8  H   UNL     1      -9.826  11.869  66.422  1.00  0.00     0.000 HD 
HETATM    9  O   UNL     1     -11.997  13.274  68.272  1.00  0.00    -0.342 OA 
BRANCH   7  10
HETATM   10  C   UNL     1     -11.625  10.931  67.869  1.00  0.00    -0.270 C  
BRANCH  10  11
HETATM   11  C   UNL     1     -10.374  10.088  67.893  1.00  0.00    -0.249 A  
HETATM   12  C   UNL     1      -9.514  10.116  69.002  1.00  0.00    -0.195 A  
HETATM   13  C   UNL     1      -8.374   9.311  69.038  1.00  0.00    -0.123 A  
HETATM   14  C   UNL     1      -8.087   8.463  67.972  1.00  0.00    -0.123 A  
HETATM   15  C   UNL     1      -8.936   8.420  66.869  1.00  0.00    -0.168 A  
HETATM   16  C   UNL     1     -10.075   9.227  66.828  1.00  0.00    -0.331 A  
ENDBRANCH  10  11
ENDBRANCH   7  10
ENDBRANCH   3   6
TORSDOF 3
ENDMDL
MODEL      203
REMARK 921   NORMALIZED FREE ENERGY PREDICTED BY IDOCK:   -2.70 KCAL/MOL
REMARK 922        TOTAL FREE ENERGY PREDICTED BY IDOCK:   -3.50 KCAL/MOL
REMARK 923 INTER-LIGAND FREE ENERGY PREDICTED BY IDOCK:   -3.51 KCAL/MOL
REMARK 924 INTRA-LIGAND FREE ENERGY PREDICTED BY IDOCK:    0.02 KCAL/MOL
REMARK 927      BINDING AFFINITY PREDICTED BY RF-SCORE:    0.00 PKD
ROOT
HETATM    1  N   UNL     1     -11.160  12.070  63.082  1.00  0.00    -0.696 N  
HETATM    2  H1  UNL     1     -11.892  12.675  63.456  1.00  0.00     0.000 HD 
HETATM    3  C   UNL     1     -10.413  11.280  63.880  1.00  0.00    -0.391 C  
HETATM    4  H2  UNL     1     -10.989  12.063  62.077  1.00  0.00     0.000 HD 
HETATM    5  O   UNL     1      -9.534  10.553  63.431  1.00  0.00    -0.263 OA 
ENDROOT
BRANCH   3   6
HETATM    6  N   UNL     1     -10.691  11.311  65.218  1.00  0.00    -0.266 N  
HETATM    7  C   UNL     1     -10.523  10.298  66.146  1.00  0.00    -0.130 C  
HETATM    8  H   UNL     1     -11.070  12.187  65.576  1.00  0.00     0.000 HD 
HETATM    9  O   UNL     1     -10.104   9.172  65.875  1.00  0.00    -0.273 OA 
BRANCH   7  10
HETATM   10  C   UNL     1     -10.925  10.684  67.558  1.00  0.00    -0.371 C  
BRANCH  10  11
HETATM   11  C   UNL     1      -9.872  10.357  68.587  1.00  0.00    -0.183 A  
HETATM   12  C   UNL     1     -10.132   9.430  69.608  1.00  0.00    -0.218 A  
HETATM   13  C   UNL     1      -9.146   9.104  70.540  1.00  0.00    -0.284 A  
HETATM   14  C   UNL     1      -7.887   9.692  70.457  1.00  0.00    -0.150 A  
HETATM   15  C   UNL     1      -7.613  10.608  69.444  1.00  0.00    -0.135 A  
HETATM   16  C   UNL     1      -8.599  10.940  68.512  1.00  0.00    -0.152 A  
ENDBRANCH  10  11
ENDBRANCH   7  10
ENDBRANCH   3   6
TORSDOF 3
ENDMDL
MODEL      204
REMARK 921   NORMALIZED FREE ENERGY PREDICTED BY IDOCK:   -2.66 KCAL/MOL
REMARK 922        TOTAL FREE ENERGY PREDICTED BY IDOCK:   -3.46 KCAL/MOL
REMARK 923 INTER-LIGAND FREE ENERGY PREDICTED BY IDOCK:   -3.04 KCAL/MOL
REMARK 924 INTRA-LIGAND FREE ENERGY PREDICTED BY IDOCK:   -0.42 KCAL/MOL
REMARK 927      BINDING AFFINITY PREDICTED BY RF-SCORE:    0.00 PKD
ROOT
HETATM    1  N   UNL     1     -13.656   7.768  71.207  1.00  0.00    -0.571 N  
HETATM    2  H1  UNL     1     -14.009   7.577  70.269  1.00  0.00     0.000 HD 
HETATM    3  C   UNL     1     -12.372   8.119  71.426  1.00  0.00    -0.298 C  
HETATM    4  H2  UNL     1     -14.291   7.693  72.000  1.00  0.00     0.000 HD 
HETATM    5  O   UNL     1     -11.948   8.350  72.553  1.00  0.00    -0.393 OA 
ENDROOT
BRANCH   3   6
HETATM    6  N   UNL     1     -11.563   8.225  70.330  1.00  0.00    -0.469 N  
HETATM    7  C   UNL     1     -11.102   7.209  69.510  1.00  0.00    -0.141 C  
HETATM    8  H   UNL     1     -11.261   9.168  70.086  1.00  0.00     0.000 HD 
HETATM    9  O   UNL     1     -11.350   6.015  69.680  1.00  0.00    -0.411 OA 
BRANCH   7  10
HETATM   10  C   UNL     1     -10.227   7.690  68.367  1.00  0.00    -0.226 C  
BRANCH  10  11
HETATM   11  C   UNL     1      -8.883   7.006  68.318  1.00  0.00    -0.126 A  
HETATM   12  C   UNL     1      -7.944   7.200  69.343  1.00  0.00    -0.125 A  
HETATM   13  C   UNL     1      -6.714   6.540  69.314  1.00  0.00    -0.052 A  
HETATM   14  C   UNL     1      -6.413   5.674  68.266  1.00  0.00    -0.043 A  
HETATM   15  C   UNL     1      -7.339   5.468  67.247  1.00  0.00    -0.080 A  
HETATM   16  C   UNL     1      -8.569   6.128  67.271  1.00  0.00    -0.103 A  
ENDBRANCH  10  11
ENDBRANCH   7  10
ENDBRANCH   3   6
TORSDOF 3
ENDMDL
MODEL      205
REMARK 921   NORMALIZED FREE ENERGY PREDICTED BY IDOCK:   -2.66 KCAL/MOL
REMARK 922        TOTAL FREE ENERGY PREDICTED BY IDOCK:   -3.45 KCAL/MOL
REMARK 923 INTER-LIGAND FREE ENERGY PREDICTED BY IDOCK:   -3.67 KCAL/MOL
REMARK 924 INTRA-LIGAND FREE ENERGY PREDICTED BY IDOCK:    0.22 KCAL/MOL
REMARK 927      BINDING AFFINITY PREDICTED BY RF-SCORE:    0.00 PKD
ROOT
HETATM    1  N   UNL     1      -9.253  15.073  69.433  1.00  0.00    -0.396 N  
HETATM    2  H1  UNL     1      -8.694  14.358  69.898  1.00  0.00     0.000 HD 
HETATM    3  C   UNL     1     -10.428  14.781  68.837  1.00  0.00    -0.249 C  
HETATM    4  H2  UNL     1      -8.915  16.034  69.418  1.00  0.00     0.000 HD 
HETATM    5  O   UNL     1     -11.100  15.641  68.278  1.00  0.00    -0.304 OA 
ENDROOT
BRANCH   3   6
HETATM    6  N   UNL     1     -10.849  13.483  68.899  1.00  0.00    -0.294 N  
HETATM    7  C   UNL     1     -11.496  12.750  67.919  1.00  0.00    -0.317 C  
HETATM    8  H   UNL     1     -10.663  12.993  69.775  1.00  0.00     0.000 HD 
HETATM    9  O   UNL     1     -11.818  13.197  66.819  1.00  0.00    -0.360 OA 
BRANCH   7  10
HETATM   10  C   UNL     1     -11.806  11.320  68.325  1.00  0.00    -0.299 C  
BRANCH  10  11
HETATM   11  C   UNL     1     -10.966  10.300  67.599  1.00  0.00    -0.356 A  
HETATM   12  C   UNL     1     -10.077  10.694  66.587  1.00  0.00    -0.270 A  
HETATM   13  C   UNL     1      -9.275   9.754  65.939  1.00  0.00    -0.236 A  
HETATM   14  C   UNL     1      -9.345   8.411  66.301  1.00  0.00    -0.283 A  
HETATM   15  C   UNL     1     -10.217   8.007  67.308  1.00  0.00    -0.345 A  
HETATM   16  C   UNL     1     -11.023   8.945  67.957  1.00  0.00     0.040 A  
ENDBRANCH  10  11
ENDBRANCH   7  10
ENDBRANCH   3   6
TORSDOF 3
ENDMDL
MODEL      206
REMARK 921   NORMALIZED FREE ENERGY PREDICTED BY IDOCK:   -2.65 KCAL/MOL
REMARK 922        TOTAL FREE ENERGY PREDICTED BY IDOCK:   -3.44 KCAL/MOL
REMARK 923 INTER-LIGAND FREE ENERGY PREDICTED BY IDOCK:   -3.01 KCAL/MOL
REMARK 924 INTRA-LIGAND FREE ENERGY PREDICTED BY IDOCK:   -0.43 KCAL/MOL
REMARK 927      BINDING AFFINITY PREDICTED BY RF-SCORE:    0.00 PKD
ROOT
HETATM    1  N   UNL     1     -11.226   4.492  65.396  1.00  0.00    -0.941 N  
HETATM    2  H1  UNL     1     -11.503   5.397  65.779  1.00  0.00     0.000 HD 
HETATM    3  C   UNL     1      -9.990   4.277  64.902  1.00  0.00    -0.168 C  
HETATM    4  H2  UNL     1     -11.904   3.730  65.387  1.00  0.00     0.000 HD 
HETATM    5  O   UNL     1      -9.658   3.190  64.443  1.00  0.00    -0.142 OA 
ENDROOT
BRANCH   3   6
HETATM    6  N   UNL     1      -9.112   5.323  64.952  1.00  0.00    -0.341 N  
HETATM    7  C   UNL     1      -8.765   6.092  66.049  1.00  0.00    -0.153 C  
HETATM    8  H   UNL     1      -8.656   5.566  64.073  1.00  0.00     0.000 HD 
HETATM    9  O   UNL     1      -9.243   5.949  67.175  1.00  0.00    -0.115 OA 
BRANCH   7  10
HETATM   10  C   UNL     1      -7.740   7.170  65.745  1.00  0.00    -0.099 C  
BRANCH  10  11
HETATM   11  C   UNL     1      -8.229   8.562  66.061  1.00  0.00    -0.118 A  
HETATM   12  C   UNL     1      -9.461   9.017  65.565  1.00  0.00    -0.220 A  
HETATM   13  C   UNL     1      -9.928  10.293  65.884  1.00  0.00    -0.321 A  
HETATM   14  C   UNL     1      -9.175  11.123  66.710  1.00  0.00    -0.183 A  
HETATM   15  C   UNL     1      -7.955  10.681  67.215  1.00  0.00    -0.116 A  
HETATM   16  C   UNL     1      -7.483   9.407  66.894  1.00  0.00    -0.091 A  
ENDBRANCH  10  11
ENDBRANCH   7  10
ENDBRANCH   3   6
TORSDOF 3
ENDMDL
MODEL      207
REMARK 921   NORMALIZED FREE ENERGY PREDICTED BY IDOCK:   -2.65 KCAL/MOL
REMARK 922        TOTAL FREE ENERGY PREDICTED BY IDOCK:   -3.44 KCAL/MOL
REMARK 923 INTER-LIGAND FREE ENERGY PREDICTED BY IDOCK:   -3.01 KCAL/MOL
REMARK 924 INTRA-LIGAND FREE ENERGY PREDICTED BY IDOCK:   -0.43 KCAL/MOL
REMARK 927      BINDING AFFINITY PREDICTED BY RF-SCORE:    0.00 PKD
ROOT
HETATM    1  N   UNL     1      -7.280   7.803  66.823  1.00  0.00    -0.086 N  
HETATM    2  H1  UNL     1      -7.633   7.121  67.495  1.00  0.00     0.000 HD 
HETATM    3  C   UNL     1      -7.743   9.068  66.784  1.00  0.00    -0.093 C  
HETATM    4  H2  UNL     1      -6.556   7.519  66.164  1.00  0.00     0.000 HD 
HETATM    5  O   UNL     1      -7.318   9.888  65.976  1.00  0.00    -0.098 OA 
ENDROOT
BRANCH   3   6
HETATM    6  N   UNL     1      -8.700   9.407  67.699  1.00  0.00    -0.116 N  
HETATM    7  C   UNL     1      -8.616   9.349  69.080  1.00  0.00    -0.135 C  
HETATM    8  H   UNL     1      -9.584   9.745  67.318  1.00  0.00     0.000 HD 
HETATM    9  O   UNL     1      -7.633   8.940  69.697  1.00  0.00    -0.068 OA 
BRANCH   7  10
HETATM   10  C   UNL     1      -9.871   9.819  69.792  1.00  0.00    -0.262 C  
BRANCH  10  11
HETATM   11  C   UNL     1     -10.614   8.704  70.486  1.00  0.00    -0.248 A  
HETATM   12  C   UNL     1     -10.924   7.518  69.804  1.00  0.00    -0.195 A  
HETATM   13  C   UNL     1     -11.582   6.474  70.456  1.00  0.00    -0.455 A  
HETATM   14  C   UNL     1     -11.928   6.600  71.799  1.00  0.00    -0.391 A  
HETATM   15  C   UNL     1     -11.619   7.769  72.490  1.00  0.00    -0.422 A  
HETATM   16  C   UNL     1     -10.964   8.817  71.839  1.00  0.00    -0.435 A  
ENDBRANCH  10  11
ENDBRANCH   7  10
ENDBRANCH   3   6
TORSDOF 3
ENDMDL
MODEL      208
REMARK 921   NORMALIZED FREE ENERGY PREDICTED BY IDOCK:   -2.63 KCAL/MOL
REMARK 922        TOTAL FREE ENERGY PREDICTED BY IDOCK:   -3.42 KCAL/MOL
REMARK 923 INTER-LIGAND FREE ENERGY PREDICTED BY IDOCK:   -2.99 KCAL/MOL
REMARK 924 INTRA-LIGAND FREE ENERGY PREDICTED BY IDOCK:   -0.42 KCAL/MOL
REMARK 927      BINDING AFFINITY PREDICTED BY RF-SCORE:    0.00 PKD
ROOT
HETATM    1  N   UNL     1      -5.637  14.649  71.167  1.00  0.00    -0.147 N  
HETATM    2  H1  UNL     1      -5.875  15.557  71.566  1.00  0.00     0.000 HD 
HETATM    3  C   UNL     1      -6.213  14.195  70.036  1.00  0.00    -0.151 C  
HETATM    4  H2  UNL     1      -4.942  14.069  71.637  1.00  0.00     0.000 HD 
HETATM    5  O   UNL     1      -5.926  13.104  69.556  1.00  0.00    -0.094 OA 
ENDROOT
BRANCH   3   6
HETATM    6  N   UNL     1      -7.124  15.016  69.433  1.00  0.00    -0.172 N  
HETATM    7  C   UNL     1      -7.072  16.392  69.296  1.00  0.00    -0.222 C  
HETATM    8  H   UNL     1      -7.944  14.557  69.034  1.00  0.00     0.000 HD 
HETATM    9  O   UNL     1      -6.168  17.099  69.743  1.00  0.00    -0.244 OA 
BRANCH   7  10
HETATM   10  C   UNL     1      -8.256  16.982  68.552  1.00  0.00    -0.259 C  
BRANCH  10  11
HETATM   11  C   UNL     1      -7.863  18.032  67.544  1.00  0.00    -0.217 A  
HETATM   12  C   UNL     1      -7.185  17.676  66.367  1.00  0.00    -0.319 A  
HETATM   13  C   UNL     1      -6.850  18.644  65.419  1.00  0.00    -0.179 A  
HETATM   14  C   UNL     1      -7.197  19.976  65.631  1.00  0.00    -0.330 A  
HETATM   15  C   UNL     1      -7.876  20.341  66.790  1.00  0.00    -0.332 A  
HETATM   16  C   UNL     1      -8.209  19.376  67.743  1.00  0.00    -0.324 A  
ENDBRANCH  10  11
ENDBRANCH   7  10
ENDBRANCH   3   6
TORSDOF 3
ENDMDL
MODEL      209
REMARK 921   NORMALIZED FREE ENERGY PREDICTED BY IDOCK:   -2.62 KCAL/MOL
REMARK 922        TOTAL FREE ENERGY PREDICTED BY IDOCK:   -3.41 KCAL/MOL
REMARK 923 INTER-LIGAND FREE ENERGY PREDICTED BY IDOCK:   -3.39 KCAL/MOL
REMARK 924 INTRA-LIGAND FREE ENERGY PREDICTED BY IDOCK:   -0.02 KCAL/MOL
REMARK 927      BINDING AFFINITY PREDICTED BY RF-SCORE:    0.00 PKD
ROOT
HETATM    1  N   UNL     1      -7.221  14.986  68.841  1.00  0.00    -0.117 N  
HETATM    2  H1  UNL     1      -8.179  15.335  68.796  1.00  0.00     0.000 HD 
HETATM    3  C   UNL     1      -6.779  14.012  68.019  1.00  0.00    -0.144 C  
HETATM    4  H2  UNL     1      -6.580  15.386  69.525  1.00  0.00     0.000 HD 
HETATM    5  O   UNL     1      -5.628  13.593  68.073  1.00  0.00    -0.107 OA 
ENDROOT
BRANCH   3   6
HETATM    6  N   UNL     1      -7.669  13.520  67.106  1.00  0.00    -0.367 N  
HETATM    7  C   UNL     1      -8.822  12.792  67.347  1.00  0.00    -0.190 C  
HETATM    8  H   UNL     1      -7.458  13.713  66.127  1.00  0.00     0.000 HD 
HETATM    9  O   UNL     1      -9.205  12.451  68.466  1.00  0.00    -0.170 OA 
BRANCH   7  10
HETATM   10  C   UNL     1      -9.586  12.417  66.090  1.00  0.00    -0.238 C  
BRANCH  10  11
HETATM   11  C   UNL     1     -10.369  13.566  65.505  1.00  0.00    -0.309 A  
HETATM   12  C   UNL     1     -11.615  13.346  64.897  1.00  0.00    -0.354 A  
HETATM   13  C   UNL     1     -12.354  14.414  64.385  1.00  0.00    -0.428 A  
HETATM   14  C   UNL     1     -11.862  15.712  64.484  1.00  0.00    -0.172 A  
HETATM   15  C   UNL     1     -10.630  15.945  65.091  1.00  0.00    -0.421 A  
HETATM   16  C   UNL     1      -9.887  14.878  65.601  1.00  0.00    -0.372 A  
ENDBRANCH  10  11
ENDBRANCH   7  10
ENDBRANCH   3   6
TORSDOF 3
ENDMDL
MODEL      210
REMARK 921   NORMALIZED FREE ENERGY PREDICTED BY IDOCK:   -2.62 KCAL/MOL
REMARK 922        TOTAL FREE ENERGY PREDICTED BY IDOCK:   -3.40 KCAL/MOL
REMARK 923 INTER-LIGAND FREE ENERGY PREDICTED BY IDOCK:   -2.99 KCAL/MOL
REMARK 924 INTRA-LIGAND FREE ENERGY PREDICTED BY IDOCK:   -0.42 KCAL/MOL
REMARK 927      BINDING AFFINITY PREDICTED BY RF-SCORE:    0.00 PKD
ROOT
HETATM    1  N   UNL     1      -9.019   5.048  65.592  1.00  0.00    -0.145 N  
HETATM    2  H1  UNL     1      -8.384   5.524  66.232  1.00  0.00     0.000 HD 
HETATM    3  C   UNL     1     -10.346   4.982  65.824  1.00  0.00    -0.120 C  
HETATM    4  H2  UNL     1      -8.640   4.610  64.752  1.00  0.00     0.000 HD 
HETATM    5  O   UNL     1     -11.109   4.410  65.053  1.00  0.00    -0.236 OA 
ENDROOT
BRANCH   3   6
HETATM    6  N   UNL     1     -10.809   5.598  66.952  1.00  0.00    -0.470 N  
HETATM    7  C   UNL     1     -10.458   5.345  68.266  1.00  0.00    -0.120 C  
HETATM    8  H   UNL     1     -11.499   6.336  66.807  1.00  0.00     0.000 HD 
HETATM    9  O   UNL     1      -9.663   4.471  68.615  1.00  0.00    -0.157 OA 
BRANCH   7  10
HETATM   10  C   UNL     1     -11.163   6.234  69.274  1.00  0.00    -0.458 C  
BRANCH  10  11
HETATM   11  C   UNL     1     -10.333   7.417  69.707  1.00  0.00    -0.226 A  
HETATM   12  C   UNL     1      -9.646   7.399  70.931  1.00  0.00    -0.166 A  
HETATM   13  C   UNL     1      -8.852   8.480  71.315  1.00  0.00    -0.240 A  
HETATM   14  C   UNL     1      -8.727   9.586  70.478  1.00  0.00    -0.247 A  
HETATM   15  C   UNL     1      -9.398   9.613  69.258  1.00  0.00    -0.184 A  
HETATM   16  C   UNL     1     -10.197   8.535  68.871  1.00  0.00    -0.221 A  
ENDBRANCH  10  11
ENDBRANCH   7  10
ENDBRANCH   3   6
TORSDOF 3
ENDMDL
MODEL      211
REMARK 921   NORMALIZED FREE ENERGY PREDICTED BY IDOCK:   -2.61 KCAL/MOL
REMARK 922        TOTAL FREE ENERGY PREDICTED BY IDOCK:   -3.39 KCAL/MOL
REMARK 923 INTER-LIGAND FREE ENERGY PREDICTED BY IDOCK:   -2.93 KCAL/MOL
REMARK 924 INTRA-LIGAND FREE ENERGY PREDICTED BY IDOCK:   -0.46 KCAL/MOL
REMARK 927      BINDING AFFINITY PREDICTED BY RF-SCORE:    0.00 PKD
ROOT
HETATM    1  N   UNL     1      -6.536   9.142  70.227  1.00  0.00    -0.047 N  
HETATM    2  H1  UNL     1      -6.835   8.168  70.164  1.00  0.00     0.000 HD 
HETATM    3  C   UNL     1      -7.003  10.085  69.384  1.00  0.00    -0.069 C  
HETATM    4  H2  UNL     1      -5.867   9.409  70.948  1.00  0.00     0.000 HD 
HETATM    5  O   UNL     1      -6.644  11.255  69.460  1.00  0.00    -0.103 OA 
ENDROOT
BRANCH   3   6
HETATM    6  N   UNL     1      -7.912   9.683  68.446  1.00  0.00    -0.095 N  
HETATM    7  C   UNL     1      -9.141   9.083  68.654  1.00  0.00    -0.137 C  
HETATM    8  H   UNL     1      -7.652   9.846  67.473  1.00  0.00     0.000 HD 
HETATM    9  O   UNL     1      -9.592   8.793  69.762  1.00  0.00    -0.167 OA 
BRANCH   7  10
HETATM   10  C   UNL     1      -9.903   8.782  67.376  1.00  0.00    -0.250 C  
BRANCH  10  11
HETATM   11  C   UNL     1     -10.480  10.012  66.723  1.00  0.00    -0.267 A  
HETATM   12  C   UNL     1     -11.184  10.961  67.481  1.00  0.00    -0.364 A  
HETATM   13  C   UNL     1     -11.689  12.116  66.883  1.00  0.00    -0.374 A  
HETATM   14  C   UNL     1     -11.489  12.341  65.523  1.00  0.00    -0.408 A  
HETATM   15  C   UNL     1     -10.787  11.411  64.761  1.00  0.00    -0.339 A  
HETATM   16  C   UNL     1     -10.283  10.252  65.356  1.00  0.00    -0.312 A  
ENDBRANCH  10  11
ENDBRANCH   7  10
ENDBRANCH   3   6
TORSDOF 3
ENDMDL
MODEL      212
REMARK 921   NORMALIZED FREE ENERGY PREDICTED BY IDOCK:   -2.60 KCAL/MOL
REMARK 922        TOTAL FREE ENERGY PREDICTED BY IDOCK:   -3.38 KCAL/MOL
REMARK 923 INTER-LIGAND FREE ENERGY PREDICTED BY IDOCK:   -3.48 KCAL/MOL
REMARK 924 INTRA-LIGAND FREE ENERGY PREDICTED BY IDOCK:    0.10 KCAL/MOL
REMARK 927      BINDING AFFINITY PREDICTED BY RF-SCORE:    0.00 PKD
ROOT
HETATM    1  N   UNL     1      -5.832  14.338  67.929  1.00  0.00    -0.139 N  
HETATM    2  H1  UNL     1      -6.327  15.212  68.107  1.00  0.00     0.000 HD 
HETATM    3  C   UNL     1      -6.470  13.238  67.478  1.00  0.00    -0.134 C  
HETATM    4  H2  UNL     1      -4.828  14.294  68.097  1.00  0.00     0.000 HD 
HETATM    5  O   UNL     1      -5.876  12.188  67.264  1.00  0.00    -0.123 OA 
ENDROOT
BRANCH   3   6
HETATM    6  N   UNL     1      -7.813  13.351  67.251  1.00  0.00    -0.316 N  
HETATM    7  C   UNL     1      -8.582  14.502  67.239  1.00  0.00    -0.215 C  
HETATM    8  H   UNL     1      -8.310  12.479  67.069  1.00  0.00     0.000 HD 
HETATM    9  O   UNL     1      -8.144  15.629  67.467  1.00  0.00    -0.141 OA 
BRANCH   7  10
HETATM   10  C   UNL     1     -10.049  14.258  66.936  1.00  0.00    -0.264 C  
BRANCH  10  11
HETATM   11  C   UNL     1     -10.277  13.123  65.970  1.00  0.00    -0.287 A  
HETATM   12  C   UNL     1     -10.418  13.371  64.595  1.00  0.00    -0.428 A  
HETATM   13  C   UNL     1     -10.595  12.317  63.697  1.00  0.00    -0.501 A  
HETATM   14  C   UNL     1     -10.625  11.005  64.161  1.00  0.00    -0.412 A  
HETATM   15  C   UNL     1     -10.480  10.745  65.522  1.00  0.00    -0.264 A  
HETATM   16  C   UNL     1     -10.305  11.797  66.423  1.00  0.00    -0.257 A  
ENDBRANCH  10  11
ENDBRANCH   7  10
ENDBRANCH   3   6
TORSDOF 3
ENDMDL
MODEL      213
REMARK 921   NORMALIZED FREE ENERGY PREDICTED BY IDOCK:   -2.56 KCAL/MOL
REMARK 922        TOTAL FREE ENERGY PREDICTED BY IDOCK:   -3.33 KCAL/MOL
REMARK 923 INTER-LIGAND FREE ENERGY PREDICTED BY IDOCK:   -2.90 KCAL/MOL
REMARK 924 INTRA-LIGAND FREE ENERGY PREDICTED BY IDOCK:   -0.44 KCAL/MOL
REMARK 927      BINDING AFFINITY PREDICTED BY RF-SCORE:    0.00 PKD
ROOT
HETATM    1  N   UNL     1      -6.754   9.209  70.266  1.00  0.00    -0.049 N  
HETATM    2  H1  UNL     1      -7.244   8.719  69.516  1.00  0.00     0.000 HD 
HETATM    3  C   UNL     1      -6.711  10.555  70.327  1.00  0.00    -0.123 C  
HETATM    4  H2  UNL     1      -6.286   8.665  70.990  1.00  0.00     0.000 HD 
HETATM    5  O   UNL     1      -6.124  11.144  71.228  1.00  0.00    -0.320 OA 
ENDROOT
BRANCH   3   6
HETATM    6  N   UNL     1      -7.370  11.241  69.345  1.00  0.00    -0.301 N  
HETATM    7  C   UNL     1      -8.682  11.089  68.933  1.00  0.00    -0.117 C  
HETATM    8  H   UNL     1      -6.827  11.953  68.856  1.00  0.00     0.000 HD 
HETATM    9  O   UNL     1      -9.462  10.258  69.398  1.00  0.00    -0.207 OA 
BRANCH   7  10
HETATM   10  C   UNL     1      -9.090  12.034  67.817  1.00  0.00    -0.187 C  
BRANCH  10  11
HETATM   11  C   UNL     1      -9.774  13.282  68.316  1.00  0.00    -0.225 A  
HETATM   12  C   UNL     1      -9.025  14.414  68.673  1.00  0.00    -0.172 A  
HETATM   13  C   UNL     1      -9.660  15.580  69.103  1.00  0.00    -0.253 A  
HETATM   14  C   UNL     1     -11.050  15.632  69.171  1.00  0.00    -0.284 A  
HETATM   15  C   UNL     1     -11.805  14.518  68.812  1.00  0.00    -0.350 A  
HETATM   16  C   UNL     1     -11.173  13.349  68.385  1.00  0.00    -0.311 A  
ENDBRANCH  10  11
ENDBRANCH   7  10
ENDBRANCH   3   6
TORSDOF 3
ENDMDL
MODEL      214
REMARK 921   NORMALIZED FREE ENERGY PREDICTED BY IDOCK:   -2.56 KCAL/MOL
REMARK 922        TOTAL FREE ENERGY PREDICTED BY IDOCK:   -3.33 KCAL/MOL
REMARK 923 INTER-LIGAND FREE ENERGY PREDICTED BY IDOCK:   -2.90 KCAL/MOL
REMARK 924 INTRA-LIGAND FREE ENERGY PREDICTED BY IDOCK:   -0.43 KCAL/MOL
REMARK 927      BINDING AFFINITY PREDICTED BY RF-SCORE:    0.00 PKD
ROOT
HETATM    1  N   UNL     1     -10.552   5.307  69.565  1.00  0.00    -0.247 N  
HETATM    2  H1  UNL     1      -9.829   5.255  68.847  1.00  0.00     0.000 HD 
HETATM    3  C   UNL     1     -11.257   6.435  69.784  1.00  0.00    -0.419 C  
HETATM    4  H2  UNL     1     -10.747   4.482  70.132  1.00  0.00     0.000 HD 
HETATM    5  O   UNL     1     -12.125   6.498  70.647  1.00  0.00    -0.366 OA 
ENDROOT
BRANCH   3   6
HETATM    6  N   UNL     1     -10.973   7.508  68.987  1.00  0.00    -0.424 N  
HETATM    7  C   UNL     1     -10.842   7.534  67.609  1.00  0.00    -0.127 C  
HETATM    8  H   UNL     1     -10.841   8.399  69.466  1.00  0.00     0.000 HD 
HETATM    9  O   UNL     1     -10.942   6.544  66.885  1.00  0.00    -0.373 OA 
BRANCH   7  10
HETATM   10  C   UNL     1     -10.534   8.911  67.047  1.00  0.00    -0.326 C  
BRANCH  10  11
HETATM   11  C   UNL     1      -9.084   9.299  67.185  1.00  0.00    -0.149 A  
HETATM   12  C   UNL     1      -8.127   8.833  66.270  1.00  0.00    -0.107 A  
HETATM   13  C   UNL     1      -6.791   9.220  66.379  1.00  0.00    -0.083 A  
HETATM   14  C   UNL     1      -6.397  10.084  67.398  1.00  0.00    -0.067 A  
HETATM   15  C   UNL     1      -7.337  10.560  68.308  1.00  0.00    -0.088 A  
HETATM   16  C   UNL     1      -8.675  10.172  68.204  1.00  0.00    -0.122 A  
ENDBRANCH  10  11
ENDBRANCH   7  10
ENDBRANCH   3   6
TORSDOF 3
ENDMDL
MODEL      215
REMARK 921   NORMALIZED FREE ENERGY PREDICTED BY IDOCK:   -2.56 KCAL/MOL
REMARK 922        TOTAL FREE ENERGY PREDICTED BY IDOCK:   -3.33 KCAL/MOL
REMARK 923 INTER-LIGAND FREE ENERGY PREDICTED BY IDOCK:   -3.03 KCAL/MOL
REMARK 924 INTRA-LIGAND FREE ENERGY PREDICTED BY IDOCK:   -0.30 KCAL/MOL
REMARK 927      BINDING AFFINITY PREDICTED BY RF-SCORE:    0.00 PKD
ROOT
HETATM    1  N   UNL     1     -10.815   5.490  65.729  1.00  0.00    -0.524 N  
HETATM    2  H1  UNL     1     -11.488   6.255  65.683  1.00  0.00     0.000 HD 
HETATM    3  C   UNL     1      -9.517   5.702  66.030  1.00  0.00    -0.110 C  
HETATM    4  H2  UNL     1     -11.132   4.539  65.544  1.00  0.00     0.000 HD 
HETATM    5  O   UNL     1      -8.708   4.782  66.087  1.00  0.00    -0.114 OA 
ENDROOT
BRANCH   3   6
HETATM    6  N   UNL     1      -9.143   6.990  66.288  1.00  0.00    -0.207 N  
HETATM    7  C   UNL     1      -9.880   7.982  66.912  1.00  0.00    -0.248 C  
HETATM    8  H   UNL     1      -8.206   7.254  65.983  1.00  0.00     0.000 HD 
HETATM    9  O   UNL     1     -11.034   7.839  67.314  1.00  0.00    -0.221 OA 
BRANCH   7  10
HETATM   10  C   UNL     1      -9.143   9.303  67.046  1.00  0.00    -0.153 C  
BRANCH  10  11
HETATM   11  C   UNL     1      -9.496  10.294  65.965  1.00  0.00    -0.234 A  
HETATM   12  C   UNL     1      -9.424  11.674  66.208  1.00  0.00    -0.233 A  
HETATM   13  C   UNL     1      -9.718  12.590  65.197  1.00  0.00    -0.042 A  
HETATM   14  C   UNL     1     -10.078  12.138  63.930  1.00  0.00    -0.387 A  
HETATM   15  C   UNL     1     -10.146  10.771  63.674  1.00  0.00    -0.375 A  
HETATM   16  C   UNL     1      -9.856   9.851  64.684  1.00  0.00    -0.185 A  
ENDBRANCH  10  11
ENDBRANCH   7  10
ENDBRANCH   3   6
TORSDOF 3
ENDMDL
MODEL      216
REMARK 921   NORMALIZED FREE ENERGY PREDICTED BY IDOCK:   -2.52 KCAL/MOL
REMARK 922        TOTAL FREE ENERGY PREDICTED BY IDOCK:   -3.29 KCAL/MOL
REMARK 923 INTER-LIGAND FREE ENERGY PREDICTED BY IDOCK:   -3.09 KCAL/MOL
REMARK 924 INTRA-LIGAND FREE ENERGY PREDICTED BY IDOCK:   -0.19 KCAL/MOL
REMARK 927      BINDING AFFINITY PREDICTED BY RF-SCORE:    0.00 PKD
ROOT
HETATM    1  N   UNL     1     -12.349   9.085  72.285  1.00  0.00    -0.356 N  
HETATM    2  H1  UNL     1     -11.450   9.567  72.251  1.00  0.00     0.000 HD 
HETATM    3  C   UNL     1     -12.583   7.964  71.574  1.00  0.00    -0.321 C  
HETATM    4  H2  UNL     1     -13.091   9.463  72.875  1.00  0.00     0.000 HD 
HETATM    5  O   UNL     1     -13.664   7.385  71.616  1.00  0.00    -0.377 OA 
ENDROOT
BRANCH   3   6
HETATM    6  N   UNL     1     -11.554   7.486  70.813  1.00  0.00    -0.314 N  
HETATM    7  C   UNL     1     -10.791   8.172  69.884  1.00  0.00    -0.215 C  
HETATM    8  H   UNL     1     -11.319   6.502  70.946  1.00  0.00     0.000 HD 
HETATM    9  O   UNL     1     -10.962   9.354  69.585  1.00  0.00    -0.239 OA 
BRANCH   7  10
HETATM   10  C   UNL     1      -9.714   7.328  69.229  1.00  0.00    -0.161 C  
BRANCH  10  11
HETATM   11  C   UNL     1      -9.341   6.109  70.035  1.00  0.00    -0.166 A  
HETATM   12  C   UNL     1      -8.436   6.207  71.104  1.00  0.00    -0.125 A  
HETATM   13  C   UNL     1      -8.117   5.085  71.870  1.00  0.00    -0.115 A  
HETATM   14  C   UNL     1      -8.705   3.855  71.583  1.00  0.00    -0.129 A  
HETATM   15  C   UNL     1      -9.609   3.746  70.530  1.00  0.00    -0.262 A  
HETATM   16  C   UNL     1      -9.928   4.866  69.759  1.00  0.00    -0.314 A  
ENDBRANCH  10  11
ENDBRANCH   7  10
ENDBRANCH   3   6
TORSDOF 3
ENDMDL
MODEL      217
REMARK 921   NORMALIZED FREE ENERGY PREDICTED BY IDOCK:   -2.50 KCAL/MOL
REMARK 922        TOTAL FREE ENERGY PREDICTED BY IDOCK:   -3.26 KCAL/MOL
REMARK 923 INTER-LIGAND FREE ENERGY PREDICTED BY IDOCK:   -2.89 KCAL/MOL
REMARK 924 INTRA-LIGAND FREE ENERGY PREDICTED BY IDOCK:   -0.37 KCAL/MOL
REMARK 927      BINDING AFFINITY PREDICTED BY RF-SCORE:    0.00 PKD
ROOT
HETATM    1  N   UNL     1      -7.740   3.311  68.390  1.00  0.00    -0.055 N  
HETATM    2  H1  UNL     1      -8.079   2.802  69.206  1.00  0.00     0.000 HD 
HETATM    3  C   UNL     1      -8.375   4.402  67.917  1.00  0.00    -0.095 C  
HETATM    4  H2  UNL     1      -6.896   2.986  67.919  1.00  0.00     0.000 HD 
HETATM    5  O   UNL     1      -7.966   5.014  66.936  1.00  0.00    -0.102 OA 
ENDROOT
BRANCH   3   6
HETATM    6  N   UNL     1      -9.490   4.811  68.592  1.00  0.00    -0.140 N  
HETATM    7  C   UNL     1      -9.632   5.027  69.952  1.00  0.00    -0.176 C  
HETATM    8  H   UNL     1     -10.321   4.977  68.024  1.00  0.00     0.000 HD 
HETATM    9  O   UNL     1      -8.738   4.846  70.779  1.00  0.00    -0.116 OA 
BRANCH   7  10
HETATM   10  C   UNL     1     -11.017   5.494  70.360  1.00  0.00    -0.199 C  
BRANCH  10  11
HETATM   11  C   UNL     1     -11.095   6.980  70.609  1.00  0.00    -0.307 A  
HETATM   12  C   UNL     1     -10.336   7.875  69.838  1.00  0.00    -0.224 A  
HETATM   13  C   UNL     1     -10.433   9.251  70.046  1.00  0.00    -0.254 A  
HETATM   14  C   UNL     1     -11.296   9.749  71.019  1.00  0.00    -0.460 A  
HETATM   15  C   UNL     1     -12.060   8.873  71.785  1.00  0.00    -0.432 A  
HETATM   16  C   UNL     1     -11.963   7.494  71.582  1.00  0.00    -0.333 A  
ENDBRANCH  10  11
ENDBRANCH   7  10
ENDBRANCH   3   6
TORSDOF 3
ENDMDL
MODEL      218
REMARK 921   NORMALIZED FREE ENERGY PREDICTED BY IDOCK:   -2.49 KCAL/MOL
REMARK 922        TOTAL FREE ENERGY PREDICTED BY IDOCK:   -3.26 KCAL/MOL
REMARK 923 INTER-LIGAND FREE ENERGY PREDICTED BY IDOCK:   -3.33 KCAL/MOL
REMARK 924 INTRA-LIGAND FREE ENERGY PREDICTED BY IDOCK:    0.07 KCAL/MOL
REMARK 927      BINDING AFFINITY PREDICTED BY RF-SCORE:    0.00 PKD
ROOT
HETATM    1  N   UNL     1     -11.834  12.511  69.700  1.00  0.00    -0.323 N  
HETATM    2  H1  UNL     1     -11.089  12.762  69.049  1.00  0.00     0.000 HD 
HETATM    3  C   UNL     1     -11.908  11.285  70.257  1.00  0.00    -0.357 C  
HETATM    4  H2  UNL     1     -12.541  13.206  69.936  1.00  0.00     0.000 HD 
HETATM    5  O   UNL     1     -12.803  10.984  71.040  1.00  0.00    -0.359 OA 
ENDROOT
BRANCH   3   6
HETATM    6  N   UNL     1     -10.928  10.393  69.926  1.00  0.00    -0.286 N  
HETATM    7  C   UNL     1      -9.836  10.595  69.099  1.00  0.00    -0.200 C  
HETATM    8  H   UNL     1     -11.011   9.463  70.338  1.00  0.00     0.000 HD 
HETATM    9  O   UNL     1      -9.604  11.646  68.503  1.00  0.00    -0.196 OA 
BRANCH   7  10
HETATM   10  C   UNL     1      -8.935   9.381  68.963  1.00  0.00    -0.141 C  
BRANCH  10  11
HETATM   11  C   UNL     1      -9.565   8.111  69.478  1.00  0.00    -0.168 A  
HETATM   12  C   UNL     1     -10.206   7.223  68.601  1.00  0.00    -0.191 A  
HETATM   13  C   UNL     1     -10.760   6.032  69.074  1.00  0.00    -0.393 A  
HETATM   14  C   UNL     1     -10.671   5.711  70.426  1.00  0.00    -0.352 A  
HETATM   15  C   UNL     1     -10.031   6.580  71.306  1.00  0.00    -0.200 A  
HETATM   16  C   UNL     1      -9.479   7.774  70.837  1.00  0.00    -0.165 A  
ENDBRANCH  10  11
ENDBRANCH   7  10
ENDBRANCH   3   6
TORSDOF 3
ENDMDL
MODEL      219
REMARK 921   NORMALIZED FREE ENERGY PREDICTED BY IDOCK:   -2.48 KCAL/MOL
REMARK 922        TOTAL FREE ENERGY PREDICTED BY IDOCK:   -3.24 KCAL/MOL
REMARK 923 INTER-LIGAND FREE ENERGY PREDICTED BY IDOCK:   -2.91 KCAL/MOL
REMARK 924 INTRA-LIGAND FREE ENERGY PREDICTED BY IDOCK:   -0.33 KCAL/MOL
REMARK 927      BINDING AFFINITY PREDICTED BY RF-SCORE:    0.00 PKD
ROOT
HETATM    1  N   UNL     1     -11.534   7.497  73.312  1.00  0.00    -0.572 N  
HETATM    2  H1  UNL     1     -12.218   7.257  72.594  1.00  0.00     0.000 HD 
HETATM    3  C   UNL     1     -10.329   6.896  73.376  1.00  0.00    -0.308 C  
HETATM    4  H2  UNL     1     -11.768   8.213  73.999  1.00  0.00     0.000 HD 
HETATM    5  O   UNL     1      -9.507   7.186  74.238  1.00  0.00    -0.247 OA 
ENDROOT
BRANCH   3   6
HETATM    6  N   UNL     1     -10.053   5.957  72.423  1.00  0.00    -0.175 N  
HETATM    7  C   UNL     1     -10.376   5.989  71.077  1.00  0.00    -0.216 C  
HETATM    8  H   UNL     1      -9.547   5.131  72.742  1.00  0.00     0.000 HD 
HETATM    9  O   UNL     1     -11.007   6.897  70.538  1.00  0.00    -0.247 OA 
BRANCH   7  10
HETATM   10  C   UNL     1      -9.899   4.774  70.301  1.00  0.00    -0.313 C  
BRANCH  10  11
HETATM   11  C   UNL     1      -9.549   5.084  68.867  1.00  0.00    -0.213 A  
HETATM   12  C   UNL     1     -10.272   4.503  67.813  1.00  0.00     0.022 A  
HETATM   13  C   UNL     1      -9.969   4.816  66.487  1.00  0.00    -0.262 A  
HETATM   14  C   UNL     1      -8.950   5.720  66.200  1.00  0.00    -0.154 A  
HETATM   15  C   UNL     1      -8.231   6.309  67.236  1.00  0.00    -0.109 A  
HETATM   16  C   UNL     1      -8.528   5.995  68.564  1.00  0.00    -0.113 A  
ENDBRANCH  10  11
ENDBRANCH   7  10
ENDBRANCH   3   6
TORSDOF 3
ENDMDL
MODEL      220
REMARK 921   NORMALIZED FREE ENERGY PREDICTED BY IDOCK:   -2.48 KCAL/MOL
REMARK 922        TOTAL FREE ENERGY PREDICTED BY IDOCK:   -3.24 KCAL/MOL
REMARK 923 INTER-LIGAND FREE ENERGY PREDICTED BY IDOCK:   -2.96 KCAL/MOL
REMARK 924 INTRA-LIGAND FREE ENERGY PREDICTED BY IDOCK:   -0.28 KCAL/MOL
REMARK 927      BINDING AFFINITY PREDICTED BY RF-SCORE:    0.00 PKD
ROOT
HETATM    1  N   UNL     1     -11.512  13.785  69.647  1.00  0.00    -0.376 N  
HETATM    2  H1  UNL     1     -11.864  13.570  70.580  1.00  0.00     0.000 HD 
HETATM    3  C   UNL     1     -10.764  12.906  68.949  1.00  0.00    -0.160 C  
HETATM    4  H2  UNL     1     -11.732  14.689  69.231  1.00  0.00     0.000 HD 
HETATM    5  O   UNL     1     -10.341  13.164  67.828  1.00  0.00    -0.222 OA 
ENDROOT
BRANCH   3   6
HETATM    6  N   UNL     1     -10.510  11.701  69.541  1.00  0.00    -0.429 N  
HETATM    7  C   UNL     1     -11.424  10.751  69.965  1.00  0.00    -0.331 C  
HETATM    8  H   UNL     1      -9.527  11.473  69.689  1.00  0.00     0.000 HD 
HETATM    9  O   UNL     1     -12.645  10.881  69.886  1.00  0.00    -0.289 OA 
BRANCH   7  10
HETATM   10  C   UNL     1     -10.788   9.513  70.571  1.00  0.00    -0.352 C  
BRANCH  10  11
HETATM   11  C   UNL     1      -9.444   9.180  69.971  1.00  0.00    -0.218 A  
HETATM   12  C   UNL     1      -8.281   9.222  70.755  1.00  0.00    -0.210 A  
HETATM   13  C   UNL     1      -7.043   8.882  70.208  1.00  0.00    -0.049 A  
HETATM   14  C   UNL     1      -6.955   8.487  68.875  1.00  0.00    -0.062 A  
HETATM   15  C   UNL     1      -8.103   8.434  68.089  1.00  0.00    -0.120 A  
HETATM   16  C   UNL     1      -9.343   8.777  68.632  1.00  0.00    -0.141 A  
ENDBRANCH  10  11
ENDBRANCH   7  10
ENDBRANCH   3   6
TORSDOF 3
ENDMDL
MODEL      221
REMARK 921   NORMALIZED FREE ENERGY PREDICTED BY IDOCK:   -2.45 KCAL/MOL
REMARK 922        TOTAL FREE ENERGY PREDICTED BY IDOCK:   -3.21 KCAL/MOL
REMARK 923 INTER-LIGAND FREE ENERGY PREDICTED BY IDOCK:   -3.09 KCAL/MOL
REMARK 924 INTRA-LIGAND FREE ENERGY PREDICTED BY IDOCK:   -0.12 KCAL/MOL
REMARK 927      BINDING AFFINITY PREDICTED BY RF-SCORE:    0.00 PKD
ROOT
HETATM    1  N   UNL     1      -5.752  13.549  70.604  1.00  0.00    -0.174 N  
HETATM    2  H1  UNL     1      -5.507  12.569  70.459  1.00  0.00     0.000 HD 
HETATM    3  C   UNL     1      -6.816  14.114  69.997  1.00  0.00     0.072 C  
HETATM    4  H2  UNL     1      -5.177  14.117  71.225  1.00  0.00     0.000 HD 
HETATM    5  O   UNL     1      -7.110  15.291  70.171  1.00  0.00    -0.091 OA 
ENDROOT
BRANCH   3   6
HETATM    6  N   UNL     1      -7.567  13.309  69.187  1.00  0.00    -0.320 N  
HETATM    7  C   UNL     1      -7.620  13.303  67.804  1.00  0.00    -0.161 C  
HETATM    8  H   UNL     1      -8.162  12.629  69.661  1.00  0.00     0.000 HD 
HETATM    9  O   UNL     1      -6.988  14.075  67.083  1.00  0.00    -0.135 OA 
BRANCH   7  10
HETATM   10  C   UNL     1      -8.560  12.258  67.229  1.00  0.00    -0.183 C  
BRANCH  10  11
HETATM   11  C   UNL     1      -9.917  12.811  66.872  1.00  0.00    -0.232 A  
HETATM   12  C   UNL     1     -10.810  12.063  66.089  1.00  0.00    -0.325 A  
HETATM   13  C   UNL     1     -12.078  12.561  65.786  1.00  0.00    -0.443 A  
HETATM   14  C   UNL     1     -12.471  13.807  66.269  1.00  0.00    -0.441 A  
HETATM   15  C   UNL     1     -11.597  14.556  67.053  1.00  0.00    -0.402 A  
HETATM   16  C   UNL     1     -10.326  14.062  67.355  1.00  0.00    -0.259 A  
ENDBRANCH  10  11
ENDBRANCH   7  10
ENDBRANCH   3   6
TORSDOF 3
ENDMDL
MODEL      222
REMARK 921   NORMALIZED FREE ENERGY PREDICTED BY IDOCK:   -2.41 KCAL/MOL
REMARK 922        TOTAL FREE ENERGY PREDICTED BY IDOCK:   -3.16 KCAL/MOL
REMARK 923 INTER-LIGAND FREE ENERGY PREDICTED BY IDOCK:   -2.88 KCAL/MOL
REMARK 924 INTRA-LIGAND FREE ENERGY PREDICTED BY IDOCK:   -0.28 KCAL/MOL
REMARK 927      BINDING AFFINITY PREDICTED BY RF-SCORE:    0.00 PKD
ROOT
HETATM    1  N   UNL     1      -8.558   4.496  68.652  1.00  0.00    -0.088 N  
HETATM    2  H1  UNL     1      -9.213   5.267  68.524  1.00  0.00     0.000 HD 
HETATM    3  C   UNL     1      -8.160   4.096  69.876  1.00  0.00    -0.055 C  
HETATM    4  H2  UNL     1      -8.194   4.013  67.830  1.00  0.00     0.000 HD 
HETATM    5  O   UNL     1      -7.372   3.169  70.030  1.00  0.00    -0.041 OA 
ENDROOT
BRANCH   3   6
HETATM    6  N   UNL     1      -8.688   4.760  70.947  1.00  0.00    -0.109 N  
HETATM    7  C   UNL     1      -9.676   4.327  71.815  1.00  0.00    -0.169 C  
HETATM    8  H   UNL     1      -8.309   5.689  71.129  1.00  0.00     0.000 HD 
HETATM    9  O   UNL     1     -10.257   3.246  71.720  1.00  0.00    -0.110 OA 
BRANCH   7  10
HETATM   10  C   UNL     1     -10.013   5.324  72.910  1.00  0.00    -0.192 C  
BRANCH  10  11
HETATM   11  C   UNL     1     -10.862   6.473  72.427  1.00  0.00    -0.264 A  
HETATM   12  C   UNL     1     -10.360   7.784  72.430  1.00  0.00    -0.311 A  
HETATM   13  C   UNL     1     -11.135   8.842  71.952  1.00  0.00    -0.442 A  
HETATM   14  C   UNL     1     -12.414   8.602  71.458  1.00  0.00    -0.364 A  
HETATM   15  C   UNL     1     -12.921   7.305  71.443  1.00  0.00    -0.420 A  
HETATM   16  C   UNL     1     -12.150   6.244  71.923  1.00  0.00    -0.311 A  
ENDBRANCH  10  11
ENDBRANCH   7  10
ENDBRANCH   3   6
TORSDOF 3
ENDMDL
MODEL      223
REMARK 921   NORMALIZED FREE ENERGY PREDICTED BY IDOCK:   -2.41 KCAL/MOL
REMARK 922        TOTAL FREE ENERGY PREDICTED BY IDOCK:   -3.16 KCAL/MOL
REMARK 923 INTER-LIGAND FREE ENERGY PREDICTED BY IDOCK:   -2.73 KCAL/MOL
REMARK 924 INTRA-LIGAND FREE ENERGY PREDICTED BY IDOCK:   -0.43 KCAL/MOL
REMARK 927      BINDING AFFINITY PREDICTED BY RF-SCORE:    0.00 PKD
ROOT
HETATM    1  N   UNL     1      -7.701  13.745  68.899  1.00  0.00    -0.290 N  
HETATM    2  H1  UNL     1      -7.589  12.861  69.396  1.00  0.00     0.000 HD 
HETATM    3  C   UNL     1      -7.974  13.789  67.579  1.00  0.00    -0.181 C  
HETATM    4  H2  UNL     1      -7.606  14.619  69.416  1.00  0.00     0.000 HD 
HETATM    5  O   UNL     1      -8.110  14.852  66.983  1.00  0.00    -0.205 OA 
ENDROOT
BRANCH   3   6
HETATM    6  N   UNL     1      -8.110  12.593  66.934  1.00  0.00    -0.381 N  
HETATM    7  C   UNL     1      -7.167  11.590  66.790  1.00  0.00    -0.111 C  
HETATM    8  H   UNL     1      -9.019  12.417  66.505  1.00  0.00     0.000 HD 
HETATM    9  O   UNL     1      -6.016  11.655  67.221  1.00  0.00    -0.081 OA 
BRANCH   7  10
HETATM   10  C   UNL     1      -7.667  10.381  66.019  1.00  0.00    -0.136 C  
BRANCH  10  11
HETATM   11  C   UNL     1      -8.594   9.505  66.823  1.00  0.00    -0.133 A  
HETATM   12  C   UNL     1      -9.725   8.925  66.228  1.00  0.00    -0.345 A  
HETATM   13  C   UNL     1     -10.564   8.087  66.964  1.00  0.00    -0.364 A  
HETATM   14  C   UNL     1     -10.278   7.812  68.299  1.00  0.00    -0.236 A  
HETATM   15  C   UNL     1      -9.154   8.375  68.899  1.00  0.00    -0.147 A  
HETATM   16  C   UNL     1      -8.314   9.216  68.166  1.00  0.00    -0.120 A  
ENDBRANCH  10  11
ENDBRANCH   7  10
ENDBRANCH   3   6
TORSDOF 3
ENDMDL
MODEL      224
REMARK 921   NORMALIZED FREE ENERGY PREDICTED BY IDOCK:   -2.38 KCAL/MOL
REMARK 922        TOTAL FREE ENERGY PREDICTED BY IDOCK:   -3.12 KCAL/MOL
REMARK 923 INTER-LIGAND FREE ENERGY PREDICTED BY IDOCK:   -2.91 KCAL/MOL
REMARK 924 INTRA-LIGAND FREE ENERGY PREDICTED BY IDOCK:   -0.21 KCAL/MOL
REMARK 927      BINDING AFFINITY PREDICTED BY RF-SCORE:    0.00 PKD
ROOT
HETATM    1  N   UNL     1      -8.575   8.086  74.391  1.00  0.00    -0.424 N  
HETATM    2  H1  UNL     1      -7.582   8.315  74.340  1.00  0.00     0.000 HD 
HETATM    3  C   UNL     1      -9.376   8.145  73.308  1.00  0.00    -0.238 C  
HETATM    4  H2  UNL     1      -8.972   7.804  75.287  1.00  0.00     0.000 HD 
HETATM    5  O   UNL     1     -10.569   7.870  73.371  1.00  0.00    -0.297 OA 
ENDROOT
BRANCH   3   6
HETATM    6  N   UNL     1      -8.795   8.510  72.127  1.00  0.00    -0.218 N  
HETATM    7  C   UNL     1      -8.540   7.716  71.022  1.00  0.00    -0.131 C  
HETATM    8  H   UNL     1      -8.514   9.488  72.049  1.00  0.00     0.000 HD 
HETATM    9  O   UNL     1      -8.789   6.512  70.962  1.00  0.00    -0.138 OA 
BRANCH   7  10
HETATM   10  C   UNL     1      -7.890   8.458  69.868  1.00  0.00    -0.101 C  
BRANCH  10  11
HETATM   11  C   UNL     1      -8.883   9.172  68.985  1.00  0.00    -0.139 A  
HETATM   12  C   UNL     1      -9.450   8.524  67.877  1.00  0.00    -0.157 A  
HETATM   13  C   UNL     1     -10.394   9.173  67.080  1.00  0.00    -0.333 A  
HETATM   14  C   UNL     1     -10.789  10.473  67.387  1.00  0.00    -0.349 A  
HETATM   15  C   UNL     1     -10.239  11.125  68.488  1.00  0.00    -0.209 A  
HETATM   16  C   UNL     1      -9.292  10.479  69.286  1.00  0.00    -0.177 A  
ENDBRANCH  10  11
ENDBRANCH   7  10
ENDBRANCH   3   6
TORSDOF 3
ENDMDL
MODEL      225
REMARK 921   NORMALIZED FREE ENERGY PREDICTED BY IDOCK:   -2.37 KCAL/MOL
REMARK 922        TOTAL FREE ENERGY PREDICTED BY IDOCK:   -3.11 KCAL/MOL
REMARK 923 INTER-LIGAND FREE ENERGY PREDICTED BY IDOCK:   -2.82 KCAL/MOL
REMARK 924 INTRA-LIGAND FREE ENERGY PREDICTED BY IDOCK:   -0.29 KCAL/MOL
REMARK 927      BINDING AFFINITY PREDICTED BY RF-SCORE:    0.00 PKD
ROOT
HETATM    1  N   UNL     1      -8.276   6.304  67.721  1.00  0.00    -0.117 N  
HETATM    2  H1  UNL     1      -7.645   6.868  67.152  1.00  0.00     0.000 HD 
HETATM    3  C   UNL     1      -9.447   6.791  68.180  1.00  0.00    -0.120 C  
HETATM    4  H2  UNL     1      -8.015   5.345  67.949  1.00  0.00     0.000 HD 
HETATM    5  O   UNL     1     -10.206   6.113  68.864  1.00  0.00    -0.159 OA 
ENDROOT
BRANCH   3   6
HETATM    6  N   UNL     1      -9.763   8.075  67.834  1.00  0.00    -0.155 N  
HETATM    7  C   UNL     1      -8.913   9.163  67.733  1.00  0.00    -0.127 C  
HETATM    8  H   UNL     1     -10.745   8.253  67.624  1.00  0.00     0.000 HD 
HETATM    9  O   UNL     1      -7.708   9.126  67.978  1.00  0.00    -0.091 OA 
BRANCH   7  10
HETATM   10  C   UNL     1      -9.605  10.445  67.307  1.00  0.00    -0.182 C  
BRANCH  10  11
HETATM   11  C   UNL     1      -9.623  10.643  65.812  1.00  0.00    -0.258 A  
HETATM   12  C   UNL     1      -8.829   9.844  64.975  1.00  0.00    -0.220 A  
HETATM   13  C   UNL     1      -8.871  10.005  63.589  1.00  0.00    -0.249 A  
HETATM   14  C   UNL     1      -9.714  10.959  63.024  1.00  0.00    -0.380 A  
HETATM   15  C   UNL     1     -10.513  11.753  63.843  1.00  0.00    -0.437 A  
HETATM   16  C   UNL     1     -10.470  11.597  65.230  1.00  0.00    -0.323 A  
ENDBRANCH  10  11
ENDBRANCH   7  10
ENDBRANCH   3   6
TORSDOF 3
ENDMDL
MODEL      226
REMARK 921   NORMALIZED FREE ENERGY PREDICTED BY IDOCK:   -2.33 KCAL/MOL
REMARK 922        TOTAL FREE ENERGY PREDICTED BY IDOCK:   -3.07 KCAL/MOL
REMARK 923 INTER-LIGAND FREE ENERGY PREDICTED BY IDOCK:   -2.92 KCAL/MOL
REMARK 924 INTRA-LIGAND FREE ENERGY PREDICTED BY IDOCK:   -0.15 KCAL/MOL
REMARK 927      BINDING AFFINITY PREDICTED BY RF-SCORE:    0.00 PKD
ROOT
HETATM    1  N   UNL     1      -6.806   5.712  66.361  1.00  0.00    -0.057 N  
HETATM    2  H1  UNL     1      -6.385   6.626  66.186  1.00  0.00     0.000 HD 
HETATM    3  C   UNL     1      -7.788   5.543  67.269  1.00  0.00    -0.101 C  
HETATM    4  H2  UNL     1      -6.474   4.906  65.832  1.00  0.00     0.000 HD 
HETATM    5  O   UNL     1      -8.294   4.446  67.477  1.00  0.00    -0.099 OA 
ENDROOT
BRANCH   3   6
HETATM    6  N   UNL     1      -8.212   6.656  67.938  1.00  0.00    -0.119 N  
HETATM    7  C   UNL     1      -9.333   7.427  67.685  1.00  0.00    -0.133 C  
HETATM    8  H   UNL     1      -7.630   6.956  68.721  1.00  0.00     0.000 HD 
HETATM    9  O   UNL     1     -10.123   7.220  66.763  1.00  0.00    -0.224 OA 
BRANCH   7  10
HETATM   10  C   UNL     1      -9.508   8.592  68.642  1.00  0.00    -0.144 C  
BRANCH  10  11
HETATM   11  C   UNL     1     -10.294   8.234  69.878  1.00  0.00    -0.218 A  
HETATM   12  C   UNL     1     -11.030   7.040  69.937  1.00  0.00    -0.296 A  
HETATM   13  C   UNL     1     -11.731   6.693  71.093  1.00  0.00    -0.399 A  
HETATM   14  C   UNL     1     -11.696   7.530  72.206  1.00  0.00    -0.348 A  
HETATM   15  C   UNL     1     -10.964   8.714  72.163  1.00  0.00    -0.434 A  
HETATM   16  C   UNL     1     -10.265   9.066  71.007  1.00  0.00    -0.347 A  
ENDBRANCH  10  11
ENDBRANCH   7  10
ENDBRANCH   3   6
TORSDOF 3
ENDMDL
MODEL      227
REMARK 921   NORMALIZED FREE ENERGY PREDICTED BY IDOCK:   -2.31 KCAL/MOL
REMARK 922        TOTAL FREE ENERGY PREDICTED BY IDOCK:   -3.04 KCAL/MOL
REMARK 923 INTER-LIGAND FREE ENERGY PREDICTED BY IDOCK:   -2.58 KCAL/MOL
REMARK 924 INTRA-LIGAND FREE ENERGY PREDICTED BY IDOCK:   -0.46 KCAL/MOL
REMARK 927      BINDING AFFINITY PREDICTED BY RF-SCORE:    0.00 PKD
ROOT
HETATM    1  N   UNL     1     -11.967  11.743  70.047  1.00  0.00    -0.341 N  
HETATM    2  H1  UNL     1     -11.091  11.977  69.581  1.00  0.00     0.000 HD 
HETATM    3  C   UNL     1     -12.264  10.479  70.413  1.00  0.00    -0.328 C  
HETATM    4  H2  UNL     1     -12.638  12.486  70.243  1.00  0.00     0.000 HD 
HETATM    5  O   UNL     1     -13.318  10.199  70.974  1.00  0.00    -0.387 OA 
ENDROOT
BRANCH   3   6
HETATM    6  N   UNL     1     -11.327   9.521  70.147  1.00  0.00    -0.332 N  
HETATM    7  C   UNL     1     -10.616   9.327  68.975  1.00  0.00    -0.205 C  
HETATM    8  H   UNL     1     -11.127   8.868  70.905  1.00  0.00     0.000 HD 
HETATM    9  O   UNL     1     -10.758  10.007  67.958  1.00  0.00    -0.223 OA 
BRANCH   7  10
HETATM   10  C   UNL     1      -9.639   8.167  69.033  1.00  0.00    -0.156 C  
BRANCH  10  11
HETATM   11  C   UNL     1      -8.537   8.367  70.042  1.00  0.00    -0.131 A  
HETATM   12  C   UNL     1      -8.418   7.515  71.151  1.00  0.00    -0.117 A  
HETATM   13  C   UNL     1      -7.377   7.681  72.066  1.00  0.00    -0.072 A  
HETATM   14  C   UNL     1      -6.439   8.693  71.879  1.00  0.00    -0.074 A  
HETATM   15  C   UNL     1      -6.541   9.540  70.778  1.00  0.00    -0.104 A  
HETATM   16  C   UNL     1      -7.583   9.379  69.862  1.00  0.00    -0.109 A  
ENDBRANCH  10  11
ENDBRANCH   7  10
ENDBRANCH   3   6
TORSDOF 3
ENDMDL
MODEL      228
REMARK 921   NORMALIZED FREE ENERGY PREDICTED BY IDOCK:   -2.28 KCAL/MOL
REMARK 922        TOTAL FREE ENERGY PREDICTED BY IDOCK:   -3.00 KCAL/MOL
REMARK 923 INTER-LIGAND FREE ENERGY PREDICTED BY IDOCK:   -2.64 KCAL/MOL
REMARK 924 INTRA-LIGAND FREE ENERGY PREDICTED BY IDOCK:   -0.37 KCAL/MOL
REMARK 927      BINDING AFFINITY PREDICTED BY RF-SCORE:    0.00 PKD
ROOT
HETATM    1  N   UNL     1      -8.487   5.330  71.413  1.00  0.00    -0.123 N  
HETATM    2  H1  UNL     1      -7.894   5.482  70.596  1.00  0.00     0.000 HD 
HETATM    3  C   UNL     1      -9.786   5.690  71.426  1.00  0.00    -0.162 C  
HETATM    4  H2  UNL     1      -8.085   4.893  72.242  1.00  0.00     0.000 HD 
HETATM    5  O   UNL     1     -10.498   5.507  72.407  1.00  0.00    -0.199 OA 
ENDROOT
BRANCH   3   6
HETATM    6  N   UNL     1     -10.284   6.255  70.285  1.00  0.00    -0.189 N  
HETATM    7  C   UNL     1      -9.896   7.438  69.681  1.00  0.00    -0.175 C  
HETATM    8  H   UNL     1     -11.034   5.742  69.822  1.00  0.00     0.000 HD 
HETATM    9  O   UNL     1      -9.027   8.190  70.124  1.00  0.00    -0.144 OA 
BRANCH   7  10
HETATM   10  C   UNL     1     -10.659   7.759  68.409  1.00  0.00    -0.157 C  
BRANCH  10  11
HETATM   11  C   UNL     1     -10.399   9.153  67.895  1.00  0.00    -0.285 A  
HETATM   12  C   UNL     1      -9.456   9.376  66.879  1.00  0.00    -0.204 A  
HETATM   13  C   UNL     1      -9.240  10.662  66.381  1.00  0.00    -0.190 A  
HETATM   14  C   UNL     1      -9.970  11.736  66.883  1.00  0.00    -0.220 A  
HETATM   15  C   UNL     1     -10.914  11.526  67.885  1.00  0.00    -0.287 A  
HETATM   16  C   UNL     1     -11.130  10.242  68.389  1.00  0.00    -0.302 A  
ENDBRANCH  10  11
ENDBRANCH   7  10
ENDBRANCH   3   6
TORSDOF 3
ENDMDL
MODEL      229
REMARK 921   NORMALIZED FREE ENERGY PREDICTED BY IDOCK:   -2.28 KCAL/MOL
REMARK 922        TOTAL FREE ENERGY PREDICTED BY IDOCK:   -3.00 KCAL/MOL
REMARK 923 INTER-LIGAND FREE ENERGY PREDICTED BY IDOCK:   -2.64 KCAL/MOL
REMARK 924 INTRA-LIGAND FREE ENERGY PREDICTED BY IDOCK:   -0.36 KCAL/MOL
REMARK 927      BINDING AFFINITY PREDICTED BY RF-SCORE:    0.00 PKD
ROOT
HETATM    1  N   UNL     1     -10.918   8.514  69.364  1.00  0.00    -0.427 N  
HETATM    2  H1  UNL     1     -10.498   8.910  68.523  1.00  0.00     0.000 HD 
HETATM    3  C   UNL     1     -10.721   7.228  69.719  1.00  0.00    -0.239 C  
HETATM    4  H2  UNL     1     -11.502   9.107  69.953  1.00  0.00     0.000 HD 
HETATM    5  O   UNL     1     -11.225   6.751  70.730  1.00  0.00    -0.267 OA 
ENDROOT
BRANCH   3   6
HETATM    6  N   UNL     1      -9.916   6.477  68.909  1.00  0.00    -0.147 N  
HETATM    7  C   UNL     1      -9.796   6.543  67.531  1.00  0.00    -0.124 C  
HETATM    8  H   UNL     1      -9.333   5.783  69.376  1.00  0.00     0.000 HD 
HETATM    9  O   UNL     1     -10.446   7.303  66.814  1.00  0.00    -0.286 OA 
BRANCH   7  10
HETATM   10  C   UNL     1      -8.790   5.563  66.954  1.00  0.00    -0.112 C  
BRANCH  10  11
HETATM   11  C   UNL     1      -9.136   5.107  65.559  1.00  0.00    -0.157 A  
HETATM   12  C   UNL     1      -8.328   5.464  64.468  1.00  0.00    -0.138 A  
HETATM   13  C   UNL     1      -8.631   5.014  63.182  1.00  0.00    -0.112 A  
HETATM   14  C   UNL     1      -9.737   4.195  62.974  1.00  0.00    -0.127 A  
HETATM   15  C   UNL     1     -10.542   3.827  64.048  1.00  0.00    -0.274 A  
HETATM   16  C   UNL     1     -10.245   4.278  65.336  1.00  0.00    -0.235 A  
ENDBRANCH  10  11
ENDBRANCH   7  10
ENDBRANCH   3   6
TORSDOF 3
ENDMDL
MODEL      230
REMARK 921   NORMALIZED FREE ENERGY PREDICTED BY IDOCK:   -2.27 KCAL/MOL
REMARK 922        TOTAL FREE ENERGY PREDICTED BY IDOCK:   -2.99 KCAL/MOL
REMARK 923 INTER-LIGAND FREE ENERGY PREDICTED BY IDOCK:   -2.58 KCAL/MOL
REMARK 924 INTRA-LIGAND FREE ENERGY PREDICTED BY IDOCK:   -0.41 KCAL/MOL
REMARK 927      BINDING AFFINITY PREDICTED BY RF-SCORE:    0.00 PKD
ROOT
HETATM    1  N   UNL     1     -11.405   4.908  65.588  1.00  0.00    -0.911 N  
HETATM    2  H1  UNL     1     -12.023   5.635  65.951  1.00  0.00     0.000 HD 
HETATM    3  C   UNL     1     -10.209   4.644  66.152  1.00  0.00    -0.277 C  
HETATM    4  H2  UNL     1     -11.701   4.366  64.777  1.00  0.00     0.000 HD 
HETATM    5  O   UNL     1      -9.467   3.771  65.716  1.00  0.00    -0.160 OA 
ENDROOT
BRANCH   3   6
HETATM    6  N   UNL     1      -9.864   5.384  67.248  1.00  0.00    -0.144 N  
HETATM    7  C   UNL     1     -10.063   6.737  67.459  1.00  0.00    -0.170 C  
HETATM    8  H   UNL     1      -9.402   4.876  68.002  1.00  0.00     0.000 HD 
HETATM    9  O   UNL     1     -10.579   7.498  66.640  1.00  0.00    -0.268 OA 
BRANCH   7  10
HETATM   10  C   UNL     1      -9.563   7.229  68.806  1.00  0.00    -0.142 C  
BRANCH  10  11
HETATM   11  C   UNL     1      -8.403   8.186  68.696  1.00  0.00    -0.126 A  
HETATM   12  C   UNL     1      -8.621   9.571  68.633  1.00  0.00    -0.119 A  
HETATM   13  C   UNL     1      -7.545  10.458  68.565  1.00  0.00    -0.095 A  
HETATM   14  C   UNL     1      -6.241   9.972  68.568  1.00  0.00    -0.045 A  
HETATM   15  C   UNL     1      -6.010   8.600  68.638  1.00  0.00    -0.045 A  
HETATM   16  C   UNL     1      -7.084   7.710  68.702  1.00  0.00    -0.080 A  
ENDBRANCH  10  11
ENDBRANCH   7  10
ENDBRANCH   3   6
TORSDOF 3
ENDMDL
MODEL      231
REMARK 921   NORMALIZED FREE ENERGY PREDICTED BY IDOCK:   -2.25 KCAL/MOL
REMARK 922        TOTAL FREE ENERGY PREDICTED BY IDOCK:   -2.97 KCAL/MOL
REMARK 923 INTER-LIGAND FREE ENERGY PREDICTED BY IDOCK:   -2.74 KCAL/MOL
REMARK 924 INTRA-LIGAND FREE ENERGY PREDICTED BY IDOCK:   -0.23 KCAL/MOL
REMARK 927      BINDING AFFINITY PREDICTED BY RF-SCORE:    0.00 PKD
ROOT
HETATM    1  N   UNL     1      -9.338   4.314  70.764  1.00  0.00    -0.138 N  
HETATM    2  H1  UNL     1      -9.048   4.715  69.872  1.00  0.00     0.000 HD 
HETATM    3  C   UNL     1      -9.912   5.062  71.728  1.00  0.00    -0.191 C  
HETATM    4  H2  UNL     1      -9.190   3.319  70.931  1.00  0.00     0.000 HD 
HETATM    5  O   UNL     1     -10.261   4.579  72.800  1.00  0.00    -0.165 OA 
ENDROOT
BRANCH   3   6
HETATM    6  N   UNL     1     -10.106   6.386  71.452  1.00  0.00    -0.188 N  
HETATM    7  C   UNL     1     -11.183   6.974  70.812  1.00  0.00    -0.285 C  
HETATM    8  H   UNL     1      -9.365   7.019  71.754  1.00  0.00     0.000 HD 
HETATM    9  O   UNL     1     -12.145   6.351  70.360  1.00  0.00    -0.305 OA 
BRANCH   7  10
HETATM   10  C   UNL     1     -11.075   8.482  70.685  1.00  0.00    -0.280 C  
BRANCH  10  11
HETATM   11  C   UNL     1     -10.238   8.922  69.510  1.00  0.00    -0.204 A  
HETATM   12  C   UNL     1     -10.334   8.261  68.275  1.00  0.00    -0.242 A  
HETATM   13  C   UNL     1      -9.583   8.690  67.179  1.00  0.00    -0.227 A  
HETATM   14  C   UNL     1      -8.736   9.788  67.302  1.00  0.00    -0.135 A  
HETATM   15  C   UNL     1      -8.638  10.458  68.519  1.00  0.00    -0.134 A  
HETATM   16  C   UNL     1      -9.385  10.029  69.619  1.00  0.00    -0.242 A  
ENDBRANCH  10  11
ENDBRANCH   7  10
ENDBRANCH   3   6
TORSDOF 3
ENDMDL
MODEL      232
REMARK 921   NORMALIZED FREE ENERGY PREDICTED BY IDOCK:   -2.25 KCAL/MOL
REMARK 922        TOTAL FREE ENERGY PREDICTED BY IDOCK:   -2.97 KCAL/MOL
REMARK 923 INTER-LIGAND FREE ENERGY PREDICTED BY IDOCK:   -3.14 KCAL/MOL
REMARK 924 INTRA-LIGAND FREE ENERGY PREDICTED BY IDOCK:    0.17 KCAL/MOL
REMARK 927      BINDING AFFINITY PREDICTED BY RF-SCORE:    0.00 PKD
ROOT
HETATM    1  N   UNL     1      -9.682  11.511  64.646  1.00  0.00    -0.306 N  
HETATM    2  H1  UNL     1      -9.037  11.205  65.375  1.00  0.00     0.000 HD 
HETATM    3  C   UNL     1     -10.328  12.692  64.718  1.00  0.00    -0.312 C  
HETATM    4  H2  UNL     1      -9.842  10.906  63.841  1.00  0.00     0.000 HD 
HETATM    5  O   UNL     1     -11.103  13.060  63.841  1.00  0.00    -0.400 OA 
ENDROOT
BRANCH   3   6
HETATM    6  N   UNL     1     -10.068  13.476  65.806  1.00  0.00    -0.303 N  
HETATM    7  C   UNL     1     -10.041  14.859  65.873  1.00  0.00    -0.325 C  
HETATM    8  H   UNL     1      -9.868  12.982  66.676  1.00  0.00     0.000 HD 
HETATM    9  O   UNL     1     -10.232  15.603  64.911  1.00  0.00    -0.418 OA 
BRANCH   7  10
HETATM   10  C   UNL     1      -9.729  15.402  67.256  1.00  0.00    -0.212 C  
BRANCH  10  11
HETATM   11  C   UNL     1      -8.355  15.020  67.748  1.00  0.00    -0.158 A  
HETATM   12  C   UNL     1      -8.144  13.797  68.403  1.00  0.00    -0.148 A  
HETATM   13  C   UNL     1      -6.867  13.429  68.829  1.00  0.00    -0.101 A  
HETATM   14  C   UNL     1      -5.785  14.275  68.597  1.00  0.00    -0.088 A  
HETATM   15  C   UNL     1      -5.979  15.488  67.941  1.00  0.00    -0.163 A  
HETATM   16  C   UNL     1      -7.257  15.860  67.517  1.00  0.00    -0.204 A  
ENDBRANCH  10  11
ENDBRANCH   7  10
ENDBRANCH   3   6
TORSDOF 3
ENDMDL
MODEL      233
REMARK 921   NORMALIZED FREE ENERGY PREDICTED BY IDOCK:   -2.23 KCAL/MOL
REMARK 922        TOTAL FREE ENERGY PREDICTED BY IDOCK:   -2.94 KCAL/MOL
REMARK 923 INTER-LIGAND FREE ENERGY PREDICTED BY IDOCK:   -2.67 KCAL/MOL
REMARK 924 INTRA-LIGAND FREE ENERGY PREDICTED BY IDOCK:   -0.27 KCAL/MOL
REMARK 927      BINDING AFFINITY PREDICTED BY RF-SCORE:    0.00 PKD
ROOT
HETATM    1  N   UNL     1      -9.821   3.866  74.042  1.00  0.00    -0.113 N  
HETATM    2  H1  UNL     1      -8.814   4.021  73.989  1.00  0.00     0.000 HD 
HETATM    3  C   UNL     1     -10.696   4.632  73.359  1.00  0.00    -0.253 C  
HETATM    4  H2  UNL     1     -10.176   3.109  74.626  1.00  0.00     0.000 HD 
HETATM    5  O   UNL     1     -11.906   4.445  73.422  1.00  0.00    -0.188 OA 
ENDROOT
BRANCH   3   6
HETATM    6  N   UNL     1     -10.172   5.621  72.575  1.00  0.00    -0.185 N  
HETATM    7  C   UNL     1      -8.997   5.597  71.845  1.00  0.00    -0.139 C  
HETATM    8  H   UNL     1     -10.714   6.484  72.522  1.00  0.00     0.000 HD 
HETATM    9  O   UNL     1      -8.215   4.646  71.822  1.00  0.00    -0.100 OA 
BRANCH   7  10
HETATM   10  C   UNL     1      -8.727   6.874  71.070  1.00  0.00    -0.136 C  
BRANCH  10  11
HETATM   11  C   UNL     1      -9.423   6.918  69.733  1.00  0.00    -0.145 A  
HETATM   12  C   UNL     1     -10.057   5.775  69.219  1.00  0.00    -0.268 A  
HETATM   13  C   UNL     1     -10.729   5.825  67.997  1.00  0.00    -0.290 A  
HETATM   14  C   UNL     1     -10.785   7.018  67.280  1.00  0.00    -0.412 A  
HETATM   15  C   UNL     1     -10.167   8.160  67.783  1.00  0.00    -0.288 A  
HETATM   16  C   UNL     1      -9.490   8.113  69.003  1.00  0.00    -0.155 A  
ENDBRANCH  10  11
ENDBRANCH   7  10
ENDBRANCH   3   6
TORSDOF 3
ENDMDL
MODEL      234
REMARK 921   NORMALIZED FREE ENERGY PREDICTED BY IDOCK:   -2.21 KCAL/MOL
REMARK 922        TOTAL FREE ENERGY PREDICTED BY IDOCK:   -2.92 KCAL/MOL
REMARK 923 INTER-LIGAND FREE ENERGY PREDICTED BY IDOCK:   -2.64 KCAL/MOL
REMARK 924 INTRA-LIGAND FREE ENERGY PREDICTED BY IDOCK:   -0.28 KCAL/MOL
REMARK 927      BINDING AFFINITY PREDICTED BY RF-SCORE:    0.00 PKD
ROOT
HETATM    1  N   UNL     1     -10.538   8.951  71.843  1.00  0.00    -0.348 N  
HETATM    2  H1  UNL     1     -10.967   8.869  70.921  1.00  0.00     0.000 HD 
HETATM    3  C   UNL     1      -9.350   8.380  72.128  1.00  0.00    -0.269 C  
HETATM    4  H2  UNL     1     -11.020   9.480  72.569  1.00  0.00     0.000 HD 
HETATM    5  O   UNL     1      -8.834   8.479  73.236  1.00  0.00    -0.308 OA 
ENDROOT
BRANCH   3   6
HETATM    6  N   UNL     1      -8.733   7.696  71.119  1.00  0.00    -0.134 N  
HETATM    7  C   UNL     1      -8.027   8.215  70.047  1.00  0.00    -0.105 C  
HETATM    8  H   UNL     1      -8.801   6.679  71.160  1.00  0.00     0.000 HD 
HETATM    9  O   UNL     1      -7.875   9.418  69.834  1.00  0.00    -0.095 OA 
BRANCH   7  10
HETATM   10  C   UNL     1      -7.458   7.159  69.116  1.00  0.00    -0.094 C  
BRANCH  10  11
HETATM   11  C   UNL     1      -8.512   6.464  68.290  1.00  0.00    -0.115 A  
HETATM   12  C   UNL     1      -8.365   5.116  67.930  1.00  0.00    -0.097 A  
HETATM   13  C   UNL     1      -9.356   4.465  67.193  1.00  0.00    -0.173 A  
HETATM   14  C   UNL     1     -10.508   5.151  66.817  1.00  0.00    -0.306 A  
HETATM   15  C   UNL     1     -10.669   6.487  67.174  1.00  0.00    -0.438 A  
HETATM   16  C   UNL     1      -9.678   7.142  67.908  1.00  0.00    -0.156 A  
ENDBRANCH  10  11
ENDBRANCH   7  10
ENDBRANCH   3   6
TORSDOF 3
ENDMDL
MODEL      235
REMARK 921   NORMALIZED FREE ENERGY PREDICTED BY IDOCK:   -2.20 KCAL/MOL
REMARK 922        TOTAL FREE ENERGY PREDICTED BY IDOCK:   -2.91 KCAL/MOL
REMARK 923 INTER-LIGAND FREE ENERGY PREDICTED BY IDOCK:   -2.45 KCAL/MOL
REMARK 924 INTRA-LIGAND FREE ENERGY PREDICTED BY IDOCK:   -0.47 KCAL/MOL
REMARK 927      BINDING AFFINITY PREDICTED BY RF-SCORE:    0.00 PKD
ROOT
HETATM    1  N   UNL     1      -9.326   5.597  73.813  1.00  0.00    -0.136 N  
HETATM    2  H1  UNL     1      -8.446   5.113  73.637  1.00  0.00     0.000 HD 
HETATM    3  C   UNL     1      -9.857   6.456  72.919  1.00  0.00    -0.167 C  
HETATM    4  H2  UNL     1      -9.819   5.427  74.690  1.00  0.00     0.000 HD 
HETATM    5  O   UNL     1     -10.916   7.037  73.130  1.00  0.00    -0.295 OA 
ENDROOT
BRANCH   3   6
HETATM    6  N   UNL     1      -9.171   6.638  71.751  1.00  0.00    -0.148 N  
HETATM    7  C   UNL     1      -8.657   5.670  70.906  1.00  0.00    -0.129 C  
HETATM    8  H   UNL     1      -9.018   7.606  71.469  1.00  0.00     0.000 HD 
HETATM    9  O   UNL     1      -8.729   4.459  71.114  1.00  0.00    -0.101 OA 
BRANCH   7  10
HETATM   10  C   UNL     1      -7.958   6.232  69.681  1.00  0.00    -0.112 C  
BRANCH  10  11
HETATM   11  C   UNL     1      -8.901   6.902  68.713  1.00  0.00    -0.132 A  
HETATM   12  C   UNL     1      -8.654   8.208  68.261  1.00  0.00    -0.130 A  
HETATM   13  C   UNL     1      -9.509   8.815  67.341  1.00  0.00    -0.183 A  
HETATM   14  C   UNL     1     -10.614   8.122  66.854  1.00  0.00    -0.311 A  
HETATM   15  C   UNL     1     -10.867   6.824  67.289  1.00  0.00    -0.443 A  
HETATM   16  C   UNL     1     -10.016   6.214  68.213  1.00  0.00    -0.162 A  
ENDBRANCH  10  11
ENDBRANCH   7  10
ENDBRANCH   3   6
TORSDOF 3
ENDMDL
MODEL      236
REMARK 921   NORMALIZED FREE ENERGY PREDICTED BY IDOCK:   -2.19 KCAL/MOL
REMARK 922        TOTAL FREE ENERGY PREDICTED BY IDOCK:   -2.90 KCAL/MOL
REMARK 923 INTER-LIGAND FREE ENERGY PREDICTED BY IDOCK:   -2.43 KCAL/MOL
REMARK 924 INTRA-LIGAND FREE ENERGY PREDICTED BY IDOCK:   -0.47 KCAL/MOL
REMARK 927      BINDING AFFINITY PREDICTED BY RF-SCORE:    0.00 PKD
ROOT
HETATM    1  N   UNL     1     -11.650   9.887  69.122  1.00  0.00    -0.472 N  
HETATM    2  H1  UNL     1     -11.029   9.406  68.471  1.00  0.00     0.000 HD 
HETATM    3  C   UNL     1     -11.229  10.298  70.335  1.00  0.00    -0.332 C  
HETATM    4  H2  UNL     1     -12.617  10.062  68.847  1.00  0.00     0.000 HD 
HETATM    5  O   UNL     1     -11.976  10.877  71.117  1.00  0.00    -0.314 OA 
ENDROOT
BRANCH   3   6
HETATM    6  N   UNL     1      -9.922  10.058  70.652  1.00  0.00    -0.333 N  
HETATM    7  C   UNL     1      -9.257   8.844  70.658  1.00  0.00    -0.213 C  
HETATM    8  H   UNL     1      -9.369  10.873  70.916  1.00  0.00     0.000 HD 
HETATM    9  O   UNL     1      -9.783   7.764  70.392  1.00  0.00    -0.178 OA 
BRANCH   7  10
HETATM   10  C   UNL     1      -7.794   8.947  71.050  1.00  0.00    -0.164 C  
BRANCH  10  11
HETATM   11  C   UNL     1      -6.951   9.660  70.022  1.00  0.00    -0.093 A  
HETATM   12  C   UNL     1      -6.955   9.246  68.681  1.00  0.00    -0.062 A  
HETATM   13  C   UNL     1      -6.201   9.927  67.724  1.00  0.00    -0.055 A  
HETATM   14  C   UNL     1      -5.442  11.034  68.095  1.00  0.00    -0.042 A  
HETATM   15  C   UNL     1      -5.434  11.459  69.421  1.00  0.00    -0.049 A  
HETATM   16  C   UNL     1      -6.185  10.778  70.381  1.00  0.00    -0.127 A  
ENDBRANCH  10  11
ENDBRANCH   7  10
ENDBRANCH   3   6
TORSDOF 3
ENDMDL
MODEL      237
REMARK 921   NORMALIZED FREE ENERGY PREDICTED BY IDOCK:   -2.19 KCAL/MOL
REMARK 922        TOTAL FREE ENERGY PREDICTED BY IDOCK:   -2.89 KCAL/MOL
REMARK 923 INTER-LIGAND FREE ENERGY PREDICTED BY IDOCK:   -2.51 KCAL/MOL
REMARK 924 INTRA-LIGAND FREE ENERGY PREDICTED BY IDOCK:   -0.38 KCAL/MOL
REMARK 927      BINDING AFFINITY PREDICTED BY RF-SCORE:    0.00 PKD
ROOT
HETATM    1  N   UNL     1      -8.951   4.816  71.723  1.00  0.00    -0.129 N  
HETATM    2  H1  UNL     1      -8.215   4.824  71.017  1.00  0.00     0.000 HD 
HETATM    3  C   UNL     1     -10.191   5.276  71.464  1.00  0.00    -0.212 C  
HETATM    4  H2  UNL     1      -8.742   4.449  72.651  1.00  0.00     0.000 HD 
HETATM    5  O   UNL     1     -11.076   5.265  72.313  1.00  0.00    -0.221 OA 
ENDROOT
BRANCH   3   6
HETATM    6  N   UNL     1     -10.429   5.741  70.201  1.00  0.00    -0.253 N  
HETATM    7  C   UNL     1     -10.219   5.087  68.999  1.00  0.00    -0.137 C  
HETATM    8  H   UNL     1     -10.807   6.686  70.136  1.00  0.00     0.000 HD 
HETATM    9  O   UNL     1      -9.743   3.956  68.900  1.00  0.00    -0.154 OA 
BRANCH   7  10
HETATM   10  C   UNL     1     -10.608   5.903  67.779  1.00  0.00    -0.331 C  
BRANCH  10  11
HETATM   11  C   UNL     1      -9.973   5.407  66.505  1.00  0.00    -0.222 A  
HETATM   12  C   UNL     1     -10.637   4.478  65.688  1.00  0.00    -0.231 A  
HETATM   13  C   UNL     1     -10.063   4.045  64.492  1.00  0.00    -0.209 A  
HETATM   14  C   UNL     1      -8.825   4.541  64.094  1.00  0.00    -0.148 A  
HETATM   15  C   UNL     1      -8.158   5.468  64.891  1.00  0.00    -0.124 A  
HETATM   16  C   UNL     1      -8.728   5.901  66.090  1.00  0.00    -0.141 A  
ENDBRANCH  10  11
ENDBRANCH   7  10
ENDBRANCH   3   6
TORSDOF 3
ENDMDL
MODEL      238
REMARK 921   NORMALIZED FREE ENERGY PREDICTED BY IDOCK:   -2.15 KCAL/MOL
REMARK 922        TOTAL FREE ENERGY PREDICTED BY IDOCK:   -2.85 KCAL/MOL
REMARK 923 INTER-LIGAND FREE ENERGY PREDICTED BY IDOCK:   -2.56 KCAL/MOL
REMARK 924 INTRA-LIGAND FREE ENERGY PREDICTED BY IDOCK:   -0.29 KCAL/MOL
REMARK 927      BINDING AFFINITY PREDICTED BY RF-SCORE:    0.00 PKD
ROOT
HETATM    1  N   UNL     1     -11.280   5.463  65.881  1.00  0.00    -0.753 N  
HETATM    2  H1  UNL     1     -10.768   5.407  65.000  1.00  0.00     0.000 HD 
HETATM    3  C   UNL     1     -10.890   6.281  66.880  1.00  0.00    -0.354 C  
HETATM    4  H2  UNL     1     -12.110   4.885  66.009  1.00  0.00     0.000 HD 
HETATM    5  O   UNL     1     -11.506   6.349  67.938  1.00  0.00    -0.150 OA 
ENDROOT
BRANCH   3   6
HETATM    6  N   UNL     1      -9.783   7.050  66.655  1.00  0.00    -0.252 N  
HETATM    7  C   UNL     1      -8.500   6.858  67.138  1.00  0.00    -0.121 C  
HETATM    8  H   UNL     1      -9.919   7.865  66.057  1.00  0.00     0.000 HD 
HETATM    9  O   UNL     1      -8.174   5.941  67.892  1.00  0.00    -0.107 OA 
BRANCH   7  10
HETATM   10  C   UNL     1      -7.505   7.905  66.673  1.00  0.00    -0.089 C  
BRANCH  10  11
HETATM   11  C   UNL     1      -7.698   9.246  67.336  1.00  0.00    -0.095 A  
HETATM   12  C   UNL     1      -7.699   9.358  68.736  1.00  0.00    -0.080 A  
HETATM   13  C   UNL     1      -7.845  10.604  69.349  1.00  0.00    -0.126 A  
HETATM   14  C   UNL     1      -7.982  11.751  68.571  1.00  0.00    -0.145 A  
HETATM   15  C   UNL     1      -7.977  11.654  67.182  1.00  0.00    -0.163 A  
HETATM   16  C   UNL     1      -7.834  10.409  66.565  1.00  0.00    -0.124 A  
ENDBRANCH  10  11
ENDBRANCH   7  10
ENDBRANCH   3   6
TORSDOF 3
ENDMDL
MODEL      239
REMARK 921   NORMALIZED FREE ENERGY PREDICTED BY IDOCK:   -2.15 KCAL/MOL
REMARK 922        TOTAL FREE ENERGY PREDICTED BY IDOCK:   -2.85 KCAL/MOL
REMARK 923 INTER-LIGAND FREE ENERGY PREDICTED BY IDOCK:   -2.69 KCAL/MOL
REMARK 924 INTRA-LIGAND FREE ENERGY PREDICTED BY IDOCK:   -0.16 KCAL/MOL
REMARK 927      BINDING AFFINITY PREDICTED BY RF-SCORE:    0.00 PKD
ROOT
HETATM    1  N   UNL     1      -6.756   5.818  66.258  1.00  0.00    -0.055 N  
HETATM    2  H1  UNL     1      -6.744   6.778  66.605  1.00  0.00     0.000 HD 
HETATM    3  C   UNL     1      -7.678   4.925  66.670  1.00  0.00    -0.092 C  
HETATM    4  H2  UNL     1      -6.053   5.528  65.580  1.00  0.00     0.000 HD 
HETATM    5  O   UNL     1      -7.694   3.772  66.252  1.00  0.00    -0.087 OA 
ENDROOT
BRANCH   3   6
HETATM    6  N   UNL     1      -8.612   5.366  67.566  1.00  0.00    -0.109 N  
HETATM    7  C   UNL     1      -9.980   5.476  67.385  1.00  0.00    -0.162 C  
HETATM    8  H   UNL     1      -8.257   5.648  68.479  1.00  0.00     0.000 HD 
HETATM    9  O   UNL     1     -10.564   5.205  66.336  1.00  0.00    -0.293 OA 
BRANCH   7  10
HETATM   10  C   UNL     1     -10.721   5.993  68.605  1.00  0.00    -0.363 C  
BRANCH  10  11
HETATM   11  C   UNL     1     -10.650   7.493  68.753  1.00  0.00    -0.179 A  
HETATM   12  C   UNL     1     -10.640   8.086  70.025  1.00  0.00    -0.242 A  
HETATM   13  C   UNL     1     -10.541   9.472  70.162  1.00  0.00    -0.298 A  
HETATM   14  C   UNL     1     -10.441  10.278  69.030  1.00  0.00    -0.238 A  
HETATM   15  C   UNL     1     -10.443   9.701  67.763  1.00  0.00    -0.309 A  
HETATM   16  C   UNL     1     -10.546   8.316  67.623  1.00  0.00    -0.264 A  
ENDBRANCH  10  11
ENDBRANCH   7  10
ENDBRANCH   3   6
TORSDOF 3
ENDMDL
MODEL      240
REMARK 921   NORMALIZED FREE ENERGY PREDICTED BY IDOCK:   -2.14 KCAL/MOL
REMARK 922        TOTAL FREE ENERGY PREDICTED BY IDOCK:   -2.84 KCAL/MOL
REMARK 923 INTER-LIGAND FREE ENERGY PREDICTED BY IDOCK:   -2.65 KCAL/MOL
REMARK 924 INTRA-LIGAND FREE ENERGY PREDICTED BY IDOCK:   -0.19 KCAL/MOL
REMARK 927      BINDING AFFINITY PREDICTED BY RF-SCORE:    0.00 PKD
ROOT
HETATM    1  N   UNL     1     -11.198   4.528  65.385  1.00  0.00    -0.941 N  
HETATM    2  H1  UNL     1     -12.074   4.901  65.753  1.00  0.00     0.000 HD 
HETATM    3  C   UNL     1     -10.027   4.692  66.034  1.00  0.00    -0.244 C  
HETATM    4  H2  UNL     1     -11.209   4.016  64.504  1.00  0.00     0.000 HD 
HETATM    5  O   UNL     1      -8.975   4.243  65.592  1.00  0.00    -0.122 OA 
ENDROOT
BRANCH   3   6
HETATM    6  N   UNL     1     -10.065   5.369  67.220  1.00  0.00    -0.174 N  
HETATM    7  C   UNL     1      -9.804   4.880  68.488  1.00  0.00    -0.141 C  
HETATM    8  H   UNL     1     -10.317   6.356  67.164  1.00  0.00     0.000 HD 
HETATM    9  O   UNL     1      -9.515   3.709  68.733  1.00  0.00    -0.161 OA 
BRANCH   7  10
HETATM   10  C   UNL     1      -9.928   5.921  69.586  1.00  0.00    -0.234 C  
BRANCH  10  11
HETATM   11  C   UNL     1      -8.894   5.764  70.674  1.00  0.00    -0.145 A  
HETATM   12  C   UNL     1      -7.527   5.902  70.387  1.00  0.00    -0.089 A  
HETATM   13  C   UNL     1      -6.574   5.790  71.400  1.00  0.00    -0.050 A  
HETATM   14  C   UNL     1      -6.976   5.548  72.711  1.00  0.00    -0.083 A  
HETATM   15  C   UNL     1      -8.329   5.416  73.010  1.00  0.00    -0.112 A  
HETATM   16  C   UNL     1      -9.286   5.524  71.999  1.00  0.00    -0.154 A  
ENDBRANCH  10  11
ENDBRANCH   7  10
ENDBRANCH   3   6
TORSDOF 3
ENDMDL
MODEL      241
REMARK 921   NORMALIZED FREE ENERGY PREDICTED BY IDOCK:   -2.06 KCAL/MOL
REMARK 922        TOTAL FREE ENERGY PREDICTED BY IDOCK:   -2.74 KCAL/MOL
REMARK 923 INTER-LIGAND FREE ENERGY PREDICTED BY IDOCK:   -2.80 KCAL/MOL
REMARK 924 INTRA-LIGAND FREE ENERGY PREDICTED BY IDOCK:    0.05 KCAL/MOL
REMARK 927      BINDING AFFINITY PREDICTED BY RF-SCORE:    0.00 PKD
ROOT
HETATM    1  N   UNL     1     -12.277   9.733  70.228  1.00  0.00    -0.481 N  
HETATM    2  H1  UNL     1     -13.160   9.273  70.005  1.00  0.00     0.000 HD 
HETATM    3  C   UNL     1     -11.090   9.115  70.062  1.00  0.00    -0.190 C  
HETATM    4  H2  UNL     1     -12.293  10.688  70.586  1.00  0.00     0.000 HD 
HETATM    5  O   UNL     1     -10.029   9.669  70.329  1.00  0.00    -0.241 OA 
ENDROOT
BRANCH   3   6
HETATM    6  N   UNL     1     -11.118   7.843  69.562  1.00  0.00    -0.446 N  
HETATM    7  C   UNL     1     -10.181   6.840  69.734  1.00  0.00    -0.187 C  
HETATM    8  H   UNL     1     -11.930   7.604  68.992  1.00  0.00     0.000 HD 
HETATM    9  O   UNL     1      -9.133   6.971  70.368  1.00  0.00    -0.155 OA 
BRANCH   7  10
HETATM   10  C   UNL     1     -10.541   5.537  69.044  1.00  0.00    -0.271 C  
BRANCH  10  11
HETATM   11  C   UNL     1      -9.650   5.219  67.870  1.00  0.00    -0.161 A  
HETATM   12  C   UNL     1      -9.335   6.207  66.923  1.00  0.00    -0.143 A  
HETATM   13  C   UNL     1      -8.484   5.922  65.854  1.00  0.00    -0.141 A  
HETATM   14  C   UNL     1      -7.930   4.650  65.725  1.00  0.00    -0.099 A  
HETATM   15  C   UNL     1      -8.228   3.664  66.662  1.00  0.00    -0.099 A  
HETATM   16  C   UNL     1      -9.082   3.945  67.730  1.00  0.00    -0.183 A  
ENDBRANCH  10  11
ENDBRANCH   7  10
ENDBRANCH   3   6
TORSDOF 3
ENDMDL
MODEL      242
REMARK 921   NORMALIZED FREE ENERGY PREDICTED BY IDOCK:   -1.98 KCAL/MOL
REMARK 922        TOTAL FREE ENERGY PREDICTED BY IDOCK:   -2.66 KCAL/MOL
REMARK 923 INTER-LIGAND FREE ENERGY PREDICTED BY IDOCK:   -2.32 KCAL/MOL
REMARK 924 INTRA-LIGAND FREE ENERGY PREDICTED BY IDOCK:   -0.34 KCAL/MOL
REMARK 927      BINDING AFFINITY PREDICTED BY RF-SCORE:    0.00 PKD
ROOT
HETATM    1  N   UNL     1      -9.004   5.408  66.367  1.00  0.00    -0.127 N  
HETATM    2  H1  UNL     1      -9.855   5.628  66.885  1.00  0.00     0.000 HD 
HETATM    3  C   UNL     1      -7.809   5.288  66.979  1.00  0.00    -0.100 C  
HETATM    4  H2  UNL     1      -9.060   5.275  65.357  1.00  0.00     0.000 HD 
HETATM    5  O   UNL     1      -6.787   5.023  66.355  1.00  0.00    -0.059 OA 
ENDROOT
BRANCH   3   6
HETATM    6  N   UNL     1      -7.787   5.457  68.335  1.00  0.00    -0.084 N  
HETATM    7  C   UNL     1      -8.773   5.130  69.250  1.00  0.00    -0.096 C  
HETATM    8  H   UNL     1      -6.940   5.875  68.720  1.00  0.00     0.000 HD 
HETATM    9  O   UNL     1      -9.864   4.645  68.949  1.00  0.00    -0.170 OA 
BRANCH   7  10
HETATM   10  C   UNL     1      -8.406   5.445  70.688  1.00  0.00    -0.115 C  
BRANCH  10  11
HETATM   11  C   UNL     1      -9.383   4.881  71.689  1.00  0.00    -0.192 A  
HETATM   12  C   UNL     1      -9.302   3.538  72.089  1.00  0.00    -0.178 A  
HETATM   13  C   UNL     1     -10.185   3.025  73.040  1.00  0.00    -0.229 A  
HETATM   14  C   UNL     1     -11.153   3.850  73.608  1.00  0.00    -0.328 A  
HETATM   15  C   UNL     1     -11.239   5.186  73.226  1.00  0.00    -0.389 A  
HETATM   16  C   UNL     1     -10.359   5.701  72.272  1.00  0.00    -0.250 A  
ENDBRANCH  10  11
ENDBRANCH   7  10
ENDBRANCH   3   6
TORSDOF 3
ENDMDL
MODEL      243
REMARK 921   NORMALIZED FREE ENERGY PREDICTED BY IDOCK:   -1.98 KCAL/MOL
REMARK 922        TOTAL FREE ENERGY PREDICTED BY IDOCK:   -2.65 KCAL/MOL
REMARK 923 INTER-LIGAND FREE ENERGY PREDICTED BY IDOCK:   -2.39 KCAL/MOL
REMARK 924 INTRA-LIGAND FREE ENERGY PREDICTED BY IDOCK:   -0.26 KCAL/MOL
REMARK 927      BINDING AFFINITY PREDICTED BY RF-SCORE:    0.00 PKD
ROOT
HETATM    1  N   UNL     1      -6.359   5.858  66.049  1.00  0.00    -0.040 N  
HETATM    2  H1  UNL     1      -6.285   6.549  66.795  1.00  0.00     0.000 HD 
HETATM    3  C   UNL     1      -7.105   4.743  66.183  1.00  0.00    -0.075 C  
HETATM    4  H2  UNL     1      -5.855   6.015  65.176  1.00  0.00     0.000 HD 
HETATM    5  O   UNL     1      -7.195   3.912  65.285  1.00  0.00    -0.065 OA 
ENDROOT
BRANCH   3   6
HETATM    6  N   UNL     1      -7.776   4.585  67.363  1.00  0.00    -0.088 N  
HETATM    7  C   UNL     1      -9.121   4.796  67.612  1.00  0.00    -0.115 C  
HETATM    8  H   UNL     1      -7.217   4.273  68.157  1.00  0.00     0.000 HD 
HETATM    9  O   UNL     1      -9.927   5.198  66.773  1.00  0.00    -0.163 OA 
BRANCH   7  10
HETATM   10  C   UNL     1      -9.534   4.507  69.045  1.00  0.00    -0.229 C  
BRANCH  10  11
HETATM   11  C   UNL     1      -9.916   5.746  69.815  1.00  0.00    -0.250 A  
HETATM   12  C   UNL     1     -11.259   6.142  69.913  1.00  0.00    -0.484 A  
HETATM   13  C   UNL     1     -11.616   7.270  70.653  1.00  0.00    -0.322 A  
HETATM   14  C   UNL     1     -10.636   8.009  71.312  1.00  0.00    -0.245 A  
HETATM   15  C   UNL     1      -9.301   7.622  71.229  1.00  0.00    -0.161 A  
HETATM   16  C   UNL     1      -8.940   6.496  70.486  1.00  0.00    -0.152 A  
ENDBRANCH  10  11
ENDBRANCH   7  10
ENDBRANCH   3   6
TORSDOF 3
ENDMDL
MODEL      244
REMARK 921   NORMALIZED FREE ENERGY PREDICTED BY IDOCK:   -1.96 KCAL/MOL
REMARK 922        TOTAL FREE ENERGY PREDICTED BY IDOCK:   -2.63 KCAL/MOL
REMARK 923 INTER-LIGAND FREE ENERGY PREDICTED BY IDOCK:   -2.19 KCAL/MOL
REMARK 924 INTRA-LIGAND FREE ENERGY PREDICTED BY IDOCK:   -0.44 KCAL/MOL
REMARK 927      BINDING AFFINITY PREDICTED BY RF-SCORE:    0.00 PKD
ROOT
HETATM    1  N   UNL     1     -12.158  10.350  69.056  1.00  0.00    -0.494 N  
HETATM    2  H1  UNL     1     -11.885  10.107  68.103  1.00  0.00     0.000 HD 
HETATM    3  C   UNL     1     -11.384  10.043  70.117  1.00  0.00    -0.291 C  
HETATM    4  H2  UNL     1     -13.039  10.839  69.210  1.00  0.00     0.000 HD 
HETATM    5  O   UNL     1     -11.712  10.336  71.262  1.00  0.00    -0.354 OA 
ENDROOT
BRANCH   3   6
HETATM    6  N   UNL     1     -10.204   9.405  69.860  1.00  0.00    -0.207 N  
HETATM    7  C   UNL     1      -9.350   9.594  68.787  1.00  0.00    -0.148 C  
HETATM    8  H   UNL     1      -9.917   8.702  70.542  1.00  0.00     0.000 HD 
HETATM    9  O   UNL     1      -9.560  10.380  67.864  1.00  0.00    -0.141 OA 
BRANCH   7  10
HETATM   10  C   UNL     1      -8.111   8.717  68.826  1.00  0.00    -0.115 C  
BRANCH  10  11
HETATM   11  C   UNL     1      -7.081   9.186  69.824  1.00  0.00    -0.061 A  
HETATM   12  C   UNL     1      -6.520  10.468  69.724  1.00  0.00    -0.102 A  
HETATM   13  C   UNL     1      -5.592  10.913  70.667  1.00  0.00    -0.125 A  
HETATM   14  C   UNL     1      -5.223  10.086  71.724  1.00  0.00    -0.057 A  
HETATM   15  C   UNL     1      -5.778   8.814  71.839  1.00  0.00    -0.058 A  
HETATM   16  C   UNL     1      -6.704   8.364  70.895  1.00  0.00    -0.042 A  
ENDBRANCH  10  11
ENDBRANCH   7  10
ENDBRANCH   3   6
TORSDOF 3
ENDMDL
MODEL      245
REMARK 921   NORMALIZED FREE ENERGY PREDICTED BY IDOCK:   -1.95 KCAL/MOL
REMARK 922        TOTAL FREE ENERGY PREDICTED BY IDOCK:   -2.61 KCAL/MOL
REMARK 923 INTER-LIGAND FREE ENERGY PREDICTED BY IDOCK:   -2.19 KCAL/MOL
REMARK 924 INTRA-LIGAND FREE ENERGY PREDICTED BY IDOCK:   -0.42 KCAL/MOL
REMARK 927      BINDING AFFINITY PREDICTED BY RF-SCORE:    0.00 PKD
ROOT
HETATM    1  N   UNL     1      -9.098   5.094  67.051  1.00  0.00    -0.112 N  
HETATM    2  H1  UNL     1      -9.907   5.424  67.577  1.00  0.00     0.000 HD 
HETATM    3  C   UNL     1      -7.912   4.854  67.646  1.00  0.00    -0.094 C  
HETATM    4  H2  UNL     1      -9.189   4.941  66.047  1.00  0.00     0.000 HD 
HETATM    5  O   UNL     1      -6.939   4.458  67.013  1.00  0.00    -0.060 OA 
ENDROOT
BRANCH   3   6
HETATM    6  N   UNL     1      -7.844   5.056  68.996  1.00  0.00    -0.080 N  
HETATM    7  C   UNL     1      -8.593   4.445  69.987  1.00  0.00    -0.069 C  
HETATM    8  H   UNL     1      -7.156   5.740  69.312  1.00  0.00     0.000 HD 
HETATM    9  O   UNL     1      -9.482   3.620  69.774  1.00  0.00    -0.168 OA 
BRANCH   7  10
HETATM   10  C   UNL     1      -8.242   4.901  71.392  1.00  0.00    -0.112 C  
BRANCH  10  11
HETATM   11  C   UNL     1      -9.135   6.005  71.899  1.00  0.00    -0.143 A  
HETATM   12  C   UNL     1      -8.915   7.337  71.514  1.00  0.00    -0.133 A  
HETATM   13  C   UNL     1      -9.761   8.355  71.958  1.00  0.00    -0.353 A  
HETATM   14  C   UNL     1     -10.842   8.052  72.783  1.00  0.00    -0.438 A  
HETATM   15  C   UNL     1     -11.075   6.733  73.166  1.00  0.00    -0.220 A  
HETATM   16  C   UNL     1     -10.228   5.714  72.727  1.00  0.00    -0.213 A  
ENDBRANCH  10  11
ENDBRANCH   7  10
ENDBRANCH   3   6
TORSDOF 3
ENDMDL
MODEL      246
REMARK 921   NORMALIZED FREE ENERGY PREDICTED BY IDOCK:   -1.90 KCAL/MOL
REMARK 922        TOTAL FREE ENERGY PREDICTED BY IDOCK:   -2.56 KCAL/MOL
REMARK 923 INTER-LIGAND FREE ENERGY PREDICTED BY IDOCK:   -3.03 KCAL/MOL
REMARK 924 INTRA-LIGAND FREE ENERGY PREDICTED BY IDOCK:    0.48 KCAL/MOL
REMARK 927      BINDING AFFINITY PREDICTED BY RF-SCORE:    0.00 PKD
ROOT
HETATM    1  N   UNL     1      -8.153   8.065  73.426  1.00  0.00    -0.175 N  
HETATM    2  H1  UNL     1      -7.834   8.478  72.549  1.00  0.00     0.000 HD 
HETATM    3  C   UNL     1      -9.269   7.310  73.491  1.00  0.00    -0.198 C  
HETATM    4  H2  UNL     1      -7.613   8.226  74.275  1.00  0.00     0.000 HD 
HETATM    5  O   UNL     1      -9.652   6.812  74.544  1.00  0.00    -0.251 OA 
ENDROOT
BRANCH   3   6
HETATM    6  N   UNL     1      -9.949   7.106  72.324  1.00  0.00    -0.171 N  
HETATM    7  C   UNL     1     -11.083   6.338  72.122  1.00  0.00    -0.269 C  
HETATM    8  H   UNL     1      -9.575   7.577  71.500  1.00  0.00     0.000 HD 
HETATM    9  O   UNL     1     -11.643   5.684  73.001  1.00  0.00    -0.245 OA 
BRANCH   7  10
HETATM   10  C   UNL     1     -11.584   6.347  70.689  1.00  0.00    -0.412 C  
BRANCH  10  11
HETATM   11  C   UNL     1     -11.128   7.553  69.906  1.00  0.00    -0.185 A  
HETATM   12  C   UNL     1     -10.418   7.400  68.705  1.00  0.00    -0.215 A  
HETATM   13  C   UNL     1     -10.025   8.516  67.965  1.00  0.00    -0.221 A  
HETATM   14  C   UNL     1     -10.346   9.796  68.410  1.00  0.00    -0.230 A  
HETATM   15  C   UNL     1     -11.056   9.961  69.596  1.00  0.00    -0.279 A  
HETATM   16  C   UNL     1     -11.448   8.847  70.342  1.00  0.00    -0.182 A  
ENDBRANCH  10  11
ENDBRANCH   7  10
ENDBRANCH   3   6
TORSDOF 3
ENDMDL
MODEL      247
REMARK 921   NORMALIZED FREE ENERGY PREDICTED BY IDOCK:   -1.85 KCAL/MOL
REMARK 922        TOTAL FREE ENERGY PREDICTED BY IDOCK:   -2.49 KCAL/MOL
REMARK 923 INTER-LIGAND FREE ENERGY PREDICTED BY IDOCK:   -2.13 KCAL/MOL
REMARK 924 INTRA-LIGAND FREE ENERGY PREDICTED BY IDOCK:   -0.37 KCAL/MOL
REMARK 927      BINDING AFFINITY PREDICTED BY RF-SCORE:    0.00 PKD
ROOT
HETATM    1  N   UNL     1      -7.462   3.507  66.265  1.00  0.00    -0.076 N  
HETATM    2  H1  UNL     1      -8.085   4.048  65.665  1.00  0.00     0.000 HD 
HETATM    3  C   UNL     1      -7.130   3.921  67.505  1.00  0.00    -0.056 C  
HETATM    4  H2  UNL     1      -7.081   2.627  65.918  1.00  0.00     0.000 HD 
HETATM    5  O   UNL     1      -6.382   3.270  68.226  1.00  0.00    -0.031 OA 
ENDROOT
BRANCH   3   6
HETATM    6  N   UNL     1      -7.680   5.096  67.934  1.00  0.00    -0.087 N  
HETATM    7  C   UNL     1      -8.973   5.551  67.742  1.00  0.00    -0.108 C  
HETATM    8  H   UNL     1      -7.062   5.714  68.460  1.00  0.00     0.000 HD 
HETATM    9  O   UNL     1      -9.835   4.943  67.107  1.00  0.00    -0.162 OA 
BRANCH   7  10
HETATM   10  C   UNL     1      -9.249   6.905  68.371  1.00  0.00    -0.124 C  
BRANCH  10  11
HETATM   11  C   UNL     1      -9.441   8.005  67.357  1.00  0.00    -0.187 A  
HETATM   12  C   UNL     1      -8.716   8.004  66.155  1.00  0.00    -0.177 A  
HETATM   13  C   UNL     1      -8.918   9.004  65.202  1.00  0.00    -0.216 A  
HETATM   14  C   UNL     1      -9.853  10.009  65.435  1.00  0.00    -0.384 A  
HETATM   15  C   UNL     1     -10.584  10.017  66.620  1.00  0.00    -0.196 A  
HETATM   16  C   UNL     1     -10.382   9.020  67.577  1.00  0.00    -0.328 A  
ENDBRANCH  10  11
ENDBRANCH   7  10
ENDBRANCH   3   6
TORSDOF 3
ENDMDL
MODEL      248
REMARK 921   NORMALIZED FREE ENERGY PREDICTED BY IDOCK:   -1.77 KCAL/MOL
REMARK 922        TOTAL FREE ENERGY PREDICTED BY IDOCK:   -2.40 KCAL/MOL
REMARK 923 INTER-LIGAND FREE ENERGY PREDICTED BY IDOCK:   -2.05 KCAL/MOL
REMARK 924 INTRA-LIGAND FREE ENERGY PREDICTED BY IDOCK:   -0.35 KCAL/MOL
REMARK 927      BINDING AFFINITY PREDICTED BY RF-SCORE:    0.00 PKD
ROOT
HETATM    1  N   UNL     1      -8.600   4.929  71.900  1.00  0.00    -0.126 N  
HETATM    2  H1  UNL     1      -8.636   4.853  70.883  1.00  0.00     0.000 HD 
HETATM    3  C   UNL     1      -8.340   6.099  72.517  1.00  0.00    -0.115 C  
HETATM    4  H2  UNL     1      -8.766   4.097  72.465  1.00  0.00     0.000 HD 
HETATM    5  O   UNL     1      -8.298   6.190  73.739  1.00  0.00    -0.114 OA 
ENDROOT
BRANCH   3   6
HETATM    6  N   UNL     1      -8.143   7.191  71.719  1.00  0.00    -0.101 N  
HETATM    7  C   UNL     1      -8.775   7.500  70.527  1.00  0.00    -0.146 C  
HETATM    8  H   UNL     1      -7.443   7.860  72.041  1.00  0.00     0.000 HD 
HETATM    9  O   UNL     1      -9.621   6.788  69.987  1.00  0.00    -0.157 OA 
BRANCH   7  10
HETATM   10  C   UNL     1      -8.316   8.809  69.909  1.00  0.00    -0.125 C  
BRANCH  10  11
HETATM   11  C   UNL     1      -8.739   8.967  68.470  1.00  0.00    -0.133 A  
HETATM   12  C   UNL     1      -9.923   9.646  68.143  1.00  0.00    -0.185 A  
HETATM   13  C   UNL     1     -10.297   9.822  66.810  1.00  0.00    -0.289 A  
HETATM   14  C   UNL     1      -9.487   9.329  65.789  1.00  0.00    -0.329 A  
HETATM   15  C   UNL     1      -8.306   8.661  66.100  1.00  0.00    -0.127 A  
HETATM   16  C   UNL     1      -7.931   8.480  67.433  1.00  0.00    -0.102 A  
ENDBRANCH  10  11
ENDBRANCH   7  10
ENDBRANCH   3   6
TORSDOF 3
ENDMDL
MODEL      249
REMARK 921   NORMALIZED FREE ENERGY PREDICTED BY IDOCK:   -1.72 KCAL/MOL
REMARK 922        TOTAL FREE ENERGY PREDICTED BY IDOCK:   -2.35 KCAL/MOL
REMARK 923 INTER-LIGAND FREE ENERGY PREDICTED BY IDOCK:   -1.90 KCAL/MOL
REMARK 924 INTRA-LIGAND FREE ENERGY PREDICTED BY IDOCK:   -0.45 KCAL/MOL
REMARK 927      BINDING AFFINITY PREDICTED BY RF-SCORE:    0.00 PKD
ROOT
HETATM    1  N   UNL     1      -9.846   8.968  71.284  1.00  0.00    -0.288 N  
HETATM    2  H1  UNL     1      -9.575   9.749  70.686  1.00  0.00     0.000 HD 
HETATM    3  C   UNL     1      -9.516   7.695  70.985  1.00  0.00    -0.159 C  
HETATM    4  H2  UNL     1     -10.380   9.155  72.132  1.00  0.00     0.000 HD 
HETATM    5  O   UNL     1      -9.841   6.756  71.704  1.00  0.00    -0.167 OA 
ENDROOT
BRANCH   3   6
HETATM    6  N   UNL     1      -8.783   7.495  69.849  1.00  0.00    -0.140 N  
HETATM    7  C   UNL     1      -9.055   7.948  68.570  1.00  0.00    -0.132 C  
HETATM    8  H   UNL     1      -7.932   6.944  69.957  1.00  0.00     0.000 HD 
HETATM    9  O   UNL     1     -10.053   8.601  68.263  1.00  0.00    -0.178 OA 
BRANCH   7  10
HETATM   10  C   UNL     1      -8.012   7.550  67.541  1.00  0.00    -0.116 C  
BRANCH  10  11
HETATM   11  C   UNL     1      -8.215   6.158  66.997  1.00  0.00    -0.106 A  
HETATM   12  C   UNL     1      -9.266   5.883  66.108  1.00  0.00    -0.164 A  
HETATM   13  C   UNL     1      -9.433   4.602  65.579  1.00  0.00    -0.178 A  
HETATM   14  C   UNL     1      -8.547   3.585  65.925  1.00  0.00    -0.116 A  
HETATM   15  C   UNL     1      -7.496   3.846  66.800  1.00  0.00    -0.076 A  
HETATM   16  C   UNL     1      -7.328   5.125  67.334  1.00  0.00    -0.082 A  
ENDBRANCH  10  11
ENDBRANCH   7  10
ENDBRANCH   3   6
TORSDOF 3
ENDMDL
MODEL      250
REMARK 921   NORMALIZED FREE ENERGY PREDICTED BY IDOCK:   -1.64 KCAL/MOL
REMARK 922        TOTAL FREE ENERGY PREDICTED BY IDOCK:   -2.25 KCAL/MOL
REMARK 923 INTER-LIGAND FREE ENERGY PREDICTED BY IDOCK:   -2.27 KCAL/MOL
REMARK 924 INTRA-LIGAND FREE ENERGY PREDICTED BY IDOCK:    0.01 KCAL/MOL
REMARK 927      BINDING AFFINITY PREDICTED BY RF-SCORE:    0.00 PKD
ROOT
HETATM    1  N   UNL     1     -10.141  19.119  68.083  1.00  0.00    -0.380 N  
HETATM    2  H1  UNL     1      -9.312  19.513  67.638  1.00  0.00     0.000 HD 
HETATM    3  C   UNL     1     -10.340  17.787  68.162  1.00  0.00    -0.391 C  
HETATM    4  H2  UNL     1     -10.837  19.749  68.481  1.00  0.00     0.000 HD 
HETATM    5  O   UNL     1     -11.336  17.313  68.698  1.00  0.00     0.032 OA 
ENDROOT
BRANCH   3   6
HETATM    6  N   UNL     1      -9.371  16.983  67.632  1.00  0.00    -0.239 N  
HETATM    7  C   UNL     1      -9.280  16.498  66.339  1.00  0.00    -0.295 C  
HETATM    8  H   UNL     1      -8.623  16.706  68.267  1.00  0.00     0.000 HD 
HETATM    9  O   UNL     1     -10.112  16.714  65.458  1.00  0.00    -0.553 OA 
BRANCH   7  10
HETATM   10  C   UNL     1      -8.055  15.637  66.089  1.00  0.00     0.411 C  
BRANCH  10  11
HETATM   11  C   UNL     1      -7.178  15.484  67.307  1.00  0.00    -0.242 A  
HETATM   12  C   UNL     1      -7.273  14.342  68.118  1.00  0.00    -0.129 A  
HETATM   13  C   UNL     1      -6.438  14.185  69.225  1.00  0.00    -0.117 A  
HETATM   14  C   UNL     1      -5.493  15.163  69.529  1.00  0.00    -0.094 A  
HETATM   15  C   UNL     1      -5.384  16.297  68.729  1.00  0.00    -0.105 A  
HETATM   16  C   UNL     1      -6.220  16.458  67.622  1.00  0.00    -0.165 A  
ENDBRANCH  10  11
ENDBRANCH   7  10
ENDBRANCH   3   6
TORSDOF 3
ENDMDL
MODEL      251
REMARK 921   NORMALIZED FREE ENERGY PREDICTED BY IDOCK:   -1.61 KCAL/MOL
REMARK 922        TOTAL FREE ENERGY PREDICTED BY IDOCK:   -2.22 KCAL/MOL
REMARK 923 INTER-LIGAND FREE ENERGY PREDICTED BY IDOCK:   -1.90 KCAL/MOL
REMARK 924 INTRA-LIGAND FREE ENERGY PREDICTED BY IDOCK:   -0.32 KCAL/MOL
REMARK 927      BINDING AFFINITY PREDICTED BY RF-SCORE:    0.00 PKD
ROOT
HETATM    1  N   UNL     1      -6.733   8.541  74.466  1.00  0.00    -0.156 N  
HETATM    2  H1  UNL     1      -5.951   8.917  73.929  1.00  0.00     0.000 HD 
HETATM    3  C   UNL     1      -7.886   8.165  73.875  1.00  0.00    -0.204 C  
HETATM    4  H2  UNL     1      -6.640   8.446  75.477  1.00  0.00     0.000 HD 
HETATM    5  O   UNL     1      -8.825   7.712  74.520  1.00  0.00    -0.174 OA 
ENDROOT
BRANCH   3   6
HETATM    6  N   UNL     1      -7.956   8.293  72.516  1.00  0.00    -0.142 N  
HETATM    7  C   UNL     1      -7.162   7.684  71.561  1.00  0.00    -0.063 C  
HETATM    8  H   UNL     1      -8.684   8.915  72.163  1.00  0.00     0.000 HD 
HETATM    9  O   UNL     1      -6.225   6.928  71.818  1.00  0.00    -0.038 OA 
BRANCH   7  10
HETATM   10  C   UNL     1      -7.531   8.045  70.133  1.00  0.00    -0.073 C  
BRANCH  10  11
HETATM   11  C   UNL     1      -8.444   7.036  69.481  1.00  0.00    -0.134 A  
HETATM   12  C   UNL     1      -9.379   6.320  70.244  1.00  0.00    -0.170 A  
HETATM   13  C   UNL     1     -10.246   5.411  69.636  1.00  0.00    -0.345 A  
HETATM   14  C   UNL     1     -10.195   5.215  68.258  1.00  0.00    -0.179 A  
HETATM   15  C   UNL     1      -9.276   5.925  67.489  1.00  0.00    -0.108 A  
HETATM   16  C   UNL     1      -8.405   6.832  68.095  1.00  0.00    -0.118 A  
ENDBRANCH  10  11
ENDBRANCH   7  10
ENDBRANCH   3   6
TORSDOF 3
ENDMDL
MODEL      252
REMARK 921   NORMALIZED FREE ENERGY PREDICTED BY IDOCK:   -1.61 KCAL/MOL
REMARK 922        TOTAL FREE ENERGY PREDICTED BY IDOCK:   -2.21 KCAL/MOL
REMARK 923 INTER-LIGAND FREE ENERGY PREDICTED BY IDOCK:   -1.98 KCAL/MOL
REMARK 924 INTRA-LIGAND FREE ENERGY PREDICTED BY IDOCK:   -0.23 KCAL/MOL
REMARK 927      BINDING AFFINITY PREDICTED BY RF-SCORE:    0.00 PKD
ROOT
HETATM    1  N   UNL     1      -9.983  14.512  69.371  1.00  0.00    -0.423 N  
HETATM    2  H1  UNL     1     -10.173  13.520  69.514  1.00  0.00     0.000 HD 
HETATM    3  C   UNL     1      -9.046  14.939  68.501  1.00  0.00    -0.191 C  
HETATM    4  H2  UNL     1     -10.518  15.200  69.900  1.00  0.00     0.000 HD 
HETATM    5  O   UNL     1      -8.818  16.132  68.328  1.00  0.00    -0.181 OA 
ENDROOT
BRANCH   3   6
HETATM    6  N   UNL     1      -8.367  13.981  67.801  1.00  0.00    -0.162 N  
HETATM    7  C   UNL     1      -7.137  13.420  68.099  1.00  0.00    -0.116 C  
HETATM    8  H   UNL     1      -8.823  13.637  66.956  1.00  0.00     0.000 HD 
HETATM    9  O   UNL     1      -6.444  13.742  69.064  1.00  0.00    -0.093 OA 
BRANCH   7  10
HETATM   10  C   UNL     1      -6.686  12.365  67.105  1.00  0.00    -0.084 C  
BRANCH  10  11
HETATM   11  C   UNL     1      -7.453  11.072  67.220  1.00  0.00    -0.107 A  
HETATM   12  C   UNL     1      -7.706  10.287  66.084  1.00  0.00    -0.123 A  
HETATM   13  C   UNL     1      -8.388   9.074  66.195  1.00  0.00    -0.124 A  
HETATM   14  C   UNL     1      -8.816   8.628  67.443  1.00  0.00    -0.140 A  
HETATM   15  C   UNL     1      -8.565   9.394  68.579  1.00  0.00    -0.123 A  
HETATM   16  C   UNL     1      -7.886  10.609  68.470  1.00  0.00    -0.115 A  
ENDBRANCH  10  11
ENDBRANCH   7  10
ENDBRANCH   3   6
TORSDOF 3
ENDMDL
MODEL      253
REMARK 921   NORMALIZED FREE ENERGY PREDICTED BY IDOCK:   -1.45 KCAL/MOL
REMARK 922        TOTAL FREE ENERGY PREDICTED BY IDOCK:   -2.03 KCAL/MOL
REMARK 923 INTER-LIGAND FREE ENERGY PREDICTED BY IDOCK:   -2.13 KCAL/MOL
REMARK 924 INTRA-LIGAND FREE ENERGY PREDICTED BY IDOCK:    0.11 KCAL/MOL
REMARK 927      BINDING AFFINITY PREDICTED BY RF-SCORE:    0.00 PKD
ROOT
HETATM    1  N   UNL     1      -8.938   7.828  72.511  1.00  0.00    -0.145 N  
HETATM    2  H1  UNL     1      -8.236   7.264  72.990  1.00  0.00     0.000 HD 
HETATM    3  C   UNL     1      -9.705   7.322  71.524  1.00  0.00    -0.159 C  
HETATM    4  H2  UNL     1      -9.063   8.802  72.787  1.00  0.00     0.000 HD 
HETATM    5  O   UNL     1     -10.549   8.001  70.949  1.00  0.00    -0.209 OA 
ENDROOT
BRANCH   3   6
HETATM    6  N   UNL     1      -9.514   6.008  71.203  1.00  0.00    -0.163 N  
HETATM    7  C   UNL     1     -10.003   5.320  70.106  1.00  0.00    -0.243 C  
HETATM    8  H   UNL     1      -8.940   5.468  71.851  1.00  0.00     0.000 HD 
HETATM    9  O   UNL     1     -10.732   5.815  69.246  1.00  0.00    -0.286 OA 
BRANCH   7  10
HETATM   10  C   UNL     1      -9.580   3.863  70.055  1.00  0.00    -0.269 C  
BRANCH  10  11
HETATM   11  C   UNL     1      -8.852   3.499  68.786  1.00  0.00    -0.161 A  
HETATM   12  C   UNL     1      -9.530   2.877  67.725  1.00  0.00    -0.187 A  
HETATM   13  C   UNL     1      -8.863   2.570  66.538  1.00  0.00    -0.136 A  
HETATM   14  C   UNL     1      -7.515   2.890  66.393  1.00  0.00    -0.075 A  
HETATM   15  C   UNL     1      -6.833   3.515  67.435  1.00  0.00    -0.046 A  
HETATM   16  C   UNL     1      -7.497   3.819  68.625  1.00  0.00    -0.054 A  
ENDBRANCH  10  11
ENDBRANCH   7  10
ENDBRANCH   3   6
TORSDOF 3
ENDMDL
MODEL      254
REMARK 921   NORMALIZED FREE ENERGY PREDICTED BY IDOCK:    1.10 KCAL/MOL
REMARK 922        TOTAL FREE ENERGY PREDICTED BY IDOCK:    0.96 KCAL/MOL
REMARK 923 INTER-LIGAND FREE ENERGY PREDICTED BY IDOCK:    0.77 KCAL/MOL
REMARK 924 INTRA-LIGAND FREE ENERGY PREDICTED BY IDOCK:    0.19 KCAL/MOL
REMARK 927      BINDING AFFINITY PREDICTED BY RF-SCORE:    0.00 PKD
ROOT
HETATM    1  N   UNL     1     -12.405   7.334  69.248  1.00  0.00     0.979 N  
HETATM    2  H1  UNL     1     -12.024   8.079  68.664  1.00  0.00     0.000 HD 
HETATM    3  C   UNL     1     -11.634   6.642  70.112  1.00  0.00    -0.386 C  
HETATM    4  H2  UNL     1     -13.397   7.107  69.177  1.00  0.00     0.000 HD 
HETATM    5  O   UNL     1     -12.093   5.748  70.814  1.00  0.00     0.526 OA 
ENDROOT
BRANCH   3   6
HETATM    6  N   UNL     1     -10.316   6.994  70.185  1.00  0.00    -0.194 N  
HETATM    7  C   UNL     1      -9.287   6.315  70.814  1.00  0.00    -0.158 C  
HETATM    8  H   UNL     1     -10.059   7.865  69.719  1.00  0.00     0.000 HD 
HETATM    9  O   UNL     1      -9.431   5.267  71.443  1.00  0.00    -0.145 OA 
BRANCH   7  10
HETATM   10  C   UNL     1      -7.934   6.991  70.683  1.00  0.00    -0.109 C  
BRANCH  10  11
HETATM   11  C   UNL     1      -7.507   7.714  71.936  1.00  0.00    -0.083 A  
HETATM   12  C   UNL     1      -6.146   7.889  72.233  1.00  0.00    -0.042 A  
HETATM   13  C   UNL     1      -5.752   8.587  73.376  1.00  0.00    -0.092 A  
HETATM   14  C   UNL     1      -6.712   9.126  74.229  1.00  0.00     0.196 A  
HETATM   15  C   UNL     1      -8.065   8.967  73.942  1.00  0.00     0.524 A  
HETATM   16  C   UNL     1      -8.463   8.266  72.801  1.00  0.00    -0.248 A  
ENDBRANCH  10  11
ENDBRANCH   7  10
ENDBRANCH   3   6
TORSDOF 3
ENDMDL
