MODEL        1
REMARK 921   NORMALIZED FREE ENERGY PREDICTED BY IDOCK:   -5.09 KCAL/MOL
REMARK 922        TOTAL FREE ENERGY PREDICTED BY IDOCK:   -6.31 KCAL/MOL
REMARK 923 INTER-LIGAND FREE ENERGY PREDICTED BY IDOCK:   -5.98 KCAL/MOL
REMARK 924 INTRA-LIGAND FREE ENERGY PREDICTED BY IDOCK:   -0.33 KCAL/MOL
REMARK 927      BINDING AFFINITY PREDICTED BY RF-SCORE:    0.00 PKD
ROOT
HETATM    1  O   UNL     1     -12.657  13.992  63.631  1.00  0.00    -0.818 OA 
HETATM    2  C   UNL     1     -11.960  15.043  64.123  1.00  0.00    -0.201 C  
HETATM    3  O   UNL     1     -12.232  16.196  63.830  1.00  0.00    -0.935 OA 
HETATM    4  C   UNL     1     -10.844  14.611  65.047  1.00  0.00    -0.431 C  
ENDROOT
BRANCH   4   5
HETATM    5  C   UNL     1     -10.067  15.811  65.586  1.00  0.00    -0.401 C  
BRANCH   5   6
HETATM    6  C   UNL     1     -10.560  16.238  66.969  1.00  0.00    -0.284 C  
BRANCH   6   7
HETATM    7  C   UNL     1     -10.362  17.720  67.172  1.00  0.00    -0.354 A  
HETATM    8  C   UNL     1     -10.393  18.597  66.079  1.00  0.00    -0.436 A  
HETATM    9  C   UNL     1     -10.143  19.958  66.258  1.00  0.00    -0.613 A  
HETATM   10  C   UNL     1      -9.856  20.455  67.528  1.00  0.00    -0.564 A  
HETATM   11  C   UNL     1      -9.827  19.592  68.621  1.00  0.00    -0.530 A  
HETATM   12  C   UNL     1     -10.078  18.230  68.445  1.00  0.00    -0.412 A  
ENDBRANCH   6   7
ENDBRANCH   5   6
ENDBRANCH   4   5
TORSDOF 3
ENDMDL
MODEL        2
REMARK 921   NORMALIZED FREE ENERGY PREDICTED BY IDOCK:   -5.06 KCAL/MOL
REMARK 922        TOTAL FREE ENERGY PREDICTED BY IDOCK:   -6.28 KCAL/MOL
REMARK 923 INTER-LIGAND FREE ENERGY PREDICTED BY IDOCK:   -6.01 KCAL/MOL
REMARK 924 INTRA-LIGAND FREE ENERGY PREDICTED BY IDOCK:   -0.26 KCAL/MOL
REMARK 927      BINDING AFFINITY PREDICTED BY RF-SCORE:    0.00 PKD
ROOT
HETATM    1  O   UNL     1     -12.555  14.436  64.328  1.00  0.00    -0.676 OA 
HETATM    2  C   UNL     1     -12.456  13.600  65.388  1.00  0.00    -0.499 C  
HETATM    3  O   UNL     1     -12.707  12.409  65.302  1.00  0.00    -0.617 OA 
HETATM    4  C   UNL     1     -12.010  14.316  66.644  1.00  0.00    -0.454 C  
ENDROOT
BRANCH   4   5
HETATM    5  C   UNL     1     -11.911  13.356  67.829  1.00  0.00    -0.395 C  
BRANCH   5   6
HETATM    6  C   UNL     1     -11.225  14.003  69.034  1.00  0.00    -0.311 C  
BRANCH   6   7
HETATM    7  C   UNL     1     -12.163  14.058  70.215  1.00  0.00    -0.430 A  
HETATM    8  C   UNL     1     -12.446  12.901  70.952  1.00  0.00    -0.383 A  
HETATM    9  C   UNL     1     -13.364  12.939  72.001  1.00  0.00    -0.579 A  
HETATM   10  C   UNL     1     -14.010  14.132  72.323  1.00  0.00    -0.646 A  
HETATM   11  C   UNL     1     -13.732  15.289  71.598  1.00  0.00    -0.600 A  
HETATM   12  C   UNL     1     -12.813  15.253  70.548  1.00  0.00    -0.421 A  
ENDBRANCH   6   7
ENDBRANCH   5   6
ENDBRANCH   4   5
TORSDOF 3
ENDMDL
MODEL        3
REMARK 921   NORMALIZED FREE ENERGY PREDICTED BY IDOCK:   -5.00 KCAL/MOL
REMARK 922        TOTAL FREE ENERGY PREDICTED BY IDOCK:   -6.21 KCAL/MOL
REMARK 923 INTER-LIGAND FREE ENERGY PREDICTED BY IDOCK:   -5.97 KCAL/MOL
REMARK 924 INTRA-LIGAND FREE ENERGY PREDICTED BY IDOCK:   -0.24 KCAL/MOL
REMARK 927      BINDING AFFINITY PREDICTED BY RF-SCORE:    0.00 PKD
ROOT
HETATM    1  O   UNL     1     -12.638  14.552  63.946  1.00  0.00    -0.827 OA 
HETATM    2  C   UNL     1     -12.612  13.698  64.996  1.00  0.00    -0.390 C  
HETATM    3  O   UNL     1     -13.145  12.601  64.954  1.00  0.00    -0.850 OA 
HETATM    4  C   UNL     1     -11.863  14.267  66.180  1.00  0.00    -0.413 C  
ENDROOT
BRANCH   4   5
HETATM    5  C   UNL     1     -11.850  13.290  67.355  1.00  0.00    -0.413 C  
BRANCH   5   6
HETATM    6  C   UNL     1     -11.716  14.011  68.698  1.00  0.00    -0.389 C  
BRANCH   6   7
HETATM    7  C   UNL     1     -12.144  13.111  69.831  1.00  0.00    -0.357 A  
HETATM    8  C   UNL     1     -12.031  11.720  69.714  1.00  0.00    -0.392 A  
HETATM    9  C   UNL     1     -12.490  10.885  70.735  1.00  0.00    -0.489 A  
HETATM   10  C   UNL     1     -13.068  11.433  71.879  1.00  0.00    -0.505 A  
HETATM   11  C   UNL     1     -13.181  12.816  72.006  1.00  0.00    -0.538 A  
HETATM   12  C   UNL     1     -12.722  13.652  70.987  1.00  0.00    -0.408 A  
ENDBRANCH   6   7
ENDBRANCH   5   6
ENDBRANCH   4   5
TORSDOF 3
ENDMDL
MODEL        4
REMARK 921   NORMALIZED FREE ENERGY PREDICTED BY IDOCK:   -5.00 KCAL/MOL
REMARK 922        TOTAL FREE ENERGY PREDICTED BY IDOCK:   -6.20 KCAL/MOL
REMARK 923 INTER-LIGAND FREE ENERGY PREDICTED BY IDOCK:   -5.95 KCAL/MOL
REMARK 924 INTRA-LIGAND FREE ENERGY PREDICTED BY IDOCK:   -0.26 KCAL/MOL
REMARK 927      BINDING AFFINITY PREDICTED BY RF-SCORE:    0.00 PKD
ROOT
HETATM    1  O   UNL     1     -12.587  14.327  64.367  1.00  0.00    -0.665 OA 
HETATM    2  C   UNL     1     -12.376  13.558  65.461  1.00  0.00    -0.481 C  
HETATM    3  O   UNL     1     -12.563  12.352  65.453  1.00  0.00    -0.637 OA 
HETATM    4  C   UNL     1     -11.897  14.366  66.647  1.00  0.00    -0.417 C  
ENDROOT
BRANCH   4   5
HETATM    5  C   UNL     1     -11.672  13.481  67.871  1.00  0.00    -0.392 C  
BRANCH   5   6
HETATM    6  C   UNL     1     -11.142  14.278  69.065  1.00  0.00    -0.284 C  
BRANCH   6   7
HETATM    7  C   UNL     1     -12.144  14.279  70.193  1.00  0.00    -0.403 A  
HETATM    8  C   UNL     1     -12.729  15.477  70.622  1.00  0.00    -0.487 A  
HETATM    9  C   UNL     1     -13.604  15.487  71.709  1.00  0.00    -0.578 A  
HETATM   10  C   UNL     1     -13.900  14.300  72.378  1.00  0.00    -0.619 A  
HETATM   11  C   UNL     1     -13.327  13.103  71.956  1.00  0.00    -0.587 A  
HETATM   12  C   UNL     1     -12.452  13.091  70.869  1.00  0.00    -0.396 A  
ENDBRANCH   6   7
ENDBRANCH   5   6
ENDBRANCH   4   5
TORSDOF 3
ENDMDL
MODEL        5
REMARK 921   NORMALIZED FREE ENERGY PREDICTED BY IDOCK:   -4.95 KCAL/MOL
REMARK 922        TOTAL FREE ENERGY PREDICTED BY IDOCK:   -6.14 KCAL/MOL
REMARK 923 INTER-LIGAND FREE ENERGY PREDICTED BY IDOCK:   -5.91 KCAL/MOL
REMARK 924 INTRA-LIGAND FREE ENERGY PREDICTED BY IDOCK:   -0.23 KCAL/MOL
REMARK 927      BINDING AFFINITY PREDICTED BY RF-SCORE:    0.00 PKD
ROOT
HETATM    1  O   UNL     1     -12.742  14.774  64.064  1.00  0.00    -0.786 OA 
HETATM    2  C   UNL     1     -12.624  13.832  65.029  1.00  0.00    -0.389 C  
HETATM    3  O   UNL     1     -13.127  12.726  64.923  1.00  0.00    -0.833 OA 
HETATM    4  C   UNL     1     -11.814  14.320  66.211  1.00  0.00    -0.420 C  
ENDROOT
BRANCH   4   5
HETATM    5  C   UNL     1     -11.697  13.245  67.290  1.00  0.00    -0.424 C  
BRANCH   5   6
HETATM    6  C   UNL     1     -11.292  13.833  68.643  1.00  0.00    -0.321 C  
BRANCH   6   7
HETATM    7  C   UNL     1     -11.975  13.097  69.770  1.00  0.00    -0.382 A  
HETATM    8  C   UNL     1     -12.654  13.803  70.771  1.00  0.00    -0.410 A  
HETATM    9  C   UNL     1     -13.227  13.126  71.848  1.00  0.00    -0.526 A  
HETATM   10  C   UNL     1     -13.124  11.738  71.937  1.00  0.00    -0.482 A  
HETATM   11  C   UNL     1     -12.454  11.027  70.944  1.00  0.00    -0.509 A  
HETATM   12  C   UNL     1     -11.881  11.702  69.865  1.00  0.00    -0.434 A  
ENDBRANCH   6   7
ENDBRANCH   5   6
ENDBRANCH   4   5
TORSDOF 3
ENDMDL
MODEL        6
REMARK 921   NORMALIZED FREE ENERGY PREDICTED BY IDOCK:   -4.84 KCAL/MOL
REMARK 922        TOTAL FREE ENERGY PREDICTED BY IDOCK:   -6.01 KCAL/MOL
REMARK 923 INTER-LIGAND FREE ENERGY PREDICTED BY IDOCK:   -5.74 KCAL/MOL
REMARK 924 INTRA-LIGAND FREE ENERGY PREDICTED BY IDOCK:   -0.27 KCAL/MOL
REMARK 927      BINDING AFFINITY PREDICTED BY RF-SCORE:    0.00 PKD
ROOT
HETATM    1  O   UNL     1     -12.434  16.717  74.516  1.00  0.00    -0.737 OA 
HETATM    2  C   UNL     1     -12.474  15.846  73.481  1.00  0.00    -0.568 C  
HETATM    3  O   UNL     1     -11.463  15.360  73.001  1.00  0.00    -0.394 OA 
HETATM    4  C   UNL     1     -13.888  15.568  73.019  1.00  0.00    -0.425 C  
ENDROOT
BRANCH   4   5
HETATM    5  C   UNL     1     -13.910  14.588  71.848  1.00  0.00    -0.545 C  
BRANCH   5   6
HETATM    6  C   UNL     1     -13.775  13.137  72.312  1.00  0.00    -0.647 C  
BRANCH   6   7
HETATM    7  C   UNL     1     -12.951  12.338  71.332  1.00  0.00    -0.354 A  
HETATM    8  C   UNL     1     -12.827  10.950  71.474  1.00  0.00    -0.560 A  
HETATM    9  C   UNL     1     -12.010  10.222  70.608  1.00  0.00    -0.436 A  
HETATM   10  C   UNL     1     -11.308  10.873  69.595  1.00  0.00    -0.362 A  
HETATM   11  C   UNL     1     -11.429  12.253  69.443  1.00  0.00    -0.341 A  
HETATM   12  C   UNL     1     -12.245  12.984  70.308  1.00  0.00    -0.368 A  
ENDBRANCH   6   7
ENDBRANCH   5   6
ENDBRANCH   4   5
TORSDOF 3
ENDMDL
MODEL        7
REMARK 921   NORMALIZED FREE ENERGY PREDICTED BY IDOCK:   -4.83 KCAL/MOL
REMARK 922        TOTAL FREE ENERGY PREDICTED BY IDOCK:   -6.00 KCAL/MOL
REMARK 923 INTER-LIGAND FREE ENERGY PREDICTED BY IDOCK:   -5.78 KCAL/MOL
REMARK 924 INTRA-LIGAND FREE ENERGY PREDICTED BY IDOCK:   -0.23 KCAL/MOL
REMARK 927      BINDING AFFINITY PREDICTED BY RF-SCORE:    0.00 PKD
ROOT
HETATM    1  O   UNL     1     -12.322  12.259  64.201  1.00  0.00    -0.437 OA 
HETATM    2  C   UNL     1     -12.531  13.073  65.261  1.00  0.00    -0.499 C  
HETATM    3  O   UNL     1     -13.255  14.053  65.195  1.00  0.00    -0.768 OA 
HETATM    4  C   UNL     1     -11.775  12.619  66.491  1.00  0.00    -0.463 C  
ENDROOT
BRANCH   4   5
HETATM    5  C   UNL     1     -12.020  13.554  67.674  1.00  0.00    -0.373 C  
BRANCH   5   6
HETATM    6  C   UNL     1     -11.559  12.938  68.996  1.00  0.00    -0.372 C  
BRANCH   6   7
HETATM    7  C   UNL     1     -12.372  13.478  70.148  1.00  0.00    -0.345 A  
HETATM    8  C   UNL     1     -12.640  14.849  70.246  1.00  0.00    -0.361 A  
HETATM    9  C   UNL     1     -13.334  15.357  71.346  1.00  0.00    -0.601 A  
HETATM   10  C   UNL     1     -13.762  14.499  72.358  1.00  0.00    -0.583 A  
HETATM   11  C   UNL     1     -13.503  13.133  72.267  1.00  0.00    -0.665 A  
HETATM   12  C   UNL     1     -12.810  12.624  71.168  1.00  0.00    -0.311 A  
ENDBRANCH   6   7
ENDBRANCH   5   6
ENDBRANCH   4   5
TORSDOF 3
ENDMDL
MODEL        8
REMARK 921   NORMALIZED FREE ENERGY PREDICTED BY IDOCK:   -4.80 KCAL/MOL
REMARK 922        TOTAL FREE ENERGY PREDICTED BY IDOCK:   -5.97 KCAL/MOL
REMARK 923 INTER-LIGAND FREE ENERGY PREDICTED BY IDOCK:   -5.73 KCAL/MOL
REMARK 924 INTRA-LIGAND FREE ENERGY PREDICTED BY IDOCK:   -0.24 KCAL/MOL
REMARK 927      BINDING AFFINITY PREDICTED BY RF-SCORE:    0.00 PKD
ROOT
HETATM    1  O   UNL     1     -13.084  12.711  64.772  1.00  0.00    -0.852 OA 
HETATM    2  C   UNL     1     -12.385  13.869  64.741  1.00  0.00    -0.400 C  
HETATM    3  O   UNL     1     -12.404  14.614  63.775  1.00  0.00    -0.720 OA 
HETATM    4  C   UNL     1     -11.607  14.105  66.017  1.00  0.00    -0.364 C  
ENDROOT
BRANCH   4   5
HETATM    5  C   UNL     1     -10.821  15.413  65.959  1.00  0.00    -0.315 C  
BRANCH   5   6
HETATM    6  C   UNL     1     -10.469  15.932  67.355  1.00  0.00    -0.306 C  
BRANCH   6   7
HETATM    7  C   UNL     1     -10.332  17.435  67.346  1.00  0.00    -0.343 A  
HETATM    8  C   UNL     1     -10.190  18.143  68.546  1.00  0.00    -0.399 A  
HETATM    9  C   UNL     1     -10.132  19.537  68.543  1.00  0.00    -0.543 A  
HETATM   10  C   UNL     1     -10.217  20.237  67.340  1.00  0.00    -0.494 A  
HETATM   11  C   UNL     1     -10.354  19.541  66.140  1.00  0.00    -0.614 A  
HETATM   12  C   UNL     1     -10.412  18.147  66.142  1.00  0.00    -0.377 A  
ENDBRANCH   6   7
ENDBRANCH   5   6
ENDBRANCH   4   5
TORSDOF 3
ENDMDL
MODEL        9
REMARK 921   NORMALIZED FREE ENERGY PREDICTED BY IDOCK:   -4.78 KCAL/MOL
REMARK 922        TOTAL FREE ENERGY PREDICTED BY IDOCK:   -5.95 KCAL/MOL
REMARK 923 INTER-LIGAND FREE ENERGY PREDICTED BY IDOCK:   -5.71 KCAL/MOL
REMARK 924 INTRA-LIGAND FREE ENERGY PREDICTED BY IDOCK:   -0.24 KCAL/MOL
REMARK 927      BINDING AFFINITY PREDICTED BY RF-SCORE:    0.00 PKD
ROOT
HETATM    1  O   UNL     1     -11.719  12.334  65.446  1.00  0.00    -0.369 OA 
HETATM    2  C   UNL     1     -11.755  12.395  66.797  1.00  0.00    -0.362 C  
HETATM    3  O   UNL     1     -11.958  11.409  67.487  1.00  0.00    -0.626 OA 
HETATM    4  C   UNL     1     -11.521  13.797  67.315  1.00  0.00    -0.367 C  
ENDROOT
BRANCH   4   5
HETATM    5  C   UNL     1     -11.572  13.845  68.841  1.00  0.00    -0.353 C  
BRANCH   5   6
HETATM    6  C   UNL     1     -11.779  15.268  69.363  1.00  0.00    -0.361 C  
BRANCH   6   7
HETATM    7  C   UNL     1     -12.253  15.246  70.796  1.00  0.00    -0.411 A  
HETATM    8  C   UNL     1     -11.741  16.159  71.727  1.00  0.00    -0.568 A  
HETATM    9  C   UNL     1     -12.129  16.095  73.066  1.00  0.00    -0.636 A  
HETATM   10  C   UNL     1     -13.030  15.118  73.487  1.00  0.00    -0.601 A  
HETATM   11  C   UNL     1     -13.548  14.208  72.567  1.00  0.00    -0.644 A  
HETATM   12  C   UNL     1     -13.161  14.271  71.227  1.00  0.00    -0.412 A  
ENDBRANCH   6   7
ENDBRANCH   5   6
ENDBRANCH   4   5
TORSDOF 3
ENDMDL
MODEL       10
REMARK 921   NORMALIZED FREE ENERGY PREDICTED BY IDOCK:   -4.75 KCAL/MOL
REMARK 922        TOTAL FREE ENERGY PREDICTED BY IDOCK:   -5.91 KCAL/MOL
REMARK 923 INTER-LIGAND FREE ENERGY PREDICTED BY IDOCK:   -5.66 KCAL/MOL
REMARK 924 INTRA-LIGAND FREE ENERGY PREDICTED BY IDOCK:   -0.25 KCAL/MOL
REMARK 927      BINDING AFFINITY PREDICTED BY RF-SCORE:    0.00 PKD
ROOT
HETATM    1  O   UNL     1     -12.578   6.618  71.732  1.00  0.00    -0.354 OA 
HETATM    2  C   UNL     1     -13.192   7.822  71.664  1.00  0.00    -0.343 C  
HETATM    3  O   UNL     1     -14.393   7.929  71.479  1.00  0.00    -0.429 OA 
HETATM    4  C   UNL     1     -12.224   8.971  71.842  1.00  0.00    -0.451 C  
ENDROOT
BRANCH   4   5
HETATM    5  C   UNL     1     -12.936  10.320  71.756  1.00  0.00    -0.574 C  
BRANCH   5   6
HETATM    6  C   UNL     1     -12.273  11.254  70.742  1.00  0.00    -0.479 C  
BRANCH   6   7
HETATM    7  C   UNL     1     -12.645  12.690  71.018  1.00  0.00    -0.354 A  
HETATM    8  C   UNL     1     -13.483  13.013  72.092  1.00  0.00    -0.638 A  
HETATM    9  C   UNL     1     -13.882  14.333  72.306  1.00  0.00    -0.622 A  
HETATM   10  C   UNL     1     -13.448  15.342  71.447  1.00  0.00    -0.607 A  
HETATM   11  C   UNL     1     -12.611  15.031  70.378  1.00  0.00    -0.399 A  
HETATM   12  C   UNL     1     -12.211  13.712  70.163  1.00  0.00    -0.413 A  
ENDBRANCH   6   7
ENDBRANCH   5   6
ENDBRANCH   4   5
TORSDOF 3
ENDMDL
MODEL       11
REMARK 921   NORMALIZED FREE ENERGY PREDICTED BY IDOCK:   -4.71 KCAL/MOL
REMARK 922        TOTAL FREE ENERGY PREDICTED BY IDOCK:   -5.87 KCAL/MOL
REMARK 923 INTER-LIGAND FREE ENERGY PREDICTED BY IDOCK:   -5.62 KCAL/MOL
REMARK 924 INTRA-LIGAND FREE ENERGY PREDICTED BY IDOCK:   -0.25 KCAL/MOL
REMARK 927      BINDING AFFINITY PREDICTED BY RF-SCORE:    0.00 PKD
ROOT
HETATM    1  O   UNL     1     -12.917  13.691  65.421  1.00  0.00    -0.683 OA 
HETATM    2  C   UNL     1     -12.189  13.129  66.413  1.00  0.00    -0.329 C  
HETATM    3  O   UNL     1     -11.791  11.977  66.354  1.00  0.00    -0.578 OA 
HETATM    4  C   UNL     1     -11.945  14.086  67.559  1.00  0.00    -0.430 C  
ENDROOT
BRANCH   4   5
HETATM    5  C   UNL     1     -11.127  13.430  68.670  1.00  0.00    -0.295 C  
BRANCH   5   6
HETATM    6  C   UNL     1     -12.017  12.862  69.778  1.00  0.00    -0.365 C  
BRANCH   6   7
HETATM    7  C   UNL     1     -12.312  13.916  70.818  1.00  0.00    -0.449 A  
HETATM    8  C   UNL     1     -13.386  13.759  71.703  1.00  0.00    -0.430 A  
HETATM    9  C   UNL     1     -13.700  14.764  72.619  1.00  0.00    -0.547 A  
HETATM   10  C   UNL     1     -12.944  15.935  72.657  1.00  0.00    -0.553 A  
HETATM   11  C   UNL     1     -11.871  16.098  71.783  1.00  0.00    -0.581 A  
HETATM   12  C   UNL     1     -11.556  15.094  70.867  1.00  0.00    -0.380 A  
ENDBRANCH   6   7
ENDBRANCH   5   6
ENDBRANCH   4   5
TORSDOF 3
ENDMDL
MODEL       12
REMARK 921   NORMALIZED FREE ENERGY PREDICTED BY IDOCK:   -4.70 KCAL/MOL
REMARK 922        TOTAL FREE ENERGY PREDICTED BY IDOCK:   -5.85 KCAL/MOL
REMARK 923 INTER-LIGAND FREE ENERGY PREDICTED BY IDOCK:   -5.58 KCAL/MOL
REMARK 924 INTRA-LIGAND FREE ENERGY PREDICTED BY IDOCK:   -0.27 KCAL/MOL
REMARK 927      BINDING AFFINITY PREDICTED BY RF-SCORE:    0.00 PKD
ROOT
HETATM    1  O   UNL     1     -12.667   6.889  71.423  1.00  0.00    -0.370 OA 
HETATM    2  C   UNL     1     -12.398   8.128  71.897  1.00  0.00    -0.332 C  
HETATM    3  O   UNL     1     -11.418   8.362  72.585  1.00  0.00    -0.380 OA 
HETATM    4  C   UNL     1     -13.438   9.143  71.473  1.00  0.00    -0.417 C  
ENDROOT
BRANCH   4   5
HETATM    5  C   UNL     1     -13.119  10.532  72.023  1.00  0.00    -0.511 C  
BRANCH   5   6
HETATM    6  C   UNL     1     -12.421  11.412  70.984  1.00  0.00    -0.486 C  
BRANCH   6   7
HETATM    7  C   UNL     1     -12.742  12.868  71.218  1.00  0.00    -0.371 A  
HETATM    8  C   UNL     1     -12.186  13.859  70.398  1.00  0.00    -0.438 A  
HETATM    9  C   UNL     1     -12.429  15.208  70.655  1.00  0.00    -0.442 A  
HETATM   10  C   UNL     1     -13.227  15.581  71.736  1.00  0.00    -0.567 A  
HETATM   11  C   UNL     1     -13.788  14.603  72.555  1.00  0.00    -0.561 A  
HETATM   12  C   UNL     1     -13.547  13.252  72.298  1.00  0.00    -0.703 A  
ENDBRANCH   6   7
ENDBRANCH   5   6
ENDBRANCH   4   5
TORSDOF 3
ENDMDL
MODEL       13
REMARK 921   NORMALIZED FREE ENERGY PREDICTED BY IDOCK:   -4.69 KCAL/MOL
REMARK 922        TOTAL FREE ENERGY PREDICTED BY IDOCK:   -5.83 KCAL/MOL
REMARK 923 INTER-LIGAND FREE ENERGY PREDICTED BY IDOCK:   -5.49 KCAL/MOL
REMARK 924 INTRA-LIGAND FREE ENERGY PREDICTED BY IDOCK:   -0.35 KCAL/MOL
REMARK 927      BINDING AFFINITY PREDICTED BY RF-SCORE:    0.00 PKD
ROOT
HETATM    1  O   UNL     1     -12.407  15.433  74.397  1.00  0.00    -0.641 OA 
HETATM    2  C   UNL     1     -12.896  15.090  73.183  1.00  0.00    -0.506 C  
HETATM    3  O   UNL     1     -13.688  14.174  73.036  1.00  0.00    -0.617 OA 
HETATM    4  C   UNL     1     -12.346  15.962  72.075  1.00  0.00    -0.550 C  
ENDROOT
BRANCH   4   5
HETATM    5  C   UNL     1     -12.905  15.554  70.713  1.00  0.00    -0.513 C  
BRANCH   5   6
HETATM    6  C   UNL     1     -11.798  15.354  69.676  1.00  0.00    -0.368 C  
BRANCH   6   7
HETATM    7  C   UNL     1     -11.748  13.917  69.220  1.00  0.00    -0.381 A  
HETATM    8  C   UNL     1     -11.575  13.608  67.864  1.00  0.00    -0.376 A  
HETATM    9  C   UNL     1     -11.597  12.280  67.434  1.00  0.00    -0.425 A  
HETATM   10  C   UNL     1     -11.794  11.251  68.353  1.00  0.00    -0.331 A  
HETATM   11  C   UNL     1     -11.963  11.548  69.703  1.00  0.00    -0.407 A  
HETATM   12  C   UNL     1     -11.941  12.875  70.136  1.00  0.00    -0.373 A  
ENDBRANCH   6   7
ENDBRANCH   5   6
ENDBRANCH   4   5
TORSDOF 3
ENDMDL
MODEL       14
REMARK 921   NORMALIZED FREE ENERGY PREDICTED BY IDOCK:   -4.63 KCAL/MOL
REMARK 922        TOTAL FREE ENERGY PREDICTED BY IDOCK:   -5.77 KCAL/MOL
REMARK 923 INTER-LIGAND FREE ENERGY PREDICTED BY IDOCK:   -5.51 KCAL/MOL
REMARK 924 INTRA-LIGAND FREE ENERGY PREDICTED BY IDOCK:   -0.26 KCAL/MOL
REMARK 927      BINDING AFFINITY PREDICTED BY RF-SCORE:    0.00 PKD
ROOT
HETATM    1  O   UNL     1     -12.650  16.374  74.322  1.00  0.00    -0.706 OA 
HETATM    2  C   UNL     1     -13.063  15.957  73.103  1.00  0.00    -0.572 C  
HETATM    3  O   UNL     1     -14.232  15.703  72.865  1.00  0.00    -0.424 OA 
HETATM    4  C   UNL     1     -11.922  15.850  72.115  1.00  0.00    -0.612 C  
ENDROOT
BRANCH   4   5
HETATM    5  C   UNL     1     -12.409  15.372  70.748  1.00  0.00    -0.447 C  
BRANCH   5   6
HETATM    6  C   UNL     1     -12.314  13.852  70.606  1.00  0.00    -0.451 C  
BRANCH   6   7
HETATM    7  C   UNL     1     -11.970  13.469  69.187  1.00  0.00    -0.378 A  
HETATM    8  C   UNL     1     -11.921  14.443  68.181  1.00  0.00    -0.320 A  
HETATM    9  C   UNL     1     -11.670  14.079  66.858  1.00  0.00    -0.435 A  
HETATM   10  C   UNL     1     -11.467  12.740  66.527  1.00  0.00    -0.409 A  
HETATM   11  C   UNL     1     -11.509  11.765  67.522  1.00  0.00    -0.373 A  
HETATM   12  C   UNL     1     -11.760  12.127  68.846  1.00  0.00    -0.381 A  
ENDBRANCH   6   7
ENDBRANCH   5   6
ENDBRANCH   4   5
TORSDOF 3
ENDMDL
MODEL       15
REMARK 921   NORMALIZED FREE ENERGY PREDICTED BY IDOCK:   -4.59 KCAL/MOL
REMARK 922        TOTAL FREE ENERGY PREDICTED BY IDOCK:   -5.73 KCAL/MOL
REMARK 923 INTER-LIGAND FREE ENERGY PREDICTED BY IDOCK:   -5.50 KCAL/MOL
REMARK 924 INTRA-LIGAND FREE ENERGY PREDICTED BY IDOCK:   -0.23 KCAL/MOL
REMARK 927      BINDING AFFINITY PREDICTED BY RF-SCORE:    0.00 PKD
ROOT
HETATM    1  O   UNL     1     -13.121  12.174  63.805  1.00  0.00    -0.774 OA 
HETATM    2  C   UNL     1     -12.520  12.811  64.836  1.00  0.00    -0.497 C  
HETATM    3  O   UNL     1     -12.326  12.269  65.911  1.00  0.00    -0.618 OA 
HETATM    4  C   UNL     1     -12.136  14.232  64.487  1.00  0.00    -0.499 C  
ENDROOT
BRANCH   4   5
HETATM    5  C   UNL     1     -11.465  14.936  65.665  1.00  0.00    -0.290 C  
BRANCH   5   6
HETATM    6  C   UNL     1     -10.564  16.085  65.208  1.00  0.00    -0.424 C  
BRANCH   6   7
HETATM    7  C   UNL     1     -10.498  17.162  66.264  1.00  0.00    -0.260 A  
HETATM    8  C   UNL     1     -10.455  18.513  65.898  1.00  0.00    -0.379 A  
HETATM    9  C   UNL     1     -10.326  19.505  66.871  1.00  0.00    -0.566 A  
HETATM   10  C   UNL     1     -10.236  19.156  68.218  1.00  0.00    -0.486 A  
HETATM   11  C   UNL     1     -10.282  17.814  68.592  1.00  0.00    -0.377 A  
HETATM   12  C   UNL     1     -10.412  16.821  67.620  1.00  0.00    -0.328 A  
ENDBRANCH   6   7
ENDBRANCH   5   6
ENDBRANCH   4   5
TORSDOF 3
ENDMDL
MODEL       16
REMARK 921   NORMALIZED FREE ENERGY PREDICTED BY IDOCK:   -4.59 KCAL/MOL
REMARK 922        TOTAL FREE ENERGY PREDICTED BY IDOCK:   -5.72 KCAL/MOL
REMARK 923 INTER-LIGAND FREE ENERGY PREDICTED BY IDOCK:   -5.41 KCAL/MOL
REMARK 924 INTRA-LIGAND FREE ENERGY PREDICTED BY IDOCK:   -0.31 KCAL/MOL
REMARK 927      BINDING AFFINITY PREDICTED BY RF-SCORE:    0.00 PKD
ROOT
HETATM    1  O   UNL     1      -9.930  17.045  65.440  1.00  0.00    -0.556 OA 
HETATM    2  C   UNL     1     -10.890  16.214  64.969  1.00  0.00    -0.363 C  
HETATM    3  O   UNL     1     -11.458  16.413  63.908  1.00  0.00    -1.063 OA 
HETATM    4  C   UNL     1     -11.152  15.053  65.903  1.00  0.00    -0.334 C  
ENDROOT
BRANCH   4   5
HETATM    5  C   UNL     1     -12.242  14.132  65.356  1.00  0.00    -0.441 C  
BRANCH   5   6
HETATM    6  C   UNL     1     -12.143  12.720  65.936  1.00  0.00    -0.485 C  
BRANCH   6   7
HETATM    7  C   UNL     1     -11.224  11.863  65.099  1.00  0.00    -0.346 A  
HETATM    8  C   UNL     1     -10.487  10.827  65.688  1.00  0.00    -0.255 A  
HETATM    9  C   UNL     1      -9.588  10.080  64.927  1.00  0.00    -0.375 A  
HETATM   10  C   UNL     1      -9.415  10.361  63.572  1.00  0.00    -0.356 A  
HETATM   11  C   UNL     1     -10.146  11.387  62.978  1.00  0.00    -0.333 A  
HETATM   12  C   UNL     1     -11.047  12.136  63.737  1.00  0.00    -0.505 A  
ENDBRANCH   6   7
ENDBRANCH   5   6
ENDBRANCH   4   5
TORSDOF 3
ENDMDL
MODEL       17
REMARK 921   NORMALIZED FREE ENERGY PREDICTED BY IDOCK:   -4.59 KCAL/MOL
REMARK 922        TOTAL FREE ENERGY PREDICTED BY IDOCK:   -5.72 KCAL/MOL
REMARK 923 INTER-LIGAND FREE ENERGY PREDICTED BY IDOCK:   -5.45 KCAL/MOL
REMARK 924 INTRA-LIGAND FREE ENERGY PREDICTED BY IDOCK:   -0.27 KCAL/MOL
REMARK 927      BINDING AFFINITY PREDICTED BY RF-SCORE:    0.00 PKD
ROOT
HETATM    1  O   UNL     1     -12.800  16.402  74.148  1.00  0.00    -0.702 OA 
HETATM    2  C   UNL     1     -13.165  15.942  72.929  1.00  0.00    -0.527 C  
HETATM    3  O   UNL     1     -14.300  15.561  72.692  1.00  0.00    -0.455 OA 
HETATM    4  C   UNL     1     -12.020  15.963  71.941  1.00  0.00    -0.588 C  
ENDROOT
BRANCH   4   5
HETATM    5  C   UNL     1     -12.452  15.434  70.574  1.00  0.00    -0.468 C  
BRANCH   5   6
HETATM    6  C   UNL     1     -12.096  13.957  70.393  1.00  0.00    -0.421 C  
BRANCH   6   7
HETATM    7  C   UNL     1     -11.916  13.628  68.931  1.00  0.00    -0.392 A  
HETATM    8  C   UNL     1     -11.703  12.305  68.522  1.00  0.00    -0.381 A  
HETATM    9  C   UNL     1     -11.469  12.010  67.178  1.00  0.00    -0.401 A  
HETATM   10  C   UNL     1     -11.444  13.033  66.232  1.00  0.00    -0.379 A  
HETATM   11  C   UNL     1     -11.660  14.351  66.629  1.00  0.00    -0.396 A  
HETATM   12  C   UNL     1     -11.894  14.649  67.972  1.00  0.00    -0.343 A  
ENDBRANCH   6   7
ENDBRANCH   5   6
ENDBRANCH   4   5
TORSDOF 3
ENDMDL
MODEL       18
REMARK 921   NORMALIZED FREE ENERGY PREDICTED BY IDOCK:   -4.59 KCAL/MOL
REMARK 922        TOTAL FREE ENERGY PREDICTED BY IDOCK:   -5.72 KCAL/MOL
REMARK 923 INTER-LIGAND FREE ENERGY PREDICTED BY IDOCK:   -5.48 KCAL/MOL
REMARK 924 INTRA-LIGAND FREE ENERGY PREDICTED BY IDOCK:   -0.25 KCAL/MOL
REMARK 927      BINDING AFFINITY PREDICTED BY RF-SCORE:    0.00 PKD
ROOT
HETATM    1  O   UNL     1     -10.212  19.505  66.537  1.00  0.00    -0.389 OA 
HETATM    2  C   UNL     1     -10.228  18.904  67.749  1.00  0.00    -0.393 C  
HETATM    3  O   UNL     1      -9.922  19.494  68.772  1.00  0.00    -0.430 OA 
HETATM    4  C   UNL     1     -10.660  17.456  67.666  1.00  0.00    -0.350 C  
ENDROOT
BRANCH   4   5
HETATM    5  C   UNL     1     -10.667  16.795  69.043  1.00  0.00    -0.331 C  
BRANCH   5   6
HETATM    6  C   UNL     1     -11.772  15.744  69.169  1.00  0.00    -0.398 C  
BRANCH   6   7
HETATM    7  C   UNL     1     -12.277  15.670  70.589  1.00  0.00    -0.446 A  
HETATM    8  C   UNL     1     -13.517  15.084  70.872  1.00  0.00    -0.402 A  
HETATM    9  C   UNL     1     -14.015  15.076  72.176  1.00  0.00    -0.610 A  
HETATM   10  C   UNL     1     -13.279  15.656  73.208  1.00  0.00    -0.666 A  
HETATM   11  C   UNL     1     -12.042  16.238  72.937  1.00  0.00    -0.625 A  
HETATM   12  C   UNL     1     -11.543  16.246  71.634  1.00  0.00    -0.436 A  
ENDBRANCH   6   7
ENDBRANCH   5   6
ENDBRANCH   4   5
TORSDOF 3
ENDMDL
MODEL       19
REMARK 921   NORMALIZED FREE ENERGY PREDICTED BY IDOCK:   -4.58 KCAL/MOL
REMARK 922        TOTAL FREE ENERGY PREDICTED BY IDOCK:   -5.71 KCAL/MOL
REMARK 923 INTER-LIGAND FREE ENERGY PREDICTED BY IDOCK:   -5.46 KCAL/MOL
REMARK 924 INTRA-LIGAND FREE ENERGY PREDICTED BY IDOCK:   -0.25 KCAL/MOL
REMARK 927      BINDING AFFINITY PREDICTED BY RF-SCORE:    0.00 PKD
ROOT
HETATM    1  O   UNL     1     -12.550  13.967  63.336  1.00  0.00    -0.853 OA 
HETATM    2  C   UNL     1     -11.804  13.871  64.461  1.00  0.00    -0.426 C  
HETATM    3  O   UNL     1     -10.586  13.940  64.441  1.00  0.00    -0.400 OA 
HETATM    4  C   UNL     1     -12.654  13.674  65.697  1.00  0.00    -0.531 C  
ENDROOT
BRANCH   4   5
HETATM    5  C   UNL     1     -11.793  13.563  66.955  1.00  0.00    -0.452 C  
BRANCH   5   6
HETATM    6  C   UNL     1     -11.515  14.930  67.582  1.00  0.00    -0.366 C  
BRANCH   6   7
HETATM    7  C   UNL     1     -11.723  14.883  69.076  1.00  0.00    -0.347 A  
HETATM    8  C   UNL     1     -12.232  13.729  69.687  1.00  0.00    -0.359 A  
HETATM    9  C   UNL     1     -12.487  13.710  71.058  1.00  0.00    -0.456 A  
HETATM   10  C   UNL     1     -12.239  14.843  71.832  1.00  0.00    -0.424 A  
HETATM   11  C   UNL     1     -11.729  15.993  71.234  1.00  0.00    -0.516 A  
HETATM   12  C   UNL     1     -11.473  16.015  69.863  1.00  0.00    -0.327 A  
ENDBRANCH   6   7
ENDBRANCH   5   6
ENDBRANCH   4   5
TORSDOF 3
ENDMDL
MODEL       20
REMARK 921   NORMALIZED FREE ENERGY PREDICTED BY IDOCK:   -4.58 KCAL/MOL
REMARK 922        TOTAL FREE ENERGY PREDICTED BY IDOCK:   -5.71 KCAL/MOL
REMARK 923 INTER-LIGAND FREE ENERGY PREDICTED BY IDOCK:   -5.47 KCAL/MOL
REMARK 924 INTRA-LIGAND FREE ENERGY PREDICTED BY IDOCK:   -0.24 KCAL/MOL
REMARK 927      BINDING AFFINITY PREDICTED BY RF-SCORE:    0.00 PKD
ROOT
HETATM    1  O   UNL     1     -12.031  11.920  66.297  1.00  0.00    -0.554 OA 
HETATM    2  C   UNL     1     -11.899  12.390  67.559  1.00  0.00    -0.284 C  
HETATM    3  O   UNL     1     -12.213  11.729  68.535  1.00  0.00    -0.430 OA 
HETATM    4  C   UNL     1     -11.332  13.792  67.593  1.00  0.00    -0.331 C  
ENDROOT
BRANCH   4   5
HETATM    5  C   UNL     1     -11.197  14.306  69.025  1.00  0.00    -0.294 C  
BRANCH   5   6
HETATM    6  C   UNL     1     -12.029  15.568  69.262  1.00  0.00    -0.338 C  
BRANCH   6   7
HETATM    7  C   UNL     1     -12.474  15.650  70.702  1.00  0.00    -0.463 A  
HETATM    8  C   UNL     1     -13.779  15.290  71.063  1.00  0.00    -0.452 A  
HETATM    9  C   UNL     1     -14.211  15.430  72.383  1.00  0.00    -0.584 A  
HETATM   10  C   UNL     1     -13.344  15.933  73.352  1.00  0.00    -0.609 A  
HETATM   11  C   UNL     1     -12.043  16.289  73.003  1.00  0.00    -0.629 A  
HETATM   12  C   UNL     1     -11.609  16.149  71.684  1.00  0.00    -0.503 A  
ENDBRANCH   6   7
ENDBRANCH   5   6
ENDBRANCH   4   5
TORSDOF 3
ENDMDL
MODEL       21
REMARK 921   NORMALIZED FREE ENERGY PREDICTED BY IDOCK:   -4.57 KCAL/MOL
REMARK 922        TOTAL FREE ENERGY PREDICTED BY IDOCK:   -5.70 KCAL/MOL
REMARK 923 INTER-LIGAND FREE ENERGY PREDICTED BY IDOCK:   -5.43 KCAL/MOL
REMARK 924 INTRA-LIGAND FREE ENERGY PREDICTED BY IDOCK:   -0.27 KCAL/MOL
REMARK 927      BINDING AFFINITY PREDICTED BY RF-SCORE:    0.00 PKD
ROOT
HETATM    1  O   UNL     1     -10.260  17.940  65.775  1.00  0.00    -0.577 OA 
HETATM    2  C   UNL     1     -10.147  16.981  66.723  1.00  0.00    -0.300 C  
HETATM    3  O   UNL     1      -9.681  15.880  66.481  1.00  0.00    -0.238 OA 
HETATM    4  C   UNL     1     -10.657  17.443  68.070  1.00  0.00    -0.389 C  
ENDROOT
BRANCH   4   5
HETATM    5  C   UNL     1     -10.526  16.345  69.124  1.00  0.00    -0.303 C  
BRANCH   5   6
HETATM    6  C   UNL     1     -11.781  15.474  69.203  1.00  0.00    -0.380 C  
BRANCH   6   7
HETATM    7  C   UNL     1     -12.223  15.304  70.636  1.00  0.00    -0.412 A  
HETATM    8  C   UNL     1     -11.801  16.206  71.621  1.00  0.00    -0.557 A  
HETATM    9  C   UNL     1     -12.154  16.010  72.957  1.00  0.00    -0.628 A  
HETATM   10  C   UNL     1     -12.930  14.910  73.320  1.00  0.00    -0.635 A  
HETATM   11  C   UNL     1     -13.357  14.009  72.347  1.00  0.00    -0.617 A  
HETATM   12  C   UNL     1     -13.005  14.204  71.011  1.00  0.00    -0.399 A  
ENDBRANCH   6   7
ENDBRANCH   5   6
ENDBRANCH   4   5
TORSDOF 3
ENDMDL
MODEL       22
REMARK 921   NORMALIZED FREE ENERGY PREDICTED BY IDOCK:   -4.57 KCAL/MOL
REMARK 922        TOTAL FREE ENERGY PREDICTED BY IDOCK:   -5.70 KCAL/MOL
REMARK 923 INTER-LIGAND FREE ENERGY PREDICTED BY IDOCK:   -5.56 KCAL/MOL
REMARK 924 INTRA-LIGAND FREE ENERGY PREDICTED BY IDOCK:   -0.14 KCAL/MOL
REMARK 927      BINDING AFFINITY PREDICTED BY RF-SCORE:    0.00 PKD
ROOT
HETATM    1  O   UNL     1     -12.444  16.517  74.271  1.00  0.00    -0.683 OA 
HETATM    2  C   UNL     1     -13.020  16.107  73.117  1.00  0.00    -0.444 C  
HETATM    3  O   UNL     1     -14.218  15.893  73.028  1.00  0.00    -0.410 OA 
HETATM    4  C   UNL     1     -12.015  15.956  71.996  1.00  0.00    -0.602 C  
ENDROOT
BRANCH   4   5
HETATM    5  C   UNL     1     -12.684  15.487  70.705  1.00  0.00    -0.511 C  
BRANCH   5   6
HETATM    6  C   UNL     1     -11.843  14.440  69.972  1.00  0.00    -0.377 C  
BRANCH   6   7
HETATM    7  C   UNL     1     -12.233  13.047  70.402  1.00  0.00    -0.386 A  
HETATM    8  C   UNL     1     -13.062  12.853  71.514  1.00  0.00    -0.390 A  
HETATM    9  C   UNL     1     -13.368  11.564  71.951  1.00  0.00    -0.408 A  
HETATM   10  C   UNL     1     -12.846  10.457  71.283  1.00  0.00    -0.533 A  
HETATM   11  C   UNL     1     -12.023  10.640  70.174  1.00  0.00    -0.417 A  
HETATM   12  C   UNL     1     -11.717  11.929  69.734  1.00  0.00    -0.403 A  
ENDBRANCH   6   7
ENDBRANCH   5   6
ENDBRANCH   4   5
TORSDOF 3
ENDMDL
MODEL       23
REMARK 921   NORMALIZED FREE ENERGY PREDICTED BY IDOCK:   -4.57 KCAL/MOL
REMARK 922        TOTAL FREE ENERGY PREDICTED BY IDOCK:   -5.70 KCAL/MOL
REMARK 923 INTER-LIGAND FREE ENERGY PREDICTED BY IDOCK:   -5.43 KCAL/MOL
REMARK 924 INTRA-LIGAND FREE ENERGY PREDICTED BY IDOCK:   -0.26 KCAL/MOL
REMARK 927      BINDING AFFINITY PREDICTED BY RF-SCORE:    0.00 PKD
ROOT
HETATM    1  O   UNL     1     -12.043  12.022  65.745  1.00  0.00    -0.536 OA 
HETATM    2  C   UNL     1     -12.261  13.224  66.327  1.00  0.00    -0.377 C  
HETATM    3  O   UNL     1     -12.948  14.085  65.803  1.00  0.00    -0.517 OA 
HETATM    4  C   UNL     1     -11.563  13.348  67.664  1.00  0.00    -0.377 C  
ENDROOT
BRANCH   4   5
HETATM    5  C   UNL     1     -11.816  14.714  68.301  1.00  0.00    -0.333 C  
BRANCH   5   6
HETATM    6  C   UNL     1     -10.998  14.910  69.579  1.00  0.00    -0.289 C  
BRANCH   6   7
HETATM    7  C   UNL     1     -11.902  15.204  70.751  1.00  0.00    -0.371 A  
HETATM    8  C   UNL     1     -11.365  15.409  72.028  1.00  0.00    -0.466 A  
HETATM    9  C   UNL     1     -12.206  15.614  73.123  1.00  0.00    -0.587 A  
HETATM   10  C   UNL     1     -13.589  15.613  72.953  1.00  0.00    -0.658 A  
HETATM   11  C   UNL     1     -14.132  15.414  71.685  1.00  0.00    -0.618 A  
HETATM   12  C   UNL     1     -13.294  15.210  70.588  1.00  0.00    -0.304 A  
ENDBRANCH   6   7
ENDBRANCH   5   6
ENDBRANCH   4   5
TORSDOF 3
ENDMDL
MODEL       24
REMARK 921   NORMALIZED FREE ENERGY PREDICTED BY IDOCK:   -4.57 KCAL/MOL
REMARK 922        TOTAL FREE ENERGY PREDICTED BY IDOCK:   -5.69 KCAL/MOL
REMARK 923 INTER-LIGAND FREE ENERGY PREDICTED BY IDOCK:   -5.32 KCAL/MOL
REMARK 924 INTRA-LIGAND FREE ENERGY PREDICTED BY IDOCK:   -0.38 KCAL/MOL
REMARK 927      BINDING AFFINITY PREDICTED BY RF-SCORE:    0.00 PKD
ROOT
HETATM    1  O   UNL     1     -10.164  17.624  65.563  1.00  0.00    -0.600 OA 
HETATM    2  C   UNL     1     -10.802  16.590  64.966  1.00  0.00    -0.229 C  
HETATM    3  O   UNL     1     -11.598  16.755  64.057  1.00  0.00    -1.195 OA 
HETATM    4  C   UNL     1     -10.408  15.254  65.559  1.00  0.00    -0.408 C  
ENDROOT
BRANCH   4   5
HETATM    5  C   UNL     1     -11.143  14.102  64.875  1.00  0.00    -0.389 C  
BRANCH   5   6
HETATM    6  C   UNL     1     -12.300  13.575  65.727  1.00  0.00    -0.516 C  
BRANCH   6   7
HETATM    7  C   UNL     1     -11.780  12.758  66.885  1.00  0.00    -0.447 A  
HETATM    8  C   UNL     1     -11.968  13.194  68.202  1.00  0.00    -0.333 A  
HETATM    9  C   UNL     1     -11.429  12.474  69.269  1.00  0.00    -0.353 A  
HETATM   10  C   UNL     1     -10.696  11.312  69.029  1.00  0.00    -0.257 A  
HETATM   11  C   UNL     1     -10.508  10.868  67.721  1.00  0.00    -0.238 A  
HETATM   12  C   UNL     1     -11.046  11.587  66.653  1.00  0.00    -0.355 A  
ENDBRANCH   6   7
ENDBRANCH   5   6
ENDBRANCH   4   5
TORSDOF 3
ENDMDL
MODEL       25
REMARK 921   NORMALIZED FREE ENERGY PREDICTED BY IDOCK:   -4.48 KCAL/MOL
REMARK 922        TOTAL FREE ENERGY PREDICTED BY IDOCK:   -5.59 KCAL/MOL
REMARK 923 INTER-LIGAND FREE ENERGY PREDICTED BY IDOCK:   -5.36 KCAL/MOL
REMARK 924 INTRA-LIGAND FREE ENERGY PREDICTED BY IDOCK:   -0.23 KCAL/MOL
REMARK 927      BINDING AFFINITY PREDICTED BY RF-SCORE:    0.00 PKD
ROOT
HETATM    1  O   UNL     1     -10.213  19.235  66.454  1.00  0.00    -0.379 OA 
HETATM    2  C   UNL     1     -10.337  18.766  67.718  1.00  0.00    -0.411 C  
HETATM    3  O   UNL     1     -10.129  19.467  68.694  1.00  0.00    -0.410 OA 
HETATM    4  C   UNL     1     -10.752  17.312  67.752  1.00  0.00    -0.333 C  
ENDROOT
BRANCH   4   5
HETATM    5  C   UNL     1     -10.881  16.801  69.186  1.00  0.00    -0.287 C  
BRANCH   5   6
HETATM    6  C   UNL     1     -11.857  15.628  69.291  1.00  0.00    -0.378 C  
BRANCH   6   7
HETATM    7  C   UNL     1     -12.371  15.487  70.703  1.00  0.00    -0.462 A  
HETATM    8  C   UNL     1     -11.665  16.047  71.775  1.00  0.00    -0.593 A  
HETATM    9  C   UNL     1     -12.104  15.859  73.086  1.00  0.00    -0.611 A  
HETATM   10  C   UNL     1     -13.252  15.108  73.338  1.00  0.00    -0.488 A  
HETATM   11  C   UNL     1     -13.964  14.551  72.277  1.00  0.00    -0.600 A  
HETATM   12  C   UNL     1     -13.526  14.739  70.965  1.00  0.00    -0.401 A  
ENDBRANCH   6   7
ENDBRANCH   5   6
ENDBRANCH   4   5
TORSDOF 3
ENDMDL
MODEL       26
REMARK 921   NORMALIZED FREE ENERGY PREDICTED BY IDOCK:   -4.46 KCAL/MOL
REMARK 922        TOTAL FREE ENERGY PREDICTED BY IDOCK:   -5.57 KCAL/MOL
REMARK 923 INTER-LIGAND FREE ENERGY PREDICTED BY IDOCK:   -5.35 KCAL/MOL
REMARK 924 INTRA-LIGAND FREE ENERGY PREDICTED BY IDOCK:   -0.22 KCAL/MOL
REMARK 927      BINDING AFFINITY PREDICTED BY RF-SCORE:    0.00 PKD
ROOT
HETATM    1  O   UNL     1     -11.826  11.846  63.478  1.00  0.00    -0.473 OA 
HETATM    2  C   UNL     1     -12.246  12.408  64.636  1.00  0.00    -0.425 C  
HETATM    3  O   UNL     1     -13.276  13.057  64.707  1.00  0.00    -0.709 OA 
HETATM    4  C   UNL     1     -11.298  12.133  65.783  1.00  0.00    -0.402 C  
ENDROOT
BRANCH   4   5
HETATM    5  C   UNL     1     -11.787  12.781  67.078  1.00  0.00    -0.428 C  
BRANCH   5   6
HETATM    6  C   UNL     1     -11.088  12.199  68.308  1.00  0.00    -0.288 C  
BRANCH   6   7
HETATM    7  C   UNL     1     -11.866  12.515  69.562  1.00  0.00    -0.375 A  
HETATM    8  C   UNL     1     -12.210  13.838  69.870  1.00  0.00    -0.383 A  
HETATM    9  C   UNL     1     -12.870  14.137  71.063  1.00  0.00    -0.421 A  
HETATM   10  C   UNL     1     -13.190  13.119  71.959  1.00  0.00    -0.543 A  
HETATM   11  C   UNL     1     -12.857  11.800  71.659  1.00  0.00    -0.433 A  
HETATM   12  C   UNL     1     -12.197  11.498  70.467  1.00  0.00    -0.469 A  
ENDBRANCH   6   7
ENDBRANCH   5   6
ENDBRANCH   4   5
TORSDOF 3
ENDMDL
MODEL       27
REMARK 921   NORMALIZED FREE ENERGY PREDICTED BY IDOCK:   -4.45 KCAL/MOL
REMARK 922        TOTAL FREE ENERGY PREDICTED BY IDOCK:   -5.55 KCAL/MOL
REMARK 923 INTER-LIGAND FREE ENERGY PREDICTED BY IDOCK:   -5.24 KCAL/MOL
REMARK 924 INTRA-LIGAND FREE ENERGY PREDICTED BY IDOCK:   -0.32 KCAL/MOL
REMARK 927      BINDING AFFINITY PREDICTED BY RF-SCORE:    0.00 PKD
ROOT
HETATM    1  O   UNL     1     -12.981   9.329  72.220  1.00  0.00    -0.400 OA 
HETATM    2  C   UNL     1     -12.160  10.061  71.432  1.00  0.00    -0.407 C  
HETATM    3  O   UNL     1     -11.087   9.634  71.038  1.00  0.00    -0.314 OA 
HETATM    4  C   UNL     1     -12.731  11.427  71.120  1.00  0.00    -0.479 C  
ENDROOT
BRANCH   4   5
HETATM    5  C   UNL     1     -11.786  12.239  70.236  1.00  0.00    -0.324 C  
BRANCH   5   6
HETATM    6  C   UNL     1     -12.393  13.584  69.833  1.00  0.00    -0.287 C  
BRANCH   6   7
HETATM    7  C   UNL     1     -12.691  14.421  71.053  1.00  0.00    -0.416 A  
HETATM    8  C   UNL     1     -14.003  14.822  71.336  1.00  0.00    -0.512 A  
HETATM    9  C   UNL     1     -14.268  15.652  72.426  1.00  0.00    -0.521 A  
HETATM   10  C   UNL     1     -13.226  16.090  73.241  1.00  0.00    -0.651 A  
HETATM   11  C   UNL     1     -11.918  15.693  72.970  1.00  0.00    -0.590 A  
HETATM   12  C   UNL     1     -11.651  14.863  71.881  1.00  0.00    -0.335 A  
ENDBRANCH   6   7
ENDBRANCH   5   6
ENDBRANCH   4   5
TORSDOF 3
ENDMDL
MODEL       28
REMARK 921   NORMALIZED FREE ENERGY PREDICTED BY IDOCK:   -4.42 KCAL/MOL
REMARK 922        TOTAL FREE ENERGY PREDICTED BY IDOCK:   -5.52 KCAL/MOL
REMARK 923 INTER-LIGAND FREE ENERGY PREDICTED BY IDOCK:   -5.26 KCAL/MOL
REMARK 924 INTRA-LIGAND FREE ENERGY PREDICTED BY IDOCK:   -0.26 KCAL/MOL
REMARK 927      BINDING AFFINITY PREDICTED BY RF-SCORE:    0.00 PKD
ROOT
HETATM    1  O   UNL     1     -12.477  14.441  63.857  1.00  0.00    -0.798 OA 
HETATM    2  C   UNL     1     -12.479  13.358  64.669  1.00  0.00    -0.331 C  
HETATM    3  O   UNL     1     -13.283  12.450  64.539  1.00  0.00    -0.834 OA 
HETATM    4  C   UNL     1     -11.391  13.426  65.718  1.00  0.00    -0.322 C  
ENDROOT
BRANCH   4   5
HETATM    5  C   UNL     1     -11.414  12.198  66.626  1.00  0.00    -0.426 C  
BRANCH   5   6
HETATM    6  C   UNL     1     -11.890  12.540  68.039  1.00  0.00    -0.382 C  
BRANCH   6   7
HETATM    7  C   UNL     1     -11.701  11.364  68.965  1.00  0.00    -0.409 A  
HETATM    8  C   UNL     1     -12.205  11.399  70.272  1.00  0.00    -0.433 A  
HETATM    9  C   UNL     1     -11.971  10.340  71.149  1.00  0.00    -0.472 A  
HETATM   10  C   UNL     1     -11.229   9.236  70.730  1.00  0.00    -0.351 A  
HETATM   11  C   UNL     1     -10.726   9.190  69.431  1.00  0.00    -0.210 A  
HETATM   12  C   UNL     1     -10.960  10.249  68.552  1.00  0.00    -0.294 A  
ENDBRANCH   6   7
ENDBRANCH   5   6
ENDBRANCH   4   5
TORSDOF 3
ENDMDL
MODEL       29
REMARK 921   NORMALIZED FREE ENERGY PREDICTED BY IDOCK:   -4.41 KCAL/MOL
REMARK 922        TOTAL FREE ENERGY PREDICTED BY IDOCK:   -5.51 KCAL/MOL
REMARK 923 INTER-LIGAND FREE ENERGY PREDICTED BY IDOCK:   -5.17 KCAL/MOL
REMARK 924 INTRA-LIGAND FREE ENERGY PREDICTED BY IDOCK:   -0.34 KCAL/MOL
REMARK 927      BINDING AFFINITY PREDICTED BY RF-SCORE:    0.00 PKD
ROOT
HETATM    1  O   UNL     1     -10.233  17.467  65.901  1.00  0.00    -0.509 OA 
HETATM    2  C   UNL     1     -10.760  16.512  65.100  1.00  0.00    -0.244 C  
HETATM    3  O   UNL     1     -11.460  16.785  64.139  1.00  0.00    -1.171 OA 
HETATM    4  C   UNL     1     -10.379  15.117  65.543  1.00  0.00    -0.399 C  
ENDROOT
BRANCH   4   5
HETATM    5  C   UNL     1     -10.989  14.055  64.630  1.00  0.00    -0.401 C  
BRANCH   5   6
HETATM    6  C   UNL     1     -12.008  13.183  65.366  1.00  0.00    -0.448 C  
BRANCH   6   7
HETATM    7  C   UNL     1     -11.320  12.041  66.074  1.00  0.00    -0.398 A  
HETATM    8  C   UNL     1     -10.496  11.159  65.364  1.00  0.00    -0.321 A  
HETATM    9  C   UNL     1      -9.915  10.064  66.005  1.00  0.00    -0.334 A  
HETATM   10  C   UNL     1     -10.154   9.840  67.360  1.00  0.00    -0.259 A  
HETATM   11  C   UNL     1     -10.968  10.715  68.076  1.00  0.00    -0.336 A  
HETATM   12  C   UNL     1     -11.550  11.811  67.436  1.00  0.00    -0.352 A  
ENDBRANCH   6   7
ENDBRANCH   5   6
ENDBRANCH   4   5
TORSDOF 3
ENDMDL
MODEL       30
REMARK 921   NORMALIZED FREE ENERGY PREDICTED BY IDOCK:   -4.39 KCAL/MOL
REMARK 922        TOTAL FREE ENERGY PREDICTED BY IDOCK:   -5.49 KCAL/MOL
REMARK 923 INTER-LIGAND FREE ENERGY PREDICTED BY IDOCK:   -5.06 KCAL/MOL
REMARK 924 INTRA-LIGAND FREE ENERGY PREDICTED BY IDOCK:   -0.43 KCAL/MOL
REMARK 927      BINDING AFFINITY PREDICTED BY RF-SCORE:    0.00 PKD
ROOT
HETATM    1  O   UNL     1     -12.609  14.075  63.082  1.00  0.00    -0.733 OA 
HETATM    2  C   UNL     1     -12.259  12.966  63.775  1.00  0.00    -0.476 C  
HETATM    3  O   UNL     1     -13.040  12.385  64.509  1.00  0.00    -0.823 OA 
HETATM    4  C   UNL     1     -10.822  12.563  63.524  1.00  0.00    -0.443 C  
ENDROOT
BRANCH   4   5
HETATM    5  C   UNL     1     -10.446  11.314  64.319  1.00  0.00    -0.419 C  
BRANCH   5   6
HETATM    6  C   UNL     1      -9.570  11.647  65.528  1.00  0.00    -0.241 C  
BRANCH   6   7
HETATM    7  C   UNL     1     -10.421  11.915  66.745  1.00  0.00    -0.253 A  
HETATM    8  C   UNL     1     -10.567  13.219  67.237  1.00  0.00    -0.250 A  
HETATM    9  C   UNL     1     -11.298  13.458  68.401  1.00  0.00    -0.329 A  
HETATM   10  C   UNL     1     -11.889  12.396  69.085  1.00  0.00    -0.352 A  
HETATM   11  C   UNL     1     -11.753  11.097  68.601  1.00  0.00    -0.389 A  
HETATM   12  C   UNL     1     -11.023  10.856  67.437  1.00  0.00    -0.353 A  
ENDBRANCH   6   7
ENDBRANCH   5   6
ENDBRANCH   4   5
TORSDOF 3
ENDMDL
MODEL       31
REMARK 921   NORMALIZED FREE ENERGY PREDICTED BY IDOCK:   -4.38 KCAL/MOL
REMARK 922        TOTAL FREE ENERGY PREDICTED BY IDOCK:   -5.48 KCAL/MOL
REMARK 923 INTER-LIGAND FREE ENERGY PREDICTED BY IDOCK:   -5.22 KCAL/MOL
REMARK 924 INTRA-LIGAND FREE ENERGY PREDICTED BY IDOCK:   -0.25 KCAL/MOL
REMARK 927      BINDING AFFINITY PREDICTED BY RF-SCORE:    0.00 PKD
ROOT
HETATM    1  O   UNL     1     -11.823   5.770  72.473  1.00  0.00    -0.297 OA 
HETATM    2  C   UNL     1     -11.885   6.866  71.682  1.00  0.00    -0.324 C  
HETATM    3  O   UNL     1     -12.125   6.794  70.488  1.00  0.00    -0.386 OA 
HETATM    4  C   UNL     1     -11.625   8.143  72.451  1.00  0.00    -0.463 C  
ENDROOT
BRANCH   4   5
HETATM    5  C   UNL     1     -11.693   9.368  71.540  1.00  0.00    -0.465 C  
BRANCH   5   6
HETATM    6  C   UNL     1     -13.039  10.088  71.648  1.00  0.00    -0.547 C  
BRANCH   6   7
HETATM    7  C   UNL     1     -12.877  11.563  71.374  1.00  0.00    -0.489 A  
HETATM    8  C   UNL     1     -13.508  12.511  72.191  1.00  0.00    -0.523 A  
HETATM    9  C   UNL     1     -13.414  13.872  71.897  1.00  0.00    -0.511 A  
HETATM   10  C   UNL     1     -12.690  14.298  70.784  1.00  0.00    -0.419 A  
HETATM   11  C   UNL     1     -12.056  13.363  69.969  1.00  0.00    -0.404 A  
HETATM   12  C   UNL     1     -12.149  12.002  70.261  1.00  0.00    -0.395 A  
ENDBRANCH   6   7
ENDBRANCH   5   6
ENDBRANCH   4   5
TORSDOF 3
ENDMDL
MODEL       32
REMARK 921   NORMALIZED FREE ENERGY PREDICTED BY IDOCK:   -4.38 KCAL/MOL
REMARK 922        TOTAL FREE ENERGY PREDICTED BY IDOCK:   -5.47 KCAL/MOL
REMARK 923 INTER-LIGAND FREE ENERGY PREDICTED BY IDOCK:   -5.24 KCAL/MOL
REMARK 924 INTRA-LIGAND FREE ENERGY PREDICTED BY IDOCK:   -0.24 KCAL/MOL
REMARK 927      BINDING AFFINITY PREDICTED BY RF-SCORE:    0.00 PKD
ROOT
HETATM    1  O   UNL     1     -13.865  16.114  73.313  1.00  0.00    -0.559 OA 
HETATM    2  C   UNL     1     -13.552  15.335  72.252  1.00  0.00    -0.481 C  
HETATM    3  O   UNL     1     -13.378  15.796  71.136  1.00  0.00    -0.564 OA 
HETATM    4  C   UNL     1     -13.452  13.872  72.624  1.00  0.00    -0.652 C  
ENDROOT
BRANCH   4   5
HETATM    5  C   UNL     1     -13.104  13.010  71.412  1.00  0.00    -0.336 C  
BRANCH   5   6
HETATM    6  C   UNL     1     -13.047  11.522  71.764  1.00  0.00    -0.503 C  
BRANCH   6   7
HETATM    7  C   UNL     1     -12.213  10.768  70.758  1.00  0.00    -0.480 A  
HETATM    8  C   UNL     1     -11.528   9.605  71.132  1.00  0.00    -0.456 A  
HETATM    9  C   UNL     1     -10.703   8.945  70.220  1.00  0.00    -0.248 A  
HETATM   10  C   UNL     1     -10.553   9.443  68.926  1.00  0.00    -0.231 A  
HETATM   11  C   UNL     1     -11.234  10.597  68.543  1.00  0.00    -0.342 A  
HETATM   12  C   UNL     1     -12.060  11.257  69.454  1.00  0.00    -0.384 A  
ENDBRANCH   6   7
ENDBRANCH   5   6
ENDBRANCH   4   5
TORSDOF 3
ENDMDL
MODEL       33
REMARK 921   NORMALIZED FREE ENERGY PREDICTED BY IDOCK:   -4.37 KCAL/MOL
REMARK 922        TOTAL FREE ENERGY PREDICTED BY IDOCK:   -5.47 KCAL/MOL
REMARK 923 INTER-LIGAND FREE ENERGY PREDICTED BY IDOCK:   -5.23 KCAL/MOL
REMARK 924 INTRA-LIGAND FREE ENERGY PREDICTED BY IDOCK:   -0.24 KCAL/MOL
REMARK 927      BINDING AFFINITY PREDICTED BY RF-SCORE:    0.00 PKD
ROOT
HETATM    1  O   UNL     1     -14.108  13.914  72.616  1.00  0.00    -0.679 OA 
HETATM    2  C   UNL     1     -13.721  14.523  71.472  1.00  0.00    -0.397 C  
HETATM    3  O   UNL     1     -14.326  15.474  71.004  1.00  0.00    -0.462 OA 
HETATM    4  C   UNL     1     -12.484  13.889  70.874  1.00  0.00    -0.447 C  
ENDROOT
BRANCH   4   5
HETATM    5  C   UNL     1     -12.067  14.587  69.581  1.00  0.00    -0.369 C  
BRANCH   5   6
HETATM    6  C   UNL     1     -11.981  13.612  68.405  1.00  0.00    -0.391 C  
BRANCH   6   7
HETATM    7  C   UNL     1     -11.695  14.350  67.120  1.00  0.00    -0.424 A  
HETATM    8  C   UNL     1     -12.231  13.898  65.907  1.00  0.00    -0.497 A  
HETATM    9  C   UNL     1     -11.911  14.541  64.711  1.00  0.00    -0.449 A  
HETATM   10  C   UNL     1     -11.052  15.639  64.714  1.00  0.00    -0.426 A  
HETATM   11  C   UNL     1     -10.518  16.098  65.917  1.00  0.00    -0.366 A  
HETATM   12  C   UNL     1     -10.837  15.457  67.115  1.00  0.00    -0.321 A  
ENDBRANCH   6   7
ENDBRANCH   5   6
ENDBRANCH   4   5
TORSDOF 3
ENDMDL
MODEL       34
REMARK 921   NORMALIZED FREE ENERGY PREDICTED BY IDOCK:   -4.37 KCAL/MOL
REMARK 922        TOTAL FREE ENERGY PREDICTED BY IDOCK:   -5.46 KCAL/MOL
REMARK 923 INTER-LIGAND FREE ENERGY PREDICTED BY IDOCK:   -5.22 KCAL/MOL
REMARK 924 INTRA-LIGAND FREE ENERGY PREDICTED BY IDOCK:   -0.25 KCAL/MOL
REMARK 927      BINDING AFFINITY PREDICTED BY RF-SCORE:    0.00 PKD
ROOT
HETATM    1  O   UNL     1     -12.854  15.369  73.102  1.00  0.00    -0.399 OA 
HETATM    2  C   UNL     1     -12.852  15.603  71.769  1.00  0.00    -0.458 C  
HETATM    3  O   UNL     1     -13.882  15.663  71.118  1.00  0.00    -0.583 OA 
HETATM    4  C   UNL     1     -11.453  15.772  71.219  1.00  0.00    -0.481 C  
ENDROOT
BRANCH   4   5
HETATM    5  C   UNL     1     -11.472  16.029  69.713  1.00  0.00    -0.318 C  
BRANCH   5   6
HETATM    6  C   UNL     1     -10.075  16.326  69.164  1.00  0.00    -0.264 C  
BRANCH   6   7
HETATM    7  C   UNL     1     -10.094  17.558  68.294  1.00  0.00    -0.346 A  
HETATM    8  C   UNL     1     -10.020  18.834  68.867  1.00  0.00    -0.423 A  
HETATM    9  C   UNL     1     -10.106  19.975  68.068  1.00  0.00    -0.557 A  
HETATM   10  C   UNL     1     -10.270  19.851  66.688  1.00  0.00    -0.609 A  
HETATM   11  C   UNL     1     -10.340  18.586  66.109  1.00  0.00    -0.457 A  
HETATM   12  C   UNL     1     -10.254  17.444  66.906  1.00  0.00    -0.322 A  
ENDBRANCH   6   7
ENDBRANCH   5   6
ENDBRANCH   4   5
TORSDOF 3
ENDMDL
MODEL       35
REMARK 921   NORMALIZED FREE ENERGY PREDICTED BY IDOCK:   -4.35 KCAL/MOL
REMARK 922        TOTAL FREE ENERGY PREDICTED BY IDOCK:   -5.44 KCAL/MOL
REMARK 923 INTER-LIGAND FREE ENERGY PREDICTED BY IDOCK:   -5.06 KCAL/MOL
REMARK 924 INTRA-LIGAND FREE ENERGY PREDICTED BY IDOCK:   -0.39 KCAL/MOL
REMARK 927      BINDING AFFINITY PREDICTED BY RF-SCORE:    0.00 PKD
ROOT
HETATM    1  O   UNL     1     -11.272   8.977  71.861  1.00  0.00    -0.354 OA 
HETATM    2  C   UNL     1     -12.066   9.940  71.337  1.00  0.00    -0.413 C  
HETATM    3  O   UNL     1     -13.214  10.110  71.713  1.00  0.00    -0.409 OA 
HETATM    4  C   UNL     1     -11.363  10.742  70.264  1.00  0.00    -0.374 C  
ENDROOT
BRANCH   4   5
HETATM    5  C   UNL     1     -12.278  11.818  69.682  1.00  0.00    -0.248 C  
BRANCH   5   6
HETATM    6  C   UNL     1     -11.620  13.199  69.697  1.00  0.00    -0.321 C  
BRANCH   6   7
HETATM    7  C   UNL     1     -12.127  14.018  70.859  1.00  0.00    -0.404 A  
HETATM    8  C   UNL     1     -11.387  15.108  71.336  1.00  0.00    -0.380 A  
HETATM    9  C   UNL     1     -11.823  15.823  72.453  1.00  0.00    -0.606 A  
HETATM   10  C   UNL     1     -12.999  15.455  73.104  1.00  0.00    -0.628 A  
HETATM   11  C   UNL     1     -13.744  14.375  72.634  1.00  0.00    -0.546 A  
HETATM   12  C   UNL     1     -13.311  13.659  71.517  1.00  0.00    -0.372 A  
ENDBRANCH   6   7
ENDBRANCH   5   6
ENDBRANCH   4   5
TORSDOF 3
ENDMDL
MODEL       36
REMARK 921   NORMALIZED FREE ENERGY PREDICTED BY IDOCK:   -4.34 KCAL/MOL
REMARK 922        TOTAL FREE ENERGY PREDICTED BY IDOCK:   -5.43 KCAL/MOL
REMARK 923 INTER-LIGAND FREE ENERGY PREDICTED BY IDOCK:   -5.15 KCAL/MOL
REMARK 924 INTRA-LIGAND FREE ENERGY PREDICTED BY IDOCK:   -0.27 KCAL/MOL
REMARK 927      BINDING AFFINITY PREDICTED BY RF-SCORE:    0.00 PKD
ROOT
HETATM    1  O   UNL     1     -11.076  11.563  63.252  1.00  0.00    -0.341 OA 
HETATM    2  C   UNL     1     -11.786  12.502  63.919  1.00  0.00    -0.463 C  
HETATM    3  O   UNL     1     -12.520  13.291  63.346  1.00  0.00    -0.741 OA 
HETATM    4  C   UNL     1     -11.556  12.443  65.413  1.00  0.00    -0.426 C  
ENDROOT
BRANCH   4   5
HETATM    5  C   UNL     1     -12.361  13.514  66.146  1.00  0.00    -0.463 C  
BRANCH   5   6
HETATM    6  C   UNL     1     -11.463  14.465  66.938  1.00  0.00    -0.379 C  
BRANCH   6   7
HETATM    7  C   UNL     1     -11.772  14.385  68.414  1.00  0.00    -0.367 A  
HETATM    8  C   UNL     1     -11.869  15.552  69.183  1.00  0.00    -0.373 A  
HETATM    9  C   UNL     1     -12.088  15.475  70.559  1.00  0.00    -0.423 A  
HETATM   10  C   UNL     1     -12.209  14.232  71.179  1.00  0.00    -0.431 A  
HETATM   11  C   UNL     1     -12.118  13.066  70.421  1.00  0.00    -0.391 A  
HETATM   12  C   UNL     1     -11.900  13.141  69.045  1.00  0.00    -0.358 A  
ENDBRANCH   6   7
ENDBRANCH   5   6
ENDBRANCH   4   5
TORSDOF 3
ENDMDL
MODEL       37
REMARK 921   NORMALIZED FREE ENERGY PREDICTED BY IDOCK:   -4.33 KCAL/MOL
REMARK 922        TOTAL FREE ENERGY PREDICTED BY IDOCK:   -5.42 KCAL/MOL
REMARK 923 INTER-LIGAND FREE ENERGY PREDICTED BY IDOCK:   -5.18 KCAL/MOL
REMARK 924 INTRA-LIGAND FREE ENERGY PREDICTED BY IDOCK:   -0.24 KCAL/MOL
REMARK 927      BINDING AFFINITY PREDICTED BY RF-SCORE:    0.00 PKD
ROOT
HETATM    1  O   UNL     1      -9.986   7.782  72.061  1.00  0.00    -0.167 OA 
HETATM    2  C   UNL     1     -10.410   8.904  71.434  1.00  0.00    -0.307 C  
HETATM    3  O   UNL     1      -9.695   9.532  70.672  1.00  0.00    -0.261 OA 
HETATM    4  C   UNL     1     -11.836   9.258  71.795  1.00  0.00    -0.454 C  
ENDROOT
BRANCH   4   5
HETATM    5  C   UNL     1     -12.293  10.530  71.082  1.00  0.00    -0.510 C  
BRANCH   5   6
HETATM    6  C   UNL     1     -13.276  11.340  71.929  1.00  0.00    -0.491 C  
BRANCH   6   7
HETATM    7  C   UNL     1     -13.217  12.803  71.562  1.00  0.00    -0.330 A  
HETATM    8  C   UNL     1     -12.299  13.258  70.606  1.00  0.00    -0.416 A  
HETATM    9  C   UNL     1     -12.198  14.619  70.316  1.00  0.00    -0.389 A  
HETATM   10  C   UNL     1     -13.010  15.538  70.980  1.00  0.00    -0.550 A  
HETATM   11  C   UNL     1     -13.928  15.094  71.930  1.00  0.00    -0.629 A  
HETATM   12  C   UNL     1     -14.032  13.733  72.221  1.00  0.00    -0.672 A  
ENDBRANCH   6   7
ENDBRANCH   5   6
ENDBRANCH   4   5
TORSDOF 3
ENDMDL
MODEL       38
REMARK 921   NORMALIZED FREE ENERGY PREDICTED BY IDOCK:   -4.33 KCAL/MOL
REMARK 922        TOTAL FREE ENERGY PREDICTED BY IDOCK:   -5.42 KCAL/MOL
REMARK 923 INTER-LIGAND FREE ENERGY PREDICTED BY IDOCK:   -5.06 KCAL/MOL
REMARK 924 INTRA-LIGAND FREE ENERGY PREDICTED BY IDOCK:   -0.36 KCAL/MOL
REMARK 927      BINDING AFFINITY PREDICTED BY RF-SCORE:    0.00 PKD
ROOT
HETATM    1  O   UNL     1     -10.394  17.373  65.696  1.00  0.00    -0.589 OA 
HETATM    2  C   UNL     1     -10.926  16.471  64.839  1.00  0.00    -0.209 C  
HETATM    3  O   UNL     1     -11.643  16.802  63.910  1.00  0.00    -1.122 OA 
HETATM    4  C   UNL     1     -10.526  15.052  65.180  1.00  0.00    -0.438 C  
ENDROOT
BRANCH   4   5
HETATM    5  C   UNL     1     -11.142  14.049  64.206  1.00  0.00    -0.198 C  
BRANCH   5   6
HETATM    6  C   UNL     1     -12.122  13.102  64.901  1.00  0.00    -0.448 C  
BRANCH   6   7
HETATM    7  C   UNL     1     -11.390  11.934  65.515  1.00  0.00    -0.334 A  
HETATM    8  C   UNL     1     -11.394  11.743  66.903  1.00  0.00    -0.386 A  
HETATM    9  C   UNL     1     -10.661  10.702  67.475  1.00  0.00    -0.321 A  
HETATM   10  C   UNL     1      -9.917   9.844  66.666  1.00  0.00    -0.277 A  
HETATM   11  C   UNL     1      -9.911  10.024  65.285  1.00  0.00    -0.388 A  
HETATM   12  C   UNL     1     -10.643  11.064  64.710  1.00  0.00    -0.350 A  
ENDBRANCH   6   7
ENDBRANCH   5   6
ENDBRANCH   4   5
TORSDOF 3
ENDMDL
MODEL       39
REMARK 921   NORMALIZED FREE ENERGY PREDICTED BY IDOCK:   -4.31 KCAL/MOL
REMARK 922        TOTAL FREE ENERGY PREDICTED BY IDOCK:   -5.39 KCAL/MOL
REMARK 923 INTER-LIGAND FREE ENERGY PREDICTED BY IDOCK:   -5.11 KCAL/MOL
REMARK 924 INTRA-LIGAND FREE ENERGY PREDICTED BY IDOCK:   -0.28 KCAL/MOL
REMARK 927      BINDING AFFINITY PREDICTED BY RF-SCORE:    0.00 PKD
ROOT
HETATM    1  O   UNL     1     -12.941  13.306  64.827  1.00  0.00    -0.710 OA 
HETATM    2  C   UNL     1     -11.823  13.962  65.217  1.00  0.00    -0.357 C  
HETATM    3  O   UNL     1     -10.878  14.138  64.466  1.00  0.00    -0.394 OA 
HETATM    4  C   UNL     1     -11.903  14.428  66.654  1.00  0.00    -0.417 C  
ENDROOT
BRANCH   4   5
HETATM    5  C   UNL     1     -10.631  15.160  67.076  1.00  0.00    -0.300 C  
BRANCH   5   6
HETATM    6  C   UNL     1     -10.888  16.146  68.217  1.00  0.00    -0.326 C  
BRANCH   6   7
HETATM    7  C   UNL     1     -10.592  17.559  67.778  1.00  0.00    -0.375 A  
HETATM    8  C   UNL     1     -10.641  17.907  66.422  1.00  0.00    -0.238 A  
HETATM    9  C   UNL     1     -10.302  19.196  66.010  1.00  0.00    -0.538 A  
HETATM   10  C   UNL     1      -9.907  20.148  66.949  1.00  0.00    -0.593 A  
HETATM   11  C   UNL     1      -9.859  19.813  68.300  1.00  0.00    -0.537 A  
HETATM   12  C   UNL     1     -10.199  18.524  68.714  1.00  0.00    -0.326 A  
ENDBRANCH   6   7
ENDBRANCH   5   6
ENDBRANCH   4   5
TORSDOF 3
ENDMDL
MODEL       40
REMARK 921   NORMALIZED FREE ENERGY PREDICTED BY IDOCK:   -4.31 KCAL/MOL
REMARK 922        TOTAL FREE ENERGY PREDICTED BY IDOCK:   -5.39 KCAL/MOL
REMARK 923 INTER-LIGAND FREE ENERGY PREDICTED BY IDOCK:   -5.12 KCAL/MOL
REMARK 924 INTRA-LIGAND FREE ENERGY PREDICTED BY IDOCK:   -0.27 KCAL/MOL
REMARK 927      BINDING AFFINITY PREDICTED BY RF-SCORE:    0.00 PKD
ROOT
HETATM    1  O   UNL     1     -13.887  13.713  72.660  1.00  0.00    -0.715 OA 
HETATM    2  C   UNL     1     -13.340  14.336  71.591  1.00  0.00    -0.365 C  
HETATM    3  O   UNL     1     -13.602  15.494  71.309  1.00  0.00    -0.505 OA 
HETATM    4  C   UNL     1     -12.396  13.436  70.824  1.00  0.00    -0.433 C  
ENDROOT
BRANCH   4   5
HETATM    5  C   UNL     1     -11.793  14.156  69.619  1.00  0.00    -0.379 C  
BRANCH   5   6
HETATM    6  C   UNL     1     -10.882  13.240  68.800  1.00  0.00    -0.273 C  
BRANCH   6   7
HETATM    7  C   UNL     1     -11.384  13.119  67.382  1.00  0.00    -0.344 A  
HETATM    8  C   UNL     1     -12.225  14.099  66.840  1.00  0.00    -0.400 A  
HETATM    9  C   UNL     1     -12.742  13.953  65.552  1.00  0.00    -0.536 A  
HETATM   10  C   UNL     1     -12.426  12.825  64.795  1.00  0.00    -0.539 A  
HETATM   11  C   UNL     1     -11.586  11.847  65.324  1.00  0.00    -0.278 A  
HETATM   12  C   UNL     1     -11.067  11.992  66.612  1.00  0.00    -0.358 A  
ENDBRANCH   6   7
ENDBRANCH   5   6
ENDBRANCH   4   5
TORSDOF 3
ENDMDL
MODEL       41
REMARK 921   NORMALIZED FREE ENERGY PREDICTED BY IDOCK:   -4.27 KCAL/MOL
REMARK 922        TOTAL FREE ENERGY PREDICTED BY IDOCK:   -5.35 KCAL/MOL
REMARK 923 INTER-LIGAND FREE ENERGY PREDICTED BY IDOCK:   -4.90 KCAL/MOL
REMARK 924 INTRA-LIGAND FREE ENERGY PREDICTED BY IDOCK:   -0.45 KCAL/MOL
REMARK 927      BINDING AFFINITY PREDICTED BY RF-SCORE:    0.00 PKD
ROOT
HETATM    1  O   UNL     1      -8.744  17.245  65.812  1.00  0.00    -0.531 OA 
HETATM    2  C   UNL     1      -9.943  16.620  65.856  1.00  0.00    -0.295 C  
HETATM    3  O   UNL     1     -10.694  16.586  64.894  1.00  0.00    -0.702 OA 
HETATM    4  C   UNL     1     -10.216  15.994  67.206  1.00  0.00    -0.277 C  
ENDROOT
BRANCH   4   5
HETATM    5  C   UNL     1     -11.576  15.299  67.235  1.00  0.00    -0.164 C  
BRANCH   5   6
HETATM    6  C   UNL     1     -11.442  13.785  67.411  1.00  0.00    -0.372 C  
BRANCH   6   7
HETATM    7  C   UNL     1     -11.408  13.094  66.069  1.00  0.00    -0.337 A  
HETATM    8  C   UNL     1     -10.396  12.173  65.770  1.00  0.00    -0.289 A  
HETATM    9  C   UNL     1     -10.326  11.585  64.506  1.00  0.00    -0.354 A  
HETATM   10  C   UNL     1     -11.264  11.915  63.529  1.00  0.00    -0.501 A  
HETATM   11  C   UNL     1     -12.277  12.826  63.819  1.00  0.00    -0.572 A  
HETATM   12  C   UNL     1     -12.350  13.415  65.082  1.00  0.00    -0.501 A  
ENDBRANCH   6   7
ENDBRANCH   5   6
ENDBRANCH   4   5
TORSDOF 3
ENDMDL
MODEL       42
REMARK 921   NORMALIZED FREE ENERGY PREDICTED BY IDOCK:   -4.26 KCAL/MOL
REMARK 922        TOTAL FREE ENERGY PREDICTED BY IDOCK:   -5.33 KCAL/MOL
REMARK 923 INTER-LIGAND FREE ENERGY PREDICTED BY IDOCK:   -5.03 KCAL/MOL
REMARK 924 INTRA-LIGAND FREE ENERGY PREDICTED BY IDOCK:   -0.30 KCAL/MOL
REMARK 927      BINDING AFFINITY PREDICTED BY RF-SCORE:    0.00 PKD
ROOT
HETATM    1  O   UNL     1     -12.665  14.421  63.644  1.00  0.00    -0.773 OA 
HETATM    2  C   UNL     1     -11.805  15.280  64.237  1.00  0.00    -0.225 C  
HETATM    3  O   UNL     1     -11.759  16.463  63.940  1.00  0.00    -1.085 OA 
HETATM    4  C   UNL     1     -10.943  14.601  65.279  1.00  0.00    -0.374 C  
ENDROOT
BRANCH   4   5
HETATM    5  C   UNL     1      -9.976  15.587  65.932  1.00  0.00    -0.377 C  
BRANCH   5   6
HETATM    6  C   UNL     1      -9.393  15.038  67.236  1.00  0.00    -0.209 C  
BRANCH   6   7
HETATM    7  C   UNL     1     -10.487  14.787  68.245  1.00  0.00    -0.241 A  
HETATM    8  C   UNL     1     -11.156  15.859  68.850  1.00  0.00    -0.316 A  
HETATM    9  C   UNL     1     -12.120  15.628  69.831  1.00  0.00    -0.360 A  
HETATM   10  C   UNL     1     -12.424  14.324  70.219  1.00  0.00    -0.422 A  
HETATM   11  C   UNL     1     -11.767  13.251  69.620  1.00  0.00    -0.369 A  
HETATM   12  C   UNL     1     -10.803  13.480  68.638  1.00  0.00    -0.281 A  
ENDBRANCH   6   7
ENDBRANCH   5   6
ENDBRANCH   4   5
TORSDOF 3
ENDMDL
MODEL       43
REMARK 921   NORMALIZED FREE ENERGY PREDICTED BY IDOCK:   -4.23 KCAL/MOL
REMARK 922        TOTAL FREE ENERGY PREDICTED BY IDOCK:   -5.30 KCAL/MOL
REMARK 923 INTER-LIGAND FREE ENERGY PREDICTED BY IDOCK:   -4.97 KCAL/MOL
REMARK 924 INTRA-LIGAND FREE ENERGY PREDICTED BY IDOCK:   -0.33 KCAL/MOL
REMARK 927      BINDING AFFINITY PREDICTED BY RF-SCORE:    0.00 PKD
ROOT
HETATM    1  O   UNL     1     -12.804  15.328  73.177  1.00  0.00    -0.406 OA 
HETATM    2  C   UNL     1     -13.218  14.282  72.424  1.00  0.00    -0.458 C  
HETATM    3  O   UNL     1     -14.261  13.692  72.649  1.00  0.00    -0.735 OA 
HETATM    4  C   UNL     1     -12.247  13.958  71.310  1.00  0.00    -0.353 C  
ENDROOT
BRANCH   4   5
HETATM    5  C   UNL     1     -12.729  12.772  70.477  1.00  0.00    -0.077 C  
BRANCH   5   6
HETATM    6  C   UNL     1     -11.586  11.820  70.119  1.00  0.00    -0.281 C  
BRANCH   6   7
HETATM    7  C   UNL     1     -11.755  10.496  70.823  1.00  0.00    -0.454 A  
HETATM    8  C   UNL     1     -12.947  10.195  71.494  1.00  0.00    -0.547 A  
HETATM    9  C   UNL     1     -13.078   8.999  72.201  1.00  0.00    -0.496 A  
HETATM   10  C   UNL     1     -12.018   8.095  72.246  1.00  0.00    -0.434 A  
HETATM   11  C   UNL     1     -10.830   8.383  71.578  1.00  0.00    -0.323 A  
HETATM   12  C   UNL     1     -10.697   9.579  70.870  1.00  0.00    -0.403 A  
ENDBRANCH   6   7
ENDBRANCH   5   6
ENDBRANCH   4   5
TORSDOF 3
ENDMDL
MODEL       44
REMARK 921   NORMALIZED FREE ENERGY PREDICTED BY IDOCK:   -4.18 KCAL/MOL
REMARK 922        TOTAL FREE ENERGY PREDICTED BY IDOCK:   -5.24 KCAL/MOL
REMARK 923 INTER-LIGAND FREE ENERGY PREDICTED BY IDOCK:   -4.88 KCAL/MOL
REMARK 924 INTRA-LIGAND FREE ENERGY PREDICTED BY IDOCK:   -0.36 KCAL/MOL
REMARK 927      BINDING AFFINITY PREDICTED BY RF-SCORE:    0.00 PKD
ROOT
HETATM    1  O   UNL     1     -12.406  15.532  63.897  1.00  0.00    -0.653 OA 
HETATM    2  C   UNL     1     -12.303  14.450  64.704  1.00  0.00    -0.418 C  
HETATM    3  O   UNL     1     -13.268  13.974  65.279  1.00  0.00    -0.782 OA 
HETATM    4  C   UNL     1     -10.884  13.933  64.792  1.00  0.00    -0.430 C  
ENDROOT
BRANCH   4   5
HETATM    5  C   UNL     1     -10.789  12.717  65.712  1.00  0.00    -0.304 C  
BRANCH   5   6
HETATM    6  C   UNL     1      -9.910  12.990  66.934  1.00  0.00    -0.240 C  
BRANCH   6   7
HETATM    7  C   UNL     1     -10.730  12.948  68.200  1.00  0.00    -0.258 A  
HETATM    8  C   UNL     1     -10.995  11.727  68.834  1.00  0.00    -0.288 A  
HETATM    9  C   UNL     1     -11.809  11.681  69.967  1.00  0.00    -0.435 A  
HETATM   10  C   UNL     1     -12.368  12.853  70.474  1.00  0.00    -0.362 A  
HETATM   11  C   UNL     1     -12.107  14.073  69.853  1.00  0.00    -0.406 A  
HETATM   12  C   UNL     1     -11.292  14.121  68.720  1.00  0.00    -0.308 A  
ENDBRANCH   6   7
ENDBRANCH   5   6
ENDBRANCH   4   5
TORSDOF 3
ENDMDL
MODEL       45
REMARK 921   NORMALIZED FREE ENERGY PREDICTED BY IDOCK:   -4.11 KCAL/MOL
REMARK 922        TOTAL FREE ENERGY PREDICTED BY IDOCK:   -5.16 KCAL/MOL
REMARK 923 INTER-LIGAND FREE ENERGY PREDICTED BY IDOCK:   -4.88 KCAL/MOL
REMARK 924 INTRA-LIGAND FREE ENERGY PREDICTED BY IDOCK:   -0.28 KCAL/MOL
REMARK 927      BINDING AFFINITY PREDICTED BY RF-SCORE:    0.00 PKD
ROOT
HETATM    1  O   UNL     1      -9.736  17.645  65.919  1.00  0.00    -0.521 OA 
HETATM    2  C   UNL     1      -9.623  17.121  67.162  1.00  0.00    -0.255 C  
HETATM    3  O   UNL     1      -8.767  17.491  67.948  1.00  0.00    -0.236 OA 
HETATM    4  C   UNL     1     -10.662  16.055  67.431  1.00  0.00    -0.306 C  
ENDROOT
BRANCH   4   5
HETATM    5  C   UNL     1     -10.514  15.473  68.836  1.00  0.00    -0.223 C  
BRANCH   5   6
HETATM    6  C   UNL     1     -11.411  16.187  69.849  1.00  0.00    -0.318 C  
BRANCH   6   7
HETATM    7  C   UNL     1     -12.199  15.187  70.660  1.00  0.00    -0.401 A  
HETATM    8  C   UNL     1     -13.049  15.618  71.687  1.00  0.00    -0.554 A  
HETATM    9  C   UNL     1     -13.726  14.691  72.481  1.00  0.00    -0.572 A  
HETATM   10  C   UNL     1     -13.556  13.325  72.258  1.00  0.00    -0.703 A  
HETATM   11  C   UNL     1     -12.716  12.887  71.237  1.00  0.00    -0.371 A  
HETATM   12  C   UNL     1     -12.039  13.813  70.441  1.00  0.00    -0.421 A  
ENDBRANCH   6   7
ENDBRANCH   5   6
ENDBRANCH   4   5
TORSDOF 3
ENDMDL
MODEL       46
REMARK 921   NORMALIZED FREE ENERGY PREDICTED BY IDOCK:   -4.11 KCAL/MOL
REMARK 922        TOTAL FREE ENERGY PREDICTED BY IDOCK:   -5.15 KCAL/MOL
REMARK 923 INTER-LIGAND FREE ENERGY PREDICTED BY IDOCK:   -4.89 KCAL/MOL
REMARK 924 INTRA-LIGAND FREE ENERGY PREDICTED BY IDOCK:   -0.26 KCAL/MOL
REMARK 927      BINDING AFFINITY PREDICTED BY RF-SCORE:    0.00 PKD
ROOT
HETATM    1  O   UNL     1     -11.500  14.472  66.235  1.00  0.00    -0.347 OA 
HETATM    2  C   UNL     1     -11.787  13.206  66.619  1.00  0.00    -0.391 C  
HETATM    3  O   UNL     1     -12.252  12.383  65.848  1.00  0.00    -0.629 OA 
HETATM    4  C   UNL     1     -11.464  12.962  68.077  1.00  0.00    -0.361 C  
ENDROOT
BRANCH   4   5
HETATM    5  C   UNL     1     -11.801  11.531  68.491  1.00  0.00    -0.365 C  
BRANCH   5   6
HETATM    6  C   UNL     1     -10.840  11.002  69.558  1.00  0.00    -0.267 C  
BRANCH   6   7
HETATM    7  C   UNL     1     -11.593  10.248  70.627  1.00  0.00    -0.435 A  
HETATM    8  C   UNL     1     -11.059   9.077  71.179  1.00  0.00    -0.371 A  
HETATM    9  C   UNL     1     -11.785   8.344  72.119  1.00  0.00    -0.442 A  
HETATM   10  C   UNL     1     -13.052   8.773  72.512  1.00  0.00    -0.392 A  
HETATM   11  C   UNL     1     -13.589   9.939  71.971  1.00  0.00    -0.399 A  
HETATM   12  C   UNL     1     -12.864  10.674  71.032  1.00  0.00    -0.496 A  
ENDBRANCH   6   7
ENDBRANCH   5   6
ENDBRANCH   4   5
TORSDOF 3
ENDMDL
MODEL       47
REMARK 921   NORMALIZED FREE ENERGY PREDICTED BY IDOCK:   -4.10 KCAL/MOL
REMARK 922        TOTAL FREE ENERGY PREDICTED BY IDOCK:   -5.15 KCAL/MOL
REMARK 923 INTER-LIGAND FREE ENERGY PREDICTED BY IDOCK:   -4.93 KCAL/MOL
REMARK 924 INTRA-LIGAND FREE ENERGY PREDICTED BY IDOCK:   -0.22 KCAL/MOL
REMARK 927      BINDING AFFINITY PREDICTED BY RF-SCORE:    0.00 PKD
ROOT
HETATM    1  O   UNL     1     -11.852  15.936  71.153  1.00  0.00    -0.377 OA 
HETATM    2  C   UNL     1     -11.538  15.660  69.866  1.00  0.00    -0.347 C  
HETATM    3  O   UNL     1     -10.883  16.425  69.178  1.00  0.00    -0.289 OA 
HETATM    4  C   UNL     1     -12.090  14.326  69.414  1.00  0.00    -0.361 C  
ENDROOT
BRANCH   4   5
HETATM    5  C   UNL     1     -11.730  14.036  67.958  1.00  0.00    -0.394 C  
BRANCH   5   6
HETATM    6  C   UNL     1     -11.705  12.535  67.662  1.00  0.00    -0.423 C  
BRANCH   6   7
HETATM    7  C   UNL     1     -11.499  12.286  66.188  1.00  0.00    -0.429 A  
HETATM    8  C   UNL     1     -12.405  12.796  65.248  1.00  0.00    -0.546 A  
HETATM    9  C   UNL     1     -12.253  12.509  63.891  1.00  0.00    -0.590 A  
HETATM   10  C   UNL     1     -11.195  11.708  63.461  1.00  0.00    -0.462 A  
HETATM   11  C   UNL     1     -10.287  11.201  64.387  1.00  0.00    -0.407 A  
HETATM   12  C   UNL     1     -10.437  11.487  65.745  1.00  0.00    -0.308 A  
ENDBRANCH   6   7
ENDBRANCH   5   6
ENDBRANCH   4   5
TORSDOF 3
ENDMDL
MODEL       48
REMARK 921   NORMALIZED FREE ENERGY PREDICTED BY IDOCK:   -4.10 KCAL/MOL
REMARK 922        TOTAL FREE ENERGY PREDICTED BY IDOCK:   -5.15 KCAL/MOL
REMARK 923 INTER-LIGAND FREE ENERGY PREDICTED BY IDOCK:   -4.92 KCAL/MOL
REMARK 924 INTRA-LIGAND FREE ENERGY PREDICTED BY IDOCK:   -0.22 KCAL/MOL
REMARK 927      BINDING AFFINITY PREDICTED BY RF-SCORE:    0.00 PKD
ROOT
HETATM    1  O   UNL     1     -10.442  17.755  65.538  1.00  0.00    -0.646 OA 
HETATM    2  C   UNL     1     -10.613  16.966  66.625  1.00  0.00    -0.189 C  
HETATM    3  O   UNL     1     -10.615  17.414  67.759  1.00  0.00    -0.365 OA 
HETATM    4  C   UNL     1     -10.794  15.511  66.254  1.00  0.00    -0.283 C  
ENDROOT
BRANCH   4   5
HETATM    5  C   UNL     1     -10.979  14.638  67.494  1.00  0.00    -0.301 C  
BRANCH   5   6
HETATM    6  C   UNL     1     -11.941  13.476  67.238  1.00  0.00    -0.408 C  
BRANCH   6   7
HETATM    7  C   UNL     1     -11.594  12.769  65.951  1.00  0.00    -0.428 A  
HETATM    8  C   UNL     1     -12.472  12.808  64.860  1.00  0.00    -0.563 A  
HETATM    9  C   UNL     1     -12.182  12.099  63.694  1.00  0.00    -0.663 A  
HETATM   10  C   UNL     1     -11.013  11.343  63.608  1.00  0.00    -0.443 A  
HETATM   11  C   UNL     1     -10.132  11.302  64.686  1.00  0.00    -0.343 A  
HETATM   12  C   UNL     1     -10.420  12.011  65.853  1.00  0.00    -0.290 A  
ENDBRANCH   6   7
ENDBRANCH   5   6
ENDBRANCH   4   5
TORSDOF 3
ENDMDL
MODEL       49
REMARK 921   NORMALIZED FREE ENERGY PREDICTED BY IDOCK:   -4.10 KCAL/MOL
REMARK 922        TOTAL FREE ENERGY PREDICTED BY IDOCK:   -5.14 KCAL/MOL
REMARK 923 INTER-LIGAND FREE ENERGY PREDICTED BY IDOCK:   -4.88 KCAL/MOL
REMARK 924 INTRA-LIGAND FREE ENERGY PREDICTED BY IDOCK:   -0.27 KCAL/MOL
REMARK 927      BINDING AFFINITY PREDICTED BY RF-SCORE:    0.00 PKD
ROOT
HETATM    1  O   UNL     1     -14.142  14.277  72.736  1.00  0.00    -0.575 OA 
HETATM    2  C   UNL     1     -13.291  13.970  71.729  1.00  0.00    -0.386 C  
HETATM    3  O   UNL     1     -12.833  14.820  70.984  1.00  0.00    -0.314 OA 
HETATM    4  C   UNL     1     -12.999  12.488  71.657  1.00  0.00    -0.405 C  
ENDROOT
BRANCH   4   5
HETATM    5  C   UNL     1     -12.042  12.162  70.512  1.00  0.00    -0.383 C  
BRANCH   5   6
HETATM    6  C   UNL     1     -12.202  10.721  70.024  1.00  0.00    -0.409 C  
BRANCH   6   7
HETATM    7  C   UNL     1     -11.520   9.760  70.967  1.00  0.00    -0.458 A  
HETATM    8  C   UNL     1     -10.134   9.569  70.906  1.00  0.00    -0.330 A  
HETATM    9  C   UNL     1      -9.513   8.631  71.732  1.00  0.00    -0.354 A  
HETATM   10  C   UNL     1     -10.271   7.875  72.624  1.00  0.00    -0.361 A  
HETATM   11  C   UNL     1     -11.650   8.061  72.695  1.00  0.00    -0.448 A  
HETATM   12  C   UNL     1     -12.273   8.999  71.870  1.00  0.00    -0.451 A  
ENDBRANCH   6   7
ENDBRANCH   5   6
ENDBRANCH   4   5
TORSDOF 3
ENDMDL
MODEL       50
REMARK 921   NORMALIZED FREE ENERGY PREDICTED BY IDOCK:   -4.08 KCAL/MOL
REMARK 922        TOTAL FREE ENERGY PREDICTED BY IDOCK:   -5.12 KCAL/MOL
REMARK 923 INTER-LIGAND FREE ENERGY PREDICTED BY IDOCK:   -4.88 KCAL/MOL
REMARK 924 INTRA-LIGAND FREE ENERGY PREDICTED BY IDOCK:   -0.24 KCAL/MOL
REMARK 927      BINDING AFFINITY PREDICTED BY RF-SCORE:    0.00 PKD
ROOT
HETATM    1  O   UNL     1     -10.444   9.180  67.897  1.00  0.00    -0.227 OA 
HETATM    2  C   UNL     1     -10.538  10.023  68.952  1.00  0.00    -0.218 C  
HETATM    3  O   UNL     1      -9.685  10.072  69.823  1.00  0.00    -0.225 OA 
HETATM    4  C   UNL     1     -11.795  10.863  68.904  1.00  0.00    -0.340 C  
ENDROOT
BRANCH   4   5
HETATM    5  C   UNL     1     -11.885  11.803  70.105  1.00  0.00    -0.408 C  
BRANCH   5   6
HETATM    6  C   UNL     1     -11.932  13.272  69.681  1.00  0.00    -0.376 C  
BRANCH   6   7
HETATM    7  C   UNL     1     -12.252  14.158  70.861  1.00  0.00    -0.434 A  
HETATM    8  C   UNL     1     -13.314  13.842  71.718  1.00  0.00    -0.463 A  
HETATM    9  C   UNL     1     -13.652  14.696  72.769  1.00  0.00    -0.538 A  
HETATM   10  C   UNL     1     -12.935  15.874  72.970  1.00  0.00    -0.630 A  
HETATM   11  C   UNL     1     -11.875  16.195  72.125  1.00  0.00    -0.626 A  
HETATM   12  C   UNL     1     -11.534  15.341  71.074  1.00  0.00    -0.396 A  
ENDBRANCH   6   7
ENDBRANCH   5   6
ENDBRANCH   4   5
TORSDOF 3
ENDMDL
MODEL       51
REMARK 921   NORMALIZED FREE ENERGY PREDICTED BY IDOCK:   -4.05 KCAL/MOL
REMARK 922        TOTAL FREE ENERGY PREDICTED BY IDOCK:   -5.08 KCAL/MOL
REMARK 923 INTER-LIGAND FREE ENERGY PREDICTED BY IDOCK:   -4.85 KCAL/MOL
REMARK 924 INTRA-LIGAND FREE ENERGY PREDICTED BY IDOCK:   -0.24 KCAL/MOL
REMARK 927      BINDING AFFINITY PREDICTED BY RF-SCORE:    0.00 PKD
ROOT
HETATM    1  O   UNL     1     -10.411  10.343  66.323  1.00  0.00    -0.222 OA 
HETATM    2  C   UNL     1     -10.948  11.450  66.886  1.00  0.00    -0.299 C  
HETATM    3  O   UNL     1     -11.236  12.438  66.231  1.00  0.00    -0.286 OA 
HETATM    4  C   UNL     1     -11.135  11.302  68.380  1.00  0.00    -0.296 C  
ENDROOT
BRANCH   4   5
HETATM    5  C   UNL     1     -11.736  12.564  68.997  1.00  0.00    -0.368 C  
BRANCH   5   6
HETATM    6  C   UNL     1     -12.272  12.313  70.407  1.00  0.00    -0.371 C  
BRANCH   6   7
HETATM    7  C   UNL     1     -12.434  13.614  71.155  1.00  0.00    -0.442 A  
HETATM    8  C   UNL     1     -11.722  14.754  70.759  1.00  0.00    -0.355 A  
HETATM    9  C   UNL     1     -11.821  15.938  71.491  1.00  0.00    -0.536 A  
HETATM   10  C   UNL     1     -12.630  15.994  72.625  1.00  0.00    -0.551 A  
HETATM   11  C   UNL     1     -13.346  14.866  73.024  1.00  0.00    -0.556 A  
HETATM   12  C   UNL     1     -13.249  13.681  72.293  1.00  0.00    -0.565 A  
ENDBRANCH   6   7
ENDBRANCH   5   6
ENDBRANCH   4   5
TORSDOF 3
ENDMDL
MODEL       52
REMARK 921   NORMALIZED FREE ENERGY PREDICTED BY IDOCK:   -4.02 KCAL/MOL
REMARK 922        TOTAL FREE ENERGY PREDICTED BY IDOCK:   -5.05 KCAL/MOL
REMARK 923 INTER-LIGAND FREE ENERGY PREDICTED BY IDOCK:   -4.76 KCAL/MOL
REMARK 924 INTRA-LIGAND FREE ENERGY PREDICTED BY IDOCK:   -0.29 KCAL/MOL
REMARK 927      BINDING AFFINITY PREDICTED BY RF-SCORE:    0.00 PKD
ROOT
HETATM    1  O   UNL     1     -10.298  19.948  68.927  1.00  0.00    -0.414 OA 
HETATM    2  C   UNL     1     -10.173  19.467  67.668  1.00  0.00    -0.434 C  
HETATM    3  O   UNL     1      -9.907  20.188  66.721  1.00  0.00    -0.405 OA 
HETATM    4  C   UNL     1     -10.400  17.973  67.600  1.00  0.00    -0.397 C  
ENDROOT
BRANCH   4   5
HETATM    5  C   UNL     1     -10.260  17.452  66.171  1.00  0.00    -0.334 C  
BRANCH   5   6
HETATM    6  C   UNL     1      -9.508  16.120  66.118  1.00  0.00    -0.362 C  
BRANCH   6   7
HETATM    7  C   UNL     1     -10.450  14.989  65.784  1.00  0.00    -0.353 A  
HETATM    8  C   UNL     1     -11.177  15.000  64.586  1.00  0.00    -0.342 A  
HETATM    9  C   UNL     1     -12.097  13.989  64.309  1.00  0.00    -0.476 A  
HETATM   10  C   UNL     1     -12.302  12.959  65.227  1.00  0.00    -0.544 A  
HETATM   11  C   UNL     1     -11.581  12.938  66.418  1.00  0.00    -0.425 A  
HETATM   12  C   UNL     1     -10.659  13.948  66.697  1.00  0.00    -0.274 A  
ENDBRANCH   6   7
ENDBRANCH   5   6
ENDBRANCH   4   5
TORSDOF 3
ENDMDL
MODEL       53
REMARK 921   NORMALIZED FREE ENERGY PREDICTED BY IDOCK:   -4.00 KCAL/MOL
REMARK 922        TOTAL FREE ENERGY PREDICTED BY IDOCK:   -5.03 KCAL/MOL
REMARK 923 INTER-LIGAND FREE ENERGY PREDICTED BY IDOCK:   -4.78 KCAL/MOL
REMARK 924 INTRA-LIGAND FREE ENERGY PREDICTED BY IDOCK:   -0.24 KCAL/MOL
REMARK 927      BINDING AFFINITY PREDICTED BY RF-SCORE:    0.00 PKD
ROOT
HETATM    1  O   UNL     1     -11.352   9.439  71.708  1.00  0.00    -0.379 OA 
HETATM    2  C   UNL     1     -11.861  10.204  70.715  1.00  0.00    -0.351 C  
HETATM    3  O   UNL     1     -13.027  10.562  70.702  1.00  0.00    -0.366 OA 
HETATM    4  C   UNL     1     -10.827  10.541  69.663  1.00  0.00    -0.320 C  
ENDROOT
BRANCH   4   5
HETATM    5  C   UNL     1     -11.423  11.399  68.548  1.00  0.00    -0.361 C  
BRANCH   5   6
HETATM    6  C   UNL     1     -11.074  10.859  67.160  1.00  0.00    -0.308 C  
BRANCH   6   7
HETATM    7  C   UNL     1     -11.404  11.875  66.094  1.00  0.00    -0.383 A  
HETATM    8  C   UNL     1     -12.028  13.082  66.433  1.00  0.00    -0.466 A  
HETATM    9  C   UNL     1     -12.394  13.991  65.439  1.00  0.00    -0.495 A  
HETATM   10  C   UNL     1     -12.142  13.701  64.099  1.00  0.00    -0.484 A  
HETATM   11  C   UNL     1     -11.517  12.505  63.753  1.00  0.00    -0.542 A  
HETATM   12  C   UNL     1     -11.150  11.595  64.745  1.00  0.00    -0.328 A  
ENDBRANCH   6   7
ENDBRANCH   5   6
ENDBRANCH   4   5
TORSDOF 3
ENDMDL
MODEL       54
REMARK 921   NORMALIZED FREE ENERGY PREDICTED BY IDOCK:   -4.00 KCAL/MOL
REMARK 922        TOTAL FREE ENERGY PREDICTED BY IDOCK:   -5.02 KCAL/MOL
REMARK 923 INTER-LIGAND FREE ENERGY PREDICTED BY IDOCK:   -4.76 KCAL/MOL
REMARK 924 INTRA-LIGAND FREE ENERGY PREDICTED BY IDOCK:   -0.26 KCAL/MOL
REMARK 927      BINDING AFFINITY PREDICTED BY RF-SCORE:    0.00 PKD
ROOT
HETATM    1  O   UNL     1     -11.566   7.987  72.754  1.00  0.00    -0.405 OA 
HETATM    2  C   UNL     1     -12.351   8.771  71.979  1.00  0.00    -0.377 C  
HETATM    3  O   UNL     1     -13.560   8.622  71.918  1.00  0.00    -0.366 OA 
HETATM    4  C   UNL     1     -11.555   9.815  71.228  1.00  0.00    -0.465 C  
ENDROOT
BRANCH   4   5
HETATM    5  C   UNL     1     -12.458  10.685  70.355  1.00  0.00    -0.421 C  
BRANCH   5   6
HETATM    6  C   UNL     1     -11.995  12.143  70.327  1.00  0.00    -0.389 C  
BRANCH   6   7
HETATM    7  C   UNL     1     -11.897  12.643  68.906  1.00  0.00    -0.345 A  
HETATM    8  C   UNL     1     -11.641  11.753  67.855  1.00  0.00    -0.377 A  
HETATM    9  C   UNL     1     -11.483  12.224  66.552  1.00  0.00    -0.438 A  
HETATM   10  C   UNL     1     -11.577  13.590  66.286  1.00  0.00    -0.374 A  
HETATM   11  C   UNL     1     -11.837  14.483  67.324  1.00  0.00    -0.419 A  
HETATM   12  C   UNL     1     -11.995  14.013  68.629  1.00  0.00    -0.389 A  
ENDBRANCH   6   7
ENDBRANCH   5   6
ENDBRANCH   4   5
TORSDOF 3
ENDMDL
MODEL       55
REMARK 921   NORMALIZED FREE ENERGY PREDICTED BY IDOCK:   -3.97 KCAL/MOL
REMARK 922        TOTAL FREE ENERGY PREDICTED BY IDOCK:   -4.99 KCAL/MOL
REMARK 923 INTER-LIGAND FREE ENERGY PREDICTED BY IDOCK:   -4.77 KCAL/MOL
REMARK 924 INTRA-LIGAND FREE ENERGY PREDICTED BY IDOCK:   -0.22 KCAL/MOL
REMARK 927      BINDING AFFINITY PREDICTED BY RF-SCORE:    0.00 PKD
ROOT
HETATM    1  O   UNL     1     -13.020  11.969  63.352  1.00  0.00    -0.772 OA 
HETATM    2  C   UNL     1     -11.862  12.536  63.766  1.00  0.00    -0.496 C  
HETATM    3  O   UNL     1     -10.774  12.039  63.526  1.00  0.00    -0.397 OA 
HETATM    4  C   UNL     1     -12.094  13.817  64.537  1.00  0.00    -0.463 C  
ENDROOT
BRANCH   4   5
HETATM    5  C   UNL     1     -10.776  14.436  65.000  1.00  0.00    -0.440 C  
BRANCH   5   6
HETATM    6  C   UNL     1     -10.877  15.955  65.146  1.00  0.00    -0.438 C  
BRANCH   6   7
HETATM    7  C   UNL     1     -10.050  16.435  66.314  1.00  0.00    -0.346 A  
HETATM    8  C   UNL     1     -10.670  16.895  67.483  1.00  0.00    -0.270 A  
HETATM    9  C   UNL     1      -9.907  17.401  68.536  1.00  0.00    -0.320 A  
HETATM   10  C   UNL     1      -8.518  17.454  68.430  1.00  0.00    -0.263 A  
HETATM   11  C   UNL     1      -7.892  16.994  67.273  1.00  0.00    -0.198 A  
HETATM   12  C   UNL     1      -8.653  16.487  66.219  1.00  0.00    -0.367 A  
ENDBRANCH   6   7
ENDBRANCH   5   6
ENDBRANCH   4   5
TORSDOF 3
ENDMDL
MODEL       56
REMARK 921   NORMALIZED FREE ENERGY PREDICTED BY IDOCK:   -3.96 KCAL/MOL
REMARK 922        TOTAL FREE ENERGY PREDICTED BY IDOCK:   -4.98 KCAL/MOL
REMARK 923 INTER-LIGAND FREE ENERGY PREDICTED BY IDOCK:   -4.75 KCAL/MOL
REMARK 924 INTRA-LIGAND FREE ENERGY PREDICTED BY IDOCK:   -0.23 KCAL/MOL
REMARK 927      BINDING AFFINITY PREDICTED BY RF-SCORE:    0.00 PKD
ROOT
HETATM    1  O   UNL     1     -13.168  15.725  70.759  1.00  0.00    -0.542 OA 
HETATM    2  C   UNL     1     -12.766  14.474  70.438  1.00  0.00    -0.322 C  
HETATM    3  O   UNL     1     -12.181  14.226  69.396  1.00  0.00    -0.324 OA 
HETATM    4  C   UNL     1     -13.128  13.464  71.504  1.00  0.00    -0.427 C  
ENDROOT
BRANCH   4   5
HETATM    5  C   UNL     1     -12.670  12.058  71.120  1.00  0.00    -0.365 C  
BRANCH   5   6
HETATM    6  C   UNL     1     -13.337  10.983  71.981  1.00  0.00    -0.393 C  
BRANCH   6   7
HETATM    7  C   UNL     1     -12.859   9.608  71.583  1.00  0.00    -0.499 A  
HETATM    8  C   UNL     1     -13.594   8.470  71.938  1.00  0.00    -0.427 A  
HETATM    9  C   UNL     1     -13.117   7.195  71.628  1.00  0.00    -0.410 A  
HETATM   10  C   UNL     1     -11.901   7.047  70.963  1.00  0.00    -0.395 A  
HETATM   11  C   UNL     1     -11.164   8.173  70.602  1.00  0.00    -0.268 A  
HETATM   12  C   UNL     1     -11.640   9.449  70.911  1.00  0.00    -0.380 A  
ENDBRANCH   6   7
ENDBRANCH   5   6
ENDBRANCH   4   5
TORSDOF 3
ENDMDL
MODEL       57
REMARK 921   NORMALIZED FREE ENERGY PREDICTED BY IDOCK:   -3.95 KCAL/MOL
REMARK 922        TOTAL FREE ENERGY PREDICTED BY IDOCK:   -4.97 KCAL/MOL
REMARK 923 INTER-LIGAND FREE ENERGY PREDICTED BY IDOCK:   -4.62 KCAL/MOL
REMARK 924 INTRA-LIGAND FREE ENERGY PREDICTED BY IDOCK:   -0.36 KCAL/MOL
REMARK 927      BINDING AFFINITY PREDICTED BY RF-SCORE:    0.00 PKD
ROOT
HETATM    1  O   UNL     1     -12.657  14.367  63.695  1.00  0.00    -0.817 OA 
HETATM    2  C   UNL     1     -12.358  13.081  63.993  1.00  0.00    -0.363 C  
HETATM    3  O   UNL     1     -13.045  12.413  64.747  1.00  0.00    -0.806 OA 
HETATM    4  C   UNL     1     -11.105  12.606  63.291  1.00  0.00    -0.198 C  
ENDROOT
BRANCH   4   5
HETATM    5  C   UNL     1     -10.783  11.155  63.645  1.00  0.00    -0.381 C  
BRANCH   5   6
HETATM    6  C   UNL     1      -9.547  11.045  64.540  1.00  0.00    -0.299 C  
BRANCH   6   7
HETATM    7  C   UNL     1      -9.847  10.209  65.761  1.00  0.00    -0.331 A  
HETATM    8  C   UNL     1     -10.599  10.738  66.817  1.00  0.00    -0.307 A  
HETATM    9  C   UNL     1     -10.819   9.989  67.974  1.00  0.00    -0.311 A  
HETATM   10  C   UNL     1     -10.286   8.706  68.087  1.00  0.00    -0.250 A  
HETATM   11  C   UNL     1      -9.540   8.169  67.039  1.00  0.00    -0.253 A  
HETATM   12  C   UNL     1      -9.320   8.917  65.882  1.00  0.00    -0.301 A  
ENDBRANCH   6   7
ENDBRANCH   5   6
ENDBRANCH   4   5
TORSDOF 3
ENDMDL
MODEL       58
REMARK 921   NORMALIZED FREE ENERGY PREDICTED BY IDOCK:   -3.90 KCAL/MOL
REMARK 922        TOTAL FREE ENERGY PREDICTED BY IDOCK:   -4.91 KCAL/MOL
REMARK 923 INTER-LIGAND FREE ENERGY PREDICTED BY IDOCK:   -4.65 KCAL/MOL
REMARK 924 INTRA-LIGAND FREE ENERGY PREDICTED BY IDOCK:   -0.26 KCAL/MOL
REMARK 927      BINDING AFFINITY PREDICTED BY RF-SCORE:    0.00 PKD
ROOT
HETATM    1  O   UNL     1     -11.116   9.142  71.810  1.00  0.00    -0.351 OA 
HETATM    2  C   UNL     1     -11.829  10.062  71.119  1.00  0.00    -0.393 C  
HETATM    3  O   UNL     1     -12.858  10.550  71.557  1.00  0.00    -0.390 OA 
HETATM    4  C   UNL     1     -11.200  10.389  69.782  1.00  0.00    -0.353 C  
ENDROOT
BRANCH   4   5
HETATM    5  C   UNL     1     -12.023  11.424  69.016  1.00  0.00    -0.387 C  
BRANCH   5   6
HETATM    6  C   UNL     1     -11.137  12.402  68.243  1.00  0.00    -0.283 C  
BRANCH   6   7
HETATM    7  C   UNL     1     -11.301  12.208  66.755  1.00  0.00    -0.398 A  
HETATM    8  C   UNL     1     -10.568  11.222  66.082  1.00  0.00    -0.312 A  
HETATM    9  C   UNL     1     -10.670  11.088  64.697  1.00  0.00    -0.318 A  
HETATM   10  C   UNL     1     -11.502  11.939  63.971  1.00  0.00    -0.480 A  
HETATM   11  C   UNL     1     -12.238  12.920  64.632  1.00  0.00    -0.494 A  
HETATM   12  C   UNL     1     -12.139  13.055  66.018  1.00  0.00    -0.493 A  
ENDBRANCH   6   7
ENDBRANCH   5   6
ENDBRANCH   4   5
TORSDOF 3
ENDMDL
MODEL       59
REMARK 921   NORMALIZED FREE ENERGY PREDICTED BY IDOCK:   -3.90 KCAL/MOL
REMARK 922        TOTAL FREE ENERGY PREDICTED BY IDOCK:   -4.90 KCAL/MOL
REMARK 923 INTER-LIGAND FREE ENERGY PREDICTED BY IDOCK:   -4.51 KCAL/MOL
REMARK 924 INTRA-LIGAND FREE ENERGY PREDICTED BY IDOCK:   -0.40 KCAL/MOL
REMARK 927      BINDING AFFINITY PREDICTED BY RF-SCORE:    0.00 PKD
ROOT
HETATM    1  O   UNL     1     -10.697  16.437  65.418  1.00  0.00    -0.416 OA 
HETATM    2  C   UNL     1     -10.947  15.108  65.469  1.00  0.00    -0.365 C  
HETATM    3  O   UNL     1     -10.278  14.346  66.147  1.00  0.00    -0.284 OA 
HETATM    4  C   UNL     1     -12.122  14.712  64.602  1.00  0.00    -0.466 C  
ENDROOT
BRANCH   4   5
HETATM    5  C   UNL     1     -12.384  13.208  64.669  1.00  0.00    -0.463 C  
BRANCH   5   6
HETATM    6  C   UNL     1     -11.836  12.476  63.443  1.00  0.00    -0.587 C  
BRANCH   6   7
HETATM    7  C   UNL     1     -10.778  11.478  63.847  1.00  0.00    -0.458 A  
HETATM    8  C   UNL     1      -9.878  10.974  62.899  1.00  0.00    -0.319 A  
HETATM    9  C   UNL     1      -8.944  10.002  63.258  1.00  0.00    -0.275 A  
HETATM   10  C   UNL     1      -8.902   9.522  64.567  1.00  0.00    -0.249 A  
HETATM   11  C   UNL     1      -9.790  10.021  65.518  1.00  0.00    -0.373 A  
HETATM   12  C   UNL     1     -10.724  10.994  65.160  1.00  0.00    -0.253 A  
ENDBRANCH   6   7
ENDBRANCH   5   6
ENDBRANCH   4   5
TORSDOF 3
ENDMDL
MODEL       60
REMARK 921   NORMALIZED FREE ENERGY PREDICTED BY IDOCK:   -3.89 KCAL/MOL
REMARK 922        TOTAL FREE ENERGY PREDICTED BY IDOCK:   -4.90 KCAL/MOL
REMARK 923 INTER-LIGAND FREE ENERGY PREDICTED BY IDOCK:   -4.68 KCAL/MOL
REMARK 924 INTRA-LIGAND FREE ENERGY PREDICTED BY IDOCK:   -0.22 KCAL/MOL
REMARK 927      BINDING AFFINITY PREDICTED BY RF-SCORE:    0.00 PKD
ROOT
HETATM    1  O   UNL     1     -10.350  18.731  65.662  1.00  0.00    -0.551 OA 
HETATM    2  C   UNL     1     -10.517  17.888  66.707  1.00  0.00    -0.311 C  
HETATM    3  O   UNL     1     -10.651  18.290  67.851  1.00  0.00    -0.405 OA 
HETATM    4  C   UNL     1     -10.515  16.437  66.280  1.00  0.00    -0.298 C  
ENDROOT
BRANCH   4   5
HETATM    5  C   UNL     1     -10.699  15.503  67.475  1.00  0.00    -0.300 C  
BRANCH   5   6
HETATM    6  C   UNL     1     -11.774  14.446  67.216  1.00  0.00    -0.429 C  
BRANCH   6   7
HETATM    7  C   UNL     1     -11.914  13.525  68.403  1.00  0.00    -0.378 A  
HETATM    8  C   UNL     1     -11.774  12.140  68.248  1.00  0.00    -0.401 A  
HETATM    9  C   UNL     1     -11.970  11.284  69.333  1.00  0.00    -0.410 A  
HETATM   10  C   UNL     1     -12.310  11.804  70.581  1.00  0.00    -0.421 A  
HETATM   11  C   UNL     1     -12.446  13.181  70.746  1.00  0.00    -0.389 A  
HETATM   12  C   UNL     1     -12.250  14.039  69.663  1.00  0.00    -0.383 A  
ENDBRANCH   6   7
ENDBRANCH   5   6
ENDBRANCH   4   5
TORSDOF 3
ENDMDL
MODEL       61
REMARK 921   NORMALIZED FREE ENERGY PREDICTED BY IDOCK:   -3.89 KCAL/MOL
REMARK 922        TOTAL FREE ENERGY PREDICTED BY IDOCK:   -4.90 KCAL/MOL
REMARK 923 INTER-LIGAND FREE ENERGY PREDICTED BY IDOCK:   -4.64 KCAL/MOL
REMARK 924 INTRA-LIGAND FREE ENERGY PREDICTED BY IDOCK:   -0.26 KCAL/MOL
REMARK 927      BINDING AFFINITY PREDICTED BY RF-SCORE:    0.00 PKD
ROOT
HETATM    1  O   UNL     1     -13.001  11.880  63.156  1.00  0.00    -0.640 OA 
HETATM    2  C   UNL     1     -11.863  12.276  63.772  1.00  0.00    -0.498 C  
HETATM    3  O   UNL     1     -10.773  12.216  63.227  1.00  0.00    -0.421 OA 
HETATM    4  C   UNL     1     -12.117  12.783  65.175  1.00  0.00    -0.498 C  
ENDROOT
BRANCH   4   5
HETATM    5  C   UNL     1     -10.820  13.219  65.855  1.00  0.00    -0.289 C  
BRANCH   5   6
HETATM    6  C   UNL     1     -10.559  14.717  65.683  1.00  0.00    -0.344 C  
BRANCH   6   7
HETATM    7  C   UNL     1     -10.711  15.439  67.000  1.00  0.00    -0.321 A  
HETATM    8  C   UNL     1     -10.088  16.676  67.207  1.00  0.00    -0.279 A  
HETATM    9  C   UNL     1     -10.173  17.311  68.447  1.00  0.00    -0.358 A  
HETATM   10  C   UNL     1     -10.879  16.714  69.491  1.00  0.00    -0.285 A  
HETATM   11  C   UNL     1     -11.505  15.486  69.293  1.00  0.00    -0.349 A  
HETATM   12  C   UNL     1     -11.422  14.849  68.053  1.00  0.00    -0.355 A  
ENDBRANCH   6   7
ENDBRANCH   5   6
ENDBRANCH   4   5
TORSDOF 3
ENDMDL
MODEL       62
REMARK 921   NORMALIZED FREE ENERGY PREDICTED BY IDOCK:   -3.87 KCAL/MOL
REMARK 922        TOTAL FREE ENERGY PREDICTED BY IDOCK:   -4.88 KCAL/MOL
REMARK 923 INTER-LIGAND FREE ENERGY PREDICTED BY IDOCK:   -4.63 KCAL/MOL
REMARK 924 INTRA-LIGAND FREE ENERGY PREDICTED BY IDOCK:   -0.25 KCAL/MOL
REMARK 927      BINDING AFFINITY PREDICTED BY RF-SCORE:    0.00 PKD
ROOT
HETATM    1  O   UNL     1     -10.042  10.457  64.989  1.00  0.00    -0.309 OA 
HETATM    2  C   UNL     1     -10.844  11.364  65.593  1.00  0.00    -0.218 C  
HETATM    3  O   UNL     1     -11.439  12.225  64.965  1.00  0.00    -0.320 OA 
HETATM    4  C   UNL     1     -10.899  11.173  67.092  1.00  0.00    -0.326 C  
ENDROOT
BRANCH   4   5
HETATM    5  C   UNL     1     -11.804  12.210  67.755  1.00  0.00    -0.327 C  
BRANCH   5   6
HETATM    6  C   UNL     1     -11.095  12.946  68.894  1.00  0.00    -0.301 C  
BRANCH   6   7
HETATM    7  C   UNL     1     -12.011  13.094  70.084  1.00  0.00    -0.381 A  
HETATM    8  C   UNL     1     -12.424  14.363  70.508  1.00  0.00    -0.416 A  
HETATM    9  C   UNL     1     -13.216  14.504  71.649  1.00  0.00    -0.424 A  
HETATM   10  C   UNL     1     -13.599  13.379  72.377  1.00  0.00    -0.708 A  
HETATM   11  C   UNL     1     -13.196  12.112  71.961  1.00  0.00    -0.496 A  
HETATM   12  C   UNL     1     -12.405  11.969  70.820  1.00  0.00    -0.403 A  
ENDBRANCH   6   7
ENDBRANCH   5   6
ENDBRANCH   4   5
TORSDOF 3
ENDMDL
MODEL       63
REMARK 921   NORMALIZED FREE ENERGY PREDICTED BY IDOCK:   -3.85 KCAL/MOL
REMARK 922        TOTAL FREE ENERGY PREDICTED BY IDOCK:   -4.86 KCAL/MOL
REMARK 923 INTER-LIGAND FREE ENERGY PREDICTED BY IDOCK:   -4.45 KCAL/MOL
REMARK 924 INTRA-LIGAND FREE ENERGY PREDICTED BY IDOCK:   -0.41 KCAL/MOL
REMARK 927      BINDING AFFINITY PREDICTED BY RF-SCORE:    0.00 PKD
ROOT
HETATM    1  O   UNL     1      -8.005   8.498  74.420  1.00  0.00    -0.328 OA 
HETATM    2  C   UNL     1      -8.712   8.286  73.285  1.00  0.00    -0.215 C  
HETATM    3  O   UNL     1      -8.351   8.719  72.204  1.00  0.00    -0.351 OA 
HETATM    4  C   UNL     1      -9.962   7.470  73.533  1.00  0.00    -0.371 C  
ENDROOT
BRANCH   4   5
HETATM    5  C   UNL     1     -10.748   7.247  72.242  1.00  0.00    -0.266 C  
BRANCH   5   6
HETATM    6  C   UNL     1     -12.128   7.907  72.290  1.00  0.00    -0.363 C  
BRANCH   6   7
HETATM    7  C   UNL     1     -12.095   9.259  71.619  1.00  0.00    -0.451 A  
HETATM    8  C   UNL     1     -12.944  10.286  72.050  1.00  0.00    -0.503 A  
HETATM    9  C   UNL     1     -12.962  11.514  71.386  1.00  0.00    -0.450 A  
HETATM   10  C   UNL     1     -12.134  11.724  70.284  1.00  0.00    -0.426 A  
HETATM   11  C   UNL     1     -11.284  10.710  69.850  1.00  0.00    -0.378 A  
HETATM   12  C   UNL     1     -11.264   9.482  70.513  1.00  0.00    -0.345 A  
ENDBRANCH   6   7
ENDBRANCH   5   6
ENDBRANCH   4   5
TORSDOF 3
ENDMDL
MODEL       64
REMARK 921   NORMALIZED FREE ENERGY PREDICTED BY IDOCK:   -3.84 KCAL/MOL
REMARK 922        TOTAL FREE ENERGY PREDICTED BY IDOCK:   -4.84 KCAL/MOL
REMARK 923 INTER-LIGAND FREE ENERGY PREDICTED BY IDOCK:   -4.48 KCAL/MOL
REMARK 924 INTRA-LIGAND FREE ENERGY PREDICTED BY IDOCK:   -0.36 KCAL/MOL
REMARK 927      BINDING AFFINITY PREDICTED BY RF-SCORE:    0.00 PKD
ROOT
HETATM    1  O   UNL     1     -11.778  13.061  69.113  1.00  0.00    -0.290 OA 
HETATM    2  C   UNL     1     -11.681  14.228  68.435  1.00  0.00    -0.338 C  
HETATM    3  O   UNL     1     -12.110  15.278  68.883  1.00  0.00    -0.286 OA 
HETATM    4  C   UNL     1     -10.994  14.059  67.097  1.00  0.00    -0.303 C  
ENDROOT
BRANCH   4   5
HETATM    5  C   UNL     1     -10.899  15.386  66.346  1.00  0.00    -0.303 C  
BRANCH   5   6
HETATM    6  C   UNL     1      -9.574  16.102  66.613  1.00  0.00    -0.263 C  
BRANCH   6   7
HETATM    7  C   UNL     1      -9.816  17.520  67.072  1.00  0.00    -0.295 A  
HETATM    8  C   UNL     1     -10.253  18.495  66.166  1.00  0.00    -0.424 A  
HETATM    9  C   UNL     1     -10.412  19.819  66.576  1.00  0.00    -0.615 A  
HETATM   10  C   UNL     1     -10.135  20.182  67.893  1.00  0.00    -0.533 A  
HETATM   11  C   UNL     1      -9.704  19.217  68.803  1.00  0.00    -0.510 A  
HETATM   12  C   UNL     1      -9.545  17.892  68.395  1.00  0.00    -0.320 A  
ENDBRANCH   6   7
ENDBRANCH   5   6
ENDBRANCH   4   5
TORSDOF 3
ENDMDL
MODEL       65
REMARK 921   NORMALIZED FREE ENERGY PREDICTED BY IDOCK:   -3.82 KCAL/MOL
REMARK 922        TOTAL FREE ENERGY PREDICTED BY IDOCK:   -4.81 KCAL/MOL
REMARK 923 INTER-LIGAND FREE ENERGY PREDICTED BY IDOCK:   -4.47 KCAL/MOL
REMARK 924 INTRA-LIGAND FREE ENERGY PREDICTED BY IDOCK:   -0.34 KCAL/MOL
REMARK 927      BINDING AFFINITY PREDICTED BY RF-SCORE:    0.00 PKD
ROOT
HETATM    1  O   UNL     1      -8.040  12.533  67.723  1.00  0.00    -0.140 OA 
HETATM    2  C   UNL     1      -9.374  12.597  67.945  1.00  0.00    -0.204 C  
HETATM    3  O   UNL     1     -10.038  11.606  68.203  1.00  0.00    -0.183 OA 
HETATM    4  C   UNL     1      -9.908  14.008  67.831  1.00  0.00    -0.233 C  
ENDROOT
BRANCH   4   5
HETATM    5  C   UNL     1     -11.414  14.057  68.078  1.00  0.00    -0.342 C  
BRANCH   5   6
HETATM    6  C   UNL     1     -11.794  15.136  69.094  1.00  0.00    -0.340 C  
BRANCH   6   7
HETATM    7  C   UNL     1     -12.526  14.530  70.267  1.00  0.00    -0.405 A  
HETATM    8  C   UNL     1     -13.338  15.326  71.084  1.00  0.00    -0.568 A  
HETATM    9  C   UNL     1     -13.961  14.779  72.208  1.00  0.00    -0.598 A  
HETATM   10  C   UNL     1     -13.775  13.435  72.526  1.00  0.00    -0.636 A  
HETATM   11  C   UNL     1     -12.972  12.635  71.716  1.00  0.00    -0.417 A  
HETATM   12  C   UNL     1     -12.349  13.179  70.592  1.00  0.00    -0.405 A  
ENDBRANCH   6   7
ENDBRANCH   5   6
ENDBRANCH   4   5
TORSDOF 3
ENDMDL
MODEL       66
REMARK 921   NORMALIZED FREE ENERGY PREDICTED BY IDOCK:   -3.77 KCAL/MOL
REMARK 922        TOTAL FREE ENERGY PREDICTED BY IDOCK:   -4.76 KCAL/MOL
REMARK 923 INTER-LIGAND FREE ENERGY PREDICTED BY IDOCK:   -4.52 KCAL/MOL
REMARK 924 INTRA-LIGAND FREE ENERGY PREDICTED BY IDOCK:   -0.24 KCAL/MOL
REMARK 927      BINDING AFFINITY PREDICTED BY RF-SCORE:    0.00 PKD
ROOT
HETATM    1  O   UNL     1     -13.322  11.699  63.232  1.00  0.00    -0.445 OA 
HETATM    2  C   UNL     1     -12.363  12.583  63.596  1.00  0.00    -0.522 C  
HETATM    3  O   UNL     1     -12.422  13.764  63.299  1.00  0.00    -0.819 OA 
HETATM    4  C   UNL     1     -11.253  11.930  64.390  1.00  0.00    -0.401 C  
ENDROOT
BRANCH   4   5
HETATM    5  C   UNL     1     -10.179  12.942  64.785  1.00  0.00    -0.307 C  
BRANCH   5   6
HETATM    6  C   UNL     1     -10.447  13.552  66.162  1.00  0.00    -0.296 C  
BRANCH   6   7
HETATM    7  C   UNL     1      -9.449  14.644  66.464  1.00  0.00    -0.319 A  
HETATM    8  C   UNL     1      -9.669  15.952  66.013  1.00  0.00    -0.375 A  
HETATM    9  C   UNL     1      -8.714  16.945  66.234  1.00  0.00    -0.321 A  
HETATM   10  C   UNL     1      -7.531  16.641  66.906  1.00  0.00    -0.264 A  
HETATM   11  C   UNL     1      -7.306  15.344  67.362  1.00  0.00    -0.244 A  
HETATM   12  C   UNL     1      -8.259  14.349  67.143  1.00  0.00    -0.202 A  
ENDBRANCH   6   7
ENDBRANCH   5   6
ENDBRANCH   4   5
TORSDOF 3
ENDMDL
MODEL       67
REMARK 921   NORMALIZED FREE ENERGY PREDICTED BY IDOCK:   -3.75 KCAL/MOL
REMARK 922        TOTAL FREE ENERGY PREDICTED BY IDOCK:   -4.73 KCAL/MOL
REMARK 923 INTER-LIGAND FREE ENERGY PREDICTED BY IDOCK:   -4.29 KCAL/MOL
REMARK 924 INTRA-LIGAND FREE ENERGY PREDICTED BY IDOCK:   -0.44 KCAL/MOL
REMARK 927      BINDING AFFINITY PREDICTED BY RF-SCORE:    0.00 PKD
ROOT
HETATM    1  O   UNL     1     -11.145   6.566  66.948  1.00  0.00    -0.399 OA 
HETATM    2  C   UNL     1     -10.707   6.751  68.216  1.00  0.00    -0.235 C  
HETATM    3  O   UNL     1     -11.074   6.043  69.139  1.00  0.00    -0.362 OA 
HETATM    4  C   UNL     1      -9.740   7.909  68.326  1.00  0.00    -0.172 C  
ENDROOT
BRANCH   4   5
HETATM    5  C   UNL     1      -9.264   8.104  69.764  1.00  0.00    -0.151 C  
BRANCH   5   6
HETATM    6  C   UNL     1      -9.575   9.509  70.285  1.00  0.00    -0.314 C  
BRANCH   6   7
HETATM    7  C   UNL     1     -10.932   9.545  70.943  1.00  0.00    -0.407 A  
HETATM    8  C   UNL     1     -11.370   8.470  71.728  1.00  0.00    -0.377 A  
HETATM    9  C   UNL     1     -12.651   8.474  72.281  1.00  0.00    -0.438 A  
HETATM   10  C   UNL     1     -13.507   9.551  72.053  1.00  0.00    -0.522 A  
HETATM   11  C   UNL     1     -13.079  10.626  71.278  1.00  0.00    -0.456 A  
HETATM   12  C   UNL     1     -11.798  10.624  70.724  1.00  0.00    -0.459 A  
ENDBRANCH   6   7
ENDBRANCH   5   6
ENDBRANCH   4   5
TORSDOF 3
ENDMDL
MODEL       68
REMARK 921   NORMALIZED FREE ENERGY PREDICTED BY IDOCK:   -3.75 KCAL/MOL
REMARK 922        TOTAL FREE ENERGY PREDICTED BY IDOCK:   -4.73 KCAL/MOL
REMARK 923 INTER-LIGAND FREE ENERGY PREDICTED BY IDOCK:   -4.45 KCAL/MOL
REMARK 924 INTRA-LIGAND FREE ENERGY PREDICTED BY IDOCK:   -0.28 KCAL/MOL
REMARK 927      BINDING AFFINITY PREDICTED BY RF-SCORE:    0.00 PKD
ROOT
HETATM    1  O   UNL     1     -11.953  12.330  64.906  1.00  0.00    -0.381 OA 
HETATM    2  C   UNL     1     -11.819  12.689  66.204  1.00  0.00    -0.418 C  
HETATM    3  O   UNL     1     -12.143  13.793  66.609  1.00  0.00    -0.411 OA 
HETATM    4  C   UNL     1     -11.234  11.579  67.050  1.00  0.00    -0.365 C  
ENDROOT
BRANCH   4   5
HETATM    5  C   UNL     1     -11.086  12.007  68.509  1.00  0.00    -0.289 C  
BRANCH   5   6
HETATM    6  C   UNL     1     -12.084  11.290  69.420  1.00  0.00    -0.384 C  
BRANCH   6   7
HETATM    7  C   UNL     1     -11.382  10.266  70.278  1.00  0.00    -0.398 A  
HETATM    8  C   UNL     1     -12.067   9.617  71.313  1.00  0.00    -0.457 A  
HETATM    9  C   UNL     1     -11.401   8.720  72.149  1.00  0.00    -0.411 A  
HETATM   10  C   UNL     1     -10.043   8.466  71.960  1.00  0.00    -0.364 A  
HETATM   11  C   UNL     1      -9.354   9.103  70.930  1.00  0.00    -0.335 A  
HETATM   12  C   UNL     1     -10.019  10.000  70.092  1.00  0.00    -0.239 A  
ENDBRANCH   6   7
ENDBRANCH   5   6
ENDBRANCH   4   5
TORSDOF 3
ENDMDL
MODEL       69
REMARK 921   NORMALIZED FREE ENERGY PREDICTED BY IDOCK:   -3.71 KCAL/MOL
REMARK 922        TOTAL FREE ENERGY PREDICTED BY IDOCK:   -4.69 KCAL/MOL
REMARK 923 INTER-LIGAND FREE ENERGY PREDICTED BY IDOCK:   -4.43 KCAL/MOL
REMARK 924 INTRA-LIGAND FREE ENERGY PREDICTED BY IDOCK:   -0.25 KCAL/MOL
REMARK 927      BINDING AFFINITY PREDICTED BY RF-SCORE:    0.00 PKD
ROOT
HETATM    1  O   UNL     1      -7.748   8.122  71.675  1.00  0.00    -0.077 OA 
HETATM    2  C   UNL     1      -8.461   9.019  70.954  1.00  0.00    -0.208 C  
HETATM    3  O   UNL     1      -7.926   9.856  70.246  1.00  0.00    -0.182 OA 
HETATM    4  C   UNL     1      -9.953   8.849  71.141  1.00  0.00    -0.342 C  
ENDROOT
BRANCH   4   5
HETATM    5  C   UNL     1     -10.738   9.874  70.325  1.00  0.00    -0.367 C  
BRANCH   5   6
HETATM    6  C   UNL     1     -12.150  10.084  70.875  1.00  0.00    -0.448 C  
BRANCH   6   7
HETATM    7  C   UNL     1     -12.464  11.556  70.993  1.00  0.00    -0.458 A  
HETATM    8  C   UNL     1     -11.912  12.473  70.089  1.00  0.00    -0.377 A  
HETATM    9  C   UNL     1     -12.147  13.841  70.238  1.00  0.00    -0.425 A  
HETATM   10  C   UNL     1     -12.933  14.304  71.293  1.00  0.00    -0.422 A  
HETATM   11  C   UNL     1     -13.489  13.398  72.194  1.00  0.00    -0.646 A  
HETATM   12  C   UNL     1     -13.256  12.030  72.046  1.00  0.00    -0.481 A  
ENDBRANCH   6   7
ENDBRANCH   5   6
ENDBRANCH   4   5
TORSDOF 3
ENDMDL
MODEL       70
REMARK 921   NORMALIZED FREE ENERGY PREDICTED BY IDOCK:   -3.70 KCAL/MOL
REMARK 922        TOTAL FREE ENERGY PREDICTED BY IDOCK:   -4.68 KCAL/MOL
REMARK 923 INTER-LIGAND FREE ENERGY PREDICTED BY IDOCK:   -4.35 KCAL/MOL
REMARK 924 INTRA-LIGAND FREE ENERGY PREDICTED BY IDOCK:   -0.32 KCAL/MOL
REMARK 927      BINDING AFFINITY PREDICTED BY RF-SCORE:    0.00 PKD
ROOT
HETATM    1  O   UNL     1     -11.324  10.580  67.678  1.00  0.00    -0.394 OA 
HETATM    2  C   UNL     1     -11.719  11.874  67.651  1.00  0.00    -0.275 C  
HETATM    3  O   UNL     1     -12.241  12.373  66.668  1.00  0.00    -0.562 OA 
HETATM    4  C   UNL     1     -11.437  12.587  68.955  1.00  0.00    -0.355 C  
ENDROOT
BRANCH   4   5
HETATM    5  C   UNL     1     -11.885  14.047  68.901  1.00  0.00    -0.390 C  
BRANCH   5   6
HETATM    6  C   UNL     1     -10.737  15.010  69.209  1.00  0.00    -0.250 C  
BRANCH   6   7
HETATM    7  C   UNL     1     -10.666  16.104  68.171  1.00  0.00    -0.315 A  
HETATM    8  C   UNL     1     -10.603  15.786  66.808  1.00  0.00    -0.309 A  
HETATM    9  C   UNL     1     -10.469  16.795  65.853  1.00  0.00    -0.311 A  
HETATM   10  C   UNL     1     -10.395  18.129  66.251  1.00  0.00    -0.407 A  
HETATM   11  C   UNL     1     -10.462  18.455  67.604  1.00  0.00    -0.445 A  
HETATM   12  C   UNL     1     -10.596  17.447  68.561  1.00  0.00    -0.340 A  
ENDBRANCH   6   7
ENDBRANCH   5   6
ENDBRANCH   4   5
TORSDOF 3
ENDMDL
MODEL       71
REMARK 921   NORMALIZED FREE ENERGY PREDICTED BY IDOCK:   -3.69 KCAL/MOL
REMARK 922        TOTAL FREE ENERGY PREDICTED BY IDOCK:   -4.67 KCAL/MOL
REMARK 923 INTER-LIGAND FREE ENERGY PREDICTED BY IDOCK:   -4.44 KCAL/MOL
REMARK 924 INTRA-LIGAND FREE ENERGY PREDICTED BY IDOCK:   -0.23 KCAL/MOL
REMARK 927      BINDING AFFINITY PREDICTED BY RF-SCORE:    0.00 PKD
ROOT
HETATM    1  O   UNL     1     -12.051  12.083  66.745  1.00  0.00    -0.613 OA 
HETATM    2  C   UNL     1     -11.515  11.189  67.609  1.00  0.00    -0.250 C  
HETATM    3  O   UNL     1     -10.804  10.271  67.236  1.00  0.00    -0.277 OA 
HETATM    4  C   UNL     1     -11.903  11.474  69.043  1.00  0.00    -0.408 C  
ENDROOT
BRANCH   4   5
HETATM    5  C   UNL     1     -11.293  10.451  70.000  1.00  0.00    -0.384 C  
BRANCH   5   6
HETATM    6  C   UNL     1     -12.336   9.867  70.955  1.00  0.00    -0.451 C  
BRANCH   6   7
HETATM    7  C   UNL     1     -11.838   8.580  71.567  1.00  0.00    -0.353 A  
HETATM    8  C   UNL     1     -12.577   7.398  71.433  1.00  0.00    -0.405 A  
HETATM    9  C   UNL     1     -12.150   6.224  72.055  1.00  0.00    -0.321 A  
HETATM   10  C   UNL     1     -10.983   6.221  72.818  1.00  0.00    -0.291 A  
HETATM   11  C   UNL     1     -10.240   7.392  72.953  1.00  0.00    -0.310 A  
HETATM   12  C   UNL     1     -10.664   8.567  72.332  1.00  0.00    -0.376 A  
ENDBRANCH   6   7
ENDBRANCH   5   6
ENDBRANCH   4   5
TORSDOF 3
ENDMDL
MODEL       72
REMARK 921   NORMALIZED FREE ENERGY PREDICTED BY IDOCK:   -3.68 KCAL/MOL
REMARK 922        TOTAL FREE ENERGY PREDICTED BY IDOCK:   -4.65 KCAL/MOL
REMARK 923 INTER-LIGAND FREE ENERGY PREDICTED BY IDOCK:   -4.24 KCAL/MOL
REMARK 924 INTRA-LIGAND FREE ENERGY PREDICTED BY IDOCK:   -0.41 KCAL/MOL
REMARK 927      BINDING AFFINITY PREDICTED BY RF-SCORE:    0.00 PKD
ROOT
HETATM    1  O   UNL     1     -12.090  11.374  68.325  1.00  0.00    -0.606 OA 
HETATM    2  C   UNL     1     -11.810  10.923  69.569  1.00  0.00    -0.332 C  
HETATM    3  O   UNL     1     -10.696  10.538  69.886  1.00  0.00    -0.267 OA 
HETATM    4  C   UNL     1     -13.019  10.958  70.478  1.00  0.00    -0.212 C  
ENDROOT
BRANCH   4   5
HETATM    5  C   UNL     1     -12.683  10.439  71.875  1.00  0.00    -0.459 C  
BRANCH   5   6
HETATM    6  C   UNL     1     -13.303   9.066  72.141  1.00  0.00    -0.510 C  
BRANCH   6   7
HETATM    7  C   UNL     1     -12.251   7.985  72.079  1.00  0.00    -0.374 A  
HETATM    8  C   UNL     1     -11.175   7.990  72.975  1.00  0.00    -0.279 A  
HETATM    9  C   UNL     1     -10.167   7.030  72.874  1.00  0.00    -0.243 A  
HETATM   10  C   UNL     1     -10.224   6.059  71.876  1.00  0.00    -0.237 A  
HETATM   11  C   UNL     1     -11.293   6.044  70.982  1.00  0.00    -0.299 A  
HETATM   12  C   UNL     1     -12.302   7.002  71.082  1.00  0.00    -0.423 A  
ENDBRANCH   6   7
ENDBRANCH   5   6
ENDBRANCH   4   5
TORSDOF 3
ENDMDL
MODEL       73
REMARK 921   NORMALIZED FREE ENERGY PREDICTED BY IDOCK:   -3.68 KCAL/MOL
REMARK 922        TOTAL FREE ENERGY PREDICTED BY IDOCK:   -4.65 KCAL/MOL
REMARK 923 INTER-LIGAND FREE ENERGY PREDICTED BY IDOCK:   -4.74 KCAL/MOL
REMARK 924 INTRA-LIGAND FREE ENERGY PREDICTED BY IDOCK:    0.09 KCAL/MOL
REMARK 927      BINDING AFFINITY PREDICTED BY RF-SCORE:    0.00 PKD
ROOT
HETATM    1  O   UNL     1     -12.685  14.423  63.476  1.00  0.00    -0.742 OA 
HETATM    2  C   UNL     1     -11.794  15.165  64.175  1.00  0.00    -0.148 C  
HETATM    3  O   UNL     1     -11.732  16.378  64.067  1.00  0.00    -1.044 OA 
HETATM    4  C   UNL     1     -10.920  14.316  65.072  1.00  0.00    -0.394 C  
ENDROOT
BRANCH   4   5
HETATM    5  C   UNL     1      -9.918  15.171  65.846  1.00  0.00    -0.355 C  
BRANCH   5   6
HETATM    6  C   UNL     1      -9.238  14.382  66.967  1.00  0.00    -0.246 C  
BRANCH   6   7
HETATM    7  C   UNL     1     -10.162  13.319  67.507  1.00  0.00    -0.222 A  
HETATM    8  C   UNL     1     -10.997  13.591  68.599  1.00  0.00    -0.289 A  
HETATM    9  C   UNL     1     -11.802  12.589  69.141  1.00  0.00    -0.348 A  
HETATM   10  C   UNL     1     -11.778  11.304  68.599  1.00  0.00    -0.391 A  
HETATM   11  C   UNL     1     -10.954  11.024  67.511  1.00  0.00    -0.338 A  
HETATM   12  C   UNL     1     -10.148  12.026  66.967  1.00  0.00    -0.221 A  
ENDBRANCH   6   7
ENDBRANCH   5   6
ENDBRANCH   4   5
TORSDOF 3
ENDMDL
MODEL       74
REMARK 921   NORMALIZED FREE ENERGY PREDICTED BY IDOCK:   -3.67 KCAL/MOL
REMARK 922        TOTAL FREE ENERGY PREDICTED BY IDOCK:   -4.64 KCAL/MOL
REMARK 923 INTER-LIGAND FREE ENERGY PREDICTED BY IDOCK:   -4.35 KCAL/MOL
REMARK 924 INTRA-LIGAND FREE ENERGY PREDICTED BY IDOCK:   -0.29 KCAL/MOL
REMARK 927      BINDING AFFINITY PREDICTED BY RF-SCORE:    0.00 PKD
ROOT
HETATM    1  O   UNL     1     -10.822  11.243  64.970  1.00  0.00    -0.282 OA 
HETATM    2  C   UNL     1     -10.320  11.533  66.193  1.00  0.00    -0.245 C  
HETATM    3  O   UNL     1      -9.259  12.119  66.337  1.00  0.00    -0.219 OA 
HETATM    4  C   UNL     1     -11.217  11.050  67.311  1.00  0.00    -0.330 C  
ENDROOT
BRANCH   4   5
HETATM    5  C   UNL     1     -10.629  11.381  68.682  1.00  0.00    -0.229 C  
BRANCH   5   6
HETATM    6  C   UNL     1     -11.707  11.809  69.679  1.00  0.00    -0.413 C  
BRANCH   6   7
HETATM    7  C   UNL     1     -11.979  10.708  70.675  1.00  0.00    -0.466 A  
HETATM    8  C   UNL     1     -10.990   9.762  70.976  1.00  0.00    -0.402 A  
HETATM    9  C   UNL     1     -11.265   8.705  71.844  1.00  0.00    -0.413 A  
HETATM   10  C   UNL     1     -12.529   8.582  72.418  1.00  0.00    -0.416 A  
HETATM   11  C   UNL     1     -13.518   9.520  72.128  1.00  0.00    -0.535 A  
HETATM   12  C   UNL     1     -13.245  10.578  71.260  1.00  0.00    -0.399 A  
ENDBRANCH   6   7
ENDBRANCH   5   6
ENDBRANCH   4   5
TORSDOF 3
ENDMDL
MODEL       75
REMARK 921   NORMALIZED FREE ENERGY PREDICTED BY IDOCK:   -3.66 KCAL/MOL
REMARK 922        TOTAL FREE ENERGY PREDICTED BY IDOCK:   -4.63 KCAL/MOL
REMARK 923 INTER-LIGAND FREE ENERGY PREDICTED BY IDOCK:   -4.38 KCAL/MOL
REMARK 924 INTRA-LIGAND FREE ENERGY PREDICTED BY IDOCK:   -0.25 KCAL/MOL
REMARK 927      BINDING AFFINITY PREDICTED BY RF-SCORE:    0.00 PKD
ROOT
HETATM    1  O   UNL     1      -9.328   9.596  64.418  1.00  0.00    -0.254 OA 
HETATM    2  C   UNL     1     -10.089  10.288  65.298  1.00  0.00    -0.289 C  
HETATM    3  O   UNL     1     -10.718  11.281  64.972  1.00  0.00    -0.293 OA 
HETATM    4  C   UNL     1     -10.052   9.686  66.685  1.00  0.00    -0.307 C  
ENDROOT
BRANCH   4   5
HETATM    5  C   UNL     1     -10.911  10.485  67.663  1.00  0.00    -0.375 C  
BRANCH   5   6
HETATM    6  C   UNL     1     -10.238  10.633  69.029  1.00  0.00    -0.231 C  
BRANCH   6   7
HETATM    7  C   UNL     1     -11.213  10.326  70.140  1.00  0.00    -0.387 A  
HETATM    8  C   UNL     1     -11.214   9.068  70.756  1.00  0.00    -0.329 A  
HETATM    9  C   UNL     1     -12.159   8.762  71.736  1.00  0.00    -0.418 A  
HETATM   10  C   UNL     1     -13.113   9.709  72.107  1.00  0.00    -0.520 A  
HETATM   11  C   UNL     1     -13.116  10.964  71.503  1.00  0.00    -0.503 A  
HETATM   12  C   UNL     1     -12.171  11.272  70.524  1.00  0.00    -0.474 A  
ENDBRANCH   6   7
ENDBRANCH   5   6
ENDBRANCH   4   5
TORSDOF 3
ENDMDL
MODEL       76
REMARK 921   NORMALIZED FREE ENERGY PREDICTED BY IDOCK:   -3.66 KCAL/MOL
REMARK 922        TOTAL FREE ENERGY PREDICTED BY IDOCK:   -4.63 KCAL/MOL
REMARK 923 INTER-LIGAND FREE ENERGY PREDICTED BY IDOCK:   -4.35 KCAL/MOL
REMARK 924 INTRA-LIGAND FREE ENERGY PREDICTED BY IDOCK:   -0.27 KCAL/MOL
REMARK 927      BINDING AFFINITY PREDICTED BY RF-SCORE:    0.00 PKD
ROOT
HETATM    1  O   UNL     1      -7.867  19.965  65.880  1.00  0.00    -0.348 OA 
HETATM    2  C   UNL     1      -9.067  19.380  66.105  1.00  0.00    -0.284 C  
HETATM    3  O   UNL     1     -10.120  19.930  65.826  1.00  0.00    -0.431 OA 
HETATM    4  C   UNL     1      -8.930  18.007  66.724  1.00  0.00    -0.279 C  
ENDROOT
BRANCH   4   5
HETATM    5  C   UNL     1     -10.294  17.368  66.974  1.00  0.00    -0.318 C  
BRANCH   5   6
HETATM    6  C   UNL     1     -10.168  15.952  67.540  1.00  0.00    -0.269 C  
BRANCH   6   7
HETATM    7  C   UNL     1     -10.754  14.942  66.583  1.00  0.00    -0.312 A  
HETATM    8  C   UNL     1     -10.067  14.590  65.414  1.00  0.00    -0.394 A  
HETATM    9  C   UNL     1     -10.639  13.707  64.496  1.00  0.00    -0.428 A  
HETATM   10  C   UNL     1     -11.903  13.171  64.737  1.00  0.00    -0.413 A  
HETATM   11  C   UNL     1     -12.592  13.512  65.899  1.00  0.00    -0.454 A  
HETATM   12  C   UNL     1     -12.021  14.394  66.818  1.00  0.00    -0.423 A  
ENDBRANCH   6   7
ENDBRANCH   5   6
ENDBRANCH   4   5
TORSDOF 3
ENDMDL
MODEL       77
REMARK 921   NORMALIZED FREE ENERGY PREDICTED BY IDOCK:   -3.66 KCAL/MOL
REMARK 922        TOTAL FREE ENERGY PREDICTED BY IDOCK:   -4.62 KCAL/MOL
REMARK 923 INTER-LIGAND FREE ENERGY PREDICTED BY IDOCK:   -4.29 KCAL/MOL
REMARK 924 INTRA-LIGAND FREE ENERGY PREDICTED BY IDOCK:   -0.33 KCAL/MOL
REMARK 927      BINDING AFFINITY PREDICTED BY RF-SCORE:    0.00 PKD
ROOT
HETATM    1  O   UNL     1     -10.209  13.740  65.181  1.00  0.00    -0.351 OA 
HETATM    2  C   UNL     1     -10.033  13.552  66.510  1.00  0.00    -0.287 C  
HETATM    3  O   UNL     1      -9.216  12.761  66.952  1.00  0.00    -0.217 OA 
HETATM    4  C   UNL     1     -10.951  14.422  67.339  1.00  0.00    -0.303 C  
ENDROOT
BRANCH   4   5
HETATM    5  C   UNL     1     -10.741  14.191  68.834  1.00  0.00    -0.270 C  
BRANCH   5   6
HETATM    6  C   UNL     1     -12.067  14.070  69.587  1.00  0.00    -0.408 C  
BRANCH   6   7
HETATM    7  C   UNL     1     -12.199  12.706  70.221  1.00  0.00    -0.347 A  
HETATM    8  C   UNL     1     -11.624  11.583  69.613  1.00  0.00    -0.403 A  
HETATM    9  C   UNL     1     -11.802  10.313  70.163  1.00  0.00    -0.343 A  
HETATM   10  C   UNL     1     -12.559  10.154  71.323  1.00  0.00    -0.508 A  
HETATM   11  C   UNL     1     -13.131  11.266  71.937  1.00  0.00    -0.510 A  
HETATM   12  C   UNL     1     -12.953  12.537  71.389  1.00  0.00    -0.347 A  
ENDBRANCH   6   7
ENDBRANCH   5   6
ENDBRANCH   4   5
TORSDOF 3
ENDMDL
MODEL       78
REMARK 921   NORMALIZED FREE ENERGY PREDICTED BY IDOCK:   -3.65 KCAL/MOL
REMARK 922        TOTAL FREE ENERGY PREDICTED BY IDOCK:   -4.62 KCAL/MOL
REMARK 923 INTER-LIGAND FREE ENERGY PREDICTED BY IDOCK:   -4.46 KCAL/MOL
REMARK 924 INTRA-LIGAND FREE ENERGY PREDICTED BY IDOCK:   -0.15 KCAL/MOL
REMARK 927      BINDING AFFINITY PREDICTED BY RF-SCORE:    0.00 PKD
ROOT
HETATM    1  O   UNL     1     -11.063   6.459  67.166  1.00  0.00    -0.377 OA 
HETATM    2  C   UNL     1     -10.153   7.371  66.752  1.00  0.00    -0.235 C  
HETATM    3  O   UNL     1      -9.101   7.047  66.226  1.00  0.00    -0.162 OA 
HETATM    4  C   UNL     1     -10.600   8.791  67.019  1.00  0.00    -0.283 C  
ENDROOT
BRANCH   4   5
HETATM    5  C   UNL     1      -9.557   9.804  66.550  1.00  0.00    -0.249 C  
BRANCH   5   6
HETATM    6  C   UNL     1      -9.756  10.192  65.084  1.00  0.00    -0.370 C  
BRANCH   6   7
HETATM    7  C   UNL     1     -10.716  11.351  64.965  1.00  0.00    -0.340 A  
HETATM    8  C   UNL     1     -11.110  11.820  63.705  1.00  0.00    -0.518 A  
HETATM    9  C   UNL     1     -11.944  12.934  63.595  1.00  0.00    -0.613 A  
HETATM   10  C   UNL     1     -12.389  13.590  64.742  1.00  0.00    -0.435 A  
HETATM   11  C   UNL     1     -12.005  13.128  65.999  1.00  0.00    -0.488 A  
HETATM   12  C   UNL     1     -11.172  12.014  66.111  1.00  0.00    -0.394 A  
ENDBRANCH   6   7
ENDBRANCH   5   6
ENDBRANCH   4   5
TORSDOF 3
ENDMDL
MODEL       79
REMARK 921   NORMALIZED FREE ENERGY PREDICTED BY IDOCK:   -3.63 KCAL/MOL
REMARK 922        TOTAL FREE ENERGY PREDICTED BY IDOCK:   -4.60 KCAL/MOL
REMARK 923 INTER-LIGAND FREE ENERGY PREDICTED BY IDOCK:   -4.30 KCAL/MOL
REMARK 924 INTRA-LIGAND FREE ENERGY PREDICTED BY IDOCK:   -0.30 KCAL/MOL
REMARK 927      BINDING AFFINITY PREDICTED BY RF-SCORE:    0.00 PKD
ROOT
HETATM    1  O   UNL     1      -9.900   6.179  74.270  1.00  0.00    -0.197 OA 
HETATM    2  C   UNL     1     -10.405   6.532  73.066  1.00  0.00    -0.218 C  
HETATM    3  O   UNL     1     -10.835   5.709  72.275  1.00  0.00    -0.223 OA 
HETATM    4  C   UNL     1     -10.365   8.028  72.843  1.00  0.00    -0.397 C  
ENDROOT
BRANCH   4   5
HETATM    5  C   UNL     1     -10.933   8.404  71.476  1.00  0.00    -0.326 C  
BRANCH   5   6
HETATM    6  C   UNL     1     -12.337   9.002  71.584  1.00  0.00    -0.416 C  
BRANCH   6   7
HETATM    7  C   UNL     1     -12.356  10.418  71.063  1.00  0.00    -0.490 A  
HETATM    8  C   UNL     1     -11.717  10.739  69.858  1.00  0.00    -0.412 A  
HETATM    9  C   UNL     1     -11.676  12.060  69.410  1.00  0.00    -0.402 A  
HETATM   10  C   UNL     1     -12.271  13.072  70.163  1.00  0.00    -0.342 A  
HETATM   11  C   UNL     1     -12.912  12.762  71.360  1.00  0.00    -0.359 A  
HETATM   12  C   UNL     1     -12.954  11.441  71.809  1.00  0.00    -0.519 A  
ENDBRANCH   6   7
ENDBRANCH   5   6
ENDBRANCH   4   5
TORSDOF 3
ENDMDL
MODEL       80
REMARK 921   NORMALIZED FREE ENERGY PREDICTED BY IDOCK:   -3.63 KCAL/MOL
REMARK 922        TOTAL FREE ENERGY PREDICTED BY IDOCK:   -4.59 KCAL/MOL
REMARK 923 INTER-LIGAND FREE ENERGY PREDICTED BY IDOCK:   -4.22 KCAL/MOL
REMARK 924 INTRA-LIGAND FREE ENERGY PREDICTED BY IDOCK:   -0.37 KCAL/MOL
REMARK 927      BINDING AFFINITY PREDICTED BY RF-SCORE:    0.00 PKD
ROOT
HETATM    1  O   UNL     1     -10.481   5.762  66.667  1.00  0.00    -0.240 OA 
HETATM    2  C   UNL     1     -10.243   5.621  67.991  1.00  0.00    -0.186 C  
HETATM    3  O   UNL     1      -9.318   4.948  68.417  1.00  0.00    -0.118 OA 
HETATM    4  C   UNL     1     -11.240   6.381  68.838  1.00  0.00    -0.385 C  
ENDROOT
BRANCH   4   5
HETATM    5  C   UNL     1     -10.957   6.204  70.329  1.00  0.00    -0.417 C  
BRANCH   5   6
HETATM    6  C   UNL     1     -10.235   7.415  70.923  1.00  0.00    -0.195 C  
BRANCH   6   7
HETATM    7  C   UNL     1     -11.219   8.508  71.263  1.00  0.00    -0.321 A  
HETATM    8  C   UNL     1     -12.262   8.269  72.167  1.00  0.00    -0.418 A  
HETATM    9  C   UNL     1     -13.211   9.258  72.430  1.00  0.00    -0.501 A  
HETATM   10  C   UNL     1     -13.128  10.493  71.790  1.00  0.00    -0.570 A  
HETATM   11  C   UNL     1     -12.092  10.742  70.891  1.00  0.00    -0.475 A  
HETATM   12  C   UNL     1     -11.142   9.754  70.628  1.00  0.00    -0.398 A  
ENDBRANCH   6   7
ENDBRANCH   5   6
ENDBRANCH   4   5
TORSDOF 3
ENDMDL
MODEL       81
REMARK 921   NORMALIZED FREE ENERGY PREDICTED BY IDOCK:   -3.61 KCAL/MOL
REMARK 922        TOTAL FREE ENERGY PREDICTED BY IDOCK:   -4.57 KCAL/MOL
REMARK 923 INTER-LIGAND FREE ENERGY PREDICTED BY IDOCK:   -4.33 KCAL/MOL
REMARK 924 INTRA-LIGAND FREE ENERGY PREDICTED BY IDOCK:   -0.24 KCAL/MOL
REMARK 927      BINDING AFFINITY PREDICTED BY RF-SCORE:    0.00 PKD
ROOT
HETATM    1  O   UNL     1     -11.151   8.439  71.056  1.00  0.00    -0.245 OA 
HETATM    2  C   UNL     1     -10.895   9.017  69.859  1.00  0.00    -0.218 C  
HETATM    3  O   UNL     1     -10.487   8.378  68.904  1.00  0.00    -0.218 OA 
HETATM    4  C   UNL     1     -11.173  10.504  69.869  1.00  0.00    -0.374 C  
ENDROOT
BRANCH   4   5
HETATM    5  C   UNL     1     -10.872  11.137  68.512  1.00  0.00    -0.243 C  
BRANCH   5   6
HETATM    6  C   UNL     1     -11.818  12.298  68.199  1.00  0.00    -0.372 C  
BRANCH   6   7
HETATM    7  C   UNL     1     -11.774  12.640  66.729  1.00  0.00    -0.460 A  
HETATM    8  C   UNL     1     -12.299  13.854  66.267  1.00  0.00    -0.489 A  
HETATM    9  C   UNL     1     -12.319  14.140  64.901  1.00  0.00    -0.446 A  
HETATM   10  C   UNL     1     -11.819  13.215  63.985  1.00  0.00    -0.514 A  
HETATM   11  C   UNL     1     -11.292  12.007  64.436  1.00  0.00    -0.411 A  
HETATM   12  C   UNL     1     -11.270  11.719  65.802  1.00  0.00    -0.337 A  
ENDBRANCH   6   7
ENDBRANCH   5   6
ENDBRANCH   4   5
TORSDOF 3
ENDMDL
MODEL       82
REMARK 921   NORMALIZED FREE ENERGY PREDICTED BY IDOCK:   -3.60 KCAL/MOL
REMARK 922        TOTAL FREE ENERGY PREDICTED BY IDOCK:   -4.56 KCAL/MOL
REMARK 923 INTER-LIGAND FREE ENERGY PREDICTED BY IDOCK:   -4.26 KCAL/MOL
REMARK 924 INTRA-LIGAND FREE ENERGY PREDICTED BY IDOCK:   -0.31 KCAL/MOL
REMARK 927      BINDING AFFINITY PREDICTED BY RF-SCORE:    0.00 PKD
ROOT
HETATM    1  O   UNL     1     -10.788   4.763  65.824  1.00  0.00    -0.295 OA 
HETATM    2  C   UNL     1     -10.304   5.097  67.043  1.00  0.00    -0.217 C  
HETATM    3  O   UNL     1      -9.424   4.454  67.591  1.00  0.00    -0.144 OA 
HETATM    4  C   UNL     1     -10.976   6.328  67.610  1.00  0.00    -0.438 C  
ENDROOT
BRANCH   4   5
HETATM    5  C   UNL     1     -10.419   6.685  68.987  1.00  0.00    -0.243 C  
BRANCH   5   6
HETATM    6  C   UNL     1     -11.350   6.235  70.115  1.00  0.00    -0.476 C  
BRANCH   6   7
HETATM    7  C   UNL     1     -12.022   7.424  70.757  1.00  0.00    -0.261 A  
HETATM    8  C   UNL     1     -11.400   8.679  70.753  1.00  0.00    -0.299 A  
HETATM    9  C   UNL     1     -11.991   9.763  71.405  1.00  0.00    -0.493 A  
HETATM   10  C   UNL     1     -13.206   9.601  72.070  1.00  0.00    -0.546 A  
HETATM   11  C   UNL     1     -13.834   8.358  72.076  1.00  0.00    -0.439 A  
HETATM   12  C   UNL     1     -13.245   7.273  71.423  1.00  0.00    -0.404 A  
ENDBRANCH   6   7
ENDBRANCH   5   6
ENDBRANCH   4   5
TORSDOF 3
ENDMDL
MODEL       83
REMARK 921   NORMALIZED FREE ENERGY PREDICTED BY IDOCK:   -3.58 KCAL/MOL
REMARK 922        TOTAL FREE ENERGY PREDICTED BY IDOCK:   -4.54 KCAL/MOL
REMARK 923 INTER-LIGAND FREE ENERGY PREDICTED BY IDOCK:   -4.32 KCAL/MOL
REMARK 924 INTRA-LIGAND FREE ENERGY PREDICTED BY IDOCK:   -0.22 KCAL/MOL
REMARK 927      BINDING AFFINITY PREDICTED BY RF-SCORE:    0.00 PKD
ROOT
HETATM    1  O   UNL     1     -12.304  15.346  63.983  1.00  0.00    -0.661 OA 
HETATM    2  C   UNL     1     -12.405  14.271  64.800  1.00  0.00    -0.426 C  
HETATM    3  O   UNL     1     -13.454  13.966  65.344  1.00  0.00    -0.672 OA 
HETATM    4  C   UNL     1     -11.093  13.531  64.940  1.00  0.00    -0.356 C  
ENDROOT
BRANCH   4   5
HETATM    5  C   UNL     1     -11.228  12.327  65.870  1.00  0.00    -0.381 C  
BRANCH   5   6
HETATM    6  C   UNL     1      -9.866  11.760  66.275  1.00  0.00    -0.245 C  
BRANCH   6   7
HETATM    7  C   UNL     1     -10.020  10.388  66.886  1.00  0.00    -0.254 A  
HETATM    8  C   UNL     1      -9.966   9.242  66.082  1.00  0.00    -0.348 A  
HETATM    9  C   UNL     1     -10.176   7.979  66.637  1.00  0.00    -0.315 A  
HETATM   10  C   UNL     1     -10.443   7.850  67.999  1.00  0.00    -0.245 A  
HETATM   11  C   UNL     1     -10.494   8.984  68.807  1.00  0.00    -0.230 A  
HETATM   12  C   UNL     1     -10.284  10.248  68.254  1.00  0.00    -0.184 A  
ENDBRANCH   6   7
ENDBRANCH   5   6
ENDBRANCH   4   5
TORSDOF 3
ENDMDL
MODEL       84
REMARK 921   NORMALIZED FREE ENERGY PREDICTED BY IDOCK:   -3.56 KCAL/MOL
REMARK 922        TOTAL FREE ENERGY PREDICTED BY IDOCK:   -4.51 KCAL/MOL
REMARK 923 INTER-LIGAND FREE ENERGY PREDICTED BY IDOCK:   -4.25 KCAL/MOL
REMARK 924 INTRA-LIGAND FREE ENERGY PREDICTED BY IDOCK:   -0.27 KCAL/MOL
REMARK 927      BINDING AFFINITY PREDICTED BY RF-SCORE:    0.00 PKD
ROOT
HETATM    1  O   UNL     1      -8.995   8.415  65.290  1.00  0.00    -0.126 OA 
HETATM    2  C   UNL     1      -9.783   9.391  65.799  1.00  0.00    -0.284 C  
HETATM    3  O   UNL     1     -10.199  10.312  65.117  1.00  0.00    -0.314 OA 
HETATM    4  C   UNL     1     -10.066   9.190  67.272  1.00  0.00    -0.295 C  
ENDROOT
BRANCH   4   5
HETATM    5  C   UNL     1     -10.951  10.304  67.827  1.00  0.00    -0.360 C  
BRANCH   5   6
HETATM    6  C   UNL     1     -10.466  10.793  69.193  1.00  0.00    -0.243 C  
BRANCH   6   7
HETATM    7  C   UNL     1     -11.369  10.289  70.292  1.00  0.00    -0.398 A  
HETATM    8  C   UNL     1     -12.356  11.120  70.838  1.00  0.00    -0.500 A  
HETATM    9  C   UNL     1     -13.146  10.676  71.899  1.00  0.00    -0.563 A  
HETATM   10  C   UNL     1     -12.955   9.400  72.426  1.00  0.00    -0.427 A  
HETATM   11  C   UNL     1     -11.980   8.564  71.887  1.00  0.00    -0.409 A  
HETATM   12  C   UNL     1     -11.189   9.006  70.825  1.00  0.00    -0.329 A  
ENDBRANCH   6   7
ENDBRANCH   5   6
ENDBRANCH   4   5
TORSDOF 3
ENDMDL
MODEL       85
REMARK 921   NORMALIZED FREE ENERGY PREDICTED BY IDOCK:   -3.56 KCAL/MOL
REMARK 922        TOTAL FREE ENERGY PREDICTED BY IDOCK:   -4.50 KCAL/MOL
REMARK 923 INTER-LIGAND FREE ENERGY PREDICTED BY IDOCK:   -4.21 KCAL/MOL
REMARK 924 INTRA-LIGAND FREE ENERGY PREDICTED BY IDOCK:   -0.30 KCAL/MOL
REMARK 927      BINDING AFFINITY PREDICTED BY RF-SCORE:    0.00 PKD
ROOT
HETATM    1  O   UNL     1      -7.081  18.691  68.745  1.00  0.00    -0.285 OA 
HETATM    2  C   UNL     1      -8.401  18.491  68.519  1.00  0.00    -0.334 C  
HETATM    3  O   UNL     1      -9.228  19.374  68.678  1.00  0.00    -0.360 OA 
HETATM    4  C   UNL     1      -8.697  17.080  68.062  1.00  0.00    -0.218 C  
ENDROOT
BRANCH   4   5
HETATM    5  C   UNL     1     -10.192  16.874  67.819  1.00  0.00    -0.308 C  
BRANCH   5   6
HETATM    6  C   UNL     1     -10.497  16.570  66.352  1.00  0.00    -0.275 C  
BRANCH   6   7
HETATM    7  C   UNL     1     -10.845  15.112  66.170  1.00  0.00    -0.330 A  
HETATM    8  C   UNL     1     -10.471  14.433  65.004  1.00  0.00    -0.454 A  
HETATM    9  C   UNL     1     -10.852  13.105  64.807  1.00  0.00    -0.368 A  
HETATM   10  C   UNL     1     -11.610  12.444  65.773  1.00  0.00    -0.449 A  
HETATM   11  C   UNL     1     -11.983  13.111  66.938  1.00  0.00    -0.421 A  
HETATM   12  C   UNL     1     -11.603  14.439  67.137  1.00  0.00    -0.406 A  
ENDBRANCH   6   7
ENDBRANCH   5   6
ENDBRANCH   4   5
TORSDOF 3
ENDMDL
MODEL       86
REMARK 921   NORMALIZED FREE ENERGY PREDICTED BY IDOCK:   -3.55 KCAL/MOL
REMARK 922        TOTAL FREE ENERGY PREDICTED BY IDOCK:   -4.50 KCAL/MOL
REMARK 923 INTER-LIGAND FREE ENERGY PREDICTED BY IDOCK:   -4.23 KCAL/MOL
REMARK 924 INTRA-LIGAND FREE ENERGY PREDICTED BY IDOCK:   -0.27 KCAL/MOL
REMARK 927      BINDING AFFINITY PREDICTED BY RF-SCORE:    0.00 PKD
ROOT
HETATM    1  O   UNL     1     -10.998   6.143  68.224  1.00  0.00    -0.307 OA 
HETATM    2  C   UNL     1     -10.370   7.337  68.106  1.00  0.00    -0.194 C  
HETATM    3  O   UNL     1      -9.668   7.792  68.993  1.00  0.00    -0.154 OA 
HETATM    4  C   UNL     1     -10.649   8.002  66.776  1.00  0.00    -0.225 C  
ENDROOT
BRANCH   4   5
HETATM    5  C   UNL     1      -9.937   9.349  66.665  1.00  0.00    -0.326 C  
BRANCH   5   6
HETATM    6  C   UNL     1      -9.806   9.811  65.212  1.00  0.00    -0.335 C  
BRANCH   6   7
HETATM    7  C   UNL     1     -10.634  11.049  64.970  1.00  0.00    -0.315 A  
HETATM    8  C   UNL     1     -11.216  11.736  66.044  1.00  0.00    -0.352 A  
HETATM    9  C   UNL     1     -12.036  12.841  65.815  1.00  0.00    -0.505 A  
HETATM   10  C   UNL     1     -12.285  13.269  64.511  1.00  0.00    -0.456 A  
HETATM   11  C   UNL     1     -11.707  12.595  63.437  1.00  0.00    -0.571 A  
HETATM   12  C   UNL     1     -10.886  11.490  63.664  1.00  0.00    -0.488 A  
ENDBRANCH   6   7
ENDBRANCH   5   6
ENDBRANCH   4   5
TORSDOF 3
ENDMDL
MODEL       87
REMARK 921   NORMALIZED FREE ENERGY PREDICTED BY IDOCK:   -3.55 KCAL/MOL
REMARK 922        TOTAL FREE ENERGY PREDICTED BY IDOCK:   -4.50 KCAL/MOL
REMARK 923 INTER-LIGAND FREE ENERGY PREDICTED BY IDOCK:   -4.26 KCAL/MOL
REMARK 924 INTRA-LIGAND FREE ENERGY PREDICTED BY IDOCK:   -0.24 KCAL/MOL
REMARK 927      BINDING AFFINITY PREDICTED BY RF-SCORE:    0.00 PKD
ROOT
HETATM    1  O   UNL     1     -12.716  14.802  63.751  1.00  0.00    -0.767 OA 
HETATM    2  C   UNL     1     -12.359  13.810  64.599  1.00  0.00    -0.372 C  
HETATM    3  O   UNL     1     -13.141  12.942  64.951  1.00  0.00    -0.799 OA 
HETATM    4  C   UNL     1     -10.913  13.919  65.033  1.00  0.00    -0.371 C  
ENDROOT
BRANCH   4   5
HETATM    5  C   UNL     1     -10.532  12.794  65.994  1.00  0.00    -0.291 C  
BRANCH   5   6
HETATM    6  C   UNL     1      -9.175  13.041  66.656  1.00  0.00    -0.222 C  
BRANCH   6   7
HETATM    7  C   UNL     1      -9.141  14.400  67.311  1.00  0.00    -0.221 A  
HETATM    8  C   UNL     1      -8.368  15.432  66.765  1.00  0.00    -0.285 A  
HETATM    9  C   UNL     1      -8.283  16.668  67.409  1.00  0.00    -0.189 A  
HETATM   10  C   UNL     1      -8.968  16.882  68.604  1.00  0.00    -0.266 A  
HETATM   11  C   UNL     1      -9.744  15.862  69.152  1.00  0.00    -0.249 A  
HETATM   12  C   UNL     1      -9.830  14.626  68.510  1.00  0.00    -0.228 A  
ENDBRANCH   6   7
ENDBRANCH   5   6
ENDBRANCH   4   5
TORSDOF 3
ENDMDL
MODEL       88
REMARK 921   NORMALIZED FREE ENERGY PREDICTED BY IDOCK:   -3.55 KCAL/MOL
REMARK 922        TOTAL FREE ENERGY PREDICTED BY IDOCK:   -4.49 KCAL/MOL
REMARK 923 INTER-LIGAND FREE ENERGY PREDICTED BY IDOCK:   -4.25 KCAL/MOL
REMARK 924 INTRA-LIGAND FREE ENERGY PREDICTED BY IDOCK:   -0.25 KCAL/MOL
REMARK 927      BINDING AFFINITY PREDICTED BY RF-SCORE:    0.00 PKD
ROOT
HETATM    1  O   UNL     1      -8.527  10.547  64.942  1.00  0.00    -0.176 OA 
HETATM    2  C   UNL     1      -9.025  11.138  66.052  1.00  0.00    -0.200 C  
HETATM    3  O   UNL     1      -8.307  11.660  66.889  1.00  0.00    -0.159 OA 
HETATM    4  C   UNL     1     -10.536  11.067  66.112  1.00  0.00    -0.301 C  
ENDROOT
BRANCH   4   5
HETATM    5  C   UNL     1     -11.077  11.735  67.374  1.00  0.00    -0.338 C  
BRANCH   5   6
HETATM    6  C   UNL     1     -11.211  10.745  68.534  1.00  0.00    -0.340 C  
BRANCH   6   7
HETATM    7  C   UNL     1     -11.865  11.404  69.724  1.00  0.00    -0.435 A  
HETATM    8  C   UNL     1     -12.495  10.630  70.706  1.00  0.00    -0.480 A  
HETATM    9  C   UNL     1     -13.158  11.242  71.771  1.00  0.00    -0.527 A  
HETATM   10  C   UNL     1     -13.200  12.632  71.862  1.00  0.00    -0.504 A  
HETATM   11  C   UNL     1     -12.572  13.411  70.891  1.00  0.00    -0.406 A  
HETATM   12  C   UNL     1     -11.908  12.800  69.826  1.00  0.00    -0.380 A  
ENDBRANCH   6   7
ENDBRANCH   5   6
ENDBRANCH   4   5
TORSDOF 3
ENDMDL
MODEL       89
REMARK 921   NORMALIZED FREE ENERGY PREDICTED BY IDOCK:   -3.54 KCAL/MOL
REMARK 922        TOTAL FREE ENERGY PREDICTED BY IDOCK:   -4.49 KCAL/MOL
REMARK 923 INTER-LIGAND FREE ENERGY PREDICTED BY IDOCK:   -4.20 KCAL/MOL
REMARK 924 INTRA-LIGAND FREE ENERGY PREDICTED BY IDOCK:   -0.29 KCAL/MOL
REMARK 927      BINDING AFFINITY PREDICTED BY RF-SCORE:    0.00 PKD
ROOT
HETATM    1  O   UNL     1     -13.176  10.989  71.821  1.00  0.00    -0.446 OA 
HETATM    2  C   UNL     1     -13.354   9.657  71.981  1.00  0.00    -0.457 C  
HETATM    3  O   UNL     1     -14.298   9.198  72.604  1.00  0.00    -0.561 OA 
HETATM    4  C   UNL     1     -12.267   8.848  71.309  1.00  0.00    -0.351 C  
ENDROOT
BRANCH   4   5
HETATM    5  C   UNL     1     -12.484   7.349  71.506  1.00  0.00    -0.394 C  
BRANCH   5   6
HETATM    6  C   UNL     1     -11.387   6.720  72.368  1.00  0.00    -0.306 C  
BRANCH   6   7
HETATM    7  C   UNL     1     -10.690   5.612  71.617  1.00  0.00    -0.313 A  
HETATM    8  C   UNL     1     -10.497   5.703  70.233  1.00  0.00    -0.363 A  
HETATM    9  C   UNL     1      -9.913   4.649  69.530  1.00  0.00    -0.266 A  
HETATM   10  C   UNL     1      -9.518   3.493  70.202  1.00  0.00    -0.252 A  
HETATM   11  C   UNL     1      -9.702   3.395  71.580  1.00  0.00    -0.234 A  
HETATM   12  C   UNL     1     -10.285   4.448  72.285  1.00  0.00    -0.255 A  
ENDBRANCH   6   7
ENDBRANCH   5   6
ENDBRANCH   4   5
TORSDOF 3
ENDMDL
MODEL       90
REMARK 921   NORMALIZED FREE ENERGY PREDICTED BY IDOCK:   -3.50 KCAL/MOL
REMARK 922        TOTAL FREE ENERGY PREDICTED BY IDOCK:   -4.44 KCAL/MOL
REMARK 923 INTER-LIGAND FREE ENERGY PREDICTED BY IDOCK:   -4.11 KCAL/MOL
REMARK 924 INTRA-LIGAND FREE ENERGY PREDICTED BY IDOCK:   -0.34 KCAL/MOL
REMARK 927      BINDING AFFINITY PREDICTED BY RF-SCORE:    0.00 PKD
ROOT
HETATM    1  O   UNL     1      -9.579   4.223  69.058  1.00  0.00    -0.165 OA 
HETATM    2  C   UNL     1      -9.888   4.376  70.367  1.00  0.00    -0.216 C  
HETATM    3  O   UNL     1      -9.728   3.482  71.181  1.00  0.00    -0.173 OA 
HETATM    4  C   UNL     1     -10.436   5.753  70.670  1.00  0.00    -0.331 C  
ENDROOT
BRANCH   4   5
HETATM    5  C   UNL     1     -10.783   5.903  72.150  1.00  0.00    -0.278 C  
BRANCH   5   6
HETATM    6  C   UNL     1     -10.417   7.288  72.687  1.00  0.00    -0.285 C  
BRANCH   6   7
HETATM    7  C   UNL     1     -11.312   8.345  72.088  1.00  0.00    -0.437 A  
HETATM    8  C   UNL     1     -10.771   9.375  71.308  1.00  0.00    -0.421 A  
HETATM    9  C   UNL     1     -11.590  10.390  70.811  1.00  0.00    -0.450 A  
HETATM   10  C   UNL     1     -12.956  10.386  71.091  1.00  0.00    -0.506 A  
HETATM   11  C   UNL     1     -13.504   9.363  71.862  1.00  0.00    -0.500 A  
HETATM   12  C   UNL     1     -12.687   8.347  72.360  1.00  0.00    -0.346 A  
ENDBRANCH   6   7
ENDBRANCH   5   6
ENDBRANCH   4   5
TORSDOF 3
ENDMDL
MODEL       91
REMARK 921   NORMALIZED FREE ENERGY PREDICTED BY IDOCK:   -3.50 KCAL/MOL
REMARK 922        TOTAL FREE ENERGY PREDICTED BY IDOCK:   -4.44 KCAL/MOL
REMARK 923 INTER-LIGAND FREE ENERGY PREDICTED BY IDOCK:   -4.20 KCAL/MOL
REMARK 924 INTRA-LIGAND FREE ENERGY PREDICTED BY IDOCK:   -0.24 KCAL/MOL
REMARK 927      BINDING AFFINITY PREDICTED BY RF-SCORE:    0.00 PKD
ROOT
HETATM    1  O   UNL     1     -12.623  14.349  63.431  1.00  0.00    -0.729 OA 
HETATM    2  C   UNL     1     -12.390  13.089  63.866  1.00  0.00    -0.375 C  
HETATM    3  O   UNL     1     -13.249  12.424  64.421  1.00  0.00    -0.816 OA 
HETATM    4  C   UNL     1     -10.974  12.637  63.583  1.00  0.00    -0.464 C  
ENDROOT
BRANCH   4   5
HETATM    5  C   UNL     1     -10.731  11.215  64.087  1.00  0.00    -0.415 C  
BRANCH   5   6
HETATM    6  C   UNL     1      -9.945  11.199  65.400  1.00  0.00    -0.309 C  
BRANCH   6   7
HETATM    7  C   UNL     1      -9.167   9.914  65.539  1.00  0.00    -0.255 A  
HETATM    8  C   UNL     1      -9.753   8.790  66.134  1.00  0.00    -0.320 A  
HETATM    9  C   UNL     1      -9.011   7.623  66.324  1.00  0.00    -0.203 A  
HETATM   10  C   UNL     1      -7.676   7.570  65.924  1.00  0.00    -0.099 A  
HETATM   11  C   UNL     1      -7.086   8.683  65.327  1.00  0.00    -0.082 A  
HETATM   12  C   UNL     1      -7.826   9.850  65.136  1.00  0.00    -0.133 A  
ENDBRANCH   6   7
ENDBRANCH   5   6
ENDBRANCH   4   5
TORSDOF 3
ENDMDL
MODEL       92
REMARK 921   NORMALIZED FREE ENERGY PREDICTED BY IDOCK:   -3.49 KCAL/MOL
REMARK 922        TOTAL FREE ENERGY PREDICTED BY IDOCK:   -4.43 KCAL/MOL
REMARK 923 INTER-LIGAND FREE ENERGY PREDICTED BY IDOCK:   -4.16 KCAL/MOL
REMARK 924 INTRA-LIGAND FREE ENERGY PREDICTED BY IDOCK:   -0.27 KCAL/MOL
REMARK 927      BINDING AFFINITY PREDICTED BY RF-SCORE:    0.00 PKD
ROOT
HETATM    1  O   UNL     1      -8.885   5.858  66.870  1.00  0.00    -0.114 OA 
HETATM    2  C   UNL     1     -10.056   6.120  67.498  1.00  0.00    -0.158 C  
HETATM    3  O   UNL     1     -11.098   6.286  66.886  1.00  0.00    -0.361 OA 
HETATM    4  C   UNL     1      -9.900   6.176  69.001  1.00  0.00    -0.170 C  
ENDROOT
BRANCH   4   5
HETATM    5  C   UNL     1     -11.231   6.478  69.689  1.00  0.00    -0.446 C  
BRANCH   5   6
HETATM    6  C   UNL     1     -11.033   7.001  71.114  1.00  0.00    -0.275 C  
BRANCH   6   7
HETATM    7  C   UNL     1     -11.692   8.348  71.283  1.00  0.00    -0.325 A  
HETATM    8  C   UNL     1     -12.877   8.472  72.020  1.00  0.00    -0.414 A  
HETATM    9  C   UNL     1     -13.522   9.706  72.120  1.00  0.00    -0.516 A  
HETATM   10  C   UNL     1     -12.991  10.826  71.482  1.00  0.00    -0.562 A  
HETATM   11  C   UNL     1     -11.811  10.713  70.750  1.00  0.00    -0.459 A  
HETATM   12  C   UNL     1     -11.164   9.481  70.649  1.00  0.00    -0.364 A  
ENDBRANCH   6   7
ENDBRANCH   5   6
ENDBRANCH   4   5
TORSDOF 3
ENDMDL
MODEL       93
REMARK 921   NORMALIZED FREE ENERGY PREDICTED BY IDOCK:   -3.49 KCAL/MOL
REMARK 922        TOTAL FREE ENERGY PREDICTED BY IDOCK:   -4.42 KCAL/MOL
REMARK 923 INTER-LIGAND FREE ENERGY PREDICTED BY IDOCK:   -4.10 KCAL/MOL
REMARK 924 INTRA-LIGAND FREE ENERGY PREDICTED BY IDOCK:   -0.33 KCAL/MOL
REMARK 927      BINDING AFFINITY PREDICTED BY RF-SCORE:    0.00 PKD
ROOT
HETATM    1  O   UNL     1     -11.582  15.690  68.115  1.00  0.00    -0.353 OA 
HETATM    2  C   UNL     1     -10.442  16.400  67.955  1.00  0.00    -0.307 C  
HETATM    3  O   UNL     1      -9.578  16.445  68.815  1.00  0.00    -0.229 OA 
HETATM    4  C   UNL     1     -10.387  17.104  66.616  1.00  0.00    -0.310 C  
ENDROOT
BRANCH   4   5
HETATM    5  C   UNL     1      -9.095  17.904  66.458  1.00  0.00    -0.276 C  
BRANCH   5   6
HETATM    6  C   UNL     1      -9.281  19.374  66.838  1.00  0.00    -0.379 C  
BRANCH   6   7
HETATM    7  C   UNL     1      -8.098  19.874  67.629  1.00  0.00    -0.339 A  
HETATM    8  C   UNL     1      -7.245  20.847  67.092  1.00  0.00    -0.395 A  
HETATM    9  C   UNL     1      -6.113  21.261  67.795  1.00  0.00    -0.402 A  
HETATM   10  C   UNL     1      -5.821  20.704  69.040  1.00  0.00    -0.390 A  
HETATM   11  C   UNL     1      -6.665  19.738  69.584  1.00  0.00    -0.351 A  
HETATM   12  C   UNL     1      -7.799  19.324  68.882  1.00  0.00    -0.367 A  
ENDBRANCH   6   7
ENDBRANCH   5   6
ENDBRANCH   4   5
TORSDOF 3
ENDMDL
MODEL       94
REMARK 921   NORMALIZED FREE ENERGY PREDICTED BY IDOCK:   -3.49 KCAL/MOL
REMARK 922        TOTAL FREE ENERGY PREDICTED BY IDOCK:   -4.42 KCAL/MOL
REMARK 923 INTER-LIGAND FREE ENERGY PREDICTED BY IDOCK:   -4.19 KCAL/MOL
REMARK 924 INTRA-LIGAND FREE ENERGY PREDICTED BY IDOCK:   -0.24 KCAL/MOL
REMARK 927      BINDING AFFINITY PREDICTED BY RF-SCORE:    0.00 PKD
ROOT
HETATM    1  O   UNL     1     -11.625   7.468  72.749  1.00  0.00    -0.314 OA 
HETATM    2  C   UNL     1     -11.050   8.505  72.097  1.00  0.00    -0.366 C  
HETATM    3  O   UNL     1      -9.849   8.717  72.143  1.00  0.00    -0.297 OA 
HETATM    4  C   UNL     1     -12.060   9.335  71.334  1.00  0.00    -0.424 C  
ENDROOT
BRANCH   4   5
HETATM    5  C   UNL     1     -11.391  10.502  70.611  1.00  0.00    -0.363 C  
BRANCH   5   6
HETATM    6  C   UNL     1     -12.186  10.945  69.381  1.00  0.00    -0.293 C  
BRANCH   6   7
HETATM    7  C   UNL     1     -11.927  12.400  69.074  1.00  0.00    -0.291 A  
HETATM    8  C   UNL     1     -11.790  13.331  70.111  1.00  0.00    -0.333 A  
HETATM    9  C   UNL     1     -11.617  14.686  69.826  1.00  0.00    -0.341 A  
HETATM   10  C   UNL     1     -11.583  15.123  68.503  1.00  0.00    -0.354 A  
HETATM   11  C   UNL     1     -11.715  14.204  67.464  1.00  0.00    -0.418 A  
HETATM   12  C   UNL     1     -11.886  12.848  67.747  1.00  0.00    -0.391 A  
ENDBRANCH   6   7
ENDBRANCH   5   6
ENDBRANCH   4   5
TORSDOF 3
ENDMDL
MODEL       95
REMARK 921   NORMALIZED FREE ENERGY PREDICTED BY IDOCK:   -3.48 KCAL/MOL
REMARK 922        TOTAL FREE ENERGY PREDICTED BY IDOCK:   -4.42 KCAL/MOL
REMARK 923 INTER-LIGAND FREE ENERGY PREDICTED BY IDOCK:   -4.13 KCAL/MOL
REMARK 924 INTRA-LIGAND FREE ENERGY PREDICTED BY IDOCK:   -0.29 KCAL/MOL
REMARK 927      BINDING AFFINITY PREDICTED BY RF-SCORE:    0.00 PKD
ROOT
HETATM    1  O   UNL     1      -7.286   8.994  74.280  1.00  0.00    -0.410 OA 
HETATM    2  C   UNL     1      -8.109   8.028  73.811  1.00  0.00    -0.224 C  
HETATM    3  O   UNL     1      -8.368   7.026  74.456  1.00  0.00    -0.154 OA 
HETATM    4  C   UNL     1      -8.642   8.348  72.432  1.00  0.00    -0.261 C  
ENDROOT
BRANCH   4   5
HETATM    5  C   UNL     1      -9.564   7.243  71.919  1.00  0.00    -0.164 C  
BRANCH   5   6
HETATM    6  C   UNL     1     -10.373   7.691  70.700  1.00  0.00    -0.205 C  
BRANCH   6   7
HETATM    7  C   UNL     1     -11.780   8.060  71.101  1.00  0.00    -0.307 A  
HETATM    8  C   UNL     1     -12.092   9.375  71.468  1.00  0.00    -0.456 A  
HETATM    9  C   UNL     1     -13.377   9.702  71.903  1.00  0.00    -0.526 A  
HETATM   10  C   UNL     1     -14.361   8.716  71.978  1.00  0.00    -0.512 A  
HETATM   11  C   UNL     1     -14.061   7.406  71.611  1.00  0.00    -0.552 A  
HETATM   12  C   UNL     1     -12.776   7.078  71.175  1.00  0.00    -0.361 A  
ENDBRANCH   6   7
ENDBRANCH   5   6
ENDBRANCH   4   5
TORSDOF 3
ENDMDL
MODEL       96
REMARK 921   NORMALIZED FREE ENERGY PREDICTED BY IDOCK:   -3.47 KCAL/MOL
REMARK 922        TOTAL FREE ENERGY PREDICTED BY IDOCK:   -4.40 KCAL/MOL
REMARK 923 INTER-LIGAND FREE ENERGY PREDICTED BY IDOCK:   -4.01 KCAL/MOL
REMARK 924 INTRA-LIGAND FREE ENERGY PREDICTED BY IDOCK:   -0.39 KCAL/MOL
REMARK 927      BINDING AFFINITY PREDICTED BY RF-SCORE:    0.00 PKD
ROOT
HETATM    1  O   UNL     1      -5.897  18.518  66.827  1.00  0.00    -0.148 OA 
HETATM    2  C   UNL     1      -6.984  18.998  67.474  1.00  0.00    -0.208 C  
HETATM    3  O   UNL     1      -7.162  18.819  68.667  1.00  0.00    -0.283 OA 
HETATM    4  C   UNL     1      -7.912  19.758  66.551  1.00  0.00    -0.339 C  
ENDROOT
BRANCH   4   5
HETATM    5  C   UNL     1      -9.134  20.287  67.300  1.00  0.00    -0.504 C  
BRANCH   5   6
HETATM    6  C   UNL     1     -10.438  19.698  66.757  1.00  0.00    -0.605 C  
BRANCH   6   7
HETATM    7  C   UNL     1     -10.425  18.192  66.859  1.00  0.00    -0.372 A  
HETATM    8  C   UNL     1     -10.520  17.401  65.707  1.00  0.00    -0.221 A  
HETATM    9  C   UNL     1     -10.576  16.010  65.808  1.00  0.00    -0.366 A  
HETATM   10  C   UNL     1     -10.542  15.398  67.060  1.00  0.00    -0.309 A  
HETATM   11  C   UNL     1     -10.444  16.176  68.211  1.00  0.00    -0.276 A  
HETATM   12  C   UNL     1     -10.387  17.567  68.113  1.00  0.00    -0.375 A  
ENDBRANCH   6   7
ENDBRANCH   5   6
ENDBRANCH   4   5
TORSDOF 3
ENDMDL
MODEL       97
REMARK 921   NORMALIZED FREE ENERGY PREDICTED BY IDOCK:   -3.46 KCAL/MOL
REMARK 922        TOTAL FREE ENERGY PREDICTED BY IDOCK:   -4.39 KCAL/MOL
REMARK 923 INTER-LIGAND FREE ENERGY PREDICTED BY IDOCK:   -3.95 KCAL/MOL
REMARK 924 INTRA-LIGAND FREE ENERGY PREDICTED BY IDOCK:   -0.45 KCAL/MOL
REMARK 927      BINDING AFFINITY PREDICTED BY RF-SCORE:    0.00 PKD
ROOT
HETATM    1  O   UNL     1      -9.452  10.235  68.041  1.00  0.00    -0.144 OA 
HETATM    2  C   UNL     1     -10.604  10.940  67.967  1.00  0.00    -0.202 C  
HETATM    3  O   UNL     1     -11.452  10.713  67.119  1.00  0.00    -0.359 OA 
HETATM    4  C   UNL     1     -10.693  12.008  69.035  1.00  0.00    -0.178 C  
ENDROOT
BRANCH   4   5
HETATM    5  C   UNL     1     -11.998  12.797  68.929  1.00  0.00    -0.286 C  
BRANCH   5   6
HETATM    6  C   UNL     1     -11.748  14.297  68.762  1.00  0.00    -0.378 C  
BRANCH   6   7
HETATM    7  C   UNL     1     -11.567  14.648  67.306  1.00  0.00    -0.404 A  
HETATM    8  C   UNL     1     -12.376  14.058  66.327  1.00  0.00    -0.482 A  
HETATM    9  C   UNL     1     -12.164  14.332  64.975  1.00  0.00    -0.438 A  
HETATM   10  C   UNL     1     -11.140  15.196  64.589  1.00  0.00    -0.338 A  
HETATM   11  C   UNL     1     -10.332  15.791  65.556  1.00  0.00    -0.430 A  
HETATM   12  C   UNL     1     -10.544  15.519  66.909  1.00  0.00    -0.307 A  
ENDBRANCH   6   7
ENDBRANCH   5   6
ENDBRANCH   4   5
TORSDOF 3
ENDMDL
MODEL       98
REMARK 921   NORMALIZED FREE ENERGY PREDICTED BY IDOCK:   -3.45 KCAL/MOL
REMARK 922        TOTAL FREE ENERGY PREDICTED BY IDOCK:   -4.38 KCAL/MOL
REMARK 923 INTER-LIGAND FREE ENERGY PREDICTED BY IDOCK:   -4.07 KCAL/MOL
REMARK 924 INTRA-LIGAND FREE ENERGY PREDICTED BY IDOCK:   -0.32 KCAL/MOL
REMARK 927      BINDING AFFINITY PREDICTED BY RF-SCORE:    0.00 PKD
ROOT
HETATM    1  O   UNL     1      -9.131   6.245  67.054  1.00  0.00    -0.119 OA 
HETATM    2  C   UNL     1      -9.342   7.471  67.586  1.00  0.00    -0.137 C  
HETATM    3  O   UNL     1      -8.711   7.880  68.547  1.00  0.00    -0.131 OA 
HETATM    4  C   UNL     1     -10.424   8.236  66.855  1.00  0.00    -0.365 C  
ENDROOT
BRANCH   4   5
HETATM    5  C   UNL     1     -10.650   9.614  67.474  1.00  0.00    -0.339 C  
BRANCH   5   6
HETATM    6  C   UNL     1      -9.848  10.702  66.758  1.00  0.00    -0.240 C  
BRANCH   6   7
HETATM    7  C   UNL     1     -10.697  11.392  65.718  1.00  0.00    -0.309 A  
HETATM    8  C   UNL     1     -10.476  11.159  64.354  1.00  0.00    -0.418 A  
HETATM    9  C   UNL     1     -11.216  11.848  63.391  1.00  0.00    -0.463 A  
HETATM   10  C   UNL     1     -12.180  12.776  63.782  1.00  0.00    -0.572 A  
HETATM   11  C   UNL     1     -12.409  13.010  65.136  1.00  0.00    -0.536 A  
HETATM   12  C   UNL     1     -11.671  12.322  66.101  1.00  0.00    -0.440 A  
ENDBRANCH   6   7
ENDBRANCH   5   6
ENDBRANCH   4   5
TORSDOF 3
ENDMDL
MODEL       99
REMARK 921   NORMALIZED FREE ENERGY PREDICTED BY IDOCK:   -3.44 KCAL/MOL
REMARK 922        TOTAL FREE ENERGY PREDICTED BY IDOCK:   -4.37 KCAL/MOL
REMARK 923 INTER-LIGAND FREE ENERGY PREDICTED BY IDOCK:   -4.00 KCAL/MOL
REMARK 924 INTRA-LIGAND FREE ENERGY PREDICTED BY IDOCK:   -0.37 KCAL/MOL
REMARK 927      BINDING AFFINITY PREDICTED BY RF-SCORE:    0.00 PKD
ROOT
HETATM    1  O   UNL     1      -7.466  15.519  69.656  1.00  0.00    -0.210 OA 
HETATM    2  C   UNL     1      -7.915  16.262  68.618  1.00  0.00    -0.215 C  
HETATM    3  O   UNL     1      -8.027  17.475  68.687  1.00  0.00    -0.266 OA 
HETATM    4  C   UNL     1      -8.247  15.416  67.409  1.00  0.00    -0.205 C  
ENDROOT
BRANCH   4   5
HETATM    5  C   UNL     1      -8.758  16.272  66.251  1.00  0.00    -0.370 C  
BRANCH   5   6
HETATM    6  C   UNL     1     -10.283  16.394  66.258  1.00  0.00    -0.341 C  
BRANCH   6   7
HETATM    7  C   UNL     1     -10.926  15.059  65.972  1.00  0.00    -0.334 A  
HETATM    8  C   UNL     1     -11.735  14.440  66.933  1.00  0.00    -0.422 A  
HETATM    9  C   UNL     1     -12.274  13.175  66.694  1.00  0.00    -0.331 A  
HETATM   10  C   UNL     1     -12.008  12.517  65.494  1.00  0.00    -0.500 A  
HETATM   11  C   UNL     1     -11.208  13.128  64.530  1.00  0.00    -0.383 A  
HETATM   12  C   UNL     1     -10.669  14.393  64.767  1.00  0.00    -0.423 A  
ENDBRANCH   6   7
ENDBRANCH   5   6
ENDBRANCH   4   5
TORSDOF 3
ENDMDL
MODEL      100
REMARK 921   NORMALIZED FREE ENERGY PREDICTED BY IDOCK:   -3.44 KCAL/MOL
REMARK 922        TOTAL FREE ENERGY PREDICTED BY IDOCK:   -4.37 KCAL/MOL
REMARK 923 INTER-LIGAND FREE ENERGY PREDICTED BY IDOCK:   -4.12 KCAL/MOL
REMARK 924 INTRA-LIGAND FREE ENERGY PREDICTED BY IDOCK:   -0.25 KCAL/MOL
REMARK 927      BINDING AFFINITY PREDICTED BY RF-SCORE:    0.00 PKD
ROOT
HETATM    1  O   UNL     1     -13.639  13.498  72.949  1.00  0.00    -0.639 OA 
HETATM    2  C   UNL     1     -13.226  13.015  71.754  1.00  0.00    -0.392 C  
HETATM    3  O   UNL     1     -12.908  13.748  70.832  1.00  0.00    -0.315 OA 
HETATM    4  C   UNL     1     -13.212  11.503  71.720  1.00  0.00    -0.456 C  
ENDROOT
BRANCH   4   5
HETATM    5  C   UNL     1     -12.749  10.979  70.363  1.00  0.00    -0.297 C  
BRANCH   5   6
HETATM    6  C   UNL     1     -11.292  10.511  70.396  1.00  0.00    -0.411 C  
BRANCH   6   7
HETATM    7  C   UNL     1     -10.835  10.094  69.019  1.00  0.00    -0.257 A  
HETATM    8  C   UNL     1     -10.109   8.909  68.841  1.00  0.00    -0.209 A  
HETATM    9  C   UNL     1      -9.629   8.559  67.578  1.00  0.00    -0.194 A  
HETATM   10  C   UNL     1      -9.866   9.390  66.484  1.00  0.00    -0.325 A  
HETATM   11  C   UNL     1     -10.590  10.568  66.651  1.00  0.00    -0.263 A  
HETATM   12  C   UNL     1     -11.072  10.920  67.913  1.00  0.00    -0.362 A  
ENDBRANCH   6   7
ENDBRANCH   5   6
ENDBRANCH   4   5
TORSDOF 3
ENDMDL
MODEL      101
REMARK 921   NORMALIZED FREE ENERGY PREDICTED BY IDOCK:   -3.44 KCAL/MOL
REMARK 922        TOTAL FREE ENERGY PREDICTED BY IDOCK:   -4.37 KCAL/MOL
REMARK 923 INTER-LIGAND FREE ENERGY PREDICTED BY IDOCK:   -4.24 KCAL/MOL
REMARK 924 INTRA-LIGAND FREE ENERGY PREDICTED BY IDOCK:   -0.12 KCAL/MOL
REMARK 927      BINDING AFFINITY PREDICTED BY RF-SCORE:    0.00 PKD
ROOT
HETATM    1  O   UNL     1      -8.803   9.863  66.161  1.00  0.00    -0.139 OA 
HETATM    2  C   UNL     1      -9.371  10.295  65.011  1.00  0.00    -0.237 C  
HETATM    3  O   UNL     1      -9.066   9.835  63.923  1.00  0.00    -0.240 OA 
HETATM    4  C   UNL     1     -10.394  11.383  65.250  1.00  0.00    -0.336 C  
ENDROOT
BRANCH   4   5
HETATM    5  C   UNL     1     -11.018  11.861  63.939  1.00  0.00    -0.473 C  
BRANCH   5   6
HETATM    6  C   UNL     1     -12.138  12.876  64.175  1.00  0.00    -0.503 C  
BRANCH   6   7
HETATM    7  C   UNL     1     -11.719  13.903  65.198  1.00  0.00    -0.357 A  
HETATM    8  C   UNL     1     -10.801  14.906  64.863  1.00  0.00    -0.431 A  
HETATM    9  C   UNL     1     -10.363  15.815  65.827  1.00  0.00    -0.390 A  
HETATM   10  C   UNL     1     -10.837  15.728  67.135  1.00  0.00    -0.289 A  
HETATM   11  C   UNL     1     -11.754  14.736  67.477  1.00  0.00    -0.370 A  
HETATM   12  C   UNL     1     -12.194  13.827  66.514  1.00  0.00    -0.475 A  
ENDBRANCH   6   7
ENDBRANCH   5   6
ENDBRANCH   4   5
TORSDOF 3
ENDMDL
MODEL      102
REMARK 921   NORMALIZED FREE ENERGY PREDICTED BY IDOCK:   -3.43 KCAL/MOL
REMARK 922        TOTAL FREE ENERGY PREDICTED BY IDOCK:   -4.36 KCAL/MOL
REMARK 923 INTER-LIGAND FREE ENERGY PREDICTED BY IDOCK:   -4.17 KCAL/MOL
REMARK 924 INTRA-LIGAND FREE ENERGY PREDICTED BY IDOCK:   -0.19 KCAL/MOL
REMARK 927      BINDING AFFINITY PREDICTED BY RF-SCORE:    0.00 PKD
ROOT
HETATM    1  O   UNL     1     -12.691  12.750  63.465  1.00  0.00    -0.713 OA 
HETATM    2  C   UNL     1     -12.365  13.840  64.199  1.00  0.00    -0.332 C  
HETATM    3  O   UNL     1     -12.640  14.972  63.837  1.00  0.00    -0.813 OA 
HETATM    4  C   UNL     1     -11.643  13.476  65.478  1.00  0.00    -0.337 C  
ENDROOT
BRANCH   4   5
HETATM    5  C   UNL     1     -11.280  14.719  66.288  1.00  0.00    -0.343 C  
BRANCH   5   6
HETATM    6  C   UNL     1     -10.018  15.401  65.755  1.00  0.00    -0.393 C  
BRANCH   6   7
HETATM    7  C   UNL     1      -8.999  15.568  66.855  1.00  0.00    -0.272 A  
HETATM    8  C   UNL     1      -8.349  14.451  67.397  1.00  0.00    -0.216 A  
HETATM    9  C   UNL     1      -7.456  14.599  68.459  1.00  0.00    -0.120 A  
HETATM   10  C   UNL     1      -7.207  15.863  68.992  1.00  0.00    -0.177 A  
HETATM   11  C   UNL     1      -7.845  16.980  68.457  1.00  0.00    -0.251 A  
HETATM   12  C   UNL     1      -8.738  16.835  67.394  1.00  0.00    -0.202 A  
ENDBRANCH   6   7
ENDBRANCH   5   6
ENDBRANCH   4   5
TORSDOF 3
ENDMDL
MODEL      103
REMARK 921   NORMALIZED FREE ENERGY PREDICTED BY IDOCK:   -3.43 KCAL/MOL
REMARK 922        TOTAL FREE ENERGY PREDICTED BY IDOCK:   -4.36 KCAL/MOL
REMARK 923 INTER-LIGAND FREE ENERGY PREDICTED BY IDOCK:   -4.09 KCAL/MOL
REMARK 924 INTRA-LIGAND FREE ENERGY PREDICTED BY IDOCK:   -0.27 KCAL/MOL
REMARK 927      BINDING AFFINITY PREDICTED BY RF-SCORE:    0.00 PKD
ROOT
HETATM    1  O   UNL     1     -12.977  11.201  71.016  1.00  0.00    -0.335 OA 
HETATM    2  C   UNL     1     -12.592  10.015  71.543  1.00  0.00    -0.425 C  
HETATM    3  O   UNL     1     -13.316   9.366  72.279  1.00  0.00    -0.430 OA 
HETATM    4  C   UNL     1     -11.196   9.622  71.112  1.00  0.00    -0.454 C  
ENDROOT
BRANCH   4   5
HETATM    5  C   UNL     1     -10.779   8.285  71.723  1.00  0.00    -0.332 C  
BRANCH   5   6
HETATM    6  C   UNL     1     -11.016   7.118  70.762  1.00  0.00    -0.278 C  
BRANCH   6   7
HETATM    7  C   UNL     1     -10.821   5.799  71.468  1.00  0.00    -0.316 A  
HETATM    8  C   UNL     1     -11.388   5.578  72.730  1.00  0.00    -0.359 A  
HETATM    9  C   UNL     1     -11.152   4.383  73.412  1.00  0.00    -0.394 A  
HETATM   10  C   UNL     1     -10.344   3.400  72.841  1.00  0.00    -0.248 A  
HETATM   11  C   UNL     1      -9.779   3.610  71.585  1.00  0.00    -0.236 A  
HETATM   12  C   UNL     1     -10.015   4.803  70.901  1.00  0.00    -0.283 A  
ENDBRANCH   6   7
ENDBRANCH   5   6
ENDBRANCH   4   5
TORSDOF 3
ENDMDL
MODEL      104
REMARK 921   NORMALIZED FREE ENERGY PREDICTED BY IDOCK:   -3.41 KCAL/MOL
REMARK 922        TOTAL FREE ENERGY PREDICTED BY IDOCK:   -4.34 KCAL/MOL
REMARK 923 INTER-LIGAND FREE ENERGY PREDICTED BY IDOCK:   -4.05 KCAL/MOL
REMARK 924 INTRA-LIGAND FREE ENERGY PREDICTED BY IDOCK:   -0.28 KCAL/MOL
REMARK 927      BINDING AFFINITY PREDICTED BY RF-SCORE:    0.00 PKD
ROOT
HETATM    1  O   UNL     1     -13.513  15.945  73.116  1.00  0.00    -0.575 OA 
HETATM    2  C   UNL     1     -13.183  14.964  72.244  1.00  0.00    -0.374 C  
HETATM    3  O   UNL     1     -13.397  13.787  72.480  1.00  0.00    -0.499 OA 
HETATM    4  C   UNL     1     -12.539  15.507  70.988  1.00  0.00    -0.513 C  
ENDROOT
BRANCH   4   5
HETATM    5  C   UNL     1     -12.169  14.384  70.020  1.00  0.00    -0.408 C  
BRANCH   5   6
HETATM    6  C   UNL     1     -12.240  14.838  68.561  1.00  0.00    -0.114 C  
BRANCH   6   7
HETATM    7  C   UNL     1     -10.855  15.052  68.001  1.00  0.00    -0.270 A  
HETATM    8  C   UNL     1     -10.592  16.134  67.151  1.00  0.00    -0.294 A  
HETATM    9  C   UNL     1      -9.329  16.293  66.580  1.00  0.00    -0.298 A  
HETATM   10  C   UNL     1      -8.318  15.371  66.850  1.00  0.00    -0.290 A  
HETATM   11  C   UNL     1      -8.570  14.294  67.698  1.00  0.00    -0.186 A  
HETATM   12  C   UNL     1      -9.832  14.133  68.270  1.00  0.00    -0.235 A  
ENDBRANCH   6   7
ENDBRANCH   5   6
ENDBRANCH   4   5
TORSDOF 3
ENDMDL
MODEL      105
REMARK 921   NORMALIZED FREE ENERGY PREDICTED BY IDOCK:   -3.40 KCAL/MOL
REMARK 922        TOTAL FREE ENERGY PREDICTED BY IDOCK:   -4.32 KCAL/MOL
REMARK 923 INTER-LIGAND FREE ENERGY PREDICTED BY IDOCK:   -4.02 KCAL/MOL
REMARK 924 INTRA-LIGAND FREE ENERGY PREDICTED BY IDOCK:   -0.30 KCAL/MOL
REMARK 927      BINDING AFFINITY PREDICTED BY RF-SCORE:    0.00 PKD
ROOT
HETATM    1  O   UNL     1     -12.138  12.321  70.381  1.00  0.00    -0.355 OA 
HETATM    2  C   UNL     1     -12.642  11.442  71.278  1.00  0.00    -0.374 C  
HETATM    3  O   UNL     1     -13.454  11.773  72.126  1.00  0.00    -0.446 OA 
HETATM    4  C   UNL     1     -12.082  10.049  71.094  1.00  0.00    -0.475 C  
ENDROOT
BRANCH   4   5
HETATM    5  C   UNL     1     -12.659   9.075  72.120  1.00  0.00    -0.461 C  
BRANCH   5   6
HETATM    6  C   UNL     1     -11.568   8.240  72.793  1.00  0.00    -0.326 C  
BRANCH   6   7
HETATM    7  C   UNL     1     -10.817   7.420  71.772  1.00  0.00    -0.253 A  
HETATM    8  C   UNL     1      -9.422   7.509  71.677  1.00  0.00    -0.170 A  
HETATM    9  C   UNL     1      -8.735   6.802  70.689  1.00  0.00    -0.143 A  
HETATM   10  C   UNL     1      -9.435   6.003  69.786  1.00  0.00    -0.173 A  
HETATM   11  C   UNL     1     -10.822   5.906  69.876  1.00  0.00    -0.439 A  
HETATM   12  C   UNL     1     -11.511   6.611  70.864  1.00  0.00    -0.401 A  
ENDBRANCH   6   7
ENDBRANCH   5   6
ENDBRANCH   4   5
TORSDOF 3
ENDMDL
MODEL      106
REMARK 921   NORMALIZED FREE ENERGY PREDICTED BY IDOCK:   -3.39 KCAL/MOL
REMARK 922        TOTAL FREE ENERGY PREDICTED BY IDOCK:   -4.31 KCAL/MOL
REMARK 923 INTER-LIGAND FREE ENERGY PREDICTED BY IDOCK:   -4.04 KCAL/MOL
REMARK 924 INTRA-LIGAND FREE ENERGY PREDICTED BY IDOCK:   -0.27 KCAL/MOL
REMARK 927      BINDING AFFINITY PREDICTED BY RF-SCORE:    0.00 PKD
ROOT
HETATM    1  O   UNL     1      -9.236  11.811  68.184  1.00  0.00    -0.174 OA 
HETATM    2  C   UNL     1      -8.691  13.016  67.895  1.00  0.00    -0.189 C  
HETATM    3  O   UNL     1      -7.665  13.409  68.425  1.00  0.00    -0.127 OA 
HETATM    4  C   UNL     1      -9.496  13.778  66.866  1.00  0.00    -0.265 C  
ENDROOT
BRANCH   4   5
HETATM    5  C   UNL     1      -8.867  15.136  66.558  1.00  0.00    -0.312 C  
BRANCH   5   6
HETATM    6  C   UNL     1      -9.862  16.091  65.895  1.00  0.00    -0.380 C  
BRANCH   6   7
HETATM    7  C   UNL     1      -9.978  17.372  66.684  1.00  0.00    -0.308 A  
HETATM    8  C   UNL     1      -9.682  17.392  68.053  1.00  0.00    -0.281 A  
HETATM    9  C   UNL     1      -9.854  18.561  68.796  1.00  0.00    -0.411 A  
HETATM   10  C   UNL     1     -10.326  19.719  68.179  1.00  0.00    -0.561 A  
HETATM   11  C   UNL     1     -10.618  19.709  66.817  1.00  0.00    -0.602 A  
HETATM   12  C   UNL     1     -10.446  18.542  66.072  1.00  0.00    -0.433 A  
ENDBRANCH   6   7
ENDBRANCH   5   6
ENDBRANCH   4   5
TORSDOF 3
ENDMDL
MODEL      107
REMARK 921   NORMALIZED FREE ENERGY PREDICTED BY IDOCK:   -3.37 KCAL/MOL
REMARK 922        TOTAL FREE ENERGY PREDICTED BY IDOCK:   -4.29 KCAL/MOL
REMARK 923 INTER-LIGAND FREE ENERGY PREDICTED BY IDOCK:   -4.03 KCAL/MOL
REMARK 924 INTRA-LIGAND FREE ENERGY PREDICTED BY IDOCK:   -0.27 KCAL/MOL
REMARK 927      BINDING AFFINITY PREDICTED BY RF-SCORE:    0.00 PKD
ROOT
HETATM    1  O   UNL     1      -8.568   9.736  70.445  1.00  0.00    -0.188 OA 
HETATM    2  C   UNL     1      -8.992  10.061  69.202  1.00  0.00    -0.169 C  
HETATM    3  O   UNL     1      -8.217  10.351  68.306  1.00  0.00    -0.109 OA 
HETATM    4  C   UNL     1     -10.500  10.016  69.081  1.00  0.00    -0.238 C  
ENDROOT
BRANCH   4   5
HETATM    5  C   UNL     1     -10.958  10.391  67.673  1.00  0.00    -0.374 C  
BRANCH   5   6
HETATM    6  C   UNL     1     -11.417  11.848  67.588  1.00  0.00    -0.387 C  
BRANCH   6   7
HETATM    7  C   UNL     1     -11.663  12.247  66.154  1.00  0.00    -0.440 A  
HETATM    8  C   UNL     1     -11.200  11.444  65.104  1.00  0.00    -0.146 A  
HETATM    9  C   UNL     1     -11.369  11.846  63.778  1.00  0.00    -0.532 A  
HETATM   10  C   UNL     1     -11.998  13.057  63.490  1.00  0.00    -0.615 A  
HETATM   11  C   UNL     1     -12.465  13.861  64.528  1.00  0.00    -0.336 A  
HETATM   12  C   UNL     1     -12.298  13.459  65.854  1.00  0.00    -0.493 A  
ENDBRANCH   6   7
ENDBRANCH   5   6
ENDBRANCH   4   5
TORSDOF 3
ENDMDL
MODEL      108
REMARK 921   NORMALIZED FREE ENERGY PREDICTED BY IDOCK:   -3.37 KCAL/MOL
REMARK 922        TOTAL FREE ENERGY PREDICTED BY IDOCK:   -4.29 KCAL/MOL
REMARK 923 INTER-LIGAND FREE ENERGY PREDICTED BY IDOCK:   -4.00 KCAL/MOL
REMARK 924 INTRA-LIGAND FREE ENERGY PREDICTED BY IDOCK:   -0.29 KCAL/MOL
REMARK 927      BINDING AFFINITY PREDICTED BY RF-SCORE:    0.00 PKD
ROOT
HETATM    1  O   UNL     1      -8.354   9.372  69.496  1.00  0.00    -0.108 OA 
HETATM    2  C   UNL     1      -9.606   9.776  69.813  1.00  0.00    -0.230 C  
HETATM    3  O   UNL     1     -10.263   9.231  70.685  1.00  0.00    -0.229 OA 
HETATM    4  C   UNL     1     -10.061  10.948  68.973  1.00  0.00    -0.212 C  
ENDROOT
BRANCH   4   5
HETATM    5  C   UNL     1     -11.477  11.385  69.343  1.00  0.00    -0.378 C  
BRANCH   5   6
HETATM    6  C   UNL     1     -11.856  12.716  68.691  1.00  0.00    -0.342 C  
BRANCH   6   7
HETATM    7  C   UNL     1     -11.870  13.826  69.714  1.00  0.00    -0.394 A  
HETATM    8  C   UNL     1     -11.229  15.043  69.450  1.00  0.00    -0.299 A  
HETATM    9  C   UNL     1     -11.184  16.043  70.422  1.00  0.00    -0.401 A  
HETATM   10  C   UNL     1     -11.777  15.836  71.666  1.00  0.00    -0.542 A  
HETATM   11  C   UNL     1     -12.421  14.630  71.936  1.00  0.00    -0.412 A  
HETATM   12  C   UNL     1     -12.467  13.628  70.965  1.00  0.00    -0.456 A  
ENDBRANCH   6   7
ENDBRANCH   5   6
ENDBRANCH   4   5
TORSDOF 3
ENDMDL
MODEL      109
REMARK 921   NORMALIZED FREE ENERGY PREDICTED BY IDOCK:   -3.37 KCAL/MOL
REMARK 922        TOTAL FREE ENERGY PREDICTED BY IDOCK:   -4.29 KCAL/MOL
REMARK 923 INTER-LIGAND FREE ENERGY PREDICTED BY IDOCK:   -4.01 KCAL/MOL
REMARK 924 INTRA-LIGAND FREE ENERGY PREDICTED BY IDOCK:   -0.28 KCAL/MOL
REMARK 927      BINDING AFFINITY PREDICTED BY RF-SCORE:    0.00 PKD
ROOT
HETATM    1  O   UNL     1      -8.739   7.299  67.007  1.00  0.00    -0.119 OA 
HETATM    2  C   UNL     1      -9.886   7.991  67.201  1.00  0.00    -0.210 C  
HETATM    3  O   UNL     1     -10.982   7.455  67.171  1.00  0.00    -0.312 OA 
HETATM    4  C   UNL     1      -9.634   9.461  67.451  1.00  0.00    -0.184 C  
ENDROOT
BRANCH   4   5
HETATM    5  C   UNL     1     -10.940  10.224  67.661  1.00  0.00    -0.356 C  
BRANCH   5   6
HETATM    6  C   UNL     1     -10.724  11.529  68.431  1.00  0.00    -0.241 C  
BRANCH   6   7
HETATM    7  C   UNL     1     -11.565  11.554  69.684  1.00  0.00    -0.403 A  
HETATM    8  C   UNL     1     -11.900  10.361  70.338  1.00  0.00    -0.418 A  
HETATM    9  C   UNL     1     -12.733  10.379  71.458  1.00  0.00    -0.564 A  
HETATM   10  C   UNL     1     -13.241  11.588  71.932  1.00  0.00    -0.479 A  
HETATM   11  C   UNL     1     -12.909  12.779  71.290  1.00  0.00    -0.355 A  
HETATM   12  C   UNL     1     -12.076  12.764  70.171  1.00  0.00    -0.370 A  
ENDBRANCH   6   7
ENDBRANCH   5   6
ENDBRANCH   4   5
TORSDOF 3
ENDMDL
MODEL      110
REMARK 921   NORMALIZED FREE ENERGY PREDICTED BY IDOCK:   -3.37 KCAL/MOL
REMARK 922        TOTAL FREE ENERGY PREDICTED BY IDOCK:   -4.29 KCAL/MOL
REMARK 923 INTER-LIGAND FREE ENERGY PREDICTED BY IDOCK:   -4.03 KCAL/MOL
REMARK 924 INTRA-LIGAND FREE ENERGY PREDICTED BY IDOCK:   -0.26 KCAL/MOL
REMARK 927      BINDING AFFINITY PREDICTED BY RF-SCORE:    0.00 PKD
ROOT
HETATM    1  O   UNL     1     -10.551   4.645  66.414  1.00  0.00    -0.252 OA 
HETATM    2  C   UNL     1     -10.162   5.881  66.804  1.00  0.00    -0.219 C  
HETATM    3  O   UNL     1      -9.262   6.486  66.245  1.00  0.00    -0.159 OA 
HETATM    4  C   UNL     1     -10.964   6.390  67.982  1.00  0.00    -0.400 C  
ENDROOT
BRANCH   4   5
HETATM    5  C   UNL     1     -10.505   7.783  68.410  1.00  0.00    -0.207 C  
BRANCH   5   6
HETATM    6  C   UNL     1     -10.386   7.905  69.931  1.00  0.00    -0.224 C  
BRANCH   6   7
HETATM    7  C   UNL     1     -11.284   9.001  70.449  1.00  0.00    -0.275 A  
HETATM    8  C   UNL     1     -11.160  10.310  69.966  1.00  0.00    -0.373 A  
HETATM    9  C   UNL     1     -11.944  11.336  70.494  1.00  0.00    -0.467 A  
HETATM   10  C   UNL     1     -12.857  11.065  71.512  1.00  0.00    -0.555 A  
HETATM   11  C   UNL     1     -12.991   9.766  71.996  1.00  0.00    -0.515 A  
HETATM   12  C   UNL     1     -12.209   8.738  71.469  1.00  0.00    -0.382 A  
ENDBRANCH   6   7
ENDBRANCH   5   6
ENDBRANCH   4   5
TORSDOF 3
ENDMDL
MODEL      111
REMARK 921   NORMALIZED FREE ENERGY PREDICTED BY IDOCK:   -3.35 KCAL/MOL
REMARK 922        TOTAL FREE ENERGY PREDICTED BY IDOCK:   -4.27 KCAL/MOL
REMARK 923 INTER-LIGAND FREE ENERGY PREDICTED BY IDOCK:   -3.93 KCAL/MOL
REMARK 924 INTRA-LIGAND FREE ENERGY PREDICTED BY IDOCK:   -0.34 KCAL/MOL
REMARK 927      BINDING AFFINITY PREDICTED BY RF-SCORE:    0.00 PKD
ROOT
HETATM    1  O   UNL     1     -11.721   5.393  72.877  1.00  0.00    -0.297 OA 
HETATM    2  C   UNL     1     -12.001   6.276  71.891  1.00  0.00    -0.286 C  
HETATM    3  O   UNL     1     -13.104   6.782  71.766  1.00  0.00    -0.336 OA 
HETATM    4  C   UNL     1     -10.807   6.540  70.999  1.00  0.00    -0.301 C  
ENDROOT
BRANCH   4   5
HETATM    5  C   UNL     1     -11.147   7.534  69.891  1.00  0.00    -0.185 C  
BRANCH   5   6
HETATM    6  C   UNL     1     -10.275   8.789  69.960  1.00  0.00    -0.208 C  
BRANCH   6   7
HETATM    7  C   UNL     1     -11.114  10.004  70.272  1.00  0.00    -0.381 A  
HETATM    8  C   UNL     1     -12.014   9.989  71.345  1.00  0.00    -0.470 A  
HETATM    9  C   UNL     1     -12.839  11.088  71.592  1.00  0.00    -0.540 A  
HETATM   10  C   UNL     1     -12.773  12.210  70.767  1.00  0.00    -0.220 A  
HETATM   11  C   UNL     1     -11.877  12.236  69.700  1.00  0.00    -0.393 A  
HETATM   12  C   UNL     1     -11.052  11.138  69.452  1.00  0.00    -0.314 A  
ENDBRANCH   6   7
ENDBRANCH   5   6
ENDBRANCH   4   5
TORSDOF 3
ENDMDL
MODEL      112
REMARK 921   NORMALIZED FREE ENERGY PREDICTED BY IDOCK:   -3.34 KCAL/MOL
REMARK 922        TOTAL FREE ENERGY PREDICTED BY IDOCK:   -4.26 KCAL/MOL
REMARK 923 INTER-LIGAND FREE ENERGY PREDICTED BY IDOCK:   -4.05 KCAL/MOL
REMARK 924 INTRA-LIGAND FREE ENERGY PREDICTED BY IDOCK:   -0.21 KCAL/MOL
REMARK 927      BINDING AFFINITY PREDICTED BY RF-SCORE:    0.00 PKD
ROOT
HETATM    1  O   UNL     1     -12.139  15.046  63.969  1.00  0.00    -0.533 OA 
HETATM    2  C   UNL     1     -12.293  14.097  64.922  1.00  0.00    -0.430 C  
HETATM    3  O   UNL     1     -13.371  13.872  65.446  1.00  0.00    -0.710 OA 
HETATM    4  C   UNL     1     -10.997  13.382  65.235  1.00  0.00    -0.306 C  
ENDROOT
BRANCH   4   5
HETATM    5  C   UNL     1     -11.192  12.321  66.316  1.00  0.00    -0.367 C  
BRANCH   5   6
HETATM    6  C   UNL     1      -9.868  11.673  66.728  1.00  0.00    -0.222 C  
BRANCH   6   7
HETATM    7  C   UNL     1     -10.106  10.552  67.710  1.00  0.00    -0.205 A  
HETATM    8  C   UNL     1     -10.411  10.832  69.048  1.00  0.00    -0.235 A  
HETATM    9  C   UNL     1     -10.564   9.796  69.970  1.00  0.00    -0.320 A  
HETATM   10  C   UNL     1     -10.412   8.471  69.564  1.00  0.00    -0.222 A  
HETATM   11  C   UNL     1     -10.114   8.182  68.234  1.00  0.00    -0.230 A  
HETATM   12  C   UNL     1      -9.961   9.217  67.310  1.00  0.00    -0.270 A  
ENDBRANCH   6   7
ENDBRANCH   5   6
ENDBRANCH   4   5
TORSDOF 3
ENDMDL
MODEL      113
REMARK 921   NORMALIZED FREE ENERGY PREDICTED BY IDOCK:   -3.34 KCAL/MOL
REMARK 922        TOTAL FREE ENERGY PREDICTED BY IDOCK:   -4.25 KCAL/MOL
REMARK 923 INTER-LIGAND FREE ENERGY PREDICTED BY IDOCK:   -3.99 KCAL/MOL
REMARK 924 INTRA-LIGAND FREE ENERGY PREDICTED BY IDOCK:   -0.26 KCAL/MOL
REMARK 927      BINDING AFFINITY PREDICTED BY RF-SCORE:    0.00 PKD
ROOT
HETATM    1  O   UNL     1     -13.207  11.057  71.861  1.00  0.00    -0.473 OA 
HETATM    2  C   UNL     1     -13.092   9.720  72.036  1.00  0.00    -0.452 C  
HETATM    3  O   UNL     1     -13.999   9.044  72.492  1.00  0.00    -0.478 OA 
HETATM    4  C   UNL     1     -11.738   9.200  71.607  1.00  0.00    -0.448 C  
ENDROOT
BRANCH   4   5
HETATM    5  C   UNL     1     -11.627   7.691  71.818  1.00  0.00    -0.307 C  
BRANCH   5   6
HETATM    6  C   UNL     1     -10.675   7.341  72.964  1.00  0.00    -0.384 C  
BRANCH   6   7
HETATM    7  C   UNL     1     -10.485   5.847  73.062  1.00  0.00    -0.247 A  
HETATM    8  C   UNL     1     -10.394   5.065  71.904  1.00  0.00    -0.270 A  
HETATM    9  C   UNL     1     -10.286   3.677  71.995  1.00  0.00    -0.145 A  
HETATM   10  C   UNL     1     -10.272   3.057  73.244  1.00  0.00    -0.215 A  
HETATM   11  C   UNL     1     -10.358   3.827  74.402  1.00  0.00    -0.258 A  
HETATM   12  C   UNL     1     -10.465   5.216  74.313  1.00  0.00    -0.315 A  
ENDBRANCH   6   7
ENDBRANCH   5   6
ENDBRANCH   4   5
TORSDOF 3
ENDMDL
MODEL      114
REMARK 921   NORMALIZED FREE ENERGY PREDICTED BY IDOCK:   -3.32 KCAL/MOL
REMARK 922        TOTAL FREE ENERGY PREDICTED BY IDOCK:   -4.23 KCAL/MOL
REMARK 923 INTER-LIGAND FREE ENERGY PREDICTED BY IDOCK:   -3.88 KCAL/MOL
REMARK 924 INTRA-LIGAND FREE ENERGY PREDICTED BY IDOCK:   -0.35 KCAL/MOL
REMARK 927      BINDING AFFINITY PREDICTED BY RF-SCORE:    0.00 PKD
ROOT
HETATM    1  O   UNL     1     -10.398   3.746  72.758  1.00  0.00    -0.160 OA 
HETATM    2  C   UNL     1     -10.741   5.052  72.853  1.00  0.00    -0.242 C  
HETATM    3  O   UNL     1     -11.891   5.433  72.716  1.00  0.00    -0.268 OA 
HETATM    4  C   UNL     1      -9.549   5.938  73.141  1.00  0.00    -0.148 C  
ENDROOT
BRANCH   4   5
HETATM    5  C   UNL     1      -9.956   7.407  73.239  1.00  0.00    -0.341 C  
BRANCH   5   6
HETATM    6  C   UNL     1      -9.434   8.226  72.057  1.00  0.00    -0.304 C  
BRANCH   6   7
HETATM    7  C   UNL     1     -10.525   9.101  71.491  1.00  0.00    -0.422 A  
HETATM    8  C   UNL     1     -11.826   9.037  72.008  1.00  0.00    -0.426 A  
HETATM    9  C   UNL     1     -12.850   9.797  71.440  1.00  0.00    -0.489 A  
HETATM   10  C   UNL     1     -12.584  10.625  70.350  1.00  0.00    -0.395 A  
HETATM   11  C   UNL     1     -11.293  10.698  69.833  1.00  0.00    -0.386 A  
HETATM   12  C   UNL     1     -10.267   9.940  70.400  1.00  0.00    -0.299 A  
ENDBRANCH   6   7
ENDBRANCH   5   6
ENDBRANCH   4   5
TORSDOF 3
ENDMDL
MODEL      115
REMARK 921   NORMALIZED FREE ENERGY PREDICTED BY IDOCK:   -3.32 KCAL/MOL
REMARK 922        TOTAL FREE ENERGY PREDICTED BY IDOCK:   -4.23 KCAL/MOL
REMARK 923 INTER-LIGAND FREE ENERGY PREDICTED BY IDOCK:   -3.95 KCAL/MOL
REMARK 924 INTRA-LIGAND FREE ENERGY PREDICTED BY IDOCK:   -0.28 KCAL/MOL
REMARK 927      BINDING AFFINITY PREDICTED BY RF-SCORE:    0.00 PKD
ROOT
HETATM    1  O   UNL     1      -7.920  20.120  67.188  1.00  0.00    -0.300 OA 
HETATM    2  C   UNL     1      -9.163  19.585  67.209  1.00  0.00    -0.315 C  
HETATM    3  O   UNL     1     -10.105  20.150  67.740  1.00  0.00    -0.404 OA 
HETATM    4  C   UNL     1      -9.221  18.242  66.513  1.00  0.00    -0.298 C  
ENDROOT
BRANCH   4   5
HETATM    5  C   UNL     1     -10.630  17.653  66.554  1.00  0.00    -0.207 C  
BRANCH   5   6
HETATM    6  C   UNL     1     -10.625  16.141  66.320  1.00  0.00    -0.276 C  
BRANCH   6   7
HETATM    7  C   UNL     1     -11.117  15.411  67.545  1.00  0.00    -0.315 A  
HETATM    8  C   UNL     1     -11.403  14.040  67.488  1.00  0.00    -0.343 A  
HETATM    9  C   UNL     1     -11.922  13.380  68.603  1.00  0.00    -0.362 A  
HETATM   10  C   UNL     1     -12.162  14.082  69.783  1.00  0.00    -0.396 A  
HETATM   11  C   UNL     1     -11.877  15.444  69.850  1.00  0.00    -0.373 A  
HETATM   12  C   UNL     1     -11.357  16.107  68.737  1.00  0.00    -0.359 A  
ENDBRANCH   6   7
ENDBRANCH   5   6
ENDBRANCH   4   5
TORSDOF 3
ENDMDL
MODEL      116
REMARK 921   NORMALIZED FREE ENERGY PREDICTED BY IDOCK:   -3.29 KCAL/MOL
REMARK 922        TOTAL FREE ENERGY PREDICTED BY IDOCK:   -4.19 KCAL/MOL
REMARK 923 INTER-LIGAND FREE ENERGY PREDICTED BY IDOCK:   -3.78 KCAL/MOL
REMARK 924 INTRA-LIGAND FREE ENERGY PREDICTED BY IDOCK:   -0.40 KCAL/MOL
REMARK 927      BINDING AFFINITY PREDICTED BY RF-SCORE:    0.00 PKD
ROOT
HETATM    1  O   UNL     1      -9.464   8.761  66.101  1.00  0.00    -0.218 OA 
HETATM    2  C   UNL     1      -9.492   9.906  66.823  1.00  0.00    -0.169 C  
HETATM    3  O   UNL     1      -8.598  10.733  66.764  1.00  0.00    -0.130 OA 
HETATM    4  C   UNL     1     -10.735  10.014  67.679  1.00  0.00    -0.340 C  
ENDROOT
BRANCH   4   5
HETATM    5  C   UNL     1     -10.744  11.309  68.490  1.00  0.00    -0.235 C  
BRANCH   5   6
HETATM    6  C   UNL     1     -11.900  12.227  68.090  1.00  0.00    -0.372 C  
BRANCH   6   7
HETATM    7  C   UNL     1     -11.513  13.092  66.916  1.00  0.00    -0.384 A  
HETATM    8  C   UNL     1     -10.713  14.227  67.103  1.00  0.00    -0.282 A  
HETATM    9  C   UNL     1     -10.411  15.064  66.028  1.00  0.00    -0.326 A  
HETATM   10  C   UNL     1     -10.907  14.776  64.757  1.00  0.00    -0.395 A  
HETATM   11  C   UNL     1     -11.700  13.647  64.560  1.00  0.00    -0.429 A  
HETATM   12  C   UNL     1     -12.003  12.809  65.634  1.00  0.00    -0.503 A  
ENDBRANCH   6   7
ENDBRANCH   5   6
ENDBRANCH   4   5
TORSDOF 3
ENDMDL
MODEL      117
REMARK 921   NORMALIZED FREE ENERGY PREDICTED BY IDOCK:   -3.28 KCAL/MOL
REMARK 922        TOTAL FREE ENERGY PREDICTED BY IDOCK:   -4.19 KCAL/MOL
REMARK 923 INTER-LIGAND FREE ENERGY PREDICTED BY IDOCK:   -4.32 KCAL/MOL
REMARK 924 INTRA-LIGAND FREE ENERGY PREDICTED BY IDOCK:    0.14 KCAL/MOL
REMARK 927      BINDING AFFINITY PREDICTED BY RF-SCORE:    0.00 PKD
ROOT
HETATM    1  O   UNL     1     -11.334  16.831  64.276  1.00  0.00    -1.170 OA 
HETATM    2  C   UNL     1     -10.993  15.768  65.042  1.00  0.00    -0.417 C  
HETATM    3  O   UNL     1     -11.699  14.777  65.129  1.00  0.00    -0.358 OA 
HETATM    4  C   UNL     1      -9.670  15.971  65.748  1.00  0.00    -0.340 C  
ENDROOT
BRANCH   4   5
HETATM    5  C   UNL     1      -9.308  14.764  66.612  1.00  0.00    -0.291 C  
BRANCH   5   6
HETATM    6  C   UNL     1      -8.262  15.113  67.673  1.00  0.00    -0.178 C  
BRANCH   6   7
HETATM    7  C   UNL     1      -8.021  16.602  67.714  1.00  0.00    -0.182 A  
HETATM    8  C   UNL     1      -6.910  17.160  67.068  1.00  0.00    -0.228 A  
HETATM    9  C   UNL     1      -6.650  18.527  67.163  1.00  0.00    -0.206 A  
HETATM   10  C   UNL     1      -7.496  19.350  67.907  1.00  0.00    -0.305 A  
HETATM   11  C   UNL     1      -8.606  18.805  68.549  1.00  0.00    -0.378 A  
HETATM   12  C   UNL     1      -8.868  17.437  68.455  1.00  0.00    -0.271 A  
ENDBRANCH   6   7
ENDBRANCH   5   6
ENDBRANCH   4   5
TORSDOF 3
ENDMDL
MODEL      118
REMARK 921   NORMALIZED FREE ENERGY PREDICTED BY IDOCK:   -3.26 KCAL/MOL
REMARK 922        TOTAL FREE ENERGY PREDICTED BY IDOCK:   -4.16 KCAL/MOL
REMARK 923 INTER-LIGAND FREE ENERGY PREDICTED BY IDOCK:   -3.81 KCAL/MOL
REMARK 924 INTRA-LIGAND FREE ENERGY PREDICTED BY IDOCK:   -0.35 KCAL/MOL
REMARK 927      BINDING AFFINITY PREDICTED BY RF-SCORE:    0.00 PKD
ROOT
HETATM    1  O   UNL     1     -12.249   6.509  71.351  1.00  0.00    -0.338 OA 
HETATM    2  C   UNL     1     -11.607   7.615  70.907  1.00  0.00    -0.280 C  
HETATM    3  O   UNL     1     -11.705   8.693  71.469  1.00  0.00    -0.273 OA 
HETATM    4  C   UNL     1     -10.783   7.342  69.668  1.00  0.00    -0.249 C  
ENDROOT
BRANCH   4   5
HETATM    5  C   UNL     1     -10.072   8.603  69.180  1.00  0.00    -0.203 C  
BRANCH   5   6
HETATM    6  C   UNL     1     -10.486   8.980  67.757  1.00  0.00    -0.305 C  
BRANCH   6   7
HETATM    7  C   UNL     1     -10.900  10.430  67.688  1.00  0.00    -0.361 A  
HETATM    8  C   UNL     1     -11.420  11.074  68.818  1.00  0.00    -0.372 A  
HETATM    9  C   UNL     1     -11.865  12.394  68.737  1.00  0.00    -0.358 A  
HETATM   10  C   UNL     1     -11.799  13.081  67.525  1.00  0.00    -0.408 A  
HETATM   11  C   UNL     1     -11.280  12.449  66.397  1.00  0.00    -0.365 A  
HETATM   12  C   UNL     1     -10.833  11.130  66.476  1.00  0.00    -0.302 A  
ENDBRANCH   6   7
ENDBRANCH   5   6
ENDBRANCH   4   5
TORSDOF 3
ENDMDL
MODEL      119
REMARK 921   NORMALIZED FREE ENERGY PREDICTED BY IDOCK:   -3.24 KCAL/MOL
REMARK 922        TOTAL FREE ENERGY PREDICTED BY IDOCK:   -4.14 KCAL/MOL
REMARK 923 INTER-LIGAND FREE ENERGY PREDICTED BY IDOCK:   -3.76 KCAL/MOL
REMARK 924 INTRA-LIGAND FREE ENERGY PREDICTED BY IDOCK:   -0.38 KCAL/MOL
REMARK 927      BINDING AFFINITY PREDICTED BY RF-SCORE:    0.00 PKD
ROOT
HETATM    1  O   UNL     1      -7.068  10.320  68.662  1.00  0.00    -0.071 OA 
HETATM    2  C   UNL     1      -7.543  10.848  67.510  1.00  0.00    -0.101 C  
HETATM    3  O   UNL     1      -7.818  12.032  67.403  1.00  0.00    -0.144 OA 
HETATM    4  C   UNL     1      -7.681   9.811  66.418  1.00  0.00    -0.102 C  
ENDROOT
BRANCH   4   5
HETATM    5  C   UNL     1      -8.224  10.426  65.129  1.00  0.00    -0.158 C  
BRANCH   5   6
HETATM    6  C   UNL     1      -9.662   9.988  64.846  1.00  0.00    -0.377 C  
BRANCH   6   7
HETATM    7  C   UNL     1     -10.585  11.181  64.802  1.00  0.00    -0.371 A  
HETATM    8  C   UNL     1     -11.042  11.769  65.989  1.00  0.00    -0.363 A  
HETATM    9  C   UNL     1     -11.948  12.829  65.949  1.00  0.00    -0.506 A  
HETATM   10  C   UNL     1     -12.407  13.311  64.723  1.00  0.00    -0.454 A  
HETATM   11  C   UNL     1     -11.954  12.735  63.538  1.00  0.00    -0.633 A  
HETATM   12  C   UNL     1     -11.048  11.675  63.576  1.00  0.00    -0.476 A  
ENDBRANCH   6   7
ENDBRANCH   5   6
ENDBRANCH   4   5
TORSDOF 3
ENDMDL
MODEL      120
REMARK 921   NORMALIZED FREE ENERGY PREDICTED BY IDOCK:   -3.24 KCAL/MOL
REMARK 922        TOTAL FREE ENERGY PREDICTED BY IDOCK:   -4.13 KCAL/MOL
REMARK 923 INTER-LIGAND FREE ENERGY PREDICTED BY IDOCK:   -3.88 KCAL/MOL
REMARK 924 INTRA-LIGAND FREE ENERGY PREDICTED BY IDOCK:   -0.26 KCAL/MOL
REMARK 927      BINDING AFFINITY PREDICTED BY RF-SCORE:    0.00 PKD
ROOT
HETATM    1  O   UNL     1     -11.968  14.631  68.574  1.00  0.00    -0.315 OA 
HETATM    2  C   UNL     1     -11.898  13.597  67.703  1.00  0.00    -0.369 C  
HETATM    3  O   UNL     1     -12.132  13.733  66.513  1.00  0.00    -0.414 OA 
HETATM    4  C   UNL     1     -11.507  12.302  68.380  1.00  0.00    -0.356 C  
ENDROOT
BRANCH   4   5
HETATM    5  C   UNL     1     -11.440  11.148  67.381  1.00  0.00    -0.261 C  
BRANCH   5   6
HETATM    6  C   UNL     1     -10.164  10.320  67.547  1.00  0.00    -0.254 C  
BRANCH   6   7
HETATM    7  C   UNL     1     -10.496   8.903  67.948  1.00  0.00    -0.281 A  
HETATM    8  C   UNL     1     -10.517   8.533  69.299  1.00  0.00    -0.224 A  
HETATM    9  C   UNL     1     -10.757   7.208  69.665  1.00  0.00    -0.256 A  
HETATM   10  C   UNL     1     -10.977   6.241  68.685  1.00  0.00    -0.423 A  
HETATM   11  C   UNL     1     -10.962   6.600  67.339  1.00  0.00    -0.434 A  
HETATM   12  C   UNL     1     -10.722   7.925  66.970  1.00  0.00    -0.289 A  
ENDBRANCH   6   7
ENDBRANCH   5   6
ENDBRANCH   4   5
TORSDOF 3
ENDMDL
MODEL      121
REMARK 921   NORMALIZED FREE ENERGY PREDICTED BY IDOCK:   -3.24 KCAL/MOL
REMARK 922        TOTAL FREE ENERGY PREDICTED BY IDOCK:   -4.13 KCAL/MOL
REMARK 923 INTER-LIGAND FREE ENERGY PREDICTED BY IDOCK:   -3.80 KCAL/MOL
REMARK 924 INTRA-LIGAND FREE ENERGY PREDICTED BY IDOCK:   -0.33 KCAL/MOL
REMARK 927      BINDING AFFINITY PREDICTED BY RF-SCORE:    0.00 PKD
ROOT
HETATM    1  O   UNL     1      -5.949  17.797  69.581  1.00  0.00    -0.235 OA 
HETATM    2  C   UNL     1      -7.016  18.318  68.931  1.00  0.00    -0.278 C  
HETATM    3  O   UNL     1      -7.123  19.513  68.711  1.00  0.00    -0.319 OA 
HETATM    4  C   UNL     1      -8.018  17.257  68.533  1.00  0.00    -0.261 C  
ENDROOT
BRANCH   4   5
HETATM    5  C   UNL     1      -9.217  17.866  67.807  1.00  0.00    -0.258 C  
BRANCH   5   6
HETATM    6  C   UNL     1     -10.511  17.713  68.609  1.00  0.00    -0.317 C  
BRANCH   6   7
HETATM    7  C   UNL     1     -10.963  16.273  68.620  1.00  0.00    -0.340 A  
HETATM    8  C   UNL     1     -11.001  15.531  67.433  1.00  0.00    -0.306 A  
HETATM    9  C   UNL     1     -11.483  14.221  67.433  1.00  0.00    -0.368 A  
HETATM   10  C   UNL     1     -11.935  13.643  68.618  1.00  0.00    -0.395 A  
HETATM   11  C   UNL     1     -11.897  14.371  69.805  1.00  0.00    -0.375 A  
HETATM   12  C   UNL     1     -11.415  15.681  69.807  1.00  0.00    -0.346 A  
ENDBRANCH   6   7
ENDBRANCH   5   6
ENDBRANCH   4   5
TORSDOF 3
ENDMDL
MODEL      122
REMARK 921   NORMALIZED FREE ENERGY PREDICTED BY IDOCK:   -3.24 KCAL/MOL
REMARK 922        TOTAL FREE ENERGY PREDICTED BY IDOCK:   -4.13 KCAL/MOL
REMARK 923 INTER-LIGAND FREE ENERGY PREDICTED BY IDOCK:   -3.74 KCAL/MOL
REMARK 924 INTRA-LIGAND FREE ENERGY PREDICTED BY IDOCK:   -0.39 KCAL/MOL
REMARK 927      BINDING AFFINITY PREDICTED BY RF-SCORE:    0.00 PKD
ROOT
HETATM    1  O   UNL     1     -11.061  10.292  69.873  1.00  0.00    -0.261 OA 
HETATM    2  C   UNL     1     -10.704  11.179  68.915  1.00  0.00    -0.207 C  
HETATM    3  O   UNL     1     -11.433  12.095  68.573  1.00  0.00    -0.250 OA 
HETATM    4  C   UNL     1      -9.331  10.890  68.350  1.00  0.00    -0.172 C  
ENDROOT
BRANCH   4   5
HETATM    5  C   UNL     1      -8.949  11.898  67.267  1.00  0.00    -0.176 C  
BRANCH   5   6
HETATM    6  C   UNL     1      -9.174  11.341  65.860  1.00  0.00    -0.229 C  
BRANCH   6   7
HETATM    7  C   UNL     1     -10.313  12.059  65.178  1.00  0.00    -0.313 A  
HETATM    8  C   UNL     1     -11.045  11.428  64.164  1.00  0.00    -0.382 A  
HETATM    9  C   UNL     1     -12.053  12.115  63.488  1.00  0.00    -0.649 A  
HETATM   10  C   UNL     1     -12.337  13.440  63.816  1.00  0.00    -0.418 A  
HETATM   11  C   UNL     1     -11.617  14.075  64.826  1.00  0.00    -0.387 A  
HETATM   12  C   UNL     1     -10.609  13.389  65.504  1.00  0.00    -0.294 A  
ENDBRANCH   6   7
ENDBRANCH   5   6
ENDBRANCH   4   5
TORSDOF 3
ENDMDL
MODEL      123
REMARK 921   NORMALIZED FREE ENERGY PREDICTED BY IDOCK:   -3.22 KCAL/MOL
REMARK 922        TOTAL FREE ENERGY PREDICTED BY IDOCK:   -4.11 KCAL/MOL
REMARK 923 INTER-LIGAND FREE ENERGY PREDICTED BY IDOCK:   -3.84 KCAL/MOL
REMARK 924 INTRA-LIGAND FREE ENERGY PREDICTED BY IDOCK:   -0.27 KCAL/MOL
REMARK 927      BINDING AFFINITY PREDICTED BY RF-SCORE:    0.00 PKD
ROOT
HETATM    1  O   UNL     1      -9.021   6.940  66.157  1.00  0.00    -0.153 OA 
HETATM    2  C   UNL     1      -9.908   7.826  66.666  1.00  0.00    -0.225 C  
HETATM    3  O   UNL     1     -10.922   7.471  67.243  1.00  0.00    -0.264 OA 
HETATM    4  C   UNL     1      -9.487   9.260  66.429  1.00  0.00    -0.277 C  
ENDROOT
BRANCH   4   5
HETATM    5  C   UNL     1     -10.504  10.243  67.006  1.00  0.00    -0.304 C  
BRANCH   5   6
HETATM    6  C   UNL     1      -9.923  11.652  67.145  1.00  0.00    -0.219 C  
BRANCH   6   7
HETATM    7  C   UNL     1     -10.682  12.629  66.281  1.00  0.00    -0.280 A  
HETATM    8  C   UNL     1     -12.035  12.415  65.986  1.00  0.00    -0.419 A  
HETATM    9  C   UNL     1     -12.718  13.282  65.132  1.00  0.00    -0.464 A  
HETATM   10  C   UNL     1     -12.055  14.369  64.563  1.00  0.00    -0.498 A  
HETATM   11  C   UNL     1     -10.711  14.592  64.854  1.00  0.00    -0.447 A  
HETATM   12  C   UNL     1     -10.026  13.726  65.708  1.00  0.00    -0.293 A  
ENDBRANCH   6   7
ENDBRANCH   5   6
ENDBRANCH   4   5
TORSDOF 3
ENDMDL
MODEL      124
REMARK 921   NORMALIZED FREE ENERGY PREDICTED BY IDOCK:   -3.21 KCAL/MOL
REMARK 922        TOTAL FREE ENERGY PREDICTED BY IDOCK:   -4.10 KCAL/MOL
REMARK 923 INTER-LIGAND FREE ENERGY PREDICTED BY IDOCK:   -3.85 KCAL/MOL
REMARK 924 INTRA-LIGAND FREE ENERGY PREDICTED BY IDOCK:   -0.25 KCAL/MOL
REMARK 927      BINDING AFFINITY PREDICTED BY RF-SCORE:    0.00 PKD
ROOT
HETATM    1  O   UNL     1     -11.059  18.486  65.039  1.00  0.00    -0.528 OA 
HETATM    2  C   UNL     1     -10.648  18.219  66.301  1.00  0.00    -0.296 C  
HETATM    3  O   UNL     1     -10.762  19.028  67.206  1.00  0.00    -0.452 OA 
HETATM    4  C   UNL     1     -10.053  16.834  66.429  1.00  0.00    -0.327 C  
ENDROOT
BRANCH   4   5
HETATM    5  C   UNL     1      -9.591  16.555  67.858  1.00  0.00    -0.233 C  
BRANCH   5   6
HETATM    6  C   UNL     1     -10.394  15.427  68.510  1.00  0.00    -0.226 C  
BRANCH   6   7
HETATM    7  C   UNL     1     -10.409  14.204  67.626  1.00  0.00    -0.241 A  
HETATM    8  C   UNL     1     -11.619  13.584  67.291  1.00  0.00    -0.398 A  
HETATM    9  C   UNL     1     -11.628  12.414  66.530  1.00  0.00    -0.447 A  
HETATM   10  C   UNL     1     -10.427  11.852  66.099  1.00  0.00    -0.272 A  
HETATM   11  C   UNL     1      -9.218  12.463  66.424  1.00  0.00    -0.192 A  
HETATM   12  C   UNL     1      -9.207  13.634  67.185  1.00  0.00    -0.244 A  
ENDBRANCH   6   7
ENDBRANCH   5   6
ENDBRANCH   4   5
TORSDOF 3
ENDMDL
MODEL      125
REMARK 921   NORMALIZED FREE ENERGY PREDICTED BY IDOCK:   -3.21 KCAL/MOL
REMARK 922        TOTAL FREE ENERGY PREDICTED BY IDOCK:   -4.10 KCAL/MOL
REMARK 923 INTER-LIGAND FREE ENERGY PREDICTED BY IDOCK:   -3.75 KCAL/MOL
REMARK 924 INTRA-LIGAND FREE ENERGY PREDICTED BY IDOCK:   -0.35 KCAL/MOL
REMARK 927      BINDING AFFINITY PREDICTED BY RF-SCORE:    0.00 PKD
ROOT
HETATM    1  O   UNL     1     -11.903  13.457  67.512  1.00  0.00    -0.347 OA 
HETATM    2  C   UNL     1     -11.396  14.699  67.332  1.00  0.00    -0.356 C  
HETATM    3  O   UNL     1     -11.657  15.623  68.084  1.00  0.00    -0.353 OA 
HETATM    4  C   UNL     1     -10.498  14.781  66.117  1.00  0.00    -0.311 C  
ENDROOT
BRANCH   4   5
HETATM    5  C   UNL     1      -9.942  16.191  65.928  1.00  0.00    -0.384 C  
BRANCH   5   6
HETATM    6  C   UNL     1      -8.475  16.289  66.350  1.00  0.00    -0.365 C  
BRANCH   6   7
HETATM    7  C   UNL     1      -8.217  17.582  67.085  1.00  0.00    -0.229 A  
HETATM    8  C   UNL     1      -6.985  18.237  66.958  1.00  0.00    -0.210 A  
HETATM    9  C   UNL     1      -6.723  19.396  67.690  1.00  0.00    -0.239 A  
HETATM   10  C   UNL     1      -7.688  19.909  68.556  1.00  0.00    -0.264 A  
HETATM   11  C   UNL     1      -8.917  19.266  68.686  1.00  0.00    -0.419 A  
HETATM   12  C   UNL     1      -9.182  18.108  67.954  1.00  0.00    -0.273 A  
ENDBRANCH   6   7
ENDBRANCH   5   6
ENDBRANCH   4   5
TORSDOF 3
ENDMDL
MODEL      126
REMARK 921   NORMALIZED FREE ENERGY PREDICTED BY IDOCK:   -3.21 KCAL/MOL
REMARK 922        TOTAL FREE ENERGY PREDICTED BY IDOCK:   -4.10 KCAL/MOL
REMARK 923 INTER-LIGAND FREE ENERGY PREDICTED BY IDOCK:   -3.76 KCAL/MOL
REMARK 924 INTRA-LIGAND FREE ENERGY PREDICTED BY IDOCK:   -0.34 KCAL/MOL
REMARK 927      BINDING AFFINITY PREDICTED BY RF-SCORE:    0.00 PKD
ROOT
HETATM    1  O   UNL     1      -9.610  10.152  67.333  1.00  0.00    -0.151 OA 
HETATM    2  C   UNL     1      -9.991  11.322  66.769  1.00  0.00    -0.206 C  
HETATM    3  O   UNL     1      -9.246  11.972  66.055  1.00  0.00    -0.221 OA 
HETATM    4  C   UNL     1     -11.411  11.698  67.131  1.00  0.00    -0.373 C  
ENDROOT
BRANCH   4   5
HETATM    5  C   UNL     1     -11.819  13.023  66.490  1.00  0.00    -0.464 C  
BRANCH   5   6
HETATM    6  C   UNL     1     -12.007  14.129  67.530  1.00  0.00    -0.419 C  
BRANCH   6   7
HETATM    7  C   UNL     1     -11.033  15.257  67.292  1.00  0.00    -0.327 A  
HETATM    8  C   UNL     1     -11.075  16.411  68.085  1.00  0.00    -0.320 A  
HETATM    9  C   UNL     1     -10.219  17.481  67.821  1.00  0.00    -0.349 A  
HETATM   10  C   UNL     1      -9.317  17.410  66.760  1.00  0.00    -0.279 A  
HETATM   11  C   UNL     1      -9.265  16.265  65.969  1.00  0.00    -0.351 A  
HETATM   12  C   UNL     1     -10.120  15.193  66.231  1.00  0.00    -0.299 A  
ENDBRANCH   6   7
ENDBRANCH   5   6
ENDBRANCH   4   5
TORSDOF 3
ENDMDL
MODEL      127
REMARK 921   NORMALIZED FREE ENERGY PREDICTED BY IDOCK:   -3.20 KCAL/MOL
REMARK 922        TOTAL FREE ENERGY PREDICTED BY IDOCK:   -4.09 KCAL/MOL
REMARK 923 INTER-LIGAND FREE ENERGY PREDICTED BY IDOCK:   -3.79 KCAL/MOL
REMARK 924 INTRA-LIGAND FREE ENERGY PREDICTED BY IDOCK:   -0.30 KCAL/MOL
REMARK 927      BINDING AFFINITY PREDICTED BY RF-SCORE:    0.00 PKD
ROOT
HETATM    1  O   UNL     1      -8.032  19.356  65.727  1.00  0.00    -0.432 OA 
HETATM    2  C   UNL     1      -8.435  18.727  66.856  1.00  0.00    -0.279 C  
HETATM    3  O   UNL     1      -8.341  19.244  67.957  1.00  0.00    -0.295 OA 
HETATM    4  C   UNL     1      -8.996  17.350  66.577  1.00  0.00    -0.285 C  
ENDROOT
BRANCH   4   5
HETATM    5  C   UNL     1      -9.440  16.656  67.863  1.00  0.00    -0.225 C  
BRANCH   5   6
HETATM    6  C   UNL     1     -10.874  16.132  67.766  1.00  0.00    -0.318 C  
BRANCH   6   7
HETATM    7  C   UNL     1     -10.882  14.665  67.410  1.00  0.00    -0.298 A  
HETATM    8  C   UNL     1      -9.743  13.877  67.622  1.00  0.00    -0.226 A  
HETATM    9  C   UNL     1      -9.728  12.537  67.230  1.00  0.00    -0.202 A  
HETATM   10  C   UNL     1     -10.850  11.974  66.622  1.00  0.00    -0.311 A  
HETATM   11  C   UNL     1     -11.988  12.750  66.411  1.00  0.00    -0.443 A  
HETATM   12  C   UNL     1     -12.005  14.089  66.802  1.00  0.00    -0.473 A  
ENDBRANCH   6   7
ENDBRANCH   5   6
ENDBRANCH   4   5
TORSDOF 3
ENDMDL
MODEL      128
REMARK 921   NORMALIZED FREE ENERGY PREDICTED BY IDOCK:   -3.20 KCAL/MOL
REMARK 922        TOTAL FREE ENERGY PREDICTED BY IDOCK:   -4.09 KCAL/MOL
REMARK 923 INTER-LIGAND FREE ENERGY PREDICTED BY IDOCK:   -3.85 KCAL/MOL
REMARK 924 INTRA-LIGAND FREE ENERGY PREDICTED BY IDOCK:   -0.24 KCAL/MOL
REMARK 927      BINDING AFFINITY PREDICTED BY RF-SCORE:    0.00 PKD
ROOT
HETATM    1  O   UNL     1      -9.726  18.509  65.954  1.00  0.00    -0.499 OA 
HETATM    2  C   UNL     1      -9.921  17.354  66.632  1.00  0.00    -0.308 C  
HETATM    3  O   UNL     1     -10.723  17.265  67.547  1.00  0.00    -0.345 OA 
HETATM    4  C   UNL     1      -9.044  16.233  66.120  1.00  0.00    -0.377 C  
ENDROOT
BRANCH   4   5
HETATM    5  C   UNL     1      -9.276  14.941  66.902  1.00  0.00    -0.265 C  
BRANCH   5   6
HETATM    6  C   UNL     1     -10.063  13.912  66.088  1.00  0.00    -0.317 C  
BRANCH   6   7
HETATM    7  C   UNL     1     -10.413  12.715  66.939  1.00  0.00    -0.246 A  
HETATM    8  C   UNL     1      -9.711  11.512  66.796  1.00  0.00    -0.220 A  
HETATM    9  C   UNL     1     -10.079  10.386  67.534  1.00  0.00    -0.231 A  
HETATM   10  C   UNL     1     -11.154  10.452  68.419  1.00  0.00    -0.322 A  
HETATM   11  C   UNL     1     -11.856  11.646  68.572  1.00  0.00    -0.357 A  
HETATM   12  C   UNL     1     -11.489  12.773  67.835  1.00  0.00    -0.365 A  
ENDBRANCH   6   7
ENDBRANCH   5   6
ENDBRANCH   4   5
TORSDOF 3
ENDMDL
MODEL      129
REMARK 921   NORMALIZED FREE ENERGY PREDICTED BY IDOCK:   -3.19 KCAL/MOL
REMARK 922        TOTAL FREE ENERGY PREDICTED BY IDOCK:   -4.08 KCAL/MOL
REMARK 923 INTER-LIGAND FREE ENERGY PREDICTED BY IDOCK:   -3.78 KCAL/MOL
REMARK 924 INTRA-LIGAND FREE ENERGY PREDICTED BY IDOCK:   -0.30 KCAL/MOL
REMARK 927      BINDING AFFINITY PREDICTED BY RF-SCORE:    0.00 PKD
ROOT
HETATM    1  O   UNL     1     -12.589  14.371  63.487  1.00  0.00    -0.784 OA 
HETATM    2  C   UNL     1     -12.245  14.229  64.788  1.00  0.00    -0.443 C  
HETATM    3  O   UNL     1     -13.075  14.052  65.664  1.00  0.00    -0.639 OA 
HETATM    4  C   UNL     1     -10.749  14.316  64.999  1.00  0.00    -0.435 C  
ENDROOT
BRANCH   4   5
HETATM    5  C   UNL     1     -10.383  14.159  66.474  1.00  0.00    -0.284 C  
BRANCH   5   6
HETATM    6  C   UNL     1     -10.033  12.711  66.826  1.00  0.00    -0.237 C  
BRANCH   6   7
HETATM    7  C   UNL     1      -8.559  12.575  67.118  1.00  0.00    -0.200 A  
HETATM    8  C   UNL     1      -7.859  13.615  67.744  1.00  0.00    -0.172 A  
HETATM    9  C   UNL     1      -6.483  13.516  67.953  1.00  0.00    -0.155 A  
HETATM   10  C   UNL     1      -5.793  12.379  67.536  1.00  0.00    -0.142 A  
HETATM   11  C   UNL     1      -6.481  11.337  66.916  1.00  0.00    -0.128 A  
HETATM   12  C   UNL     1      -7.857  11.434  66.707  1.00  0.00    -0.157 A  
ENDBRANCH   6   7
ENDBRANCH   5   6
ENDBRANCH   4   5
TORSDOF 3
ENDMDL
MODEL      130
REMARK 921   NORMALIZED FREE ENERGY PREDICTED BY IDOCK:   -3.15 KCAL/MOL
REMARK 922        TOTAL FREE ENERGY PREDICTED BY IDOCK:   -4.03 KCAL/MOL
REMARK 923 INTER-LIGAND FREE ENERGY PREDICTED BY IDOCK:   -3.78 KCAL/MOL
REMARK 924 INTRA-LIGAND FREE ENERGY PREDICTED BY IDOCK:   -0.25 KCAL/MOL
REMARK 927      BINDING AFFINITY PREDICTED BY RF-SCORE:    0.00 PKD
ROOT
HETATM    1  O   UNL     1     -12.294  13.622  68.973  1.00  0.00    -0.280 OA 
HETATM    2  C   UNL     1     -11.776  14.819  68.611  1.00  0.00    -0.325 C  
HETATM    3  O   UNL     1     -11.859  15.805  69.323  1.00  0.00    -0.365 OA 
HETATM    4  C   UNL     1     -11.108  14.768  67.254  1.00  0.00    -0.334 C  
ENDROOT
BRANCH   4   5
HETATM    5  C   UNL     1     -10.536  16.129  66.862  1.00  0.00    -0.300 C  
BRANCH   5   6
HETATM    6  C   UNL     1      -9.074  16.280  67.287  1.00  0.00    -0.214 C  
BRANCH   6   7
HETATM    7  C   UNL     1      -8.503  17.581  66.779  1.00  0.00    -0.275 A  
HETATM    8  C   UNL     1      -9.246  18.765  66.866  1.00  0.00    -0.316 A  
HETATM    9  C   UNL     1      -8.746  19.955  66.334  1.00  0.00    -0.397 A  
HETATM   10  C   UNL     1      -7.500  19.971  65.709  1.00  0.00    -0.311 A  
HETATM   11  C   UNL     1      -6.751  18.800  65.622  1.00  0.00    -0.311 A  
HETATM   12  C   UNL     1      -7.250  17.609  66.153  1.00  0.00    -0.352 A  
ENDBRANCH   6   7
ENDBRANCH   5   6
ENDBRANCH   4   5
TORSDOF 3
ENDMDL
MODEL      131
REMARK 921   NORMALIZED FREE ENERGY PREDICTED BY IDOCK:   -3.14 KCAL/MOL
REMARK 922        TOTAL FREE ENERGY PREDICTED BY IDOCK:   -4.02 KCAL/MOL
REMARK 923 INTER-LIGAND FREE ENERGY PREDICTED BY IDOCK:   -3.90 KCAL/MOL
REMARK 924 INTRA-LIGAND FREE ENERGY PREDICTED BY IDOCK:   -0.12 KCAL/MOL
REMARK 927      BINDING AFFINITY PREDICTED BY RF-SCORE:    0.00 PKD
ROOT
HETATM    1  O   UNL     1      -9.943  11.988  63.049  1.00  0.00    -0.351 OA 
HETATM    2  C   UNL     1     -10.550  11.450  64.133  1.00  0.00    -0.369 C  
HETATM    3  O   UNL     1     -11.758  11.497  64.292  1.00  0.00    -0.229 OA 
HETATM    4  C   UNL     1      -9.563  10.806  65.082  1.00  0.00    -0.295 C  
ENDROOT
BRANCH   4   5
HETATM    5  C   UNL     1     -10.267  10.210  66.300  1.00  0.00    -0.288 C  
BRANCH   5   6
HETATM    6  C   UNL     1     -10.689  11.287  67.301  1.00  0.00    -0.295 C  
BRANCH   6   7
HETATM    7  C   UNL     1     -10.940  10.681  68.661  1.00  0.00    -0.291 A  
HETATM    8  C   UNL     1     -11.771  11.328  69.584  1.00  0.00    -0.420 A  
HETATM    9  C   UNL     1     -11.949  10.802  70.865  1.00  0.00    -0.438 A  
HETATM   10  C   UNL     1     -11.296   9.627  71.234  1.00  0.00    -0.458 A  
HETATM   11  C   UNL     1     -10.471   8.973  70.321  1.00  0.00    -0.248 A  
HETATM   12  C   UNL     1     -10.293   9.497  69.040  1.00  0.00    -0.219 A  
ENDBRANCH   6   7
ENDBRANCH   5   6
ENDBRANCH   4   5
TORSDOF 3
ENDMDL
MODEL      132
REMARK 921   NORMALIZED FREE ENERGY PREDICTED BY IDOCK:   -3.13 KCAL/MOL
REMARK 922        TOTAL FREE ENERGY PREDICTED BY IDOCK:   -4.00 KCAL/MOL
REMARK 923 INTER-LIGAND FREE ENERGY PREDICTED BY IDOCK:   -3.90 KCAL/MOL
REMARK 924 INTRA-LIGAND FREE ENERGY PREDICTED BY IDOCK:   -0.10 KCAL/MOL
REMARK 927      BINDING AFFINITY PREDICTED BY RF-SCORE:    0.00 PKD
ROOT
HETATM    1  O   UNL     1     -13.461  13.482  72.025  1.00  0.00    -0.421 OA 
HETATM    2  C   UNL     1     -12.564  13.335  71.022  1.00  0.00    -0.324 C  
HETATM    3  O   UNL     1     -12.045  14.290  70.469  1.00  0.00    -0.299 OA 
HETATM    4  C   UNL     1     -12.306  11.881  70.693  1.00  0.00    -0.405 C  
ENDROOT
BRANCH   4   5
HETATM    5  C   UNL     1     -11.297  11.737  69.555  1.00  0.00    -0.317 C  
BRANCH   5   6
HETATM    6  C   UNL     1     -11.918  12.057  68.194  1.00  0.00    -0.231 C  
BRANCH   6   7
HETATM    7  C   UNL     1     -11.042  11.549  67.075  1.00  0.00    -0.365 A  
HETATM    8  C   UNL     1     -10.791  12.346  65.951  1.00  0.00    -0.305 A  
HETATM    9  C   UNL     1     -10.037  11.851  64.887  1.00  0.00    -0.296 A  
HETATM   10  C   UNL     1      -9.530  10.553  64.934  1.00  0.00    -0.304 A  
HETATM   11  C   UNL     1      -9.771   9.753  66.050  1.00  0.00    -0.319 A  
HETATM   12  C   UNL     1     -10.524  10.247  67.116  1.00  0.00    -0.311 A  
ENDBRANCH   6   7
ENDBRANCH   5   6
ENDBRANCH   4   5
TORSDOF 3
ENDMDL
MODEL      133
REMARK 921   NORMALIZED FREE ENERGY PREDICTED BY IDOCK:   -3.12 KCAL/MOL
REMARK 922        TOTAL FREE ENERGY PREDICTED BY IDOCK:   -3.99 KCAL/MOL
REMARK 923 INTER-LIGAND FREE ENERGY PREDICTED BY IDOCK:   -3.67 KCAL/MOL
REMARK 924 INTRA-LIGAND FREE ENERGY PREDICTED BY IDOCK:   -0.33 KCAL/MOL
REMARK 927      BINDING AFFINITY PREDICTED BY RF-SCORE:    0.00 PKD
ROOT
HETATM    1  O   UNL     1      -8.336  16.201  69.001  1.00  0.00    -0.227 OA 
HETATM    2  C   UNL     1      -9.040  16.290  67.849  1.00  0.00    -0.196 C  
HETATM    3  O   UNL     1      -9.601  17.319  67.508  1.00  0.00    -0.252 OA 
HETATM    4  C   UNL     1      -9.035  14.992  67.072  1.00  0.00    -0.255 C  
ENDROOT
BRANCH   4   5
HETATM    5  C   UNL     1      -9.839  15.113  65.778  1.00  0.00    -0.384 C  
BRANCH   5   6
HETATM    6  C   UNL     1     -11.220  14.465  65.899  1.00  0.00    -0.324 C  
BRANCH   6   7
HETATM    7  C   UNL     1     -11.095  13.013  66.291  1.00  0.00    -0.314 A  
HETATM    8  C   UNL     1     -11.568  12.568  67.532  1.00  0.00    -0.424 A  
HETATM    9  C   UNL     1     -11.392  11.240  67.921  1.00  0.00    -0.367 A  
HETATM   10  C   UNL     1     -10.739  10.344  67.075  1.00  0.00    -0.298 A  
HETATM   11  C   UNL     1     -10.268  10.776  65.837  1.00  0.00    -0.319 A  
HETATM   12  C   UNL     1     -10.444  12.104  65.445  1.00  0.00    -0.305 A  
ENDBRANCH   6   7
ENDBRANCH   5   6
ENDBRANCH   4   5
TORSDOF 3
ENDMDL
MODEL      134
REMARK 921   NORMALIZED FREE ENERGY PREDICTED BY IDOCK:   -3.12 KCAL/MOL
REMARK 922        TOTAL FREE ENERGY PREDICTED BY IDOCK:   -3.99 KCAL/MOL
REMARK 923 INTER-LIGAND FREE ENERGY PREDICTED BY IDOCK:   -3.73 KCAL/MOL
REMARK 924 INTRA-LIGAND FREE ENERGY PREDICTED BY IDOCK:   -0.26 KCAL/MOL
REMARK 927      BINDING AFFINITY PREDICTED BY RF-SCORE:    0.00 PKD
ROOT
HETATM    1  O   UNL     1      -6.875   6.435  65.279  1.00  0.00    -0.046 OA 
HETATM    2  C   UNL     1      -7.884   7.307  65.511  1.00  0.00    -0.115 C  
HETATM    3  O   UNL     1      -8.992   6.939  65.863  1.00  0.00    -0.145 OA 
HETATM    4  C   UNL     1      -7.466   8.743  65.282  1.00  0.00    -0.086 C  
ENDROOT
BRANCH   4   5
HETATM    5  C   UNL     1      -8.619   9.709  65.543  1.00  0.00    -0.162 C  
BRANCH   5   6
HETATM    6  C   UNL     1      -9.354  10.086  64.255  1.00  0.00    -0.345 C  
BRANCH   6   7
HETATM    7  C   UNL     1     -10.422  11.116  64.532  1.00  0.00    -0.415 A  
HETATM    8  C   UNL     1     -10.699  11.516  65.845  1.00  0.00    -0.325 A  
HETATM    9  C   UNL     1     -11.731  12.418  66.107  1.00  0.00    -0.460 A  
HETATM   10  C   UNL     1     -12.499  12.925  65.059  1.00  0.00    -0.553 A  
HETATM   11  C   UNL     1     -12.228  12.535  63.748  1.00  0.00    -0.615 A  
HETATM   12  C   UNL     1     -11.195  11.634  63.485  1.00  0.00    -0.462 A  
ENDBRANCH   6   7
ENDBRANCH   5   6
ENDBRANCH   4   5
TORSDOF 3
ENDMDL
MODEL      135
REMARK 921   NORMALIZED FREE ENERGY PREDICTED BY IDOCK:   -3.09 KCAL/MOL
REMARK 922        TOTAL FREE ENERGY PREDICTED BY IDOCK:   -3.95 KCAL/MOL
REMARK 923 INTER-LIGAND FREE ENERGY PREDICTED BY IDOCK:   -3.49 KCAL/MOL
REMARK 924 INTRA-LIGAND FREE ENERGY PREDICTED BY IDOCK:   -0.46 KCAL/MOL
REMARK 927      BINDING AFFINITY PREDICTED BY RF-SCORE:    0.00 PKD
ROOT
HETATM    1  O   UNL     1      -7.314   8.420  73.357  1.00  0.00    -0.225 OA 
HETATM    2  C   UNL     1      -8.580   8.405  72.881  1.00  0.00    -0.162 C  
HETATM    3  O   UNL     1      -8.921   9.074  71.919  1.00  0.00    -0.364 OA 
HETATM    4  C   UNL     1      -9.480   7.481  73.672  1.00  0.00    -0.338 C  
ENDROOT
BRANCH   4   5
HETATM    5  C   UNL     1     -10.905   7.483  73.122  1.00  0.00    -0.448 C  
BRANCH   5   6
HETATM    6  C   UNL     1     -11.316   6.109  72.590  1.00  0.00    -0.298 C  
BRANCH   6   7
HETATM    7  C   UNL     1     -10.880   5.941  71.155  1.00  0.00    -0.334 A  
HETATM    8  C   UNL     1     -10.177   4.796  70.756  1.00  0.00    -0.246 A  
HETATM    9  C   UNL     1      -9.716   4.672  69.445  1.00  0.00    -0.272 A  
HETATM   10  C   UNL     1      -9.949   5.691  68.522  1.00  0.00    -0.205 A  
HETATM   11  C   UNL     1     -10.651   6.831  68.909  1.00  0.00    -0.257 A  
HETATM   12  C   UNL     1     -11.114   6.957  70.219  1.00  0.00    -0.342 A  
ENDBRANCH   6   7
ENDBRANCH   5   6
ENDBRANCH   4   5
TORSDOF 3
ENDMDL
MODEL      136
REMARK 921   NORMALIZED FREE ENERGY PREDICTED BY IDOCK:   -3.07 KCAL/MOL
REMARK 922        TOTAL FREE ENERGY PREDICTED BY IDOCK:   -3.94 KCAL/MOL
REMARK 923 INTER-LIGAND FREE ENERGY PREDICTED BY IDOCK:   -3.71 KCAL/MOL
REMARK 924 INTRA-LIGAND FREE ENERGY PREDICTED BY IDOCK:   -0.23 KCAL/MOL
REMARK 927      BINDING AFFINITY PREDICTED BY RF-SCORE:    0.00 PKD
ROOT
HETATM    1  O   UNL     1      -9.044   9.105  64.704  1.00  0.00    -0.179 OA 
HETATM    2  C   UNL     1      -9.744   9.018  65.859  1.00  0.00    -0.236 C  
HETATM    3  O   UNL     1     -10.339   9.973  66.331  1.00  0.00    -0.226 OA 
HETATM    4  C   UNL     1      -9.691   7.631  66.459  1.00  0.00    -0.251 C  
ENDROOT
BRANCH   4   5
HETATM    5  C   UNL     1     -10.483   7.556  67.764  1.00  0.00    -0.288 C  
BRANCH   5   6
HETATM    6  C   UNL     1     -10.941   6.130  68.074  1.00  0.00    -0.399 C  
BRANCH   6   7
HETATM    7  C   UNL     1     -11.000   5.902  69.565  1.00  0.00    -0.438 A  
HETATM    8  C   UNL     1     -11.908   6.616  70.358  1.00  0.00    -0.407 A  
HETATM    9  C   UNL     1     -11.916   6.455  71.744  1.00  0.00    -0.370 A  
HETATM   10  C   UNL     1     -11.015   5.580  72.350  1.00  0.00    -0.310 A  
HETATM   11  C   UNL     1     -10.112   4.862  71.570  1.00  0.00    -0.266 A  
HETATM   12  C   UNL     1     -10.103   5.022  70.184  1.00  0.00    -0.338 A  
ENDBRANCH   6   7
ENDBRANCH   5   6
ENDBRANCH   4   5
TORSDOF 3
ENDMDL
MODEL      137
REMARK 921   NORMALIZED FREE ENERGY PREDICTED BY IDOCK:   -3.04 KCAL/MOL
REMARK 922        TOTAL FREE ENERGY PREDICTED BY IDOCK:   -3.90 KCAL/MOL
REMARK 923 INTER-LIGAND FREE ENERGY PREDICTED BY IDOCK:   -3.62 KCAL/MOL
REMARK 924 INTRA-LIGAND FREE ENERGY PREDICTED BY IDOCK:   -0.28 KCAL/MOL
REMARK 927      BINDING AFFINITY PREDICTED BY RF-SCORE:    0.00 PKD
ROOT
HETATM    1  O   UNL     1      -5.813   7.709  72.085  1.00  0.00    -0.036 OA 
HETATM    2  C   UNL     1      -6.943   8.438  71.935  1.00  0.00    -0.090 C  
HETATM    3  O   UNL     1      -7.574   8.863  72.888  1.00  0.00    -0.359 OA 
HETATM    4  C   UNL     1      -7.301   8.646  70.479  1.00  0.00    -0.058 C  
ENDROOT
BRANCH   4   5
HETATM    5  C   UNL     1      -8.582   9.465  70.331  1.00  0.00    -0.266 C  
BRANCH   5   6
HETATM    6  C   UNL     1      -9.808   8.578  70.106  1.00  0.00    -0.184 C  
BRANCH   6   7
HETATM    7  C   UNL     1     -11.014   9.146  70.812  1.00  0.00    -0.332 A  
HETATM    8  C   UNL     1     -11.766   8.351  71.687  1.00  0.00    -0.354 A  
HETATM    9  C   UNL     1     -12.920   8.857  72.287  1.00  0.00    -0.479 A  
HETATM   10  C   UNL     1     -13.335  10.160  72.016  1.00  0.00    -0.492 A  
HETATM   11  C   UNL     1     -12.592  10.959  71.150  1.00  0.00    -0.532 A  
HETATM   12  C   UNL     1     -11.437  10.456  70.550  1.00  0.00    -0.431 A  
ENDBRANCH   6   7
ENDBRANCH   5   6
ENDBRANCH   4   5
TORSDOF 3
ENDMDL
MODEL      138
REMARK 921   NORMALIZED FREE ENERGY PREDICTED BY IDOCK:   -3.02 KCAL/MOL
REMARK 922        TOTAL FREE ENERGY PREDICTED BY IDOCK:   -3.88 KCAL/MOL
REMARK 923 INTER-LIGAND FREE ENERGY PREDICTED BY IDOCK:   -3.63 KCAL/MOL
REMARK 924 INTRA-LIGAND FREE ENERGY PREDICTED BY IDOCK:   -0.25 KCAL/MOL
REMARK 927      BINDING AFFINITY PREDICTED BY RF-SCORE:    0.00 PKD
ROOT
HETATM    1  O   UNL     1      -6.962  12.408  68.843  1.00  0.00    -0.096 OA 
HETATM    2  C   UNL     1      -6.787  13.561  68.157  1.00  0.00    -0.119 C  
HETATM    3  O   UNL     1      -5.894  13.700  67.337  1.00  0.00    -0.352 OA 
HETATM    4  C   UNL     1      -7.808  14.613  68.532  1.00  0.00    -0.133 C  
ENDROOT
BRANCH   4   5
HETATM    5  C   UNL     1      -7.588  15.907  67.751  1.00  0.00    -0.157 C  
BRANCH   5   6
HETATM    6  C   UNL     1      -7.652  17.139  68.656  1.00  0.00    -0.258 C  
BRANCH   6   7
HETATM    7  C   UNL     1      -8.465  18.234  68.010  1.00  0.00    -0.273 A  
HETATM    8  C   UNL     1      -9.591  18.758  68.657  1.00  0.00    -0.432 A  
HETATM    9  C   UNL     1     -10.382  19.723  68.031  1.00  0.00    -0.567 A  
HETATM   10  C   UNL     1     -10.056  20.169  66.751  1.00  0.00    -0.591 A  
HETATM   11  C   UNL     1      -8.935  19.657  66.101  1.00  0.00    -0.375 A  
HETATM   12  C   UNL     1      -8.143  18.693  66.726  1.00  0.00    -0.275 A  
ENDBRANCH   6   7
ENDBRANCH   5   6
ENDBRANCH   4   5
TORSDOF 3
ENDMDL
MODEL      139
REMARK 921   NORMALIZED FREE ENERGY PREDICTED BY IDOCK:   -3.02 KCAL/MOL
REMARK 922        TOTAL FREE ENERGY PREDICTED BY IDOCK:   -3.87 KCAL/MOL
REMARK 923 INTER-LIGAND FREE ENERGY PREDICTED BY IDOCK:   -3.49 KCAL/MOL
REMARK 924 INTRA-LIGAND FREE ENERGY PREDICTED BY IDOCK:   -0.38 KCAL/MOL
REMARK 927      BINDING AFFINITY PREDICTED BY RF-SCORE:    0.00 PKD
ROOT
HETATM    1  O   UNL     1     -11.752  15.110  68.669  1.00  0.00    -0.335 OA 
HETATM    2  C   UNL     1     -11.849  13.833  68.234  1.00  0.00    -0.378 C  
HETATM    3  O   UNL     1     -12.055  13.559  67.063  1.00  0.00    -0.384 OA 
HETATM    4  C   UNL     1     -11.675  12.830  69.353  1.00  0.00    -0.380 C  
ENDROOT
BRANCH   4   5
HETATM    5  C   UNL     1     -11.794  11.396  68.842  1.00  0.00    -0.413 C  
BRANCH   5   6
HETATM    6  C   UNL     1     -10.466  10.641  68.938  1.00  0.00    -0.232 C  
BRANCH   6   7
HETATM    7  C   UNL     1      -9.933  10.324  67.562  1.00  0.00    -0.226 A  
HETATM    8  C   UNL     1      -9.927   9.005  67.090  1.00  0.00    -0.286 A  
HETATM    9  C   UNL     1      -9.373   8.702  65.846  1.00  0.00    -0.262 A  
HETATM   10  C   UNL     1      -8.818   9.713  65.063  1.00  0.00    -0.221 A  
HETATM   11  C   UNL     1      -8.824  11.029  65.522  1.00  0.00    -0.179 A  
HETATM   12  C   UNL     1      -9.378  11.334  66.766  1.00  0.00    -0.191 A  
ENDBRANCH   6   7
ENDBRANCH   5   6
ENDBRANCH   4   5
TORSDOF 3
ENDMDL
MODEL      140
REMARK 921   NORMALIZED FREE ENERGY PREDICTED BY IDOCK:   -3.01 KCAL/MOL
REMARK 922        TOTAL FREE ENERGY PREDICTED BY IDOCK:   -3.86 KCAL/MOL
REMARK 923 INTER-LIGAND FREE ENERGY PREDICTED BY IDOCK:   -3.91 KCAL/MOL
REMARK 924 INTRA-LIGAND FREE ENERGY PREDICTED BY IDOCK:    0.05 KCAL/MOL
REMARK 927      BINDING AFFINITY PREDICTED BY RF-SCORE:    0.00 PKD
ROOT
HETATM    1  O   UNL     1      -9.530  11.130  63.060  1.00  0.00    -0.307 OA 
HETATM    2  C   UNL     1     -10.590  11.331  63.877  1.00  0.00    -0.391 C  
HETATM    3  O   UNL     1     -10.924  10.516  64.721  1.00  0.00     0.098 OA 
HETATM    4  C   UNL     1     -11.278  12.652  63.609  1.00  0.00    -0.525 C  
ENDROOT
BRANCH   4   5
HETATM    5  C   UNL     1     -12.475  12.856  64.536  1.00  0.00    -0.468 C  
BRANCH   5   6
HETATM    6  C   UNL     1     -12.042  13.139  65.976  1.00  0.00    -0.495 C  
BRANCH   6   7
HETATM    7  C   UNL     1     -10.976  14.208  66.012  1.00  0.00    -0.304 A  
HETATM    8  C   UNL     1      -9.835  14.046  66.809  1.00  0.00    -0.275 A  
HETATM    9  C   UNL     1      -8.883  15.063  66.894  1.00  0.00    -0.285 A  
HETATM   10  C   UNL     1      -9.063  16.251  66.187  1.00  0.00    -0.377 A  
HETATM   11  C   UNL     1     -10.193  16.419  65.389  1.00  0.00    -0.218 A  
HETATM   12  C   UNL     1     -11.146  15.403  65.302  1.00  0.00    -0.367 A  
ENDBRANCH   6   7
ENDBRANCH   5   6
ENDBRANCH   4   5
TORSDOF 3
ENDMDL
MODEL      141
REMARK 921   NORMALIZED FREE ENERGY PREDICTED BY IDOCK:   -3.00 KCAL/MOL
REMARK 922        TOTAL FREE ENERGY PREDICTED BY IDOCK:   -3.85 KCAL/MOL
REMARK 923 INTER-LIGAND FREE ENERGY PREDICTED BY IDOCK:   -3.53 KCAL/MOL
REMARK 924 INTRA-LIGAND FREE ENERGY PREDICTED BY IDOCK:   -0.32 KCAL/MOL
REMARK 927      BINDING AFFINITY PREDICTED BY RF-SCORE:    0.00 PKD
ROOT
HETATM    1  O   UNL     1     -12.190  11.440  69.760  1.00  0.00    -0.298 OA 
HETATM    2  C   UNL     1     -11.280  10.533  70.185  1.00  0.00    -0.315 C  
HETATM    3  O   UNL     1     -10.252  10.305  69.568  1.00  0.00    -0.216 OA 
HETATM    4  C   UNL     1     -11.695   9.866  71.478  1.00  0.00    -0.414 C  
ENDROOT
BRANCH   4   5
HETATM    5  C   UNL     1     -10.658   8.843  71.937  1.00  0.00    -0.419 C  
BRANCH   5   6
HETATM    6  C   UNL     1     -11.307   7.530  72.380  1.00  0.00    -0.360 C  
BRANCH   6   7
HETATM    7  C   UNL     1     -10.811   6.379  71.539  1.00  0.00    -0.299 A  
HETATM    8  C   UNL     1     -10.711   6.509  70.148  1.00  0.00    -0.305 A  
HETATM    9  C   UNL     1     -10.317   5.423  69.364  1.00  0.00    -0.339 A  
HETATM   10  C   UNL     1     -10.022   4.199  69.962  1.00  0.00    -0.137 A  
HETATM   11  C   UNL     1     -10.115   4.062  71.345  1.00  0.00    -0.147 A  
HETATM   12  C   UNL     1     -10.508   5.147  72.131  1.00  0.00    -0.281 A  
ENDBRANCH   6   7
ENDBRANCH   5   6
ENDBRANCH   4   5
TORSDOF 3
ENDMDL
MODEL      142
REMARK 921   NORMALIZED FREE ENERGY PREDICTED BY IDOCK:   -3.00 KCAL/MOL
REMARK 922        TOTAL FREE ENERGY PREDICTED BY IDOCK:   -3.85 KCAL/MOL
REMARK 923 INTER-LIGAND FREE ENERGY PREDICTED BY IDOCK:   -3.53 KCAL/MOL
REMARK 924 INTRA-LIGAND FREE ENERGY PREDICTED BY IDOCK:   -0.33 KCAL/MOL
REMARK 927      BINDING AFFINITY PREDICTED BY RF-SCORE:    0.00 PKD
ROOT
HETATM    1  O   UNL     1     -13.246  11.256  72.035  1.00  0.00    -0.506 OA 
HETATM    2  C   UNL     1     -13.263   9.903  72.039  1.00  0.00    -0.456 C  
HETATM    3  O   UNL     1     -14.170   9.266  72.549  1.00  0.00    -0.464 OA 
HETATM    4  C   UNL     1     -12.051   9.312  71.352  1.00  0.00    -0.424 C  
ENDROOT
BRANCH   4   5
HETATM    5  C   UNL     1     -12.086   7.785  71.374  1.00  0.00    -0.335 C  
BRANCH   5   6
HETATM    6  C   UNL     1     -11.357   7.212  72.590  1.00  0.00    -0.306 C  
BRANCH   6   7
HETATM    7  C   UNL     1      -9.862   7.321  72.415  1.00  0.00    -0.188 A  
HETATM    8  C   UNL     1      -9.051   7.741  73.477  1.00  0.00    -0.342 A  
HETATM    9  C   UNL     1      -7.677   7.907  73.296  1.00  0.00    -0.186 A  
HETATM   10  C   UNL     1      -7.102   7.657  72.051  1.00  0.00    -0.065 A  
HETATM   11  C   UNL     1      -7.899   7.234  70.989  1.00  0.00    -0.097 A  
HETATM   12  C   UNL     1      -9.273   7.067  71.169  1.00  0.00    -0.157 A  
ENDBRANCH   6   7
ENDBRANCH   5   6
ENDBRANCH   4   5
TORSDOF 3
ENDMDL
MODEL      143
REMARK 921   NORMALIZED FREE ENERGY PREDICTED BY IDOCK:   -2.99 KCAL/MOL
REMARK 922        TOTAL FREE ENERGY PREDICTED BY IDOCK:   -3.85 KCAL/MOL
REMARK 923 INTER-LIGAND FREE ENERGY PREDICTED BY IDOCK:   -3.64 KCAL/MOL
REMARK 924 INTRA-LIGAND FREE ENERGY PREDICTED BY IDOCK:   -0.21 KCAL/MOL
REMARK 927      BINDING AFFINITY PREDICTED BY RF-SCORE:    0.00 PKD
ROOT
HETATM    1  O   UNL     1      -8.060  10.230  67.634  1.00  0.00    -0.106 OA 
HETATM    2  C   UNL     1      -8.223   9.636  68.839  1.00  0.00    -0.110 C  
HETATM    3  O   UNL     1      -7.456   8.783  69.253  1.00  0.00    -0.075 OA 
HETATM    4  C   UNL     1      -9.440  10.155  69.573  1.00  0.00    -0.235 C  
ENDROOT
BRANCH   4   5
HETATM    5  C   UNL     1      -9.610   9.468  70.928  1.00  0.00    -0.216 C  
BRANCH   5   6
HETATM    6  C   UNL     1     -10.286   8.102  70.796  1.00  0.00    -0.217 C  
BRANCH   6   7
HETATM    7  C   UNL     1     -11.712   8.163  71.290  1.00  0.00    -0.310 A  
HETATM    8  C   UNL     1     -12.536   7.033  71.219  1.00  0.00    -0.418 A  
HETATM    9  C   UNL     1     -13.873   7.108  71.612  1.00  0.00    -0.418 A  
HETATM   10  C   UNL     1     -14.398   8.313  72.077  1.00  0.00    -0.541 A  
HETATM   11  C   UNL     1     -13.584   9.441  72.155  1.00  0.00    -0.528 A  
HETATM   12  C   UNL     1     -12.247   9.368  71.763  1.00  0.00    -0.465 A  
ENDBRANCH   6   7
ENDBRANCH   5   6
ENDBRANCH   4   5
TORSDOF 3
ENDMDL
MODEL      144
REMARK 921   NORMALIZED FREE ENERGY PREDICTED BY IDOCK:   -2.99 KCAL/MOL
REMARK 922        TOTAL FREE ENERGY PREDICTED BY IDOCK:   -3.84 KCAL/MOL
REMARK 923 INTER-LIGAND FREE ENERGY PREDICTED BY IDOCK:   -3.53 KCAL/MOL
REMARK 924 INTRA-LIGAND FREE ENERGY PREDICTED BY IDOCK:   -0.32 KCAL/MOL
REMARK 927      BINDING AFFINITY PREDICTED BY RF-SCORE:    0.00 PKD
ROOT
HETATM    1  O   UNL     1      -8.706   8.655  72.646  1.00  0.00    -0.380 OA 
HETATM    2  C   UNL     1      -9.868   8.792  71.965  1.00  0.00    -0.306 C  
HETATM    3  O   UNL     1     -10.916   8.316  72.367  1.00  0.00    -0.323 OA 
HETATM    4  C   UNL     1      -9.695   9.585  70.688  1.00  0.00    -0.311 C  
ENDROOT
BRANCH   4   5
HETATM    5  C   UNL     1     -11.015   9.723  69.933  1.00  0.00    -0.299 C  
BRANCH   5   6
HETATM    6  C   UNL     1     -10.801   9.862  68.424  1.00  0.00    -0.263 C  
BRANCH   6   7
HETATM    7  C   UNL     1     -10.636  11.312  68.041  1.00  0.00    -0.230 A  
HETATM    8  C   UNL     1      -9.374  11.817  67.700  1.00  0.00    -0.180 A  
HETATM    9  C   UNL     1      -9.210  13.172  67.411  1.00  0.00    -0.213 A  
HETATM   10  C   UNL     1     -10.304  14.036  67.462  1.00  0.00    -0.245 A  
HETATM   11  C   UNL     1     -11.563  13.541  67.796  1.00  0.00    -0.374 A  
HETATM   12  C   UNL     1     -11.729  12.186  68.085  1.00  0.00    -0.402 A  
ENDBRANCH   6   7
ENDBRANCH   5   6
ENDBRANCH   4   5
TORSDOF 3
ENDMDL
MODEL      145
REMARK 921   NORMALIZED FREE ENERGY PREDICTED BY IDOCK:   -2.98 KCAL/MOL
REMARK 922        TOTAL FREE ENERGY PREDICTED BY IDOCK:   -3.83 KCAL/MOL
REMARK 923 INTER-LIGAND FREE ENERGY PREDICTED BY IDOCK:   -3.55 KCAL/MOL
REMARK 924 INTRA-LIGAND FREE ENERGY PREDICTED BY IDOCK:   -0.28 KCAL/MOL
REMARK 927      BINDING AFFINITY PREDICTED BY RF-SCORE:    0.00 PKD
ROOT
HETATM    1  O   UNL     1     -10.353   5.063  66.205  1.00  0.00    -0.243 OA 
HETATM    2  C   UNL     1      -9.840   6.223  66.676  1.00  0.00    -0.154 C  
HETATM    3  O   UNL     1      -8.654   6.354  66.931  1.00  0.00    -0.109 OA 
HETATM    4  C   UNL     1     -10.897   7.294  66.838  1.00  0.00    -0.265 C  
ENDROOT
BRANCH   4   5
HETATM    5  C   UNL     1     -10.299   8.593  67.376  1.00  0.00    -0.353 C  
BRANCH   5   6
HETATM    6  C   UNL     1     -10.389   9.730  66.357  1.00  0.00    -0.247 C  
BRANCH   6   7
HETATM    7  C   UNL     1     -10.920  10.986  67.004  1.00  0.00    -0.333 A  
HETATM    8  C   UNL     1     -11.289  10.986  68.355  1.00  0.00    -0.363 A  
HETATM    9  C   UNL     1     -11.843  12.127  68.936  1.00  0.00    -0.358 A  
HETATM   10  C   UNL     1     -12.035  13.278  68.172  1.00  0.00    -0.340 A  
HETATM   11  C   UNL     1     -11.666  13.288  66.829  1.00  0.00    -0.434 A  
HETATM   12  C   UNL     1     -11.112  12.148  66.246  1.00  0.00    -0.353 A  
ENDBRANCH   6   7
ENDBRANCH   5   6
ENDBRANCH   4   5
TORSDOF 3
ENDMDL
MODEL      146
REMARK 921   NORMALIZED FREE ENERGY PREDICTED BY IDOCK:   -2.96 KCAL/MOL
REMARK 922        TOTAL FREE ENERGY PREDICTED BY IDOCK:   -3.81 KCAL/MOL
REMARK 923 INTER-LIGAND FREE ENERGY PREDICTED BY IDOCK:   -3.37 KCAL/MOL
REMARK 924 INTRA-LIGAND FREE ENERGY PREDICTED BY IDOCK:   -0.44 KCAL/MOL
REMARK 927      BINDING AFFINITY PREDICTED BY RF-SCORE:    0.00 PKD
ROOT
HETATM    1  O   UNL     1      -8.832  10.106  69.660  1.00  0.00    -0.195 OA 
HETATM    2  C   UNL     1      -8.879   8.770  69.453  1.00  0.00    -0.143 C  
HETATM    3  O   UNL     1      -8.365   7.974  70.222  1.00  0.00    -0.121 OA 
HETATM    4  C   UNL     1      -9.628   8.411  68.188  1.00  0.00    -0.158 C  
ENDROOT
BRANCH   4   5
HETATM    5  C   UNL     1      -9.665   6.900  67.971  1.00  0.00    -0.138 C  
BRANCH   5   6
HETATM    6  C   UNL     1     -11.021   6.300  68.348  1.00  0.00    -0.409 C  
BRANCH   6   7
HETATM    7  C   UNL     1     -11.071   5.983  69.823  1.00  0.00    -0.476 A  
HETATM    8  C   UNL     1     -11.878   6.737  70.684  1.00  0.00    -0.442 A  
HETATM    9  C   UNL     1     -11.873   6.487  72.057  1.00  0.00    -0.374 A  
HETATM   10  C   UNL     1     -11.060   5.484  72.582  1.00  0.00    -0.334 A  
HETATM   11  C   UNL     1     -10.257   4.726  71.733  1.00  0.00    -0.258 A  
HETATM   12  C   UNL     1     -10.261   4.973  70.359  1.00  0.00    -0.324 A  
ENDBRANCH   6   7
ENDBRANCH   5   6
ENDBRANCH   4   5
TORSDOF 3
ENDMDL
MODEL      147
REMARK 921   NORMALIZED FREE ENERGY PREDICTED BY IDOCK:   -2.96 KCAL/MOL
REMARK 922        TOTAL FREE ENERGY PREDICTED BY IDOCK:   -3.80 KCAL/MOL
REMARK 923 INTER-LIGAND FREE ENERGY PREDICTED BY IDOCK:   -3.67 KCAL/MOL
REMARK 924 INTRA-LIGAND FREE ENERGY PREDICTED BY IDOCK:   -0.13 KCAL/MOL
REMARK 927      BINDING AFFINITY PREDICTED BY RF-SCORE:    0.00 PKD
ROOT
HETATM    1  O   UNL     1      -7.656  16.180  69.190  1.00  0.00    -0.212 OA 
HETATM    2  C   UNL     1      -8.865  15.962  68.624  1.00  0.00    -0.206 C  
HETATM    3  O   UNL     1      -9.450  16.824  67.988  1.00  0.00    -0.227 OA 
HETATM    4  C   UNL     1      -9.374  14.560  68.878  1.00  0.00    -0.136 C  
ENDROOT
BRANCH   4   5
HETATM    5  C   UNL     1     -10.742  14.337  68.236  1.00  0.00    -0.253 C  
BRANCH   5   6
HETATM    6  C   UNL     1     -11.850  14.203  69.282  1.00  0.00    -0.381 C  
BRANCH   6   7
HETATM    7  C   UNL     1     -11.931  12.786  69.795  1.00  0.00    -0.362 A  
HETATM    8  C   UNL     1     -12.729  12.477  70.905  1.00  0.00    -0.270 A  
HETATM    9  C   UNL     1     -12.750  11.180  71.420  1.00  0.00    -0.524 A  
HETATM   10  C   UNL     1     -11.973  10.182  70.834  1.00  0.00    -0.461 A  
HETATM   11  C   UNL     1     -11.180  10.479  69.728  1.00  0.00    -0.361 A  
HETATM   12  C   UNL     1     -11.157  11.775  69.210  1.00  0.00    -0.278 A  
ENDBRANCH   6   7
ENDBRANCH   5   6
ENDBRANCH   4   5
TORSDOF 3
ENDMDL
MODEL      148
REMARK 921   NORMALIZED FREE ENERGY PREDICTED BY IDOCK:   -2.94 KCAL/MOL
REMARK 922        TOTAL FREE ENERGY PREDICTED BY IDOCK:   -3.78 KCAL/MOL
REMARK 923 INTER-LIGAND FREE ENERGY PREDICTED BY IDOCK:   -3.49 KCAL/MOL
REMARK 924 INTRA-LIGAND FREE ENERGY PREDICTED BY IDOCK:   -0.29 KCAL/MOL
REMARK 927      BINDING AFFINITY PREDICTED BY RF-SCORE:    0.00 PKD
ROOT
HETATM    1  O   UNL     1     -10.850  11.494  66.258  1.00  0.00    -0.272 OA 
HETATM    2  C   UNL     1     -10.675  11.612  67.595  1.00  0.00    -0.207 C  
HETATM    3  O   UNL     1     -10.751  12.686  68.168  1.00  0.00    -0.211 OA 
HETATM    4  C   UNL     1     -10.384  10.282  68.255  1.00  0.00    -0.209 C  
ENDROOT
BRANCH   4   5
HETATM    5  C   UNL     1     -10.185  10.438  69.762  1.00  0.00    -0.228 C  
BRANCH   5   6
HETATM    6  C   UNL     1     -11.493  10.260  70.534  1.00  0.00    -0.427 C  
BRANCH   6   7
HETATM    7  C   UNL     1     -11.438   9.024  71.399  1.00  0.00    -0.400 A  
HETATM    8  C   UNL     1     -10.382   8.834  72.300  1.00  0.00    -0.320 A  
HETATM    9  C   UNL     1     -10.295   7.661  73.050  1.00  0.00    -0.393 A  
HETATM   10  C   UNL     1     -11.261   6.665  72.905  1.00  0.00    -0.227 A  
HETATM   11  C   UNL     1     -12.317   6.847  72.015  1.00  0.00    -0.305 A  
HETATM   12  C   UNL     1     -12.406   8.020  71.264  1.00  0.00    -0.290 A  
ENDBRANCH   6   7
ENDBRANCH   5   6
ENDBRANCH   4   5
TORSDOF 3
ENDMDL
MODEL      149
REMARK 921   NORMALIZED FREE ENERGY PREDICTED BY IDOCK:   -2.90 KCAL/MOL
REMARK 922        TOTAL FREE ENERGY PREDICTED BY IDOCK:   -3.73 KCAL/MOL
REMARK 923 INTER-LIGAND FREE ENERGY PREDICTED BY IDOCK:   -3.50 KCAL/MOL
REMARK 924 INTRA-LIGAND FREE ENERGY PREDICTED BY IDOCK:   -0.24 KCAL/MOL
REMARK 927      BINDING AFFINITY PREDICTED BY RF-SCORE:    0.00 PKD
ROOT
HETATM    1  O   UNL     1     -12.140  12.021  66.733  1.00  0.00    -0.613 OA 
HETATM    2  C   UNL     1     -11.011  12.642  66.319  1.00  0.00    -0.283 C  
HETATM    3  O   UNL     1     -10.040  12.023  65.918  1.00  0.00    -0.224 OA 
HETATM    4  C   UNL     1     -11.114  14.148  66.420  1.00  0.00    -0.320 C  
ENDROOT
BRANCH   4   5
HETATM    5  C   UNL     1      -9.828  14.828  65.954  1.00  0.00    -0.363 C  
BRANCH   5   6
HETATM    6  C   UNL     1      -8.810  14.967  67.088  1.00  0.00    -0.235 C  
BRANCH   6   7
HETATM    7  C   UNL     1      -7.978  16.213  66.908  1.00  0.00    -0.279 A  
HETATM    8  C   UNL     1      -8.580  17.420  66.529  1.00  0.00    -0.293 A  
HETATM    9  C   UNL     1      -7.802  18.555  66.297  1.00  0.00    -0.282 A  
HETATM   10  C   UNL     1      -6.417  18.495  66.439  1.00  0.00    -0.228 A  
HETATM   11  C   UNL     1      -5.810  17.300  66.820  1.00  0.00    -0.227 A  
HETATM   12  C   UNL     1      -6.586  16.163  67.053  1.00  0.00    -0.150 A  
ENDBRANCH   6   7
ENDBRANCH   5   6
ENDBRANCH   4   5
TORSDOF 3
ENDMDL
MODEL      150
REMARK 921   NORMALIZED FREE ENERGY PREDICTED BY IDOCK:   -2.88 KCAL/MOL
REMARK 922        TOTAL FREE ENERGY PREDICTED BY IDOCK:   -3.71 KCAL/MOL
REMARK 923 INTER-LIGAND FREE ENERGY PREDICTED BY IDOCK:   -3.46 KCAL/MOL
REMARK 924 INTRA-LIGAND FREE ENERGY PREDICTED BY IDOCK:   -0.26 KCAL/MOL
REMARK 927      BINDING AFFINITY PREDICTED BY RF-SCORE:    0.00 PKD
ROOT
HETATM    1  O   UNL     1     -11.521   6.072  69.925  1.00  0.00    -0.388 OA 
HETATM    2  C   UNL     1     -10.678   6.990  70.454  1.00  0.00    -0.234 C  
HETATM    3  O   UNL     1      -9.581   6.687  70.894  1.00  0.00    -0.174 OA 
HETATM    4  C   UNL     1     -11.260   8.386  70.427  1.00  0.00    -0.220 C  
ENDROOT
BRANCH   4   5
HETATM    5  C   UNL     1     -10.297   9.405  71.034  1.00  0.00    -0.382 C  
BRANCH   5   6
HETATM    6  C   UNL     1      -9.327   9.967  69.992  1.00  0.00    -0.232 C  
BRANCH   6   7
HETATM    7  C   UNL     1     -10.081  10.642  68.873  1.00  0.00    -0.215 A  
HETATM    8  C   UNL     1      -9.737  10.399  67.537  1.00  0.00    -0.195 A  
HETATM    9  C   UNL     1     -10.389  11.075  66.505  1.00  0.00    -0.295 A  
HETATM   10  C   UNL     1     -11.388  12.002  66.798  1.00  0.00    -0.398 A  
HETATM   11  C   UNL     1     -11.740  12.248  68.123  1.00  0.00    -0.408 A  
HETATM   12  C   UNL     1     -11.090  11.572  69.157  1.00  0.00    -0.316 A  
ENDBRANCH   6   7
ENDBRANCH   5   6
ENDBRANCH   4   5
TORSDOF 3
ENDMDL
MODEL      151
REMARK 921   NORMALIZED FREE ENERGY PREDICTED BY IDOCK:   -2.88 KCAL/MOL
REMARK 922        TOTAL FREE ENERGY PREDICTED BY IDOCK:   -3.71 KCAL/MOL
REMARK 923 INTER-LIGAND FREE ENERGY PREDICTED BY IDOCK:   -3.42 KCAL/MOL
REMARK 924 INTRA-LIGAND FREE ENERGY PREDICTED BY IDOCK:   -0.29 KCAL/MOL
REMARK 927      BINDING AFFINITY PREDICTED BY RF-SCORE:    0.00 PKD
ROOT
HETATM    1  O   UNL     1      -7.125  16.997  69.324  1.00  0.00    -0.237 OA 
HETATM    2  C   UNL     1      -8.194  16.482  68.673  1.00  0.00    -0.234 C  
HETATM    3  O   UNL     1      -8.759  17.084  67.775  1.00  0.00    -0.216 OA 
HETATM    4  C   UNL     1      -8.576  15.113  69.190  1.00  0.00    -0.218 C  
ENDROOT
BRANCH   4   5
HETATM    5  C   UNL     1      -9.787  14.553  68.446  1.00  0.00    -0.227 C  
BRANCH   5   6
HETATM    6  C   UNL     1      -9.621  13.068  68.118  1.00  0.00    -0.227 C  
BRANCH   6   7
HETATM    7  C   UNL     1      -9.949  12.802  66.669  1.00  0.00    -0.246 A  
HETATM    8  C   UNL     1     -10.354  13.848  65.829  1.00  0.00    -0.326 A  
HETATM    9  C   UNL     1     -10.723  13.591  64.508  1.00  0.00    -0.431 A  
HETATM   10  C   UNL     1     -10.693  12.288  64.015  1.00  0.00    -0.438 A  
HETATM   11  C   UNL     1     -10.287  11.242  64.841  1.00  0.00    -0.362 A  
HETATM   12  C   UNL     1      -9.918  11.496  66.162  1.00  0.00    -0.257 A  
ENDBRANCH   6   7
ENDBRANCH   5   6
ENDBRANCH   4   5
TORSDOF 3
ENDMDL
MODEL      152
REMARK 921   NORMALIZED FREE ENERGY PREDICTED BY IDOCK:   -2.87 KCAL/MOL
REMARK 922        TOTAL FREE ENERGY PREDICTED BY IDOCK:   -3.70 KCAL/MOL
REMARK 923 INTER-LIGAND FREE ENERGY PREDICTED BY IDOCK:   -3.41 KCAL/MOL
REMARK 924 INTRA-LIGAND FREE ENERGY PREDICTED BY IDOCK:   -0.29 KCAL/MOL
REMARK 927      BINDING AFFINITY PREDICTED BY RF-SCORE:    0.00 PKD
ROOT
HETATM    1  O   UNL     1     -13.324  11.332  72.005  1.00  0.00    -0.462 OA 
HETATM    2  C   UNL     1     -13.128   9.995  72.064  1.00  0.00    -0.441 C  
HETATM    3  O   UNL     1     -13.978   9.231  72.490  1.00  0.00    -0.459 OA 
HETATM    4  C   UNL     1     -11.763   9.592  71.550  1.00  0.00    -0.472 C  
ENDROOT
BRANCH   4   5
HETATM    5  C   UNL     1     -11.559   8.080  71.630  1.00  0.00    -0.317 C  
BRANCH   5   6
HETATM    6  C   UNL     1     -10.122   7.677  71.296  1.00  0.00    -0.203 C  
BRANCH   6   7
HETATM    7  C   UNL     1     -10.058   7.001  69.948  1.00  0.00    -0.202 A  
HETATM    8  C   UNL     1      -8.890   7.066  69.176  1.00  0.00    -0.135 A  
HETATM    9  C   UNL     1      -8.854   6.499  67.901  1.00  0.00    -0.114 A  
HETATM   10  C   UNL     1      -9.983   5.865  67.386  1.00  0.00    -0.172 A  
HETATM   11  C   UNL     1     -11.147   5.792  68.148  1.00  0.00     0.022 A  
HETATM   12  C   UNL     1     -11.186   6.358  69.423  1.00  0.00    -0.459 A  
ENDBRANCH   6   7
ENDBRANCH   5   6
ENDBRANCH   4   5
TORSDOF 3
ENDMDL
MODEL      153
REMARK 921   NORMALIZED FREE ENERGY PREDICTED BY IDOCK:   -2.86 KCAL/MOL
REMARK 922        TOTAL FREE ENERGY PREDICTED BY IDOCK:   -3.69 KCAL/MOL
REMARK 923 INTER-LIGAND FREE ENERGY PREDICTED BY IDOCK:   -3.55 KCAL/MOL
REMARK 924 INTRA-LIGAND FREE ENERGY PREDICTED BY IDOCK:   -0.14 KCAL/MOL
REMARK 927      BINDING AFFINITY PREDICTED BY RF-SCORE:    0.00 PKD
ROOT
HETATM    1  O   UNL     1      -9.375   9.730  64.084  1.00  0.00    -0.266 OA 
HETATM    2  C   UNL     1      -9.990  10.936  64.087  1.00  0.00    -0.344 C  
HETATM    3  O   UNL     1     -10.061  11.631  63.087  1.00  0.00    -0.397 OA 
HETATM    4  C   UNL     1     -10.554  11.289  65.445  1.00  0.00    -0.312 C  
ENDROOT
BRANCH   4   5
HETATM    5  C   UNL     1     -11.238  12.655  65.428  1.00  0.00    -0.334 C  
BRANCH   5   6
HETATM    6  C   UNL     1     -10.227  13.802  65.389  1.00  0.00    -0.344 C  
BRANCH   6   7
HETATM    7  C   UNL     1     -10.079  14.429  66.754  1.00  0.00    -0.266 A  
HETATM    8  C   UNL     1     -11.197  14.939  67.426  1.00  0.00    -0.343 A  
HETATM    9  C   UNL     1     -11.049  15.579  68.658  1.00  0.00    -0.297 A  
HETATM   10  C   UNL     1      -9.784  15.717  69.227  1.00  0.00    -0.263 A  
HETATM   11  C   UNL     1      -8.667  15.209  68.567  1.00  0.00    -0.172 A  
HETATM   12  C   UNL     1      -8.812  14.568  67.336  1.00  0.00    -0.207 A  
ENDBRANCH   6   7
ENDBRANCH   5   6
ENDBRANCH   4   5
TORSDOF 3
ENDMDL
MODEL      154
REMARK 921   NORMALIZED FREE ENERGY PREDICTED BY IDOCK:   -2.85 KCAL/MOL
REMARK 922        TOTAL FREE ENERGY PREDICTED BY IDOCK:   -3.68 KCAL/MOL
REMARK 923 INTER-LIGAND FREE ENERGY PREDICTED BY IDOCK:   -3.39 KCAL/MOL
REMARK 924 INTRA-LIGAND FREE ENERGY PREDICTED BY IDOCK:   -0.29 KCAL/MOL
REMARK 927      BINDING AFFINITY PREDICTED BY RF-SCORE:    0.00 PKD
ROOT
HETATM    1  O   UNL     1      -5.196  19.091  64.124  1.00  0.00    -0.191 OA 
HETATM    2  C   UNL     1      -6.109  19.195  65.117  1.00  0.00    -0.270 C  
HETATM    3  O   UNL     1      -6.604  20.263  65.435  1.00  0.00    -0.248 OA 
HETATM    4  C   UNL     1      -6.418  17.858  65.754  1.00  0.00    -0.263 C  
ENDROOT
BRANCH   4   5
HETATM    5  C   UNL     1      -7.445  17.998  66.876  1.00  0.00    -0.235 C  
BRANCH   5   6
HETATM    6  C   UNL     1      -8.874  17.784  66.374  1.00  0.00    -0.256 C  
BRANCH   6   7
HETATM    7  C   UNL     1      -9.206  16.312  66.321  1.00  0.00    -0.363 A  
HETATM    8  C   UNL     1     -10.179  15.835  65.434  1.00  0.00    -0.380 A  
HETATM    9  C   UNL     1     -10.533  14.485  65.432  1.00  0.00    -0.399 A  
HETATM   10  C   UNL     1      -9.921  13.601  66.319  1.00  0.00    -0.305 A  
HETATM   11  C   UNL     1      -8.948  14.066  67.202  1.00  0.00    -0.241 A  
HETATM   12  C   UNL     1      -8.592  15.415  67.205  1.00  0.00    -0.235 A  
ENDBRANCH   6   7
ENDBRANCH   5   6
ENDBRANCH   4   5
TORSDOF 3
ENDMDL
MODEL      155
REMARK 921   NORMALIZED FREE ENERGY PREDICTED BY IDOCK:   -2.83 KCAL/MOL
REMARK 922        TOTAL FREE ENERGY PREDICTED BY IDOCK:   -3.65 KCAL/MOL
REMARK 923 INTER-LIGAND FREE ENERGY PREDICTED BY IDOCK:   -3.36 KCAL/MOL
REMARK 924 INTRA-LIGAND FREE ENERGY PREDICTED BY IDOCK:   -0.30 KCAL/MOL
REMARK 927      BINDING AFFINITY PREDICTED BY RF-SCORE:    0.00 PKD
ROOT
HETATM    1  O   UNL     1     -10.172   4.180  65.471  1.00  0.00    -0.210 OA 
HETATM    2  C   UNL     1      -9.534   5.295  65.897  1.00  0.00    -0.142 C  
HETATM    3  O   UNL     1      -8.443   5.626  65.462  1.00  0.00    -0.135 OA 
HETATM    4  C   UNL     1     -10.327   6.046  66.944  1.00  0.00    -0.303 C  
ENDROOT
BRANCH   4   5
HETATM    5  C   UNL     1      -9.588   7.297  67.414  1.00  0.00    -0.176 C  
BRANCH   5   6
HETATM    6  C   UNL     1     -10.145   8.568  66.770  1.00  0.00    -0.369 C  
BRANCH   6   7
HETATM    7  C   UNL     1     -10.686   9.505  67.822  1.00  0.00    -0.302 A  
HETATM    8  C   UNL     1     -11.141  10.783  67.469  1.00  0.00    -0.374 A  
HETATM    9  C   UNL     1     -11.578  11.673  68.450  1.00  0.00    -0.376 A  
HETATM   10  C   UNL     1     -11.563  11.297  69.792  1.00  0.00    -0.408 A  
HETATM   11  C   UNL     1     -11.117  10.027  70.153  1.00  0.00    -0.371 A  
HETATM   12  C   UNL     1     -10.679   9.135  69.173  1.00  0.00    -0.190 A  
ENDBRANCH   6   7
ENDBRANCH   5   6
ENDBRANCH   4   5
TORSDOF 3
ENDMDL
MODEL      156
REMARK 921   NORMALIZED FREE ENERGY PREDICTED BY IDOCK:   -2.83 KCAL/MOL
REMARK 922        TOTAL FREE ENERGY PREDICTED BY IDOCK:   -3.65 KCAL/MOL
REMARK 923 INTER-LIGAND FREE ENERGY PREDICTED BY IDOCK:   -3.38 KCAL/MOL
REMARK 924 INTRA-LIGAND FREE ENERGY PREDICTED BY IDOCK:   -0.27 KCAL/MOL
REMARK 927      BINDING AFFINITY PREDICTED BY RF-SCORE:    0.00 PKD
ROOT
HETATM    1  O   UNL     1     -10.058  12.122  63.323  1.00  0.00    -0.414 OA 
HETATM    2  C   UNL     1     -10.477  11.867  64.584  1.00  0.00    -0.295 C  
HETATM    3  O   UNL     1     -11.212  12.628  65.191  1.00  0.00    -0.288 OA 
HETATM    4  C   UNL     1      -9.929  10.561  65.118  1.00  0.00    -0.375 C  
ENDROOT
BRANCH   4   5
HETATM    5  C   UNL     1     -10.408  10.295  66.544  1.00  0.00    -0.276 C  
BRANCH   5   6
HETATM    6  C   UNL     1      -9.289   9.748  67.431  1.00  0.00    -0.155 C  
BRANCH   6   7
HETATM    7  C   UNL     1      -9.630   8.365  67.928  1.00  0.00    -0.180 A  
HETATM    8  C   UNL     1     -10.658   7.627  67.326  1.00  0.00    -0.388 A  
HETATM    9  C   UNL     1     -11.019   6.376  67.828  1.00  0.00    -0.425 A  
HETATM   10  C   UNL     1     -10.358   5.852  68.939  1.00  0.00    -0.290 A  
HETATM   11  C   UNL     1      -9.332   6.577  69.542  1.00  0.00    -0.148 A  
HETATM   12  C   UNL     1      -8.970   7.827  69.041  1.00  0.00    -0.145 A  
ENDBRANCH   6   7
ENDBRANCH   5   6
ENDBRANCH   4   5
TORSDOF 3
ENDMDL
MODEL      157
REMARK 921   NORMALIZED FREE ENERGY PREDICTED BY IDOCK:   -2.80 KCAL/MOL
REMARK 922        TOTAL FREE ENERGY PREDICTED BY IDOCK:   -3.61 KCAL/MOL
REMARK 923 INTER-LIGAND FREE ENERGY PREDICTED BY IDOCK:   -3.42 KCAL/MOL
REMARK 924 INTRA-LIGAND FREE ENERGY PREDICTED BY IDOCK:   -0.20 KCAL/MOL
REMARK 927      BINDING AFFINITY PREDICTED BY RF-SCORE:    0.00 PKD
ROOT
HETATM    1  O   UNL     1      -7.294  10.600  66.453  1.00  0.00    -0.124 OA 
HETATM    2  C   UNL     1      -7.719   9.855  67.500  1.00  0.00    -0.091 C  
HETATM    3  O   UNL     1      -7.540   8.650  67.555  1.00  0.00    -0.092 OA 
HETATM    4  C   UNL     1      -8.418  10.689  68.551  1.00  0.00    -0.136 C  
ENDROOT
BRANCH   4   5
HETATM    5  C   UNL     1      -8.895   9.828  69.720  1.00  0.00    -0.241 C  
BRANCH   5   6
HETATM    6  C   UNL     1     -10.239   9.159  69.428  1.00  0.00    -0.212 C  
BRANCH   6   7
HETATM    7  C   UNL     1     -11.338   9.790  70.248  1.00  0.00    -0.333 A  
HETATM    8  C   UNL     1     -11.634  11.152  70.110  1.00  0.00    -0.410 A  
HETATM    9  C   UNL     1     -12.604  11.749  70.916  1.00  0.00    -0.384 A  
HETATM   10  C   UNL     1     -13.284  10.993  71.869  1.00  0.00    -0.503 A  
HETATM   11  C   UNL     1     -12.999   9.636  72.011  1.00  0.00    -0.518 A  
HETATM   12  C   UNL     1     -12.030   9.036  71.205  1.00  0.00    -0.374 A  
ENDBRANCH   6   7
ENDBRANCH   5   6
ENDBRANCH   4   5
TORSDOF 3
ENDMDL
MODEL      158
REMARK 921   NORMALIZED FREE ENERGY PREDICTED BY IDOCK:   -2.80 KCAL/MOL
REMARK 922        TOTAL FREE ENERGY PREDICTED BY IDOCK:   -3.61 KCAL/MOL
REMARK 923 INTER-LIGAND FREE ENERGY PREDICTED BY IDOCK:   -3.35 KCAL/MOL
REMARK 924 INTRA-LIGAND FREE ENERGY PREDICTED BY IDOCK:   -0.27 KCAL/MOL
REMARK 927      BINDING AFFINITY PREDICTED BY RF-SCORE:    0.00 PKD
ROOT
HETATM    1  O   UNL     1     -12.164  11.406  69.714  1.00  0.00    -0.298 OA 
HETATM    2  C   UNL     1     -11.194  10.477  69.877  1.00  0.00    -0.307 C  
HETATM    3  O   UNL     1     -10.202  10.441  69.166  1.00  0.00    -0.198 OA 
HETATM    4  C   UNL     1     -11.495   9.526  71.014  1.00  0.00    -0.420 C  
ENDROOT
BRANCH   4   5
HETATM    5  C   UNL     1     -10.391   8.483  71.177  1.00  0.00    -0.273 C  
BRANCH   5   6
HETATM    6  C   UNL     1      -9.972   8.315  72.639  1.00  0.00    -0.357 C  
BRANCH   6   7
HETATM    7  C   UNL     1     -10.100   6.874  73.068  1.00  0.00    -0.226 A  
HETATM    8  C   UNL     1     -11.186   6.099  72.640  1.00  0.00    -0.312 A  
HETATM    9  C   UNL     1     -11.340   4.788  73.091  1.00  0.00    -0.380 A  
HETATM   10  C   UNL     1     -10.412   4.239  73.976  1.00  0.00    -0.302 A  
HETATM   11  C   UNL     1      -9.327   5.000  74.403  1.00  0.00    -0.129 A  
HETATM   12  C   UNL     1      -9.170   6.312  73.953  1.00  0.00    -0.144 A  
ENDBRANCH   6   7
ENDBRANCH   5   6
ENDBRANCH   4   5
TORSDOF 3
ENDMDL
MODEL      159
REMARK 921   NORMALIZED FREE ENERGY PREDICTED BY IDOCK:   -2.80 KCAL/MOL
REMARK 922        TOTAL FREE ENERGY PREDICTED BY IDOCK:   -3.61 KCAL/MOL
REMARK 923 INTER-LIGAND FREE ENERGY PREDICTED BY IDOCK:   -3.34 KCAL/MOL
REMARK 924 INTRA-LIGAND FREE ENERGY PREDICTED BY IDOCK:   -0.27 KCAL/MOL
REMARK 927      BINDING AFFINITY PREDICTED BY RF-SCORE:    0.00 PKD
ROOT
HETATM    1  O   UNL     1     -11.343   9.964  69.653  1.00  0.00    -0.232 OA 
HETATM    2  C   UNL     1     -11.246  11.067  68.875  1.00  0.00    -0.265 C  
HETATM    3  O   UNL     1     -10.677  11.054  67.797  1.00  0.00    -0.196 OA 
HETATM    4  C   UNL     1     -11.914  12.272  69.502  1.00  0.00    -0.333 C  
ENDROOT
BRANCH   4   5
HETATM    5  C   UNL     1     -11.788  13.506  68.612  1.00  0.00    -0.404 C  
BRANCH   5   6
HETATM    6  C   UNL     1     -10.805  14.528  69.185  1.00  0.00    -0.278 C  
BRANCH   6   7
HETATM    7  C   UNL     1      -9.976  15.146  68.085  1.00  0.00    -0.221 A  
HETATM    8  C   UNL     1      -8.578  15.163  68.173  1.00  0.00    -0.158 A  
HETATM    9  C   UNL     1      -7.815  15.794  67.189  1.00  0.00    -0.247 A  
HETATM   10  C   UNL     1      -8.442  16.414  66.109  1.00  0.00    -0.329 A  
HETATM   11  C   UNL     1      -9.832  16.397  66.010  1.00  0.00    -0.362 A  
HETATM   12  C   UNL     1     -10.597  15.767  66.993  1.00  0.00    -0.316 A  
ENDBRANCH   6   7
ENDBRANCH   5   6
ENDBRANCH   4   5
TORSDOF 3
ENDMDL
MODEL      160
REMARK 921   NORMALIZED FREE ENERGY PREDICTED BY IDOCK:   -2.79 KCAL/MOL
REMARK 922        TOTAL FREE ENERGY PREDICTED BY IDOCK:   -3.60 KCAL/MOL
REMARK 923 INTER-LIGAND FREE ENERGY PREDICTED BY IDOCK:   -3.36 KCAL/MOL
REMARK 924 INTRA-LIGAND FREE ENERGY PREDICTED BY IDOCK:   -0.25 KCAL/MOL
REMARK 927      BINDING AFFINITY PREDICTED BY RF-SCORE:    0.00 PKD
ROOT
HETATM    1  O   UNL     1      -8.287   7.787  67.250  1.00  0.00    -0.116 OA 
HETATM    2  C   UNL     1      -8.640   9.044  67.605  1.00  0.00    -0.120 C  
HETATM    3  O   UNL     1      -7.852   9.819  68.122  1.00  0.00    -0.085 OA 
HETATM    4  C   UNL     1     -10.088   9.345  67.287  1.00  0.00    -0.285 C  
ENDROOT
BRANCH   4   5
HETATM    5  C   UNL     1     -10.468  10.765  67.701  1.00  0.00    -0.252 C  
BRANCH   5   6
HETATM    6  C   UNL     1     -11.545  10.777  68.787  1.00  0.00    -0.350 C  
BRANCH   6   7
HETATM    7  C   UNL     1     -11.840  12.190  69.230  1.00  0.00    -0.370 A  
HETATM    8  C   UNL     1     -12.216  12.455  70.553  1.00  0.00    -0.382 A  
HETATM    9  C   UNL     1     -12.554  13.751  70.945  1.00  0.00    -0.428 A  
HETATM   10  C   UNL     1     -12.523  14.792  70.018  1.00  0.00    -0.327 A  
HETATM   11  C   UNL     1     -12.146  14.538  68.701  1.00  0.00    -0.253 A  
HETATM   12  C   UNL     1     -11.807  13.243  68.307  1.00  0.00    -0.389 A  
ENDBRANCH   6   7
ENDBRANCH   5   6
ENDBRANCH   4   5
TORSDOF 3
ENDMDL
MODEL      161
REMARK 921   NORMALIZED FREE ENERGY PREDICTED BY IDOCK:   -2.78 KCAL/MOL
REMARK 922        TOTAL FREE ENERGY PREDICTED BY IDOCK:   -3.60 KCAL/MOL
REMARK 923 INTER-LIGAND FREE ENERGY PREDICTED BY IDOCK:   -3.34 KCAL/MOL
REMARK 924 INTRA-LIGAND FREE ENERGY PREDICTED BY IDOCK:   -0.26 KCAL/MOL
REMARK 927      BINDING AFFINITY PREDICTED BY RF-SCORE:    0.00 PKD
ROOT
HETATM    1  O   UNL     1      -7.060   6.856  72.602  1.00  0.00    -0.073 OA 
HETATM    2  C   UNL     1      -8.226   7.466  72.921  1.00  0.00    -0.112 C  
HETATM    3  O   UNL     1      -8.262   8.572  73.432  1.00  0.00    -0.379 OA 
HETATM    4  C   UNL     1      -9.430   6.619  72.570  1.00  0.00    -0.155 C  
ENDROOT
BRANCH   4   5
HETATM    5  C   UNL     1     -10.734   7.322  72.942  1.00  0.00    -0.365 C  
BRANCH   5   6
HETATM    6  C   UNL     1     -11.822   7.106  71.888  1.00  0.00    -0.336 C  
BRANCH   6   7
HETATM    7  C   UNL     1     -11.274   7.334  70.501  1.00  0.00    -0.305 A  
HETATM    8  C   UNL     1     -10.832   8.606  70.112  1.00  0.00    -0.242 A  
HETATM    9  C   UNL     1     -10.388   8.832  68.809  1.00  0.00    -0.234 A  
HETATM   10  C   UNL     1     -10.384   7.791  67.881  1.00  0.00    -0.276 A  
HETATM   11  C   UNL     1     -10.818   6.522  68.260  1.00  0.00    -0.359 A  
HETATM   12  C   UNL     1     -11.262   6.294  69.563  1.00  0.00    -0.500 A  
ENDBRANCH   6   7
ENDBRANCH   5   6
ENDBRANCH   4   5
TORSDOF 3
ENDMDL
MODEL      162
REMARK 921   NORMALIZED FREE ENERGY PREDICTED BY IDOCK:   -2.78 KCAL/MOL
REMARK 922        TOTAL FREE ENERGY PREDICTED BY IDOCK:   -3.60 KCAL/MOL
REMARK 923 INTER-LIGAND FREE ENERGY PREDICTED BY IDOCK:   -3.34 KCAL/MOL
REMARK 924 INTRA-LIGAND FREE ENERGY PREDICTED BY IDOCK:   -0.25 KCAL/MOL
REMARK 927      BINDING AFFINITY PREDICTED BY RF-SCORE:    0.00 PKD
ROOT
HETATM    1  O   UNL     1      -9.925  11.928  63.255  1.00  0.00    -0.426 OA 
HETATM    2  C   UNL     1     -10.575  11.478  64.353  1.00  0.00    -0.334 C  
HETATM    3  O   UNL     1     -11.595  12.004  64.766  1.00  0.00    -0.324 OA 
HETATM    4  C   UNL     1      -9.890  10.281  64.975  1.00  0.00    -0.397 C  
ENDROOT
BRANCH   4   5
HETATM    5  C   UNL     1     -10.636   9.792  66.215  1.00  0.00    -0.070 C  
BRANCH   5   6
HETATM    6  C   UNL     1     -10.135  10.473  67.490  1.00  0.00    -0.225 C  
BRANCH   6   7
HETATM    7  C   UNL     1     -10.209   9.527  68.664  1.00  0.00    -0.215 A  
HETATM    8  C   UNL     1     -10.358   8.150  68.458  1.00  0.00    -0.230 A  
HETATM    9  C   UNL     1     -10.494   7.283  69.543  1.00  0.00    -0.238 A  
HETATM   10  C   UNL     1     -10.486   7.786  70.844  1.00  0.00    -0.214 A  
HETATM   11  C   UNL     1     -10.335   9.154  71.059  1.00  0.00    -0.363 A  
HETATM   12  C   UNL     1     -10.197  10.022  69.975  1.00  0.00    -0.306 A  
ENDBRANCH   6   7
ENDBRANCH   5   6
ENDBRANCH   4   5
TORSDOF 3
ENDMDL
MODEL      163
REMARK 921   NORMALIZED FREE ENERGY PREDICTED BY IDOCK:   -2.78 KCAL/MOL
REMARK 922        TOTAL FREE ENERGY PREDICTED BY IDOCK:   -3.59 KCAL/MOL
REMARK 923 INTER-LIGAND FREE ENERGY PREDICTED BY IDOCK:   -3.34 KCAL/MOL
REMARK 924 INTRA-LIGAND FREE ENERGY PREDICTED BY IDOCK:   -0.25 KCAL/MOL
REMARK 927      BINDING AFFINITY PREDICTED BY RF-SCORE:    0.00 PKD
ROOT
HETATM    1  O   UNL     1      -6.030   5.620  69.115  1.00  0.00    -0.021 OA 
HETATM    2  C   UNL     1      -7.357   5.720  69.366  1.00  0.00    -0.071 C  
HETATM    3  O   UNL     1      -8.148   4.851  69.038  1.00  0.00    -0.079 OA 
HETATM    4  C   UNL     1      -7.710   7.007  70.079  1.00  0.00    -0.104 C  
ENDROOT
BRANCH   4   5
HETATM    5  C   UNL     1      -9.211   7.103  70.347  1.00  0.00    -0.156 C  
BRANCH   5   6
HETATM    6  C   UNL     1      -9.510   7.721  71.714  1.00  0.00    -0.191 C  
BRANCH   6   7
HETATM    7  C   UNL     1     -10.676   8.675  71.625  1.00  0.00    -0.374 A  
HETATM    8  C   UNL     1     -11.861   8.417  72.324  1.00  0.00    -0.456 A  
HETATM    9  C   UNL     1     -12.962   9.263  72.188  1.00  0.00    -0.503 A  
HETATM   10  C   UNL     1     -12.889  10.375  71.349  1.00  0.00    -0.556 A  
HETATM   11  C   UNL     1     -11.713  10.643  70.652  1.00  0.00    -0.454 A  
HETATM   12  C   UNL     1     -10.610   9.797  70.788  1.00  0.00    -0.371 A  
ENDBRANCH   6   7
ENDBRANCH   5   6
ENDBRANCH   4   5
TORSDOF 3
ENDMDL
MODEL      164
REMARK 921   NORMALIZED FREE ENERGY PREDICTED BY IDOCK:   -2.77 KCAL/MOL
REMARK 922        TOTAL FREE ENERGY PREDICTED BY IDOCK:   -3.59 KCAL/MOL
REMARK 923 INTER-LIGAND FREE ENERGY PREDICTED BY IDOCK:   -3.32 KCAL/MOL
REMARK 924 INTRA-LIGAND FREE ENERGY PREDICTED BY IDOCK:   -0.26 KCAL/MOL
REMARK 927      BINDING AFFINITY PREDICTED BY RF-SCORE:    0.00 PKD
ROOT
HETATM    1  O   UNL     1      -9.961   4.421  72.335  1.00  0.00    -0.159 OA 
HETATM    2  C   UNL     1     -10.690   5.359  71.685  1.00  0.00    -0.198 C  
HETATM    3  O   UNL     1     -11.434   6.126  72.272  1.00  0.00    -0.285 OA 
HETATM    4  C   UNL     1     -10.463   5.325  70.189  1.00  0.00    -0.338 C  
ENDROOT
BRANCH   4   5
HETATM    5  C   UNL     1     -11.298   6.386  69.474  1.00  0.00    -0.460 C  
BRANCH   5   6
HETATM    6  C   UNL     1     -10.849   6.589  68.026  1.00  0.00    -0.372 C  
BRANCH   6   7
HETATM    7  C   UNL     1     -10.516   8.039  67.769  1.00  0.00    -0.280 A  
HETATM    8  C   UNL     1     -10.579   8.976  68.808  1.00  0.00    -0.196 A  
HETATM    9  C   UNL     1     -10.338  10.327  68.556  1.00  0.00    -0.200 A  
HETATM   10  C   UNL     1     -10.034  10.754  67.263  1.00  0.00    -0.219 A  
HETATM   11  C   UNL     1      -9.965   9.828  66.225  1.00  0.00    -0.331 A  
HETATM   12  C   UNL     1     -10.206   8.476  66.475  1.00  0.00    -0.286 A  
ENDBRANCH   6   7
ENDBRANCH   5   6
ENDBRANCH   4   5
TORSDOF 3
ENDMDL
MODEL      165
REMARK 921   NORMALIZED FREE ENERGY PREDICTED BY IDOCK:   -2.77 KCAL/MOL
REMARK 922        TOTAL FREE ENERGY PREDICTED BY IDOCK:   -3.58 KCAL/MOL
REMARK 923 INTER-LIGAND FREE ENERGY PREDICTED BY IDOCK:   -3.24 KCAL/MOL
REMARK 924 INTRA-LIGAND FREE ENERGY PREDICTED BY IDOCK:   -0.34 KCAL/MOL
REMARK 927      BINDING AFFINITY PREDICTED BY RF-SCORE:    0.00 PKD
ROOT
HETATM    1  O   UNL     1     -11.156   6.374  66.851  1.00  0.00    -0.384 OA 
HETATM    2  C   UNL     1     -10.721   6.893  68.023  1.00  0.00    -0.218 C  
HETATM    3  O   UNL     1      -9.906   7.799  68.071  1.00  0.00    -0.153 OA 
HETATM    4  C   UNL     1     -11.359   6.220  69.219  1.00  0.00    -0.411 C  
ENDROOT
BRANCH   4   5
HETATM    5  C   UNL     1     -10.852   6.816  70.531  1.00  0.00    -0.301 C  
BRANCH   5   6
HETATM    6  C   UNL     1      -9.586   6.113  71.028  1.00  0.00    -0.194 C  
BRANCH   6   7
HETATM    7  C   UNL     1      -9.938   4.868  71.805  1.00  0.00    -0.252 A  
HETATM    8  C   UNL     1      -9.427   3.622  71.420  1.00  0.00    -0.227 A  
HETATM    9  C   UNL     1      -9.806   2.463  72.097  1.00  0.00    -0.221 A  
HETATM   10  C   UNL     1     -10.700   2.537  73.164  1.00  0.00    -0.263 A  
HETATM   11  C   UNL     1     -11.210   3.773  73.558  1.00  0.00    -0.299 A  
HETATM   12  C   UNL     1     -10.832   4.934  72.882  1.00  0.00    -0.313 A  
ENDBRANCH   6   7
ENDBRANCH   5   6
ENDBRANCH   4   5
TORSDOF 3
ENDMDL
MODEL      166
REMARK 921   NORMALIZED FREE ENERGY PREDICTED BY IDOCK:   -2.77 KCAL/MOL
REMARK 922        TOTAL FREE ENERGY PREDICTED BY IDOCK:   -3.58 KCAL/MOL
REMARK 923 INTER-LIGAND FREE ENERGY PREDICTED BY IDOCK:   -3.24 KCAL/MOL
REMARK 924 INTRA-LIGAND FREE ENERGY PREDICTED BY IDOCK:   -0.34 KCAL/MOL
REMARK 927      BINDING AFFINITY PREDICTED BY RF-SCORE:    0.00 PKD
ROOT
HETATM    1  O   UNL     1      -6.341  20.067  64.464  1.00  0.00    -0.272 OA 
HETATM    2  C   UNL     1      -7.039  19.737  65.576  1.00  0.00    -0.288 C  
HETATM    3  O   UNL     1      -8.259  19.722  65.597  1.00  0.00    -0.383 OA 
HETATM    4  C   UNL     1      -6.136  19.402  66.742  1.00  0.00    -0.170 C  
ENDROOT
BRANCH   4   5
HETATM    5  C   UNL     1      -6.942  19.039  67.988  1.00  0.00    -0.256 C  
BRANCH   5   6
HETATM    6  C   UNL     1      -6.977  17.528  68.227  1.00  0.00    -0.210 C  
BRANCH   6   7
HETATM    7  C   UNL     1      -8.374  17.075  68.576  1.00  0.00    -0.260 A  
HETATM    8  C   UNL     1      -8.579  15.885  69.285  1.00  0.00    -0.247 A  
HETATM    9  C   UNL     1      -9.872  15.433  69.549  1.00  0.00    -0.262 A  
HETATM   10  C   UNL     1     -10.973  16.164  69.104  1.00  0.00    -0.309 A  
HETATM   11  C   UNL     1     -10.779  17.351  68.401  1.00  0.00    -0.301 A  
HETATM   12  C   UNL     1      -9.486  17.806  68.137  1.00  0.00    -0.282 A  
ENDBRANCH   6   7
ENDBRANCH   5   6
ENDBRANCH   4   5
TORSDOF 3
ENDMDL
MODEL      167
REMARK 921   NORMALIZED FREE ENERGY PREDICTED BY IDOCK:   -2.77 KCAL/MOL
REMARK 922        TOTAL FREE ENERGY PREDICTED BY IDOCK:   -3.58 KCAL/MOL
REMARK 923 INTER-LIGAND FREE ENERGY PREDICTED BY IDOCK:   -3.39 KCAL/MOL
REMARK 924 INTRA-LIGAND FREE ENERGY PREDICTED BY IDOCK:   -0.18 KCAL/MOL
REMARK 927      BINDING AFFINITY PREDICTED BY RF-SCORE:    0.00 PKD
ROOT
HETATM    1  O   UNL     1      -7.185   8.804  67.932  1.00  0.00    -0.081 OA 
HETATM    2  C   UNL     1      -7.927   9.697  67.236  1.00  0.00    -0.106 C  
HETATM    3  O   UNL     1      -7.615  10.873  67.150  1.00  0.00    -0.100 OA 
HETATM    4  C   UNL     1      -9.147   9.062  66.606  1.00  0.00    -0.196 C  
ENDROOT
BRANCH   4   5
HETATM    5  C   UNL     1      -9.973  10.087  65.831  1.00  0.00    -0.339 C  
BRANCH   5   6
HETATM    6  C   UNL     1     -10.797  10.979  66.761  1.00  0.00    -0.307 C  
BRANCH   6   7
HETATM    7  C   UNL     1     -11.075  12.313  66.113  1.00  0.00    -0.349 A  
HETATM    8  C   UNL     1     -10.067  13.283  66.024  1.00  0.00    -0.301 A  
HETATM    9  C   UNL     1     -10.342  14.540  65.486  1.00  0.00    -0.379 A  
HETATM   10  C   UNL     1     -11.626  14.841  65.033  1.00  0.00    -0.378 A  
HETATM   11  C   UNL     1     -12.633  13.882  65.112  1.00  0.00    -0.466 A  
HETATM   12  C   UNL     1     -12.360  12.623  65.650  1.00  0.00    -0.390 A  
ENDBRANCH   6   7
ENDBRANCH   5   6
ENDBRANCH   4   5
TORSDOF 3
ENDMDL
MODEL      168
REMARK 921   NORMALIZED FREE ENERGY PREDICTED BY IDOCK:   -2.75 KCAL/MOL
REMARK 922        TOTAL FREE ENERGY PREDICTED BY IDOCK:   -3.56 KCAL/MOL
REMARK 923 INTER-LIGAND FREE ENERGY PREDICTED BY IDOCK:   -3.42 KCAL/MOL
REMARK 924 INTRA-LIGAND FREE ENERGY PREDICTED BY IDOCK:   -0.14 KCAL/MOL
REMARK 927      BINDING AFFINITY PREDICTED BY RF-SCORE:    0.00 PKD
ROOT
HETATM    1  O   UNL     1      -8.171   8.587  73.552  1.00  0.00    -0.381 OA 
HETATM    2  C   UNL     1      -9.260   8.445  72.761  1.00  0.00    -0.241 C  
HETATM    3  O   UNL     1      -9.348   8.987  71.672  1.00  0.00    -0.265 OA 
HETATM    4  C   UNL     1     -10.311   7.556  73.388  1.00  0.00    -0.405 C  
ENDROOT
BRANCH   4   5
HETATM    5  C   UNL     1     -11.534   7.413  72.483  1.00  0.00    -0.346 C  
BRANCH   5   6
HETATM    6  C   UNL     1     -11.401   6.228  71.524  1.00  0.00    -0.352 C  
BRANCH   6   7
HETATM    7  C   UNL     1     -10.769   5.048  72.219  1.00  0.00    -0.246 A  
HETATM    8  C   UNL     1      -9.602   4.464  71.709  1.00  0.00    -0.221 A  
HETATM    9  C   UNL     1      -9.056   3.331  72.314  1.00  0.00    -0.145 A  
HETATM   10  C   UNL     1      -9.671   2.770  73.431  1.00  0.00    -0.144 A  
HETATM   11  C   UNL     1     -10.830   3.346  73.949  1.00  0.00    -0.299 A  
HETATM   12  C   UNL     1     -11.377   4.479  73.346  1.00  0.00    -0.376 A  
ENDBRANCH   6   7
ENDBRANCH   5   6
ENDBRANCH   4   5
TORSDOF 3
ENDMDL
MODEL      169
REMARK 921   NORMALIZED FREE ENERGY PREDICTED BY IDOCK:   -2.74 KCAL/MOL
REMARK 922        TOTAL FREE ENERGY PREDICTED BY IDOCK:   -3.55 KCAL/MOL
REMARK 923 INTER-LIGAND FREE ENERGY PREDICTED BY IDOCK:   -3.22 KCAL/MOL
REMARK 924 INTRA-LIGAND FREE ENERGY PREDICTED BY IDOCK:   -0.32 KCAL/MOL
REMARK 927      BINDING AFFINITY PREDICTED BY RF-SCORE:    0.00 PKD
ROOT
HETATM    1  O   UNL     1     -11.916  16.286  71.942  1.00  0.00    -0.494 OA 
HETATM    2  C   UNL     1     -12.565  15.507  71.045  1.00  0.00    -0.454 C  
HETATM    3  O   UNL     1     -13.627  15.839  70.545  1.00  0.00    -0.298 OA 
HETATM    4  C   UNL     1     -11.822  14.221  70.758  1.00  0.00    -0.336 C  
ENDROOT
BRANCH   4   5
HETATM    5  C   UNL     1     -12.573  13.355  69.749  1.00  0.00     0.024 C  
BRANCH   5   6
HETATM    6  C   UNL     1     -11.935  13.409  68.360  1.00  0.00    -0.359 C  
BRANCH   6   7
HETATM    7  C   UNL     1     -10.825  12.393  68.243  1.00  0.00    -0.264 A  
HETATM    8  C   UNL     1      -9.485  12.801  68.246  1.00  0.00    -0.203 A  
HETATM    9  C   UNL     1      -8.462  11.868  68.070  1.00  0.00    -0.162 A  
HETATM   10  C   UNL     1      -8.768  10.520  67.888  1.00  0.00    -0.126 A  
HETATM   11  C   UNL     1     -10.098  10.105  67.888  1.00  0.00    -0.207 A  
HETATM   12  C   UNL     1     -11.123  11.036  68.064  1.00  0.00    -0.343 A  
ENDBRANCH   6   7
ENDBRANCH   5   6
ENDBRANCH   4   5
TORSDOF 3
ENDMDL
MODEL      170
REMARK 921   NORMALIZED FREE ENERGY PREDICTED BY IDOCK:   -2.74 KCAL/MOL
REMARK 922        TOTAL FREE ENERGY PREDICTED BY IDOCK:   -3.55 KCAL/MOL
REMARK 923 INTER-LIGAND FREE ENERGY PREDICTED BY IDOCK:   -3.31 KCAL/MOL
REMARK 924 INTRA-LIGAND FREE ENERGY PREDICTED BY IDOCK:   -0.24 KCAL/MOL
REMARK 927      BINDING AFFINITY PREDICTED BY RF-SCORE:    0.00 PKD
ROOT
HETATM    1  O   UNL     1      -8.768   4.885  64.799  1.00  0.00    -0.148 OA 
HETATM    2  C   UNL     1      -9.747   5.201  65.678  1.00  0.00    -0.060 C  
HETATM    3  O   UNL     1     -10.719   4.485  65.854  1.00  0.00    -0.267 OA 
HETATM    4  C   UNL     1      -9.482   6.512  66.385  1.00  0.00    -0.165 C  
ENDROOT
BRANCH   4   5
HETATM    5  C   UNL     1     -10.600   6.853  67.368  1.00  0.00    -0.373 C  
BRANCH   5   6
HETATM    6  C   UNL     1     -10.250   8.063  68.237  1.00  0.00    -0.243 C  
BRANCH   6   7
HETATM    7  C   UNL     1     -10.892   7.945  69.598  1.00  0.00    -0.177 A  
HETATM    8  C   UNL     1     -11.021   9.070  70.422  1.00  0.00    -0.283 A  
HETATM    9  C   UNL     1     -11.552   8.948  71.707  1.00  0.00    -0.422 A  
HETATM   10  C   UNL     1     -11.958   7.701  72.180  1.00  0.00    -0.344 A  
HETATM   11  C   UNL     1     -11.838   6.577  71.366  1.00  0.00    -0.384 A  
HETATM   12  C   UNL     1     -11.307   6.697  70.081  1.00  0.00    -0.440 A  
ENDBRANCH   6   7
ENDBRANCH   5   6
ENDBRANCH   4   5
TORSDOF 3
ENDMDL
MODEL      171
REMARK 921   NORMALIZED FREE ENERGY PREDICTED BY IDOCK:   -2.73 KCAL/MOL
REMARK 922        TOTAL FREE ENERGY PREDICTED BY IDOCK:   -3.53 KCAL/MOL
REMARK 923 INTER-LIGAND FREE ENERGY PREDICTED BY IDOCK:   -3.27 KCAL/MOL
REMARK 924 INTRA-LIGAND FREE ENERGY PREDICTED BY IDOCK:   -0.27 KCAL/MOL
REMARK 927      BINDING AFFINITY PREDICTED BY RF-SCORE:    0.00 PKD
ROOT
HETATM    1  O   UNL     1      -9.137   9.902  66.026  1.00  0.00    -0.146 OA 
HETATM    2  C   UNL     1      -9.935  10.993  65.956  1.00  0.00    -0.237 C  
HETATM    3  O   UNL     1     -10.358  11.422  64.896  1.00  0.00    -0.261 OA 
HETATM    4  C   UNL     1     -10.219  11.584  67.320  1.00  0.00    -0.229 C  
ENDROOT
BRANCH   4   5
HETATM    5  C   UNL     1     -11.115  12.817  67.218  1.00  0.00    -0.314 C  
BRANCH   5   6
HETATM    6  C   UNL     1     -10.354  14.106  67.530  1.00  0.00    -0.248 C  
BRANCH   6   7
HETATM    7  C   UNL     1     -10.838  14.711  68.826  1.00  0.00    -0.261 A  
HETATM    8  C   UNL     1     -10.541  16.043  69.143  1.00  0.00    -0.260 A  
HETATM    9  C   UNL     1     -10.930  16.581  70.370  1.00  0.00    -0.135 A  
HETATM   10  C   UNL     1     -11.618  15.793  71.292  1.00  0.00    -0.499 A  
HETATM   11  C   UNL     1     -11.921  14.468  70.984  1.00  0.00    -0.394 A  
HETATM   12  C   UNL     1     -11.533  13.928  69.757  1.00  0.00    -0.281 A  
ENDBRANCH   6   7
ENDBRANCH   5   6
ENDBRANCH   4   5
TORSDOF 3
ENDMDL
MODEL      172
REMARK 921   NORMALIZED FREE ENERGY PREDICTED BY IDOCK:   -2.73 KCAL/MOL
REMARK 922        TOTAL FREE ENERGY PREDICTED BY IDOCK:   -3.53 KCAL/MOL
REMARK 923 INTER-LIGAND FREE ENERGY PREDICTED BY IDOCK:   -3.45 KCAL/MOL
REMARK 924 INTRA-LIGAND FREE ENERGY PREDICTED BY IDOCK:   -0.08 KCAL/MOL
REMARK 927      BINDING AFFINITY PREDICTED BY RF-SCORE:    0.00 PKD
ROOT
HETATM    1  O   UNL     1     -12.304  15.231  69.936  1.00  0.00    -0.327 OA 
HETATM    2  C   UNL     1     -11.818  15.318  68.676  1.00  0.00    -0.305 C  
HETATM    3  O   UNL     1     -11.227  16.306  68.275  1.00  0.00    -0.352 OA 
HETATM    4  C   UNL     1     -12.098  14.071  67.866  1.00  0.00    -0.314 C  
ENDROOT
BRANCH   4   5
HETATM    5  C   UNL     1     -11.547  14.192  66.446  1.00  0.00    -0.380 C  
BRANCH   5   6
HETATM    6  C   UNL     1     -10.154  13.572  66.317  1.00  0.00    -0.298 C  
BRANCH   6   7
HETATM    7  C   UNL     1      -9.093  14.545  66.772  1.00  0.00    -0.283 A  
HETATM    8  C   UNL     1      -8.923  15.769  66.113  1.00  0.00    -0.372 A  
HETATM    9  C   UNL     1      -7.899  16.639  66.491  1.00  0.00    -0.342 A  
HETATM   10  C   UNL     1      -7.034  16.291  67.527  1.00  0.00    -0.184 A  
HETATM   11  C   UNL     1      -7.198  15.077  68.191  1.00  0.00    -0.122 A  
HETATM   12  C   UNL     1      -8.222  14.207  67.816  1.00  0.00    -0.172 A  
ENDBRANCH   6   7
ENDBRANCH   5   6
ENDBRANCH   4   5
TORSDOF 3
ENDMDL
MODEL      173
REMARK 921   NORMALIZED FREE ENERGY PREDICTED BY IDOCK:   -2.72 KCAL/MOL
REMARK 922        TOTAL FREE ENERGY PREDICTED BY IDOCK:   -3.53 KCAL/MOL
REMARK 923 INTER-LIGAND FREE ENERGY PREDICTED BY IDOCK:   -3.27 KCAL/MOL
REMARK 924 INTRA-LIGAND FREE ENERGY PREDICTED BY IDOCK:   -0.25 KCAL/MOL
REMARK 927      BINDING AFFINITY PREDICTED BY RF-SCORE:    0.00 PKD
ROOT
HETATM    1  O   UNL     1      -7.135   5.411  73.005  1.00  0.00    -0.084 OA 
HETATM    2  C   UNL     1      -7.242   6.746  72.811  1.00  0.00    -0.079 C  
HETATM    3  O   UNL     1      -6.304   7.506  72.989  1.00  0.00    -0.058 OA 
HETATM    4  C   UNL     1      -8.628   7.152  72.360  1.00  0.00    -0.133 C  
ENDROOT
BRANCH   4   5
HETATM    5  C   UNL     1      -8.728   8.662  72.152  1.00  0.00    -0.217 C  
BRANCH   5   6
HETATM    6  C   UNL     1      -9.263   9.015  70.763  1.00  0.00    -0.299 C  
BRANCH   6   7
HETATM    7  C   UNL     1     -10.623   9.661  70.864  1.00  0.00    -0.386 A  
HETATM    8  C   UNL     1     -10.924  10.805  70.113  1.00  0.00    -0.230 A  
HETATM    9  C   UNL     1     -12.158  11.440  70.257  1.00  0.00    -0.459 A  
HETATM   10  C   UNL     1     -13.101  10.940  71.154  1.00  0.00    -0.351 A  
HETATM   11  C   UNL     1     -12.813   9.800  71.901  1.00  0.00    -0.520 A  
HETATM   12  C   UNL     1     -11.579   9.163  71.758  1.00  0.00    -0.457 A  
ENDBRANCH   6   7
ENDBRANCH   5   6
ENDBRANCH   4   5
TORSDOF 3
ENDMDL
MODEL      174
REMARK 921   NORMALIZED FREE ENERGY PREDICTED BY IDOCK:   -2.71 KCAL/MOL
REMARK 922        TOTAL FREE ENERGY PREDICTED BY IDOCK:   -3.51 KCAL/MOL
REMARK 923 INTER-LIGAND FREE ENERGY PREDICTED BY IDOCK:   -3.65 KCAL/MOL
REMARK 924 INTRA-LIGAND FREE ENERGY PREDICTED BY IDOCK:    0.13 KCAL/MOL
REMARK 927      BINDING AFFINITY PREDICTED BY RF-SCORE:    0.00 PKD
ROOT
HETATM    1  O   UNL     1      -8.531  11.297  66.107  1.00  0.00    -0.173 OA 
HETATM    2  C   UNL     1      -8.794  11.886  67.296  1.00  0.00    -0.179 C  
HETATM    3  O   UNL     1      -9.084  11.241  68.291  1.00  0.00    -0.159 OA 
HETATM    4  C   UNL     1      -8.684  13.393  67.227  1.00  0.00    -0.219 C  
ENDROOT
BRANCH   4   5
HETATM    5  C   UNL     1      -8.991  14.039  68.578  1.00  0.00    -0.160 C  
BRANCH   5   6
HETATM    6  C   UNL     1     -10.306  14.820  68.554  1.00  0.00    -0.237 C  
BRANCH   6   7
HETATM    7  C   UNL     1     -10.916  14.794  67.174  1.00  0.00    -0.320 A  
HETATM    8  C   UNL     1     -10.482  15.691  66.189  1.00  0.00    -0.327 A  
HETATM    9  C   UNL     1     -11.093  15.712  64.934  1.00  0.00    -0.414 A  
HETATM   10  C   UNL     1     -12.144  14.840  64.653  1.00  0.00    -0.437 A  
HETATM   11  C   UNL     1     -12.579  13.942  65.626  1.00  0.00    -0.553 A  
HETATM   12  C   UNL     1     -11.969  13.919  66.881  1.00  0.00    -0.467 A  
ENDBRANCH   6   7
ENDBRANCH   5   6
ENDBRANCH   4   5
TORSDOF 3
ENDMDL
MODEL      175
REMARK 921   NORMALIZED FREE ENERGY PREDICTED BY IDOCK:   -2.70 KCAL/MOL
REMARK 922        TOTAL FREE ENERGY PREDICTED BY IDOCK:   -3.50 KCAL/MOL
REMARK 923 INTER-LIGAND FREE ENERGY PREDICTED BY IDOCK:   -3.25 KCAL/MOL
REMARK 924 INTRA-LIGAND FREE ENERGY PREDICTED BY IDOCK:   -0.25 KCAL/MOL
REMARK 927      BINDING AFFINITY PREDICTED BY RF-SCORE:    0.00 PKD
ROOT
HETATM    1  O   UNL     1      -6.977   9.013  69.636  1.00  0.00    -0.051 OA 
HETATM    2  C   UNL     1      -7.514   9.572  68.526  1.00  0.00    -0.080 C  
HETATM    3  O   UNL     1      -7.488   9.016  67.441  1.00  0.00    -0.084 OA 
HETATM    4  C   UNL     1      -8.127  10.927  68.806  1.00  0.00    -0.145 C  
ENDROOT
BRANCH   4   5
HETATM    5  C   UNL     1      -8.721  11.543  67.540  1.00  0.00    -0.145 C  
BRANCH   5   6
HETATM    6  C   UNL     1     -10.243  11.669  67.625  1.00  0.00    -0.206 C  
BRANCH   6   7
HETATM    7  C   UNL     1     -10.801  12.263  66.355  1.00  0.00    -0.299 A  
HETATM    8  C   UNL     1     -12.024  12.945  66.367  1.00  0.00    -0.462 A  
HETATM    9  C   UNL     1     -12.572  13.436  65.181  1.00  0.00    -0.495 A  
HETATM   10  C   UNL     1     -11.903  13.247  63.972  1.00  0.00    -0.512 A  
HETATM   11  C   UNL     1     -10.684  12.574  63.951  1.00  0.00    -0.473 A  
HETATM   12  C   UNL     1     -10.134  12.083  65.136  1.00  0.00    -0.295 A  
ENDBRANCH   6   7
ENDBRANCH   5   6
ENDBRANCH   4   5
TORSDOF 3
ENDMDL
MODEL      176
REMARK 921   NORMALIZED FREE ENERGY PREDICTED BY IDOCK:   -2.66 KCAL/MOL
REMARK 922        TOTAL FREE ENERGY PREDICTED BY IDOCK:   -3.46 KCAL/MOL
REMARK 923 INTER-LIGAND FREE ENERGY PREDICTED BY IDOCK:   -3.41 KCAL/MOL
REMARK 924 INTRA-LIGAND FREE ENERGY PREDICTED BY IDOCK:   -0.05 KCAL/MOL
REMARK 927      BINDING AFFINITY PREDICTED BY RF-SCORE:    0.00 PKD
ROOT
HETATM    1  O   UNL     1     -14.007   9.190  71.337  1.00  0.00    -0.340 OA 
HETATM    2  C   UNL     1     -13.195   8.222  71.822  1.00  0.00    -0.347 C  
HETATM    3  O   UNL     1     -13.481   7.038  71.751  1.00  0.00    -0.349 OA 
HETATM    4  C   UNL     1     -11.934   8.786  72.440  1.00  0.00    -0.369 C  
ENDROOT
BRANCH   4   5
HETATM    5  C   UNL     1     -11.036   7.678  72.986  1.00  0.00    -0.457 C  
BRANCH   5   6
HETATM    6  C   UNL     1      -9.680   7.639  72.279  1.00  0.00    -0.226 C  
BRANCH   6   7
HETATM    7  C   UNL     1      -9.839   7.921  70.805  1.00  0.00    -0.188 A  
HETATM    8  C   UNL     1      -9.699   9.225  70.312  1.00  0.00    -0.274 A  
HETATM    9  C   UNL     1      -9.913   9.496  68.960  1.00  0.00    -0.185 A  
HETATM   10  C   UNL     1     -10.271   8.468  68.089  1.00  0.00    -0.254 A  
HETATM   11  C   UNL     1     -10.409   7.168  68.569  1.00  0.00    -0.203 A  
HETATM   12  C   UNL     1     -10.195   6.894  69.921  1.00  0.00    -0.214 A  
ENDBRANCH   6   7
ENDBRANCH   5   6
ENDBRANCH   4   5
TORSDOF 3
ENDMDL
MODEL      177
REMARK 921   NORMALIZED FREE ENERGY PREDICTED BY IDOCK:   -2.65 KCAL/MOL
REMARK 922        TOTAL FREE ENERGY PREDICTED BY IDOCK:   -3.44 KCAL/MOL
REMARK 923 INTER-LIGAND FREE ENERGY PREDICTED BY IDOCK:   -3.19 KCAL/MOL
REMARK 924 INTRA-LIGAND FREE ENERGY PREDICTED BY IDOCK:   -0.25 KCAL/MOL
REMARK 927      BINDING AFFINITY PREDICTED BY RF-SCORE:    0.00 PKD
ROOT
HETATM    1  O   UNL     1     -12.040  16.236  63.806  1.00  0.00    -0.959 OA 
HETATM    2  C   UNL     1     -11.625  15.562  64.904  1.00  0.00    -0.201 C  
HETATM    3  O   UNL     1     -12.198  14.564  65.309  1.00  0.00    -0.374 OA 
HETATM    4  C   UNL     1     -10.403  16.191  65.535  1.00  0.00    -0.391 C  
ENDROOT
BRANCH   4   5
HETATM    5  C   UNL     1      -9.955  15.420  66.775  1.00  0.00    -0.256 C  
BRANCH   5   6
HETATM    6  C   UNL     1      -9.193  16.310  67.759  1.00  0.00    -0.203 C  
BRANCH   6   7
HETATM    7  C   UNL     1      -7.979  15.592  68.297  1.00  0.00    -0.129 A  
HETATM    8  C   UNL     1      -6.998  15.105  67.424  1.00  0.00    -0.195 A  
HETATM    9  C   UNL     1      -5.910  14.383  67.917  1.00  0.00    -0.132 A  
HETATM   10  C   UNL     1      -5.794  14.140  69.285  1.00  0.00    -0.089 A  
HETATM   11  C   UNL     1      -6.762  14.624  70.161  1.00  0.00    -0.106 A  
HETATM   12  C   UNL     1      -7.851  15.347  69.671  1.00  0.00    -0.149 A  
ENDBRANCH   6   7
ENDBRANCH   5   6
ENDBRANCH   4   5
TORSDOF 3
ENDMDL
MODEL      178
REMARK 921   NORMALIZED FREE ENERGY PREDICTED BY IDOCK:   -2.64 KCAL/MOL
REMARK 922        TOTAL FREE ENERGY PREDICTED BY IDOCK:   -3.42 KCAL/MOL
REMARK 923 INTER-LIGAND FREE ENERGY PREDICTED BY IDOCK:   -3.18 KCAL/MOL
REMARK 924 INTRA-LIGAND FREE ENERGY PREDICTED BY IDOCK:   -0.25 KCAL/MOL
REMARK 927      BINDING AFFINITY PREDICTED BY RF-SCORE:    0.00 PKD
ROOT
HETATM    1  O   UNL     1      -7.611   6.990  65.133  1.00  0.00    -0.088 OA 
HETATM    2  C   UNL     1      -7.749   8.047  65.967  1.00  0.00    -0.088 C  
HETATM    3  O   UNL     1      -6.796   8.556  66.533  1.00  0.00    -0.069 OA 
HETATM    4  C   UNL     1      -9.190   8.491  66.098  1.00  0.00    -0.269 C  
ENDROOT
BRANCH   4   5
HETATM    5  C   UNL     1      -9.324   9.679  67.048  1.00  0.00    -0.180 C  
BRANCH   5   6
HETATM    6  C   UNL     1     -10.720   9.761  67.669  1.00  0.00    -0.334 C  
BRANCH   6   7
HETATM    7  C   UNL     1     -11.213  11.188  67.686  1.00  0.00    -0.364 A  
HETATM    8  C   UNL     1     -11.602  11.819  66.497  1.00  0.00    -0.256 A  
HETATM    9  C   UNL     1     -11.993  13.158  66.503  1.00  0.00    -0.459 A  
HETATM   10  C   UNL     1     -11.997  13.880  67.696  1.00  0.00    -0.403 A  
HETATM   11  C   UNL     1     -11.615  13.259  68.884  1.00  0.00    -0.357 A  
HETATM   12  C   UNL     1     -11.224  11.920  68.880  1.00  0.00    -0.310 A  
ENDBRANCH   6   7
ENDBRANCH   5   6
ENDBRANCH   4   5
TORSDOF 3
ENDMDL
MODEL      179
REMARK 921   NORMALIZED FREE ENERGY PREDICTED BY IDOCK:   -2.63 KCAL/MOL
REMARK 922        TOTAL FREE ENERGY PREDICTED BY IDOCK:   -3.42 KCAL/MOL
REMARK 923 INTER-LIGAND FREE ENERGY PREDICTED BY IDOCK:   -3.14 KCAL/MOL
REMARK 924 INTRA-LIGAND FREE ENERGY PREDICTED BY IDOCK:   -0.28 KCAL/MOL
REMARK 927      BINDING AFFINITY PREDICTED BY RF-SCORE:    0.00 PKD
ROOT
HETATM    1  O   UNL     1     -10.473   3.582  63.738  1.00  0.00    -0.224 OA 
HETATM    2  C   UNL     1      -9.698   4.128  64.704  1.00  0.00    -0.174 C  
HETATM    3  O   UNL     1      -8.489   4.239  64.583  1.00  0.00    -0.109 OA 
HETATM    4  C   UNL     1     -10.504   4.564  65.908  1.00  0.00    -0.262 C  
ENDROOT
BRANCH   4   5
HETATM    5  C   UNL     1      -9.611   5.172  66.988  1.00  0.00    -0.155 C  
BRANCH   5   6
HETATM    6  C   UNL     1      -9.544   4.291  68.238  1.00  0.00    -0.197 C  
BRANCH   6   7
HETATM    7  C   UNL     1     -10.200   4.979  69.410  1.00  0.00    -0.268 A  
HETATM    8  C   UNL     1     -11.034   6.086  69.209  1.00  0.00    -0.436 A  
HETATM    9  C   UNL     1     -11.586   6.763  70.297  1.00  0.00    -0.417 A  
HETATM   10  C   UNL     1     -11.308   6.341  71.597  1.00  0.00    -0.347 A  
HETATM   11  C   UNL     1     -10.483   5.237  71.807  1.00  0.00    -0.278 A  
HETATM   12  C   UNL     1      -9.931   4.559  70.720  1.00  0.00    -0.269 A  
ENDBRANCH   6   7
ENDBRANCH   5   6
ENDBRANCH   4   5
TORSDOF 3
ENDMDL
MODEL      180
REMARK 921   NORMALIZED FREE ENERGY PREDICTED BY IDOCK:   -2.63 KCAL/MOL
REMARK 922        TOTAL FREE ENERGY PREDICTED BY IDOCK:   -3.42 KCAL/MOL
REMARK 923 INTER-LIGAND FREE ENERGY PREDICTED BY IDOCK:   -2.97 KCAL/MOL
REMARK 924 INTRA-LIGAND FREE ENERGY PREDICTED BY IDOCK:   -0.44 KCAL/MOL
REMARK 927      BINDING AFFINITY PREDICTED BY RF-SCORE:    0.00 PKD
ROOT
HETATM    1  O   UNL     1     -10.813   5.212  66.190  1.00  0.00    -0.282 OA 
HETATM    2  C   UNL     1     -10.062   6.048  66.943  1.00  0.00    -0.185 C  
HETATM    3  O   UNL     1      -8.958   5.734  67.358  1.00  0.00    -0.111 OA 
HETATM    4  C   UNL     1     -10.750   7.372  67.191  1.00  0.00    -0.400 C  
ENDROOT
BRANCH   4   5
HETATM    5  C   UNL     1      -9.888   8.298  68.048  1.00  0.00    -0.201 C  
BRANCH   5   6
HETATM    6  C   UNL     1     -10.656   8.844  69.253  1.00  0.00    -0.219 C  
BRANCH   6   7
HETATM    7  C   UNL     1     -10.714   7.817  70.358  1.00  0.00    -0.238 A  
HETATM    8  C   UNL     1      -9.562   7.113  70.734  1.00  0.00    -0.168 A  
HETATM    9  C   UNL     1      -9.630   6.117  71.708  1.00  0.00    -0.165 A  
HETATM   10  C   UNL     1     -10.849   5.813  72.314  1.00  0.00    -0.298 A  
HETATM   11  C   UNL     1     -11.998   6.511  71.949  1.00  0.00    -0.389 A  
HETATM   12  C   UNL     1     -11.932   7.508  70.975  1.00  0.00    -0.317 A  
ENDBRANCH   6   7
ENDBRANCH   5   6
ENDBRANCH   4   5
TORSDOF 3
ENDMDL
MODEL      181
REMARK 921   NORMALIZED FREE ENERGY PREDICTED BY IDOCK:   -2.61 KCAL/MOL
REMARK 922        TOTAL FREE ENERGY PREDICTED BY IDOCK:   -3.39 KCAL/MOL
REMARK 923 INTER-LIGAND FREE ENERGY PREDICTED BY IDOCK:   -3.04 KCAL/MOL
REMARK 924 INTRA-LIGAND FREE ENERGY PREDICTED BY IDOCK:   -0.35 KCAL/MOL
REMARK 927      BINDING AFFINITY PREDICTED BY RF-SCORE:    0.00 PKD
ROOT
HETATM    1  O   UNL     1     -11.809   6.944  72.564  1.00  0.00    -0.215 OA 
HETATM    2  C   UNL     1     -11.991   8.043  71.795  1.00  0.00    -0.301 C  
HETATM    3  O   UNL     1     -13.099   8.427  71.462  1.00  0.00    -0.326 OA 
HETATM    4  C   UNL     1     -10.682   8.702  71.419  1.00  0.00    -0.338 C  
ENDROOT
BRANCH   4   5
HETATM    5  C   UNL     1     -10.908   9.935  70.546  1.00  0.00    -0.391 C  
BRANCH   5   6
HETATM    6  C   UNL     1      -9.735  10.189  69.597  1.00  0.00    -0.250 C  
BRANCH   6   7
HETATM    7  C   UNL     1      -9.565   9.034  68.640  1.00  0.00    -0.158 A  
HETATM    8  C   UNL     1      -8.345   8.350  68.563  1.00  0.00    -0.131 A  
HETATM    9  C   UNL     1      -8.166   7.327  67.631  1.00  0.00    -0.114 A  
HETATM   10  C   UNL     1      -9.204   6.980  66.766  1.00  0.00    -0.181 A  
HETATM   11  C   UNL     1     -10.422   7.652  66.839  1.00  0.00    -0.388 A  
HETATM   12  C   UNL     1     -10.603   8.675  67.771  1.00  0.00    -0.249 A  
ENDBRANCH   6   7
ENDBRANCH   5   6
ENDBRANCH   4   5
TORSDOF 3
ENDMDL
MODEL      182
REMARK 921   NORMALIZED FREE ENERGY PREDICTED BY IDOCK:   -2.59 KCAL/MOL
REMARK 922        TOTAL FREE ENERGY PREDICTED BY IDOCK:   -3.37 KCAL/MOL
REMARK 923 INTER-LIGAND FREE ENERGY PREDICTED BY IDOCK:   -3.43 KCAL/MOL
REMARK 924 INTRA-LIGAND FREE ENERGY PREDICTED BY IDOCK:    0.06 KCAL/MOL
REMARK 927      BINDING AFFINITY PREDICTED BY RF-SCORE:    0.00 PKD
ROOT
HETATM    1  O   UNL     1     -10.108  16.247  65.271  1.00  0.00    -0.528 OA 
HETATM    2  C   UNL     1     -10.349  16.205  66.602  1.00  0.00    -0.296 C  
HETATM    3  O   UNL     1     -10.062  17.131  67.343  1.00  0.00    -0.283 OA 
HETATM    4  C   UNL     1     -10.996  14.906  67.028  1.00  0.00    -0.327 C  
ENDROOT
BRANCH   4   5
HETATM    5  C   UNL     1     -11.254  14.877  68.533  1.00  0.00    -0.292 C  
BRANCH   5   6
HETATM    6  C   UNL     1     -11.308  13.449  69.078  1.00  0.00    -0.335 C  
BRANCH   6   7
HETATM    7  C   UNL     1     -10.489  12.519  68.217  1.00  0.00    -0.243 A  
HETATM    8  C   UNL     1     -11.088  11.417  67.593  1.00  0.00    -0.325 A  
HETATM    9  C   UNL     1     -10.318  10.519  66.852  1.00  0.00    -0.293 A  
HETATM   10  C   UNL     1      -8.943  10.712  66.731  1.00  0.00    -0.149 A  
HETATM   11  C   UNL     1      -8.339  11.808  67.345  1.00  0.00    -0.159 A  
HETATM   12  C   UNL     1      -9.107  12.707  68.086  1.00  0.00    -0.204 A  
ENDBRANCH   6   7
ENDBRANCH   5   6
ENDBRANCH   4   5
TORSDOF 3
ENDMDL
MODEL      183
REMARK 921   NORMALIZED FREE ENERGY PREDICTED BY IDOCK:   -2.58 KCAL/MOL
REMARK 922        TOTAL FREE ENERGY PREDICTED BY IDOCK:   -3.36 KCAL/MOL
REMARK 923 INTER-LIGAND FREE ENERGY PREDICTED BY IDOCK:   -3.05 KCAL/MOL
REMARK 924 INTRA-LIGAND FREE ENERGY PREDICTED BY IDOCK:   -0.31 KCAL/MOL
REMARK 927      BINDING AFFINITY PREDICTED BY RF-SCORE:    0.00 PKD
ROOT
HETATM    1  O   UNL     1     -11.992  15.841  68.630  1.00  0.00    -0.344 OA 
HETATM    2  C   UNL     1     -10.810  15.378  68.162  1.00  0.00    -0.285 C  
HETATM    3  O   UNL     1      -9.748  15.908  68.442  1.00  0.00    -0.209 OA 
HETATM    4  C   UNL     1     -10.979  14.161  67.279  1.00  0.00    -0.304 C  
ENDROOT
BRANCH   4   5
HETATM    5  C   UNL     1      -9.634  13.658  66.757  1.00  0.00    -0.277 C  
BRANCH   5   6
HETATM    6  C   UNL     1      -8.989  12.652  67.712  1.00  0.00    -0.189 C  
BRANCH   6   7
HETATM    7  C   UNL     1      -9.304  11.238  67.289  1.00  0.00    -0.173 A  
HETATM    8  C   UNL     1      -8.732  10.699  66.129  1.00  0.00    -0.178 A  
HETATM    9  C   UNL     1      -9.076   9.416  65.702  1.00  0.00    -0.258 A  
HETATM   10  C   UNL     1      -9.996   8.661  66.428  1.00  0.00    -0.331 A  
HETATM   11  C   UNL     1     -10.568   9.187  67.584  1.00  0.00    -0.307 A  
HETATM   12  C   UNL     1     -10.224  10.470  68.014  1.00  0.00    -0.195 A  
ENDBRANCH   6   7
ENDBRANCH   5   6
ENDBRANCH   4   5
TORSDOF 3
ENDMDL
MODEL      184
REMARK 921   NORMALIZED FREE ENERGY PREDICTED BY IDOCK:   -2.56 KCAL/MOL
REMARK 922        TOTAL FREE ENERGY PREDICTED BY IDOCK:   -3.34 KCAL/MOL
REMARK 923 INTER-LIGAND FREE ENERGY PREDICTED BY IDOCK:   -2.99 KCAL/MOL
REMARK 924 INTRA-LIGAND FREE ENERGY PREDICTED BY IDOCK:   -0.35 KCAL/MOL
REMARK 927      BINDING AFFINITY PREDICTED BY RF-SCORE:    0.00 PKD
ROOT
HETATM    1  O   UNL     1     -10.678   2.043  62.633  1.00  0.00    -0.117 OA 
HETATM    2  C   UNL     1     -10.442   2.936  63.622  1.00  0.00    -0.203 C  
HETATM    3  O   UNL     1     -11.283   3.743  63.983  1.00  0.00    -0.314 OA 
HETATM    4  C   UNL     1      -9.048   2.804  64.194  1.00  0.00    -0.111 C  
ENDROOT
BRANCH   4   5
HETATM    5  C   UNL     1      -8.801   3.825  65.303  1.00  0.00    -0.120 C  
BRANCH   5   6
HETATM    6  C   UNL     1      -9.098   3.248  66.689  1.00  0.00    -0.180 C  
BRANCH   6   7
HETATM    7  C   UNL     1      -9.698   4.303  67.587  1.00  0.00    -0.186 A  
HETATM    8  C   UNL     1      -9.648   4.161  68.980  1.00  0.00    -0.232 A  
HETATM    9  C   UNL     1     -10.262   5.102  69.808  1.00  0.00    -0.357 A  
HETATM   10  C   UNL     1     -10.933   6.190  69.253  1.00  0.00    -0.450 A  
HETATM   11  C   UNL     1     -10.985   6.341  67.869  1.00  0.00    -0.421 A  
HETATM   12  C   UNL     1     -10.371   5.402  67.038  1.00  0.00    -0.299 A  
ENDBRANCH   6   7
ENDBRANCH   5   6
ENDBRANCH   4   5
TORSDOF 3
ENDMDL
MODEL      185
REMARK 921   NORMALIZED FREE ENERGY PREDICTED BY IDOCK:   -2.56 KCAL/MOL
REMARK 922        TOTAL FREE ENERGY PREDICTED BY IDOCK:   -3.34 KCAL/MOL
REMARK 923 INTER-LIGAND FREE ENERGY PREDICTED BY IDOCK:   -2.93 KCAL/MOL
REMARK 924 INTRA-LIGAND FREE ENERGY PREDICTED BY IDOCK:   -0.41 KCAL/MOL
REMARK 927      BINDING AFFINITY PREDICTED BY RF-SCORE:    0.00 PKD
ROOT
HETATM    1  O   UNL     1      -8.178   8.269  67.085  1.00  0.00    -0.116 OA 
HETATM    2  C   UNL     1      -8.422   8.984  68.208  1.00  0.00    -0.129 C  
HETATM    3  O   UNL     1      -7.548   9.237  69.020  1.00  0.00    -0.072 OA 
HETATM    4  C   UNL     1      -9.870   9.409  68.314  1.00  0.00    -0.180 C  
ENDROOT
BRANCH   4   5
HETATM    5  C   UNL     1     -10.126  10.209  69.590  1.00  0.00    -0.265 C  
BRANCH   5   6
HETATM    6  C   UNL     1     -11.401   9.756  70.304  1.00  0.00    -0.333 C  
BRANCH   6   7
HETATM    7  C   UNL     1     -11.136   8.531  71.144  1.00  0.00    -0.312 A  
HETATM    8  C   UNL     1     -10.032   8.486  72.005  1.00  0.00    -0.383 A  
HETATM    9  C   UNL     1      -9.748   7.328  72.730  1.00  0.00    -0.203 A  
HETATM   10  C   UNL     1     -10.563   6.204  72.600  1.00  0.00    -0.246 A  
HETATM   11  C   UNL     1     -11.666   6.241  71.749  1.00  0.00    -0.355 A  
HETATM   12  C   UNL     1     -11.952   7.399  71.023  1.00  0.00    -0.337 A  
ENDBRANCH   6   7
ENDBRANCH   5   6
ENDBRANCH   4   5
TORSDOF 3
ENDMDL
MODEL      186
REMARK 921   NORMALIZED FREE ENERGY PREDICTED BY IDOCK:   -2.55 KCAL/MOL
REMARK 922        TOTAL FREE ENERGY PREDICTED BY IDOCK:   -3.32 KCAL/MOL
REMARK 923 INTER-LIGAND FREE ENERGY PREDICTED BY IDOCK:   -3.03 KCAL/MOL
REMARK 924 INTRA-LIGAND FREE ENERGY PREDICTED BY IDOCK:   -0.29 KCAL/MOL
REMARK 927      BINDING AFFINITY PREDICTED BY RF-SCORE:    0.00 PKD
ROOT
HETATM    1  O   UNL     1      -9.154   3.824  73.800  1.00  0.00    -0.091 OA 
HETATM    2  C   UNL     1     -10.050   4.824  73.628  1.00  0.00    -0.167 C  
HETATM    3  O   UNL     1     -10.477   5.481  74.562  1.00  0.00    -0.263 OA 
HETATM    4  C   UNL     1     -10.434   5.007  72.176  1.00  0.00    -0.274 C  
ENDROOT
BRANCH   4   5
HETATM    5  C   UNL     1     -11.450   6.135  72.005  1.00  0.00    -0.366 C  
BRANCH   5   6
HETATM    6  C   UNL     1     -11.681   6.479  70.532  1.00  0.00    -0.438 C  
BRANCH   6   7
HETATM    7  C   UNL     1     -10.938   7.738  70.156  1.00  0.00    -0.246 A  
HETATM    8  C   UNL     1      -9.759   7.669  69.403  1.00  0.00    -0.165 A  
HETATM    9  C   UNL     1      -9.037   8.827  69.112  1.00  0.00    -0.141 A  
HETATM   10  C   UNL     1      -9.484  10.064  69.574  1.00  0.00    -0.245 A  
HETATM   11  C   UNL     1     -10.658  10.143  70.320  1.00  0.00    -0.324 A  
HETATM   12  C   UNL     1     -11.383   8.986  70.611  1.00  0.00    -0.311 A  
ENDBRANCH   6   7
ENDBRANCH   5   6
ENDBRANCH   4   5
TORSDOF 3
ENDMDL
MODEL      187
REMARK 921   NORMALIZED FREE ENERGY PREDICTED BY IDOCK:   -2.53 KCAL/MOL
REMARK 922        TOTAL FREE ENERGY PREDICTED BY IDOCK:   -3.30 KCAL/MOL
REMARK 923 INTER-LIGAND FREE ENERGY PREDICTED BY IDOCK:   -3.05 KCAL/MOL
REMARK 924 INTRA-LIGAND FREE ENERGY PREDICTED BY IDOCK:   -0.25 KCAL/MOL
REMARK 927      BINDING AFFINITY PREDICTED BY RF-SCORE:    0.00 PKD
ROOT
HETATM    1  O   UNL     1      -8.921   9.392  64.387  1.00  0.00    -0.217 OA 
HETATM    2  C   UNL     1      -9.815  10.379  64.631  1.00  0.00    -0.338 C  
HETATM    3  O   UNL     1     -10.609  10.760  63.787  1.00  0.00    -0.287 OA 
HETATM    4  C   UNL     1      -9.698  10.924  66.038  1.00  0.00    -0.268 C  
ENDROOT
BRANCH   4   5
HETATM    5  C   UNL     1     -10.710  12.039  66.291  1.00  0.00    -0.302 C  
BRANCH   5   6
HETATM    6  C   UNL     1     -10.207  13.394  65.790  1.00  0.00    -0.300 C  
BRANCH   6   7
HETATM    7  C   UNL     1      -9.690  14.228  66.937  1.00  0.00    -0.268 A  
HETATM    8  C   UNL     1      -8.338  14.179  67.298  1.00  0.00    -0.212 A  
HETATM    9  C   UNL     1      -7.874  14.898  68.400  1.00  0.00    -0.121 A  
HETATM   10  C   UNL     1      -8.758  15.671  69.153  1.00  0.00    -0.251 A  
HETATM   11  C   UNL     1     -10.104  15.729  68.798  1.00  0.00    -0.215 A  
HETATM   12  C   UNL     1     -10.569  15.011  67.696  1.00  0.00    -0.267 A  
ENDBRANCH   6   7
ENDBRANCH   5   6
ENDBRANCH   4   5
TORSDOF 3
ENDMDL
MODEL      188
REMARK 921   NORMALIZED FREE ENERGY PREDICTED BY IDOCK:   -2.53 KCAL/MOL
REMARK 922        TOTAL FREE ENERGY PREDICTED BY IDOCK:   -3.29 KCAL/MOL
REMARK 923 INTER-LIGAND FREE ENERGY PREDICTED BY IDOCK:   -3.01 KCAL/MOL
REMARK 924 INTRA-LIGAND FREE ENERGY PREDICTED BY IDOCK:   -0.29 KCAL/MOL
REMARK 927      BINDING AFFINITY PREDICTED BY RF-SCORE:    0.00 PKD
ROOT
HETATM    1  O   UNL     1     -10.674   3.371  63.657  1.00  0.00    -0.249 OA 
HETATM    2  C   UNL     1      -9.887   4.013  64.551  1.00  0.00    -0.186 C  
HETATM    3  O   UNL     1      -8.705   4.227  64.340  1.00  0.00    -0.127 OA 
HETATM    4  C   UNL     1     -10.643   4.412  65.799  1.00  0.00    -0.140 C  
ENDROOT
BRANCH   4   5
HETATM    5  C   UNL     1      -9.736   5.129  66.797  1.00  0.00    -0.178 C  
BRANCH   5   6
HETATM    6  C   UNL     1     -10.046   6.625  66.882  1.00  0.00    -0.258 C  
BRANCH   6   7
HETATM    7  C   UNL     1     -10.445   7.008  68.286  1.00  0.00    -0.237 A  
HETATM    8  C   UNL     1     -10.998   6.055  69.152  1.00  0.00    -0.429 A  
HETATM    9  C   UNL     1     -11.429   6.425  70.427  1.00  0.00    -0.458 A  
HETATM   10  C   UNL     1     -11.314   7.750  70.847  1.00  0.00    -0.288 A  
HETATM   11  C   UNL     1     -10.761   8.703  69.994  1.00  0.00    -0.233 A  
HETATM   12  C   UNL     1     -10.329   8.335  68.719  1.00  0.00    -0.223 A  
ENDBRANCH   6   7
ENDBRANCH   5   6
ENDBRANCH   4   5
TORSDOF 3
ENDMDL
MODEL      189
REMARK 921   NORMALIZED FREE ENERGY PREDICTED BY IDOCK:   -2.52 KCAL/MOL
REMARK 922        TOTAL FREE ENERGY PREDICTED BY IDOCK:   -3.29 KCAL/MOL
REMARK 923 INTER-LIGAND FREE ENERGY PREDICTED BY IDOCK:   -3.04 KCAL/MOL
REMARK 924 INTRA-LIGAND FREE ENERGY PREDICTED BY IDOCK:   -0.25 KCAL/MOL
REMARK 927      BINDING AFFINITY PREDICTED BY RF-SCORE:    0.00 PKD
ROOT
HETATM    1  O   UNL     1     -11.819  13.876  65.669  1.00  0.00    -0.342 OA 
HETATM    2  C   UNL     1     -11.586  12.619  66.113  1.00  0.00    -0.393 C  
HETATM    3  O   UNL     1     -11.272  11.712  65.360  1.00  0.00    -0.279 OA 
HETATM    4  C   UNL     1     -11.762  12.496  67.610  1.00  0.00    -0.423 C  
ENDROOT
BRANCH   4   5
HETATM    5  C   UNL     1     -11.501  11.069  68.089  1.00  0.00    -0.374 C  
BRANCH   5   6
HETATM    6  C   UNL     1     -10.686  11.040  69.384  1.00  0.00    -0.247 C  
BRANCH   6   7
HETATM    7  C   UNL     1      -9.725   9.876  69.382  1.00  0.00    -0.228 A  
HETATM    8  C   UNL     1      -8.354  10.087  69.583  1.00  0.00    -0.188 A  
HETATM    9  C   UNL     1      -7.458   9.020  69.514  1.00  0.00    -0.076 A  
HETATM   10  C   UNL     1      -7.922   7.734  69.241  1.00  0.00    -0.125 A  
HETATM   11  C   UNL     1      -9.283   7.514  69.045  1.00  0.00    -0.146 A  
HETATM   12  C   UNL     1     -10.182   8.579  69.114  1.00  0.00    -0.218 A  
ENDBRANCH   6   7
ENDBRANCH   5   6
ENDBRANCH   4   5
TORSDOF 3
ENDMDL
MODEL      190
REMARK 921   NORMALIZED FREE ENERGY PREDICTED BY IDOCK:   -2.48 KCAL/MOL
REMARK 922        TOTAL FREE ENERGY PREDICTED BY IDOCK:   -3.24 KCAL/MOL
REMARK 923 INTER-LIGAND FREE ENERGY PREDICTED BY IDOCK:   -2.98 KCAL/MOL
REMARK 924 INTRA-LIGAND FREE ENERGY PREDICTED BY IDOCK:   -0.26 KCAL/MOL
REMARK 927      BINDING AFFINITY PREDICTED BY RF-SCORE:    0.00 PKD
ROOT
HETATM    1  O   UNL     1     -13.035  13.877  64.585  1.00  0.00    -0.654 OA 
HETATM    2  C   UNL     1     -11.957  13.224  65.078  1.00  0.00    -0.371 C  
HETATM    3  O   UNL     1     -11.022  12.887  64.371  1.00  0.00    -0.329 OA 
HETATM    4  C   UNL     1     -12.067  12.977  66.567  1.00  0.00    -0.410 C  
ENDROOT
BRANCH   4   5
HETATM    5  C   UNL     1     -10.845  12.234  67.102  1.00  0.00    -0.282 C  
BRANCH   5   6
HETATM    6  C   UNL     1      -9.874  13.171  67.822  1.00  0.00    -0.228 C  
BRANCH   6   7
HETATM    7  C   UNL     1      -8.492  12.567  67.879  1.00  0.00    -0.171 A  
HETATM    8  C   UNL     1      -8.327  11.190  68.076  1.00  0.00    -0.134 A  
HETATM    9  C   UNL     1      -7.050  10.641  68.196  1.00  0.00    -0.081 A  
HETATM   10  C   UNL     1      -5.926  11.463  68.124  1.00  0.00    -0.045 A  
HETATM   11  C   UNL     1      -6.081  12.834  67.925  1.00  0.00    -0.116 A  
HETATM   12  C   UNL     1      -7.357  13.384  67.804  1.00  0.00    -0.158 A  
ENDBRANCH   6   7
ENDBRANCH   5   6
ENDBRANCH   4   5
TORSDOF 3
ENDMDL
MODEL      191
REMARK 921   NORMALIZED FREE ENERGY PREDICTED BY IDOCK:   -2.47 KCAL/MOL
REMARK 922        TOTAL FREE ENERGY PREDICTED BY IDOCK:   -3.23 KCAL/MOL
REMARK 923 INTER-LIGAND FREE ENERGY PREDICTED BY IDOCK:   -2.90 KCAL/MOL
REMARK 924 INTRA-LIGAND FREE ENERGY PREDICTED BY IDOCK:   -0.33 KCAL/MOL
REMARK 927      BINDING AFFINITY PREDICTED BY RF-SCORE:    0.00 PKD
ROOT
HETATM    1  O   UNL     1      -6.739  20.610  64.671  1.00  0.00    -0.293 OA 
HETATM    2  C   UNL     1      -7.215  19.723  65.575  1.00  0.00    -0.252 C  
HETATM    3  O   UNL     1      -8.410  19.564  65.763  1.00  0.00    -0.420 OA 
HETATM    4  C   UNL     1      -6.107  18.983  66.291  1.00  0.00    -0.194 C  
ENDROOT
BRANCH   4   5
HETATM    5  C   UNL     1      -6.665  17.991  67.310  1.00  0.00    -0.195 C  
BRANCH   5   6
HETATM    6  C   UNL     1      -6.277  16.549  66.978  1.00  0.00    -0.193 C  
BRANCH   6   7
HETATM    7  C   UNL     1      -7.448  15.620  67.187  1.00  0.00    -0.253 A  
HETATM    8  C   UNL     1      -7.239  14.290  67.576  1.00  0.00    -0.197 A  
HETATM    9  C   UNL     1      -8.317  13.413  67.704  1.00  0.00    -0.179 A  
HETATM   10  C   UNL     1      -9.613  13.856  67.442  1.00  0.00    -0.235 A  
HETATM   11  C   UNL     1      -9.831  15.178  67.059  1.00  0.00    -0.233 A  
HETATM   12  C   UNL     1      -8.754  16.056  66.931  1.00  0.00    -0.259 A  
ENDBRANCH   6   7
ENDBRANCH   5   6
ENDBRANCH   4   5
TORSDOF 3
ENDMDL
MODEL      192
REMARK 921   NORMALIZED FREE ENERGY PREDICTED BY IDOCK:   -2.47 KCAL/MOL
REMARK 922        TOTAL FREE ENERGY PREDICTED BY IDOCK:   -3.23 KCAL/MOL
REMARK 923 INTER-LIGAND FREE ENERGY PREDICTED BY IDOCK:   -2.82 KCAL/MOL
REMARK 924 INTRA-LIGAND FREE ENERGY PREDICTED BY IDOCK:   -0.41 KCAL/MOL
REMARK 927      BINDING AFFINITY PREDICTED BY RF-SCORE:    0.00 PKD
ROOT
HETATM    1  O   UNL     1      -9.878   5.461  66.088  1.00  0.00    -0.160 OA 
HETATM    2  C   UNL     1      -9.492   6.527  66.827  1.00  0.00    -0.158 C  
HETATM    3  O   UNL     1      -8.366   6.627  67.286  1.00  0.00    -0.119 OA 
HETATM    4  C   UNL     1     -10.605   7.538  67.001  1.00  0.00    -0.409 C  
ENDROOT
BRANCH   4   5
HETATM    5  C   UNL     1     -10.151   8.729  67.843  1.00  0.00    -0.257 C  
BRANCH   5   6
HETATM    6  C   UNL     1     -10.432  10.062  67.147  1.00  0.00    -0.305 C  
BRANCH   6   7
HETATM    7  C   UNL     1      -9.605  10.193  65.891  1.00  0.00    -0.274 A  
HETATM    8  C   UNL     1     -10.211  10.529  64.673  1.00  0.00    -0.364 A  
HETATM    9  C   UNL     1      -9.458  10.583  63.500  1.00  0.00    -0.352 A  
HETATM   10  C   UNL     1      -8.093  10.300  63.532  1.00  0.00    -0.152 A  
HETATM   11  C   UNL     1      -7.481   9.969  64.739  1.00  0.00    -0.143 A  
HETATM   12  C   UNL     1      -8.232   9.915  65.914  1.00  0.00    -0.124 A  
ENDBRANCH   6   7
ENDBRANCH   5   6
ENDBRANCH   4   5
TORSDOF 3
ENDMDL
MODEL      193
REMARK 921   NORMALIZED FREE ENERGY PREDICTED BY IDOCK:   -2.46 KCAL/MOL
REMARK 922        TOTAL FREE ENERGY PREDICTED BY IDOCK:   -3.22 KCAL/MOL
REMARK 923 INTER-LIGAND FREE ENERGY PREDICTED BY IDOCK:   -2.95 KCAL/MOL
REMARK 924 INTRA-LIGAND FREE ENERGY PREDICTED BY IDOCK:   -0.27 KCAL/MOL
REMARK 927      BINDING AFFINITY PREDICTED BY RF-SCORE:    0.00 PKD
ROOT
HETATM    1  O   UNL     1      -9.109  10.671  66.042  1.00  0.00    -0.168 OA 
HETATM    2  C   UNL     1      -9.407   9.554  66.746  1.00  0.00    -0.153 C  
HETATM    3  O   UNL     1     -10.399   8.884  66.513  1.00  0.00    -0.276 OA 
HETATM    4  C   UNL     1      -8.382   9.262  67.820  1.00  0.00    -0.116 C  
ENDROOT
BRANCH   4   5
HETATM    5  C   UNL     1      -8.740   8.002  68.606  1.00  0.00    -0.131 C  
BRANCH   5   6
HETATM    6  C   UNL     1      -8.327   8.107  70.075  1.00  0.00    -0.122 C  
BRANCH   6   7
HETATM    7  C   UNL     1      -9.543   8.223  70.963  1.00  0.00    -0.197 A  
HETATM    8  C   UNL     1      -9.769   7.289  71.983  1.00  0.00    -0.177 A  
HETATM    9  C   UNL     1     -10.926   7.358  72.759  1.00  0.00    -0.387 A  
HETATM   10  C   UNL     1     -11.869   8.357  72.522  1.00  0.00    -0.427 A  
HETATM   11  C   UNL     1     -11.651   9.292  71.512  1.00  0.00    -0.452 A  
HETATM   12  C   UNL     1     -10.493   9.226  70.735  1.00  0.00    -0.343 A  
ENDBRANCH   6   7
ENDBRANCH   5   6
ENDBRANCH   4   5
TORSDOF 3
ENDMDL
MODEL      194
REMARK 921   NORMALIZED FREE ENERGY PREDICTED BY IDOCK:   -2.45 KCAL/MOL
REMARK 922        TOTAL FREE ENERGY PREDICTED BY IDOCK:   -3.20 KCAL/MOL
REMARK 923 INTER-LIGAND FREE ENERGY PREDICTED BY IDOCK:   -2.91 KCAL/MOL
REMARK 924 INTRA-LIGAND FREE ENERGY PREDICTED BY IDOCK:   -0.29 KCAL/MOL
REMARK 927      BINDING AFFINITY PREDICTED BY RF-SCORE:    0.00 PKD
ROOT
HETATM    1  O   UNL     1      -6.758   8.862  74.191  1.00  0.00    -0.332 OA 
HETATM    2  C   UNL     1      -7.289   8.669  72.961  1.00  0.00     0.103 C  
HETATM    3  O   UNL     1      -6.907   9.291  71.983  1.00  0.00    -0.309 OA 
HETATM    4  C   UNL     1      -8.377   7.618  72.964  1.00  0.00    -0.178 C  
ENDROOT
BRANCH   4   5
HETATM    5  C   UNL     1      -8.966   7.420  71.568  1.00  0.00    -0.132 C  
BRANCH   5   6
HETATM    6  C   UNL     1     -10.395   7.957  71.468  1.00  0.00    -0.243 C  
BRANCH   6   7
HETATM    7  C   UNL     1     -10.545   8.854  70.264  1.00  0.00    -0.246 A  
HETATM    8  C   UNL     1     -11.001  10.170  70.411  1.00  0.00    -0.386 A  
HETATM    9  C   UNL     1     -11.203  10.978  69.291  1.00  0.00    -0.321 A  
HETATM   10  C   UNL     1     -10.953  10.477  68.014  1.00  0.00    -0.345 A  
HETATM   11  C   UNL     1     -10.495   9.171  67.858  1.00  0.00    -0.293 A  
HETATM   12  C   UNL     1     -10.292   8.362  68.977  1.00  0.00    -0.231 A  
ENDBRANCH   6   7
ENDBRANCH   5   6
ENDBRANCH   4   5
TORSDOF 3
ENDMDL
MODEL      195
REMARK 921   NORMALIZED FREE ENERGY PREDICTED BY IDOCK:   -2.38 KCAL/MOL
REMARK 922        TOTAL FREE ENERGY PREDICTED BY IDOCK:   -3.13 KCAL/MOL
REMARK 923 INTER-LIGAND FREE ENERGY PREDICTED BY IDOCK:   -2.93 KCAL/MOL
REMARK 924 INTRA-LIGAND FREE ENERGY PREDICTED BY IDOCK:   -0.20 KCAL/MOL
REMARK 927      BINDING AFFINITY PREDICTED BY RF-SCORE:    0.00 PKD
ROOT
HETATM    1  O   UNL     1      -7.536   3.464  66.600  1.00  0.00    -0.075 OA 
HETATM    2  C   UNL     1      -8.650   3.796  67.294  1.00  0.00    -0.103 C  
HETATM    3  O   UNL     1      -9.770   3.653  66.832  1.00  0.00    -0.196 OA 
HETATM    4  C   UNL     1      -8.329   4.348  68.665  1.00  0.00    -0.090 C  
ENDROOT
BRANCH   4   5
HETATM    5  C   UNL     1      -9.598   4.722  69.428  1.00  0.00    -0.249 C  
BRANCH   5   6
HETATM    6  C   UNL     1     -10.092   6.124  69.067  1.00  0.00    -0.213 C  
BRANCH   6   7
HETATM    7  C   UNL     1     -10.625   6.833  70.288  1.00  0.00    -0.251 A  
HETATM    8  C   UNL     1     -11.998   6.834  70.566  1.00  0.00    -0.385 A  
HETATM    9  C   UNL     1     -12.497   7.545  71.657  1.00  0.00    -0.371 A  
HETATM   10  C   UNL     1     -11.631   8.265  72.478  1.00  0.00    -0.454 A  
HETATM   11  C   UNL     1     -10.263   8.267  72.212  1.00  0.00    -0.375 A  
HETATM   12  C   UNL     1      -9.761   7.555  71.122  1.00  0.00    -0.168 A  
ENDBRANCH   6   7
ENDBRANCH   5   6
ENDBRANCH   4   5
TORSDOF 3
ENDMDL
MODEL      196
REMARK 921   NORMALIZED FREE ENERGY PREDICTED BY IDOCK:   -2.36 KCAL/MOL
REMARK 922        TOTAL FREE ENERGY PREDICTED BY IDOCK:   -3.10 KCAL/MOL
REMARK 923 INTER-LIGAND FREE ENERGY PREDICTED BY IDOCK:   -2.85 KCAL/MOL
REMARK 924 INTRA-LIGAND FREE ENERGY PREDICTED BY IDOCK:   -0.25 KCAL/MOL
REMARK 927      BINDING AFFINITY PREDICTED BY RF-SCORE:    0.00 PKD
ROOT
HETATM    1  O   UNL     1      -9.993   3.999  72.706  1.00  0.00    -0.137 OA 
HETATM    2  C   UNL     1     -10.616   5.188  72.529  1.00  0.00    -0.220 C  
HETATM    3  O   UNL     1     -11.799   5.346  72.783  1.00  0.00    -0.268 OA 
HETATM    4  C   UNL     1      -9.682   6.251  71.995  1.00  0.00    -0.164 C  
ENDROOT
BRANCH   4   5
HETATM    5  C   UNL     1     -10.406   7.582  71.797  1.00  0.00    -0.221 C  
BRANCH   5   6
HETATM    6  C   UNL     1      -9.428   8.749  71.644  1.00  0.00    -0.358 C  
BRANCH   6   7
HETATM    7  C   UNL     1      -9.662   9.473  70.341  1.00  0.00    -0.328 A  
HETATM    8  C   UNL     1      -8.579   9.917  69.571  1.00  0.00    -0.194 A  
HETATM    9  C   UNL     1      -8.795  10.645  68.401  1.00  0.00    -0.145 A  
HETATM   10  C   UNL     1     -10.095  10.939  67.990  1.00  0.00    -0.197 A  
HETATM   11  C   UNL     1     -11.178  10.498  68.747  1.00  0.00    -0.317 A  
HETATM   12  C   UNL     1     -10.964   9.769  69.918  1.00  0.00    -0.299 A  
ENDBRANCH   6   7
ENDBRANCH   5   6
ENDBRANCH   4   5
TORSDOF 3
ENDMDL
MODEL      197
REMARK 921   NORMALIZED FREE ENERGY PREDICTED BY IDOCK:   -2.32 KCAL/MOL
REMARK 922        TOTAL FREE ENERGY PREDICTED BY IDOCK:   -3.06 KCAL/MOL
REMARK 923 INTER-LIGAND FREE ENERGY PREDICTED BY IDOCK:   -2.80 KCAL/MOL
REMARK 924 INTRA-LIGAND FREE ENERGY PREDICTED BY IDOCK:   -0.26 KCAL/MOL
REMARK 927      BINDING AFFINITY PREDICTED BY RF-SCORE:    0.00 PKD
ROOT
HETATM    1  O   UNL     1     -10.954  13.129  68.795  1.00  0.00    -0.251 OA 
HETATM    2  C   UNL     1     -10.470  14.388  68.911  1.00  0.00    -0.245 C  
HETATM    3  O   UNL     1     -10.823  15.140  69.803  1.00  0.00    -0.261 OA 
HETATM    4  C   UNL     1      -9.470  14.721  67.825  1.00  0.00    -0.204 C  
ENDROOT
BRANCH   4   5
HETATM    5  C   UNL     1      -8.941  16.146  67.971  1.00  0.00    -0.185 C  
BRANCH   5   6
HETATM    6  C   UNL     1      -7.510  16.174  68.510  1.00  0.00    -0.167 C  
BRANCH   6   7
HETATM    7  C   UNL     1      -6.973  17.584  68.525  1.00  0.00    -0.214 A  
HETATM    8  C   UNL     1      -6.383  18.108  69.683  1.00  0.00    -0.182 A  
HETATM    9  C   UNL     1      -5.948  19.433  69.717  1.00  0.00    -0.307 A  
HETATM   10  C   UNL     1      -6.100  20.248  68.596  1.00  0.00    -0.335 A  
HETATM   11  C   UNL     1      -6.682  19.735  67.438  1.00  0.00    -0.238 A  
HETATM   12  C   UNL     1      -7.117  18.409  67.402  1.00  0.00    -0.209 A  
ENDBRANCH   6   7
ENDBRANCH   5   6
ENDBRANCH   4   5
TORSDOF 3
ENDMDL
MODEL      198
REMARK 921   NORMALIZED FREE ENERGY PREDICTED BY IDOCK:   -2.32 KCAL/MOL
REMARK 922        TOTAL FREE ENERGY PREDICTED BY IDOCK:   -3.06 KCAL/MOL
REMARK 923 INTER-LIGAND FREE ENERGY PREDICTED BY IDOCK:   -2.76 KCAL/MOL
REMARK 924 INTRA-LIGAND FREE ENERGY PREDICTED BY IDOCK:   -0.30 KCAL/MOL
REMARK 927      BINDING AFFINITY PREDICTED BY RF-SCORE:    0.00 PKD
ROOT
HETATM    1  O   UNL     1     -10.379  10.781  64.806  1.00  0.00    -0.321 OA 
HETATM    2  C   UNL     1     -10.710  11.095  66.080  1.00  0.00    -0.225 C  
HETATM    3  O   UNL     1     -11.428  12.044  66.351  1.00  0.00    -0.351 OA 
HETATM    4  C   UNL     1     -10.092  10.146  67.084  1.00  0.00    -0.260 C  
ENDROOT
BRANCH   4   5
HETATM    5  C   UNL     1     -10.473  10.521  68.515  1.00  0.00    -0.210 C  
BRANCH   5   6
HETATM    6  C   UNL     1      -9.393  10.117  69.520  1.00  0.00    -0.230 C  
BRANCH   6   7
HETATM    7  C   UNL     1      -9.583   8.686  69.961  1.00  0.00    -0.175 A  
HETATM    8  C   UNL     1     -10.592   8.353  70.874  1.00  0.00    -0.243 A  
HETATM    9  C   UNL     1     -10.724   7.042  71.333  1.00  0.00    -0.241 A  
HETATM   10  C   UNL     1      -9.849   6.053  70.886  1.00  0.00    -0.222 A  
HETATM   11  C   UNL     1      -8.845   6.374  69.975  1.00  0.00    -0.143 A  
HETATM   12  C   UNL     1      -8.711   7.685  69.514  1.00  0.00    -0.136 A  
ENDBRANCH   6   7
ENDBRANCH   5   6
ENDBRANCH   4   5
TORSDOF 3
ENDMDL
MODEL      199
REMARK 921   NORMALIZED FREE ENERGY PREDICTED BY IDOCK:   -2.31 KCAL/MOL
REMARK 922        TOTAL FREE ENERGY PREDICTED BY IDOCK:   -3.04 KCAL/MOL
REMARK 923 INTER-LIGAND FREE ENERGY PREDICTED BY IDOCK:   -2.75 KCAL/MOL
REMARK 924 INTRA-LIGAND FREE ENERGY PREDICTED BY IDOCK:   -0.30 KCAL/MOL
REMARK 927      BINDING AFFINITY PREDICTED BY RF-SCORE:    0.00 PKD
ROOT
HETATM    1  O   UNL     1      -7.786   3.354  72.264  1.00  0.00    -0.056 OA 
HETATM    2  C   UNL     1      -8.446   4.533  72.339  1.00  0.00    -0.110 C  
HETATM    3  O   UNL     1      -8.178   5.376  73.180  1.00  0.00    -0.114 OA 
HETATM    4  C   UNL     1      -9.520   4.658  71.281  1.00  0.00    -0.221 C  
ENDROOT
BRANCH   4   5
HETATM    5  C   UNL     1     -10.256   5.992  71.387  1.00  0.00    -0.253 C  
BRANCH   5   6
HETATM    6  C   UNL     1     -11.440   6.071  70.421  1.00  0.00    -0.234 C  
BRANCH   6   7
HETATM    7  C   UNL     1     -11.094   6.917  69.221  1.00  0.00    -0.229 A  
HETATM    8  C   UNL     1     -11.067   6.353  67.938  1.00  0.00    -0.370 A  
HETATM    9  C   UNL     1     -10.681   7.119  66.838  1.00  0.00    -0.363 A  
HETATM   10  C   UNL     1     -10.317   8.454  67.008  1.00  0.00    -0.385 A  
HETATM   11  C   UNL     1     -10.345   9.025  68.279  1.00  0.00    -0.252 A  
HETATM   12  C   UNL     1     -10.731   8.260  69.381  1.00  0.00    -0.160 A  
ENDBRANCH   6   7
ENDBRANCH   5   6
ENDBRANCH   4   5
TORSDOF 3
ENDMDL
MODEL      200
REMARK 921   NORMALIZED FREE ENERGY PREDICTED BY IDOCK:   -2.30 KCAL/MOL
REMARK 922        TOTAL FREE ENERGY PREDICTED BY IDOCK:   -3.03 KCAL/MOL
REMARK 923 INTER-LIGAND FREE ENERGY PREDICTED BY IDOCK:   -2.79 KCAL/MOL
REMARK 924 INTRA-LIGAND FREE ENERGY PREDICTED BY IDOCK:   -0.24 KCAL/MOL
REMARK 927      BINDING AFFINITY PREDICTED BY RF-SCORE:    0.00 PKD
ROOT
HETATM    1  O   UNL     1     -12.856  13.967  65.735  1.00  0.00    -0.516 OA 
HETATM    2  C   UNL     1     -11.875  13.939  66.667  1.00  0.00    -0.420 C  
HETATM    3  O   UNL     1     -12.115  13.941  67.863  1.00  0.00    -0.366 OA 
HETATM    4  C   UNL     1     -10.495  13.906  66.047  1.00  0.00    -0.299 C  
ENDROOT
BRANCH   4   5
HETATM    5  C   UNL     1      -9.403  13.879  67.115  1.00  0.00    -0.244 C  
BRANCH   5   6
HETATM    6  C   UNL     1      -8.558  12.607  67.039  1.00  0.00    -0.181 C  
BRANCH   6   7
HETATM    7  C   UNL     1      -7.638  12.506  68.231  1.00  0.00    -0.129 A  
HETATM    8  C   UNL     1      -6.989  13.645  68.725  1.00  0.00    -0.106 A  
HETATM    9  C   UNL     1      -6.086  13.540  69.785  1.00  0.00    -0.127 A  
HETATM   10  C   UNL     1      -5.822  12.296  70.357  1.00  0.00    -0.152 A  
HETATM   11  C   UNL     1      -6.466  11.159  69.875  1.00  0.00    -0.142 A  
HETATM   12  C   UNL     1      -7.370  11.262  68.817  1.00  0.00    -0.109 A  
ENDBRANCH   6   7
ENDBRANCH   5   6
ENDBRANCH   4   5
TORSDOF 3
ENDMDL
MODEL      201
REMARK 921   NORMALIZED FREE ENERGY PREDICTED BY IDOCK:   -2.30 KCAL/MOL
REMARK 922        TOTAL FREE ENERGY PREDICTED BY IDOCK:   -3.03 KCAL/MOL
REMARK 923 INTER-LIGAND FREE ENERGY PREDICTED BY IDOCK:   -2.79 KCAL/MOL
REMARK 924 INTRA-LIGAND FREE ENERGY PREDICTED BY IDOCK:   -0.24 KCAL/MOL
REMARK 927      BINDING AFFINITY PREDICTED BY RF-SCORE:    0.00 PKD
ROOT
HETATM    1  O   UNL     1     -10.002  10.141  65.459  1.00  0.00    -0.274 OA 
HETATM    2  C   UNL     1     -10.504   9.852  66.683  1.00  0.00    -0.169 C  
HETATM    3  O   UNL     1     -11.368  10.535  67.208  1.00  0.00    -0.359 OA 
HETATM    4  C   UNL     1      -9.873   8.617  67.285  1.00  0.00    -0.256 C  
ENDROOT
BRANCH   4   5
HETATM    5  C   UNL     1     -10.449   8.312  68.667  1.00  0.00    -0.199 C  
BRANCH   5   6
HETATM    6  C   UNL     1      -9.804   7.076  69.296  1.00  0.00    -0.159 C  
BRANCH   6   7
HETATM    7  C   UNL     1      -9.535   7.303  70.764  1.00  0.00    -0.164 A  
HETATM    8  C   UNL     1     -10.537   7.815  71.598  1.00  0.00    -0.252 A  
HETATM    9  C   UNL     1     -10.268   8.089  72.940  1.00  0.00    -0.384 A  
HETATM   10  C   UNL     1      -8.995   7.857  73.459  1.00  0.00    -0.343 A  
HETATM   11  C   UNL     1      -7.994   7.343  72.638  1.00  0.00    -0.116 A  
HETATM   12  C   UNL     1      -8.261   7.068  71.296  1.00  0.00    -0.113 A  
ENDBRANCH   6   7
ENDBRANCH   5   6
ENDBRANCH   4   5
TORSDOF 3
ENDMDL
MODEL      202
REMARK 921   NORMALIZED FREE ENERGY PREDICTED BY IDOCK:   -2.28 KCAL/MOL
REMARK 922        TOTAL FREE ENERGY PREDICTED BY IDOCK:   -3.00 KCAL/MOL
REMARK 923 INTER-LIGAND FREE ENERGY PREDICTED BY IDOCK:   -2.73 KCAL/MOL
REMARK 924 INTRA-LIGAND FREE ENERGY PREDICTED BY IDOCK:   -0.27 KCAL/MOL
REMARK 927      BINDING AFFINITY PREDICTED BY RF-SCORE:    0.00 PKD
ROOT
HETATM    1  O   UNL     1     -10.074  11.672  67.115  1.00  0.00    -0.201 OA 
HETATM    2  C   UNL     1     -10.602  11.418  68.335  1.00  0.00    -0.202 C  
HETATM    3  O   UNL     1     -11.393  12.176  68.871  1.00  0.00    -0.241 OA 
HETATM    4  C   UNL     1     -10.097  10.117  68.919  1.00  0.00    -0.211 C  
ENDROOT
BRANCH   4   5
HETATM    5  C   UNL     1     -10.700   9.852  70.297  1.00  0.00    -0.367 C  
BRANCH   5   6
HETATM    6  C   UNL     1     -10.960   8.363  70.532  1.00  0.00    -0.258 C  
BRANCH   6   7
HETATM    7  C   UNL     1      -9.946   7.789  71.491  1.00  0.00    -0.205 A  
HETATM    8  C   UNL     1      -8.864   7.038  71.015  1.00  0.00    -0.146 A  
HETATM    9  C   UNL     1      -7.964   6.451  71.906  1.00  0.00    -0.104 A  
HETATM   10  C   UNL     1      -8.139   6.607  73.280  1.00  0.00    -0.111 A  
HETATM   11  C   UNL     1      -9.210   7.357  73.763  1.00  0.00    -0.305 A  
HETATM   12  C   UNL     1     -10.111   7.945  72.874  1.00  0.00    -0.376 A  
ENDBRANCH   6   7
ENDBRANCH   5   6
ENDBRANCH   4   5
TORSDOF 3
ENDMDL
MODEL      203
REMARK 921   NORMALIZED FREE ENERGY PREDICTED BY IDOCK:   -2.26 KCAL/MOL
REMARK 922        TOTAL FREE ENERGY PREDICTED BY IDOCK:   -2.99 KCAL/MOL
REMARK 923 INTER-LIGAND FREE ENERGY PREDICTED BY IDOCK:   -2.72 KCAL/MOL
REMARK 924 INTRA-LIGAND FREE ENERGY PREDICTED BY IDOCK:   -0.27 KCAL/MOL
REMARK 927      BINDING AFFINITY PREDICTED BY RF-SCORE:    0.00 PKD
ROOT
HETATM    1  O   UNL     1      -9.903   4.169  65.198  1.00  0.00    -0.183 OA 
HETATM    2  C   UNL     1      -8.995   5.158  65.370  1.00  0.00    -0.156 C  
HETATM    3  O   UNL     1      -7.853   5.072  64.949  1.00  0.00    -0.085 OA 
HETATM    4  C   UNL     1      -9.568   6.337  66.124  1.00  0.00    -0.059 C  
ENDROOT
BRANCH   4   5
HETATM    5  C   UNL     1      -8.527   7.440  66.312  1.00  0.00    -0.138 C  
BRANCH   5   6
HETATM    6  C   UNL     1      -8.532   8.436  65.151  1.00  0.00    -0.179 C  
BRANCH   6   7
HETATM    7  C   UNL     1      -9.529   9.541  65.402  1.00  0.00    -0.336 A  
HETATM    8  C   UNL     1     -10.023  10.307  64.338  1.00  0.00    -0.331 A  
HETATM    9  C   UNL     1     -10.892  11.372  64.578  1.00  0.00    -0.375 A  
HETATM   10  C   UNL     1     -11.274  11.683  65.882  1.00  0.00    -0.296 A  
HETATM   11  C   UNL     1     -10.792  10.924  66.947  1.00  0.00    -0.307 A  
HETATM   12  C   UNL     1      -9.922   9.858  66.709  1.00  0.00    -0.272 A  
ENDBRANCH   6   7
ENDBRANCH   5   6
ENDBRANCH   4   5
TORSDOF 3
ENDMDL
MODEL      204
REMARK 921   NORMALIZED FREE ENERGY PREDICTED BY IDOCK:   -2.26 KCAL/MOL
REMARK 922        TOTAL FREE ENERGY PREDICTED BY IDOCK:   -2.98 KCAL/MOL
REMARK 923 INTER-LIGAND FREE ENERGY PREDICTED BY IDOCK:   -2.79 KCAL/MOL
REMARK 924 INTRA-LIGAND FREE ENERGY PREDICTED BY IDOCK:   -0.19 KCAL/MOL
REMARK 927      BINDING AFFINITY PREDICTED BY RF-SCORE:    0.00 PKD
ROOT
HETATM    1  O   UNL     1     -10.650   4.427  65.731  1.00  0.00    -0.243 OA 
HETATM    2  C   UNL     1      -9.768   4.948  66.614  1.00  0.00    -0.184 C  
HETATM    3  O   UNL     1      -8.568   4.977  66.395  1.00  0.00    -0.111 OA 
HETATM    4  C   UNL     1     -10.446   5.470  67.862  1.00  0.00    -0.244 C  
ENDROOT
BRANCH   4   5
HETATM    5  C   UNL     1      -9.433   6.048  68.849  1.00  0.00    -0.140 C  
BRANCH   5   6
HETATM    6  C   UNL     1      -8.896   4.984  69.808  1.00  0.00    -0.125 C  
BRANCH   6   7
HETATM    7  C   UNL     1      -9.700   4.965  71.086  1.00  0.00    -0.245 A  
HETATM    8  C   UNL     1      -9.455   3.993  72.064  1.00  0.00    -0.198 A  
HETATM    9  C   UNL     1     -10.243   3.933  73.214  1.00  0.00    -0.217 A  
HETATM   10  C   UNL     1     -11.284   4.843  73.396  1.00  0.00    -0.415 A  
HETATM   11  C   UNL     1     -11.533   5.816  72.430  1.00  0.00    -0.343 A  
HETATM   12  C   UNL     1     -10.745   5.877  71.279  1.00  0.00    -0.325 A  
ENDBRANCH   6   7
ENDBRANCH   5   6
ENDBRANCH   4   5
TORSDOF 3
ENDMDL
MODEL      205
REMARK 921   NORMALIZED FREE ENERGY PREDICTED BY IDOCK:   -2.24 KCAL/MOL
REMARK 922        TOTAL FREE ENERGY PREDICTED BY IDOCK:   -2.96 KCAL/MOL
REMARK 923 INTER-LIGAND FREE ENERGY PREDICTED BY IDOCK:   -2.70 KCAL/MOL
REMARK 924 INTRA-LIGAND FREE ENERGY PREDICTED BY IDOCK:   -0.27 KCAL/MOL
REMARK 927      BINDING AFFINITY PREDICTED BY RF-SCORE:    0.00 PKD
ROOT
HETATM    1  O   UNL     1     -11.230   2.915  63.494  1.00  0.00    -0.294 OA 
HETATM    2  C   UNL     1     -10.232   3.758  63.848  1.00  0.00    -0.221 C  
HETATM    3  O   UNL     1      -9.334   4.062  63.080  1.00  0.00    -0.122 OA 
HETATM    4  C   UNL     1     -10.376   4.251  65.271  1.00  0.00    -0.220 C  
ENDROOT
BRANCH   4   5
HETATM    5  C   UNL     1      -9.237   5.195  65.654  1.00  0.00    -0.157 C  
BRANCH   5   6
HETATM    6  C   UNL     1      -9.524   5.940  66.958  1.00  0.00    -0.134 C  
BRANCH   6   7
HETATM    7  C   UNL     1      -9.652   7.423  66.708  1.00  0.00    -0.249 A  
HETATM    8  C   UNL     1      -8.800   8.066  65.801  1.00  0.00    -0.170 A  
HETATM    9  C   UNL     1      -8.874   9.448  65.620  1.00  0.00    -0.208 A  
HETATM   10  C   UNL     1      -9.797  10.200  66.345  1.00  0.00    -0.279 A  
HETATM   11  C   UNL     1     -10.652   9.568  67.246  1.00  0.00    -0.317 A  
HETATM   12  C   UNL     1     -10.580   8.186  67.428  1.00  0.00    -0.325 A  
ENDBRANCH   6   7
ENDBRANCH   5   6
ENDBRANCH   4   5
TORSDOF 3
ENDMDL
MODEL      206
REMARK 921   NORMALIZED FREE ENERGY PREDICTED BY IDOCK:   -2.24 KCAL/MOL
REMARK 922        TOTAL FREE ENERGY PREDICTED BY IDOCK:   -2.96 KCAL/MOL
REMARK 923 INTER-LIGAND FREE ENERGY PREDICTED BY IDOCK:   -2.70 KCAL/MOL
REMARK 924 INTRA-LIGAND FREE ENERGY PREDICTED BY IDOCK:   -0.26 KCAL/MOL
REMARK 927      BINDING AFFINITY PREDICTED BY RF-SCORE:    0.00 PKD
ROOT
HETATM    1  O   UNL     1      -7.965   8.253  64.945  1.00  0.00    -0.127 OA 
HETATM    2  C   UNL     1      -8.651   8.992  65.847  1.00  0.00    -0.154 C  
HETATM    3  O   UNL     1      -9.815   8.758  66.128  1.00  0.00    -0.267 OA 
HETATM    4  C   UNL     1      -7.810  10.104  66.436  1.00  0.00    -0.114 C  
ENDROOT
BRANCH   4   5
HETATM    5  C   UNL     1      -8.604  10.929  67.447  1.00  0.00    -0.127 C  
BRANCH   5   6
HETATM    6  C   UNL     1      -8.241  12.414  67.386  1.00  0.00    -0.180 C  
BRANCH   6   7
HETATM    7  C   UNL     1      -9.468  13.271  67.579  1.00  0.00    -0.220 A  
HETATM    8  C   UNL     1      -9.430  14.383  68.431  1.00  0.00    -0.207 A  
HETATM    9  C   UNL     1     -10.583  15.136  68.661  1.00  0.00    -0.234 A  
HETATM   10  C   UNL     1     -11.783  14.783  68.045  1.00  0.00    -0.360 A  
HETATM   11  C   UNL     1     -11.828  13.681  67.193  1.00  0.00    -0.435 A  
HETATM   12  C   UNL     1     -10.677  12.928  66.961  1.00  0.00    -0.273 A  
ENDBRANCH   6   7
ENDBRANCH   5   6
ENDBRANCH   4   5
TORSDOF 3
ENDMDL
MODEL      207
REMARK 921   NORMALIZED FREE ENERGY PREDICTED BY IDOCK:   -2.23 KCAL/MOL
REMARK 922        TOTAL FREE ENERGY PREDICTED BY IDOCK:   -2.95 KCAL/MOL
REMARK 923 INTER-LIGAND FREE ENERGY PREDICTED BY IDOCK:   -2.65 KCAL/MOL
REMARK 924 INTRA-LIGAND FREE ENERGY PREDICTED BY IDOCK:   -0.30 KCAL/MOL
REMARK 927      BINDING AFFINITY PREDICTED BY RF-SCORE:    0.00 PKD
ROOT
HETATM    1  O   UNL     1      -8.123   8.623  73.617  1.00  0.00    -0.406 OA 
HETATM    2  C   UNL     1      -8.707   8.577  72.397  1.00  0.00    -0.172 C  
HETATM    3  O   UNL     1      -8.327   9.271  71.468  1.00  0.00    -0.323 OA 
HETATM    4  C   UNL     1      -9.849   7.586  72.345  1.00  0.00    -0.219 C  
ENDROOT
BRANCH   4   5
HETATM    5  C   UNL     1     -10.498   7.554  70.962  1.00  0.00    -0.222 C  
BRANCH   5   6
HETATM    6  C   UNL     1     -10.713   6.123  70.464  1.00  0.00    -0.340 C  
BRANCH   6   7
HETATM    7  C   UNL     1      -9.939   5.880  69.191  1.00  0.00    -0.214 A  
HETATM    8  C   UNL     1     -10.611   5.708  67.974  1.00  0.00    -0.260 A  
HETATM    9  C   UNL     1      -9.900   5.416  66.809  1.00  0.00    -0.190 A  
HETATM   10  C   UNL     1      -8.512   5.291  66.850  1.00  0.00    -0.106 A  
HETATM   11  C   UNL     1      -7.835   5.466  68.056  1.00  0.00    -0.092 A  
HETATM   12  C   UNL     1      -8.544   5.758  69.221  1.00  0.00    -0.111 A  
ENDBRANCH   6   7
ENDBRANCH   5   6
ENDBRANCH   4   5
TORSDOF 3
ENDMDL
MODEL      208
REMARK 921   NORMALIZED FREE ENERGY PREDICTED BY IDOCK:   -2.22 KCAL/MOL
REMARK 922        TOTAL FREE ENERGY PREDICTED BY IDOCK:   -2.94 KCAL/MOL
REMARK 923 INTER-LIGAND FREE ENERGY PREDICTED BY IDOCK:   -2.63 KCAL/MOL
REMARK 924 INTRA-LIGAND FREE ENERGY PREDICTED BY IDOCK:   -0.30 KCAL/MOL
REMARK 927      BINDING AFFINITY PREDICTED BY RF-SCORE:    0.00 PKD
ROOT
HETATM    1  O   UNL     1      -8.996  17.066  69.013  1.00  0.00    -0.238 OA 
HETATM    2  C   UNL     1      -9.724  16.243  68.222  1.00  0.00    -0.222 C  
HETATM    3  O   UNL     1     -10.390  16.660  67.289  1.00  0.00    -0.289 OA 
HETATM    4  C   UNL     1      -9.604  14.793  68.638  1.00  0.00    -0.218 C  
ENDROOT
BRANCH   4   5
HETATM    5  C   UNL     1     -10.437  13.883  67.737  1.00  0.00    -0.243 C  
BRANCH   5   6
HETATM    6  C   UNL     1      -9.581  13.188  66.677  1.00  0.00    -0.260 C  
BRANCH   6   7
HETATM    7  C   UNL     1      -9.355  11.740  67.039  1.00  0.00    -0.187 A  
HETATM    8  C   UNL     1     -10.206  10.743  66.544  1.00  0.00    -0.287 A  
HETATM    9  C   UNL     1     -10.038   9.414  66.933  1.00  0.00    -0.314 A  
HETATM   10  C   UNL     1      -9.020   9.069  67.822  1.00  0.00    -0.132 A  
HETATM   11  C   UNL     1      -8.166  10.053  68.315  1.00  0.00    -0.106 A  
HETATM   12  C   UNL     1      -8.333  11.383  67.927  1.00  0.00    -0.137 A  
ENDBRANCH   6   7
ENDBRANCH   5   6
ENDBRANCH   4   5
TORSDOF 3
ENDMDL
MODEL      209
REMARK 921   NORMALIZED FREE ENERGY PREDICTED BY IDOCK:   -2.18 KCAL/MOL
REMARK 922        TOTAL FREE ENERGY PREDICTED BY IDOCK:   -2.88 KCAL/MOL
REMARK 923 INTER-LIGAND FREE ENERGY PREDICTED BY IDOCK:   -2.64 KCAL/MOL
REMARK 924 INTRA-LIGAND FREE ENERGY PREDICTED BY IDOCK:   -0.24 KCAL/MOL
REMARK 927      BINDING AFFINITY PREDICTED BY RF-SCORE:    0.00 PKD
ROOT
HETATM    1  O   UNL     1      -9.204   3.434  66.968  1.00  0.00    -0.161 OA 
HETATM    2  C   UNL     1      -9.740   4.621  66.599  1.00  0.00    -0.199 C  
HETATM    3  O   UNL     1     -10.760   4.695  65.935  1.00  0.00    -0.307 OA 
HETATM    4  C   UNL     1      -8.931   5.796  67.101  1.00  0.00    -0.113 C  
ENDROOT
BRANCH   4   5
HETATM    5  C   UNL     1      -9.548   7.125  66.669  1.00  0.00    -0.226 C  
BRANCH   5   6
HETATM    6  C   UNL     1      -8.581   8.295  66.861  1.00  0.00    -0.122 C  
BRANCH   6   7
HETATM    7  C   UNL     1      -9.339   9.576  67.115  1.00  0.00    -0.174 A  
HETATM    8  C   UNL     1     -10.581   9.550  67.762  1.00  0.00    -0.318 A  
HETATM    9  C   UNL     1     -11.312  10.726  67.936  1.00  0.00    -0.372 A  
HETATM   10  C   UNL     1     -10.809  11.938  67.463  1.00  0.00    -0.283 A  
HETATM   11  C   UNL     1      -9.572  11.974  66.823  1.00  0.00    -0.215 A  
HETATM   12  C   UNL     1      -8.840  10.799  66.648  1.00  0.00    -0.151 A  
ENDBRANCH   6   7
ENDBRANCH   5   6
ENDBRANCH   4   5
TORSDOF 3
ENDMDL
MODEL      210
REMARK 921   NORMALIZED FREE ENERGY PREDICTED BY IDOCK:   -2.18 KCAL/MOL
REMARK 922        TOTAL FREE ENERGY PREDICTED BY IDOCK:   -2.88 KCAL/MOL
REMARK 923 INTER-LIGAND FREE ENERGY PREDICTED BY IDOCK:   -2.64 KCAL/MOL
REMARK 924 INTRA-LIGAND FREE ENERGY PREDICTED BY IDOCK:   -0.24 KCAL/MOL
REMARK 927      BINDING AFFINITY PREDICTED BY RF-SCORE:    0.00 PKD
ROOT
HETATM    1  O   UNL     1      -8.847   9.288  69.914  1.00  0.00    -0.154 OA 
HETATM    2  C   UNL     1      -8.463  10.380  69.211  1.00  0.00    -0.154 C  
HETATM    3  O   UNL     1      -7.316  10.795  69.231  1.00  0.00    -0.107 OA 
HETATM    4  C   UNL     1      -9.606  10.990  68.430  1.00  0.00    -0.181 C  
ENDROOT
BRANCH   4   5
HETATM    5  C   UNL     1      -9.153  12.223  67.650  1.00  0.00    -0.184 C  
BRANCH   5   6
HETATM    6  C   UNL     1     -10.336  13.087  67.208  1.00  0.00    -0.238 C  
BRANCH   6   7
HETATM    7  C   UNL     1      -9.967  14.550  67.237  1.00  0.00    -0.236 A  
HETATM    8  C   UNL     1      -9.566  15.205  66.065  1.00  0.00    -0.365 A  
HETATM    9  C   UNL     1      -9.160  16.539  66.104  1.00  0.00    -0.342 A  
HETATM   10  C   UNL     1      -9.149  17.231  67.315  1.00  0.00    -0.231 A  
HETATM   11  C   UNL     1      -9.550  16.590  68.485  1.00  0.00    -0.233 A  
HETATM   12  C   UNL     1      -9.957  15.255  68.447  1.00  0.00    -0.220 A  
ENDBRANCH   6   7
ENDBRANCH   5   6
ENDBRANCH   4   5
TORSDOF 3
ENDMDL
MODEL      211
REMARK 921   NORMALIZED FREE ENERGY PREDICTED BY IDOCK:   -2.17 KCAL/MOL
REMARK 922        TOTAL FREE ENERGY PREDICTED BY IDOCK:   -2.88 KCAL/MOL
REMARK 923 INTER-LIGAND FREE ENERGY PREDICTED BY IDOCK:   -2.65 KCAL/MOL
REMARK 924 INTRA-LIGAND FREE ENERGY PREDICTED BY IDOCK:   -0.23 KCAL/MOL
REMARK 927      BINDING AFFINITY PREDICTED BY RF-SCORE:    0.00 PKD
ROOT
HETATM    1  O   UNL     1      -8.078   9.563  67.053  1.00  0.00    -0.111 OA 
HETATM    2  C   UNL     1      -8.067   8.482  67.866  1.00  0.00    -0.115 C  
HETATM    3  O   UNL     1      -7.379   7.501  67.634  1.00  0.00    -0.097 OA 
HETATM    4  C   UNL     1      -8.987   8.648  69.055  1.00  0.00    -0.142 C  
ENDROOT
BRANCH   4   5
HETATM    5  C   UNL     1      -8.964   7.415  69.957  1.00  0.00    -0.144 C  
BRANCH   5   6
HETATM    6  C   UNL     1     -10.295   6.660  69.930  1.00  0.00    -0.232 C  
BRANCH   6   7
HETATM    7  C   UNL     1     -10.363   5.660  71.058  1.00  0.00    -0.297 A  
HETATM    8  C   UNL     1      -9.782   4.392  70.919  1.00  0.00    -0.267 A  
HETATM    9  C   UNL     1      -9.904   3.444  71.936  1.00  0.00    -0.238 A  
HETATM   10  C   UNL     1     -10.608   3.752  73.099  1.00  0.00    -0.268 A  
HETATM   11  C   UNL     1     -11.185   5.012  73.248  1.00  0.00    -0.411 A  
HETATM   12  C   UNL     1     -11.064   5.962  72.233  1.00  0.00    -0.330 A  
ENDBRANCH   6   7
ENDBRANCH   5   6
ENDBRANCH   4   5
TORSDOF 3
ENDMDL
MODEL      212
REMARK 921   NORMALIZED FREE ENERGY PREDICTED BY IDOCK:   -2.13 KCAL/MOL
REMARK 922        TOTAL FREE ENERGY PREDICTED BY IDOCK:   -2.83 KCAL/MOL
REMARK 923 INTER-LIGAND FREE ENERGY PREDICTED BY IDOCK:   -2.54 KCAL/MOL
REMARK 924 INTRA-LIGAND FREE ENERGY PREDICTED BY IDOCK:   -0.28 KCAL/MOL
REMARK 927      BINDING AFFINITY PREDICTED BY RF-SCORE:    0.00 PKD
ROOT
HETATM    1  O   UNL     1      -9.446   5.985  66.176  1.00  0.00    -0.154 OA 
HETATM    2  C   UNL     1      -9.955   6.532  67.305  1.00  0.00    -0.147 C  
HETATM    3  O   UNL     1     -10.029   7.739  67.466  1.00  0.00    -0.158 OA 
HETATM    4  C   UNL     1     -10.400   5.483  68.300  1.00  0.00    -0.237 C  
ENDROOT
BRANCH   4   5
HETATM    5  C   UNL     1     -10.965   6.120  69.568  1.00  0.00    -0.463 C  
BRANCH   5   6
HETATM    6  C   UNL     1     -10.556   5.353  70.826  1.00  0.00    -0.293 C  
BRANCH   6   7
HETATM    7  C   UNL     1      -9.616   6.178  71.672  1.00  0.00    -0.166 A  
HETATM    8  C   UNL     1     -10.109   7.211  72.480  1.00  0.00    -0.211 A  
HETATM    9  C   UNL     1      -9.234   8.017  73.209  1.00  0.00    -0.347 A  
HETATM   10  C   UNL     1      -7.859   7.800  73.136  1.00  0.00    -0.160 A  
HETATM   11  C   UNL     1      -7.360   6.773  72.338  1.00  0.00    -0.087 A  
HETATM   12  C   UNL     1      -8.233   5.965  71.609  1.00  0.00    -0.119 A  
ENDBRANCH   6   7
ENDBRANCH   5   6
ENDBRANCH   4   5
TORSDOF 3
ENDMDL
MODEL      213
REMARK 921   NORMALIZED FREE ENERGY PREDICTED BY IDOCK:   -2.09 KCAL/MOL
REMARK 922        TOTAL FREE ENERGY PREDICTED BY IDOCK:   -2.78 KCAL/MOL
REMARK 923 INTER-LIGAND FREE ENERGY PREDICTED BY IDOCK:   -2.35 KCAL/MOL
REMARK 924 INTRA-LIGAND FREE ENERGY PREDICTED BY IDOCK:   -0.43 KCAL/MOL
REMARK 927      BINDING AFFINITY PREDICTED BY RF-SCORE:    0.00 PKD
ROOT
HETATM    1  O   UNL     1      -7.803  10.261  64.794  1.00  0.00    -0.149 OA 
HETATM    2  C   UNL     1      -8.919  10.110  65.545  1.00  0.00    -0.172 C  
HETATM    3  O   UNL     1      -9.980   9.743  65.067  1.00  0.00    -0.286 OA 
HETATM    4  C   UNL     1      -8.680  10.447  67.001  1.00  0.00    -0.132 C  
ENDROOT
BRANCH   4   5
HETATM    5  C   UNL     1      -9.952  10.276  67.829  1.00  0.00    -0.203 C  
BRANCH   5   6
HETATM    6  C   UNL     1      -9.811   9.168  68.875  1.00  0.00    -0.179 C  
BRANCH   6   7
HETATM    7  C   UNL     1      -9.701   7.818  68.209  1.00  0.00    -0.169 A  
HETATM    8  C   UNL     1      -8.490   7.113  68.229  1.00  0.00    -0.124 A  
HETATM    9  C   UNL     1      -8.370   5.897  67.556  1.00  0.00    -0.105 A  
HETATM   10  C   UNL     1      -9.457   5.375  66.856  1.00  0.00    -0.138 A  
HETATM   11  C   UNL     1     -10.666   6.067  66.834  1.00  0.00    -0.407 A  
HETATM   12  C   UNL     1     -10.789   7.283  67.507  1.00  0.00    -0.284 A  
ENDBRANCH   6   7
ENDBRANCH   5   6
ENDBRANCH   4   5
TORSDOF 3
ENDMDL
MODEL      214
REMARK 921   NORMALIZED FREE ENERGY PREDICTED BY IDOCK:   -2.07 KCAL/MOL
REMARK 922        TOTAL FREE ENERGY PREDICTED BY IDOCK:   -2.76 KCAL/MOL
REMARK 923 INTER-LIGAND FREE ENERGY PREDICTED BY IDOCK:   -2.54 KCAL/MOL
REMARK 924 INTRA-LIGAND FREE ENERGY PREDICTED BY IDOCK:   -0.22 KCAL/MOL
REMARK 927      BINDING AFFINITY PREDICTED BY RF-SCORE:    0.00 PKD
ROOT
HETATM    1  O   UNL     1     -12.055  14.754  64.818  1.00  0.00    -0.414 OA 
HETATM    2  C   UNL     1     -11.276  13.649  64.756  1.00  0.00    -0.360 C  
HETATM    3  O   UNL     1     -11.202  12.961  63.752  1.00  0.00    -0.408 OA 
HETATM    4  C   UNL     1     -10.538  13.394  66.052  1.00  0.00    -0.290 C  
ENDROOT
BRANCH   4   5
HETATM    5  C   UNL     1      -9.670  12.140  65.963  1.00  0.00    -0.258 C  
BRANCH   5   6
HETATM    6  C   UNL     1      -8.659  12.061  67.109  1.00  0.00    -0.182 C  
BRANCH   6   7
HETATM    7  C   UNL     1      -8.291  10.626  67.397  1.00  0.00    -0.119 A  
HETATM    8  C   UNL     1      -8.345  10.128  68.705  1.00  0.00    -0.122 A  
HETATM    9  C   UNL     1      -7.941   8.821  68.981  1.00  0.00    -0.111 A  
HETATM   10  C   UNL     1      -7.476   8.001  67.954  1.00  0.00    -0.094 A  
HETATM   11  C   UNL     1      -7.422   8.487  66.649  1.00  0.00    -0.082 A  
HETATM   12  C   UNL     1      -7.827   9.793  66.371  1.00  0.00    -0.106 A  
ENDBRANCH   6   7
ENDBRANCH   5   6
ENDBRANCH   4   5
TORSDOF 3
ENDMDL
MODEL      215
REMARK 921   NORMALIZED FREE ENERGY PREDICTED BY IDOCK:   -2.07 KCAL/MOL
REMARK 922        TOTAL FREE ENERGY PREDICTED BY IDOCK:   -2.76 KCAL/MOL
REMARK 923 INTER-LIGAND FREE ENERGY PREDICTED BY IDOCK:   -2.43 KCAL/MOL
REMARK 924 INTRA-LIGAND FREE ENERGY PREDICTED BY IDOCK:   -0.32 KCAL/MOL
REMARK 927      BINDING AFFINITY PREDICTED BY RF-SCORE:    0.00 PKD
ROOT
HETATM    1  O   UNL     1     -12.978   9.695  71.854  1.00  0.00    -0.375 OA 
HETATM    2  C   UNL     1     -12.503   8.429  71.910  1.00  0.00    -0.347 C  
HETATM    3  O   UNL     1     -12.966   7.530  71.227  1.00  0.00    -0.331 OA 
HETATM    4  C   UNL     1     -11.366   8.286  72.898  1.00  0.00    -0.193 C  
ENDROOT
BRANCH   4   5
HETATM    5  C   UNL     1     -10.848   6.849  72.950  1.00  0.00    -0.318 C  
BRANCH   5   6
HETATM    6  C   UNL     1      -9.322   6.787  72.860  1.00  0.00    -0.151 C  
BRANCH   6   7
HETATM    7  C   UNL     1      -8.890   6.209  71.535  1.00  0.00    -0.135 A  
HETATM    8  C   UNL     1      -9.752   6.240  70.431  1.00  0.00    -0.189 A  
HETATM    9  C   UNL     1      -9.378   5.646  69.225  1.00  0.00    -0.150 A  
HETATM   10  C   UNL     1      -8.141   5.013  69.111  1.00  0.00    -0.083 A  
HETATM   11  C   UNL     1      -7.275   4.981  70.202  1.00  0.00    -0.058 A  
HETATM   12  C   UNL     1      -7.647   5.575  71.409  1.00  0.00    -0.103 A  
ENDBRANCH   6   7
ENDBRANCH   5   6
ENDBRANCH   4   5
TORSDOF 3
ENDMDL
MODEL      216
REMARK 921   NORMALIZED FREE ENERGY PREDICTED BY IDOCK:   -2.04 KCAL/MOL
REMARK 922        TOTAL FREE ENERGY PREDICTED BY IDOCK:   -2.73 KCAL/MOL
REMARK 923 INTER-LIGAND FREE ENERGY PREDICTED BY IDOCK:   -2.48 KCAL/MOL
REMARK 924 INTRA-LIGAND FREE ENERGY PREDICTED BY IDOCK:   -0.25 KCAL/MOL
REMARK 927      BINDING AFFINITY PREDICTED BY RF-SCORE:    0.00 PKD
ROOT
HETATM    1  O   UNL     1      -9.857   7.875  71.255  1.00  0.00    -0.167 OA 
HETATM    2  C   UNL     1     -10.053   6.719  70.580  1.00  0.00    -0.183 C  
HETATM    3  O   UNL     1      -9.852   5.627  71.086  1.00  0.00    -0.167 OA 
HETATM    4  C   UNL     1     -10.537   6.955  69.166  1.00  0.00    -0.245 C  
ENDROOT
BRANCH   4   5
HETATM    5  C   UNL     1     -10.747   5.639  68.419  1.00  0.00    -0.229 C  
BRANCH   5   6
HETATM    6  C   UNL     1     -10.667   5.822  66.902  1.00  0.00    -0.381 C  
BRANCH   6   7
HETATM    7  C   UNL     1     -10.088   4.592  66.247  1.00  0.00    -0.280 A  
HETATM    8  C   UNL     1     -10.358   4.310  64.901  1.00  0.00    -0.186 A  
HETATM    9  C   UNL     1      -9.879   3.138  64.314  1.00  0.00    -0.158 A  
HETATM   10  C   UNL     1      -9.128   2.236  65.067  1.00  0.00    -0.125 A  
HETATM   11  C   UNL     1      -8.850   2.510  66.405  1.00  0.00    -0.136 A  
HETATM   12  C   UNL     1      -9.328   3.682  66.993  1.00  0.00    -0.223 A  
ENDBRANCH   6   7
ENDBRANCH   5   6
ENDBRANCH   4   5
TORSDOF 3
ENDMDL
MODEL      217
REMARK 921   NORMALIZED FREE ENERGY PREDICTED BY IDOCK:   -2.04 KCAL/MOL
REMARK 922        TOTAL FREE ENERGY PREDICTED BY IDOCK:   -2.72 KCAL/MOL
REMARK 923 INTER-LIGAND FREE ENERGY PREDICTED BY IDOCK:   -2.50 KCAL/MOL
REMARK 924 INTRA-LIGAND FREE ENERGY PREDICTED BY IDOCK:   -0.23 KCAL/MOL
REMARK 927      BINDING AFFINITY PREDICTED BY RF-SCORE:    0.00 PKD
ROOT
HETATM    1  O   UNL     1     -11.800  12.029  66.477  1.00  0.00    -0.585 OA 
HETATM    2  C   UNL     1     -11.552  11.909  67.802  1.00  0.00    -0.323 C  
HETATM    3  O   UNL     1     -11.861  12.777  68.602  1.00  0.00    -0.304 OA 
HETATM    4  C   UNL     1     -10.865  10.604  68.142  1.00  0.00    -0.291 C  
ENDROOT
BRANCH   4   5
HETATM    5  C   UNL     1     -10.589  10.492  69.640  1.00  0.00    -0.281 C  
BRANCH   5   6
HETATM    6  C   UNL     1      -9.417   9.554  69.937  1.00  0.00    -0.247 C  
BRANCH   6   7
HETATM    7  C   UNL     1      -8.222   9.909  69.088  1.00  0.00    -0.128 A  
HETATM    8  C   UNL     1      -7.549  11.123  69.279  1.00  0.00    -0.057 A  
HETATM    9  C   UNL     1      -6.486  11.480  68.449  1.00  0.00    -0.051 A  
HETATM   10  C   UNL     1      -6.086  10.629  67.419  1.00  0.00    -0.053 A  
HETATM   11  C   UNL     1      -6.746   9.417  67.224  1.00  0.00    -0.075 A  
HETATM   12  C   UNL     1      -7.810   9.058  68.054  1.00  0.00    -0.101 A  
ENDBRANCH   6   7
ENDBRANCH   5   6
ENDBRANCH   4   5
TORSDOF 3
ENDMDL
MODEL      218
REMARK 921   NORMALIZED FREE ENERGY PREDICTED BY IDOCK:   -2.01 KCAL/MOL
REMARK 922        TOTAL FREE ENERGY PREDICTED BY IDOCK:   -2.69 KCAL/MOL
REMARK 923 INTER-LIGAND FREE ENERGY PREDICTED BY IDOCK:   -2.44 KCAL/MOL
REMARK 924 INTRA-LIGAND FREE ENERGY PREDICTED BY IDOCK:   -0.25 KCAL/MOL
REMARK 927      BINDING AFFINITY PREDICTED BY RF-SCORE:    0.00 PKD
ROOT
HETATM    1  O   UNL     1      -7.093   4.643  66.152  1.00  0.00    -0.071 OA 
HETATM    2  C   UNL     1      -7.293   5.480  67.196  1.00  0.00    -0.080 C  
HETATM    3  O   UNL     1      -6.486   6.344  67.499  1.00  0.00    -0.045 OA 
HETATM    4  C   UNL     1      -8.600   5.209  67.908  1.00  0.00    -0.103 C  
ENDROOT
BRANCH   4   5
HETATM    5  C   UNL     1      -8.803   6.160  69.086  1.00  0.00    -0.123 C  
BRANCH   5   6
HETATM    6  C   UNL     1     -10.276   6.277  69.480  1.00  0.00    -0.239 C  
BRANCH   6   7
HETATM    7  C   UNL     1     -10.624   7.705  69.824  1.00  0.00    -0.245 A  
HETATM    8  C   UNL     1     -10.467   8.722  68.874  1.00  0.00    -0.217 A  
HETATM    9  C   UNL     1     -10.725  10.051  69.214  1.00  0.00    -0.249 A  
HETATM   10  C   UNL     1     -11.138  10.376  70.505  1.00  0.00    -0.343 A  
HETATM   11  C   UNL     1     -11.301   9.370  71.455  1.00  0.00    -0.451 A  
HETATM   12  C   UNL     1     -11.045   8.040  71.118  1.00  0.00    -0.278 A  
ENDBRANCH   6   7
ENDBRANCH   5   6
ENDBRANCH   4   5
TORSDOF 3
ENDMDL
MODEL      219
REMARK 921   NORMALIZED FREE ENERGY PREDICTED BY IDOCK:   -1.99 KCAL/MOL
REMARK 922        TOTAL FREE ENERGY PREDICTED BY IDOCK:   -2.67 KCAL/MOL
REMARK 923 INTER-LIGAND FREE ENERGY PREDICTED BY IDOCK:   -2.64 KCAL/MOL
REMARK 924 INTRA-LIGAND FREE ENERGY PREDICTED BY IDOCK:   -0.03 KCAL/MOL
REMARK 927      BINDING AFFINITY PREDICTED BY RF-SCORE:    0.00 PKD
ROOT
HETATM    1  O   UNL     1     -10.685  19.703  67.930  1.00  0.00    -0.408 OA 
HETATM    2  C   UNL     1      -9.695  18.919  68.417  1.00  0.00    -0.379 C  
HETATM    3  O   UNL     1      -9.604  18.650  69.603  1.00  0.00     0.211 OA 
HETATM    4  C   UNL     1      -8.756  18.440  67.332  1.00  0.00    -0.265 C  
ENDROOT
BRANCH   4   5
HETATM    5  C   UNL     1      -7.644  17.562  67.903  1.00  0.00    -0.204 C  
BRANCH   5   6
HETATM    6  C   UNL     1      -7.176  16.506  66.900  1.00  0.00    -0.263 C  
BRANCH   6   7
HETATM    7  C   UNL     1      -8.039  15.271  66.984  1.00  0.00    -0.253 A  
HETATM    8  C   UNL     1      -9.422  15.355  66.779  1.00  0.00    -0.260 A  
HETATM    9  C   UNL     1     -10.228  14.226  66.923  1.00  0.00    -0.266 A  
HETATM   10  C   UNL     1      -9.660  13.002  67.276  1.00  0.00    -0.225 A  
HETATM   11  C   UNL     1      -8.285  12.908  67.478  1.00  0.00    -0.184 A  
HETATM   12  C   UNL     1      -7.477  14.036  67.333  1.00  0.00    -0.147 A  
ENDBRANCH   6   7
ENDBRANCH   5   6
ENDBRANCH   4   5
TORSDOF 3
ENDMDL
MODEL      220
REMARK 921   NORMALIZED FREE ENERGY PREDICTED BY IDOCK:   -1.98 KCAL/MOL
REMARK 922        TOTAL FREE ENERGY PREDICTED BY IDOCK:   -2.65 KCAL/MOL
REMARK 923 INTER-LIGAND FREE ENERGY PREDICTED BY IDOCK:   -2.38 KCAL/MOL
REMARK 924 INTRA-LIGAND FREE ENERGY PREDICTED BY IDOCK:   -0.27 KCAL/MOL
REMARK 927      BINDING AFFINITY PREDICTED BY RF-SCORE:    0.00 PKD
ROOT
HETATM    1  O   UNL     1     -11.627  16.832  64.017  1.00  0.00    -1.195 OA 
HETATM    2  C   UNL     1     -10.756  16.104  64.754  1.00  0.00    -0.166 C  
HETATM    3  O   UNL     1      -9.861  16.623  65.401  1.00  0.00    -0.538 OA 
HETATM    4  C   UNL     1     -11.033  14.619  64.669  1.00  0.00    -0.340 C  
ENDROOT
BRANCH   4   5
HETATM    5  C   UNL     1     -10.036  13.817  65.503  1.00  0.00    -0.260 C  
BRANCH   5   6
HETATM    6  C   UNL     1     -10.513  13.631  66.944  1.00  0.00    -0.272 C  
BRANCH   6   7
HETATM    7  C   UNL     1      -9.344  13.372  67.863  1.00  0.00    -0.216 A  
HETATM    8  C   UNL     1      -9.152  12.104  68.427  1.00  0.00    -0.151 A  
HETATM    9  C   UNL     1      -8.111  11.882  69.330  1.00  0.00     0.446 A  
HETATM   10  C   UNL     1      -7.254  12.925  69.678  1.00  0.00     0.510 A  
HETATM   11  C   UNL     1      -7.435  14.188  69.119  1.00  0.00    -0.037 A  
HETATM   12  C   UNL     1      -8.475  14.412  68.216  1.00  0.00    -0.165 A  
ENDBRANCH   6   7
ENDBRANCH   5   6
ENDBRANCH   4   5
TORSDOF 3
ENDMDL
MODEL      221
REMARK 921   NORMALIZED FREE ENERGY PREDICTED BY IDOCK:   -1.97 KCAL/MOL
REMARK 922        TOTAL FREE ENERGY PREDICTED BY IDOCK:   -2.65 KCAL/MOL
REMARK 923 INTER-LIGAND FREE ENERGY PREDICTED BY IDOCK:   -2.36 KCAL/MOL
REMARK 924 INTRA-LIGAND FREE ENERGY PREDICTED BY IDOCK:   -0.29 KCAL/MOL
REMARK 927      BINDING AFFINITY PREDICTED BY RF-SCORE:    0.00 PKD
ROOT
HETATM    1  O   UNL     1     -10.358  10.682  64.758  1.00  0.00    -0.335 OA 
HETATM    2  C   UNL     1     -10.657  10.488  66.063  1.00  0.00    -0.093 C  
HETATM    3  O   UNL     1     -11.427  11.215  66.669  1.00  0.00    -0.338 OA 
HETATM    4  C   UNL     1      -9.933   9.294  66.646  1.00  0.00    -0.333 C  
ENDROOT
BRANCH   4   5
HETATM    5  C   UNL     1     -10.279   9.096  68.121  1.00  0.00    -0.249 C  
BRANCH   5   6
HETATM    6  C   UNL     1      -9.173   8.356  68.875  1.00  0.00    -0.147 C  
BRANCH   6   7
HETATM    7  C   UNL     1      -9.246   6.872  68.608  1.00  0.00    -0.130 A  
HETATM    8  C   UNL     1     -10.220   6.085  69.235  1.00  0.00    -0.263 A  
HETATM    9  C   UNL     1     -10.244   4.703  69.041  1.00  0.00    -0.032 A  
HETATM   10  C   UNL     1      -9.295   4.096  68.220  1.00  0.00    -0.214 A  
HETATM   11  C   UNL     1      -8.325   4.871  67.589  1.00  0.00    -0.105 A  
HETATM   12  C   UNL     1      -8.299   6.253  67.781  1.00  0.00    -0.117 A  
ENDBRANCH   6   7
ENDBRANCH   5   6
ENDBRANCH   4   5
TORSDOF 3
ENDMDL
MODEL      222
REMARK 921   NORMALIZED FREE ENERGY PREDICTED BY IDOCK:   -1.97 KCAL/MOL
REMARK 922        TOTAL FREE ENERGY PREDICTED BY IDOCK:   -2.64 KCAL/MOL
REMARK 923 INTER-LIGAND FREE ENERGY PREDICTED BY IDOCK:   -2.42 KCAL/MOL
REMARK 924 INTRA-LIGAND FREE ENERGY PREDICTED BY IDOCK:   -0.22 KCAL/MOL
REMARK 927      BINDING AFFINITY PREDICTED BY RF-SCORE:    0.00 PKD
ROOT
HETATM    1  O   UNL     1     -10.624   4.887  71.620  1.00  0.00    -0.171 OA 
HETATM    2  C   UNL     1     -10.555   5.977  70.820  1.00  0.00    -0.255 C  
HETATM    3  O   UNL     1     -11.426   6.245  70.009  1.00  0.00    -0.412 OA 
HETATM    4  C   UNL     1      -9.298   6.785  71.059  1.00  0.00    -0.160 C  
ENDROOT
BRANCH   4   5
HETATM    5  C   UNL     1      -9.237   8.007  70.143  1.00  0.00    -0.152 C  
BRANCH   5   6
HETATM    6  C   UNL     1      -8.640   7.668  68.776  1.00  0.00    -0.129 C  
BRANCH   6   7
HETATM    7  C   UNL     1      -8.909   8.776  67.787  1.00  0.00    -0.137 A  
HETATM    8  C   UNL     1     -10.223   9.118  67.444  1.00  0.00    -0.310 A  
HETATM    9  C   UNL     1     -10.470  10.096  66.480  1.00  0.00    -0.236 A  
HETATM   10  C   UNL     1      -9.407  10.740  65.849  1.00  0.00    -0.220 A  
HETATM   11  C   UNL     1      -8.096  10.409  66.187  1.00  0.00    -0.139 A  
HETATM   12  C   UNL     1      -7.847   9.432  67.151  1.00  0.00    -0.098 A  
ENDBRANCH   6   7
ENDBRANCH   5   6
ENDBRANCH   4   5
TORSDOF 3
ENDMDL
MODEL      223
REMARK 921   NORMALIZED FREE ENERGY PREDICTED BY IDOCK:   -1.96 KCAL/MOL
REMARK 922        TOTAL FREE ENERGY PREDICTED BY IDOCK:   -2.63 KCAL/MOL
REMARK 923 INTER-LIGAND FREE ENERGY PREDICTED BY IDOCK:   -2.28 KCAL/MOL
REMARK 924 INTRA-LIGAND FREE ENERGY PREDICTED BY IDOCK:   -0.36 KCAL/MOL
REMARK 927      BINDING AFFINITY PREDICTED BY RF-SCORE:    0.00 PKD
ROOT
HETATM    1  O   UNL     1      -7.875  10.676  66.918  1.00  0.00    -0.113 OA 
HETATM    2  C   UNL     1      -7.474   9.384  66.899  1.00  0.00    -0.091 C  
HETATM    3  O   UNL     1      -6.629   8.976  66.120  1.00  0.00    -0.064 OA 
HETATM    4  C   UNL     1      -8.190   8.546  67.936  1.00  0.00    -0.119 C  
ENDROOT
BRANCH   4   5
HETATM    5  C   UNL     1      -7.728   7.091  67.894  1.00  0.00    -0.113 C  
BRANCH   5   6
HETATM    6  C   UNL     1      -8.898   6.124  67.698  1.00  0.00    -0.103 C  
BRANCH   6   7
HETATM    7  C   UNL     1      -9.693   5.983  68.973  1.00  0.00    -0.161 A  
HETATM    8  C   UNL     1     -11.019   6.429  69.036  1.00  0.00    -0.410 A  
HETATM    9  C   UNL     1     -11.732   6.360  70.234  1.00  0.00    -0.389 A  
HETATM   10  C   UNL     1     -11.125   5.848  71.380  1.00  0.00    -0.313 A  
HETATM   11  C   UNL     1      -9.807   5.398  71.326  1.00  0.00    -0.235 A  
HETATM   12  C   UNL     1      -9.093   5.465  70.129  1.00  0.00    -0.165 A  
ENDBRANCH   6   7
ENDBRANCH   5   6
ENDBRANCH   4   5
TORSDOF 3
ENDMDL
MODEL      224
REMARK 921   NORMALIZED FREE ENERGY PREDICTED BY IDOCK:   -1.92 KCAL/MOL
REMARK 922        TOTAL FREE ENERGY PREDICTED BY IDOCK:   -2.58 KCAL/MOL
REMARK 923 INTER-LIGAND FREE ENERGY PREDICTED BY IDOCK:   -2.30 KCAL/MOL
REMARK 924 INTRA-LIGAND FREE ENERGY PREDICTED BY IDOCK:   -0.28 KCAL/MOL
REMARK 927      BINDING AFFINITY PREDICTED BY RF-SCORE:    0.00 PKD
ROOT
HETATM    1  O   UNL     1      -7.225  12.408  68.297  1.00  0.00    -0.087 OA 
HETATM    2  C   UNL     1      -7.911  11.287  67.975  1.00  0.00    -0.119 C  
HETATM    3  O   UNL     1      -8.023  10.902  66.823  1.00  0.00    -0.131 OA 
HETATM    4  C   UNL     1      -8.498  10.604  69.192  1.00  0.00    -0.134 C  
ENDROOT
BRANCH   4   5
HETATM    5  C   UNL     1      -9.273   9.346  68.806  1.00  0.00    -0.132 C  
BRANCH   5   6
HETATM    6  C   UNL     1      -8.681   8.090  69.449  1.00  0.00    -0.137 C  
BRANCH   6   7
HETATM    7  C   UNL     1      -9.670   7.461  70.400  1.00  0.00    -0.175 A  
HETATM    8  C   UNL     1      -9.272   7.072  71.685  1.00  0.00    -0.144 A  
HETATM    9  C   UNL     1     -10.169   6.430  72.540  1.00  0.00    -0.201 A  
HETATM   10  C   UNL     1     -11.471   6.168  72.117  1.00  0.00    -0.361 A  
HETATM   11  C   UNL     1     -11.878   6.554  70.842  1.00  0.00    -0.391 A  
HETATM   12  C   UNL     1     -10.983   7.198  69.986  1.00  0.00    -0.287 A  
ENDBRANCH   6   7
ENDBRANCH   5   6
ENDBRANCH   4   5
TORSDOF 3
ENDMDL
MODEL      225
REMARK 921   NORMALIZED FREE ENERGY PREDICTED BY IDOCK:   -1.90 KCAL/MOL
REMARK 922        TOTAL FREE ENERGY PREDICTED BY IDOCK:   -2.56 KCAL/MOL
REMARK 923 INTER-LIGAND FREE ENERGY PREDICTED BY IDOCK:   -2.16 KCAL/MOL
REMARK 924 INTRA-LIGAND FREE ENERGY PREDICTED BY IDOCK:   -0.40 KCAL/MOL
REMARK 927      BINDING AFFINITY PREDICTED BY RF-SCORE:    0.00 PKD
ROOT
HETATM    1  O   UNL     1      -8.256  10.049  67.637  1.00  0.00    -0.113 OA 
HETATM    2  C   UNL     1      -8.306   8.742  67.986  1.00  0.00    -0.119 C  
HETATM    3  O   UNL     1      -7.697   7.882  67.372  1.00  0.00    -0.105 OA 
HETATM    4  C   UNL     1      -9.187   8.504  69.193  1.00  0.00    -0.150 C  
ENDROOT
BRANCH   4   5
HETATM    5  C   UNL     1      -9.234   7.024  69.567  1.00  0.00    -0.149 C  
BRANCH   5   6
HETATM    6  C   UNL     1     -10.482   6.333  69.014  1.00  0.00    -0.287 C  
BRANCH   6   7
HETATM    7  C   UNL     1     -10.103   5.262  68.020  1.00  0.00    -0.208 A  
HETATM    8  C   UNL     1     -10.278   5.473  66.647  1.00  0.00    -0.279 A  
HETATM    9  C   UNL     1      -9.991   4.457  65.734  1.00  0.00    -0.251 A  
HETATM   10  C   UNL     1      -9.529   3.222  66.185  1.00  0.00    -0.091 A  
HETATM   11  C   UNL     1      -9.347   3.004  67.549  1.00  0.00    -0.229 A  
HETATM   12  C   UNL     1      -9.634   4.019  68.464  1.00  0.00    -0.184 A  
ENDBRANCH   6   7
ENDBRANCH   5   6
ENDBRANCH   4   5
TORSDOF 3
ENDMDL
MODEL      226
REMARK 921   NORMALIZED FREE ENERGY PREDICTED BY IDOCK:   -1.85 KCAL/MOL
REMARK 922        TOTAL FREE ENERGY PREDICTED BY IDOCK:   -2.50 KCAL/MOL
REMARK 923 INTER-LIGAND FREE ENERGY PREDICTED BY IDOCK:   -2.52 KCAL/MOL
REMARK 924 INTRA-LIGAND FREE ENERGY PREDICTED BY IDOCK:    0.02 KCAL/MOL
REMARK 927      BINDING AFFINITY PREDICTED BY RF-SCORE:    0.00 PKD
ROOT
HETATM    1  O   UNL     1      -8.813  14.556  68.999  1.00  0.00    -0.140 OA 
HETATM    2  C   UNL     1      -8.152  14.941  67.882  1.00  0.00    -0.142 C  
HETATM    3  O   UNL     1      -7.217  14.302  67.428  1.00  0.00    -0.185 OA 
HETATM    4  C   UNL     1      -8.708  16.221  67.298  1.00  0.00    -0.200 C  
ENDROOT
BRANCH   4   5
HETATM    5  C   UNL     1      -7.945  16.641  66.044  1.00  0.00    -0.052 C  
BRANCH   5   6
HETATM    6  C   UNL     1      -6.485  16.981  66.348  1.00  0.00    -0.176 C  
BRANCH   6   7
HETATM    7  C   UNL     1      -6.303  18.472  66.491  1.00  0.00    -0.213 A  
HETATM    8  C   UNL     1      -6.290  19.298  65.359  1.00  0.00    -0.303 A  
HETATM    9  C   UNL     1      -6.055  20.667  65.486  1.00  0.00    -0.269 A  
HETATM   10  C   UNL     1      -5.829  21.224  66.744  1.00  0.00    -0.365 A  
HETATM   11  C   UNL     1      -5.845  20.412  67.876  1.00  0.00    -0.263 A  
HETATM   12  C   UNL     1      -6.081  19.042  67.751  1.00  0.00    -0.211 A  
ENDBRANCH   6   7
ENDBRANCH   5   6
ENDBRANCH   4   5
TORSDOF 3
ENDMDL
MODEL      227
REMARK 921   NORMALIZED FREE ENERGY PREDICTED BY IDOCK:   -1.85 KCAL/MOL
REMARK 922        TOTAL FREE ENERGY PREDICTED BY IDOCK:   -2.50 KCAL/MOL
REMARK 923 INTER-LIGAND FREE ENERGY PREDICTED BY IDOCK:   -2.26 KCAL/MOL
REMARK 924 INTRA-LIGAND FREE ENERGY PREDICTED BY IDOCK:   -0.24 KCAL/MOL
REMARK 927      BINDING AFFINITY PREDICTED BY RF-SCORE:    0.00 PKD
ROOT
HETATM    1  O   UNL     1     -11.721  13.022  66.110  1.00  0.00    -0.354 OA 
HETATM    2  C   UNL     1     -11.335  12.095  67.017  1.00  0.00    -0.337 C  
HETATM    3  O   UNL     1     -11.202  12.359  68.201  1.00  0.00    -0.229 OA 
HETATM    4  C   UNL     1     -11.101  10.739  66.388  1.00  0.00    -0.013 C  
ENDROOT
BRANCH   4   5
HETATM    5  C   UNL     1     -10.661   9.709  67.427  1.00  0.00    -0.333 C  
BRANCH   5   6
HETATM    6  C   UNL     1     -10.579   8.300  66.837  1.00  0.00    -0.302 C  
BRANCH   6   7
HETATM    7  C   UNL     1      -9.239   7.673  67.138  1.00  0.00    -0.158 A  
HETATM    8  C   UNL     1      -8.556   6.951  66.152  1.00  0.00    -0.147 A  
HETATM    9  C   UNL     1      -7.350   6.315  66.449  1.00  0.00    -0.085 A  
HETATM   10  C   UNL     1      -6.817   6.393  67.736  1.00  0.00    -0.070 A  
HETATM   11  C   UNL     1      -7.488   7.113  68.722  1.00  0.00    -0.102 A  
HETATM   12  C   UNL     1      -8.694   7.750  68.426  1.00  0.00    -0.127 A  
ENDBRANCH   6   7
ENDBRANCH   5   6
ENDBRANCH   4   5
TORSDOF 3
ENDMDL
MODEL      228
REMARK 921   NORMALIZED FREE ENERGY PREDICTED BY IDOCK:   -1.81 KCAL/MOL
REMARK 922        TOTAL FREE ENERGY PREDICTED BY IDOCK:   -2.46 KCAL/MOL
REMARK 923 INTER-LIGAND FREE ENERGY PREDICTED BY IDOCK:   -2.14 KCAL/MOL
REMARK 924 INTRA-LIGAND FREE ENERGY PREDICTED BY IDOCK:   -0.32 KCAL/MOL
REMARK 927      BINDING AFFINITY PREDICTED BY RF-SCORE:    0.00 PKD
ROOT
HETATM    1  O   UNL     1      -9.851   4.797  66.042  1.00  0.00    -0.177 OA 
HETATM    2  C   UNL     1     -10.424   5.657  66.916  1.00  0.00    -0.288 C  
HETATM    3  O   UNL     1     -11.394   6.335  66.619  1.00  0.00    -0.165 OA 
HETATM    4  C   UNL     1      -9.726   5.662  68.258  1.00  0.00    -0.160 C  
ENDROOT
BRANCH   4   5
HETATM    5  C   UNL     1     -10.385   6.643  69.227  1.00  0.00    -0.228 C  
BRANCH   5   6
HETATM    6  C   UNL     1      -9.625   7.968  69.305  1.00  0.00    -0.157 C  
BRANCH   6   7
HETATM    7  C   UNL     1      -8.812   8.042  70.575  1.00  0.00    -0.137 A  
HETATM    8  C   UNL     1      -7.414   7.975  70.528  1.00  0.00    -0.071 A  
HETATM    9  C   UNL     1      -6.666   7.976  71.707  1.00  0.00    -0.058 A  
HETATM   10  C   UNL     1      -7.309   8.040  72.942  1.00  0.00    -0.141 A  
HETATM   11  C   UNL     1      -8.700   8.110  72.999  1.00  0.00    -0.309 A  
HETATM   12  C   UNL     1      -9.449   8.111  71.821  1.00  0.00    -0.249 A  
ENDBRANCH   6   7
ENDBRANCH   5   6
ENDBRANCH   4   5
TORSDOF 3
ENDMDL
MODEL      229
REMARK 921   NORMALIZED FREE ENERGY PREDICTED BY IDOCK:   -1.77 KCAL/MOL
REMARK 922        TOTAL FREE ENERGY PREDICTED BY IDOCK:   -2.40 KCAL/MOL
REMARK 923 INTER-LIGAND FREE ENERGY PREDICTED BY IDOCK:   -2.72 KCAL/MOL
REMARK 924 INTRA-LIGAND FREE ENERGY PREDICTED BY IDOCK:    0.32 KCAL/MOL
REMARK 927      BINDING AFFINITY PREDICTED BY RF-SCORE:    0.00 PKD
ROOT
HETATM    1  O   UNL     1      -7.697   7.856  68.173  1.00  0.00    -0.119 OA 
HETATM    2  C   UNL     1      -7.987   9.159  68.397  1.00  0.00    -0.103 C  
HETATM    3  O   UNL     1      -7.296   9.864  69.114  1.00  0.00    -0.073 OA 
HETATM    4  C   UNL     1      -9.236   9.603  67.667  1.00  0.00    -0.144 C  
ENDROOT
BRANCH   4   5
HETATM    5  C   UNL     1      -9.548  11.073  67.938  1.00  0.00    -0.180 C  
BRANCH   5   6
HETATM    6  C   UNL     1     -11.041  11.308  68.173  1.00  0.00    -0.319 C  
BRANCH   6   7
HETATM    7  C   UNL     1     -11.488  10.651  69.456  1.00  0.00    -0.360 A  
HETATM    8  C   UNL     1     -12.840  10.656  69.824  1.00  0.00     0.164 A  
HETATM    9  C   UNL     1     -13.243  10.108  71.042  1.00  0.00    -0.412 A  
HETATM   10  C   UNL     1     -12.300   9.553  71.905  1.00  0.00    -0.450 A  
HETATM   11  C   UNL     1     -10.954   9.539  71.547  1.00  0.00    -0.369 A  
HETATM   12  C   UNL     1     -10.548  10.086  70.328  1.00  0.00    -0.354 A  
ENDBRANCH   6   7
ENDBRANCH   5   6
ENDBRANCH   4   5
TORSDOF 3
ENDMDL
MODEL      230
REMARK 921   NORMALIZED FREE ENERGY PREDICTED BY IDOCK:   -1.76 KCAL/MOL
REMARK 922        TOTAL FREE ENERGY PREDICTED BY IDOCK:   -2.40 KCAL/MOL
REMARK 923 INTER-LIGAND FREE ENERGY PREDICTED BY IDOCK:   -2.15 KCAL/MOL
REMARK 924 INTRA-LIGAND FREE ENERGY PREDICTED BY IDOCK:   -0.24 KCAL/MOL
REMARK 927      BINDING AFFINITY PREDICTED BY RF-SCORE:    0.00 PKD
ROOT
HETATM    1  O   UNL     1      -9.574   1.472  68.254  1.00  0.00    -0.194 OA 
HETATM    2  C   UNL     1      -9.246   2.128  69.391  1.00  0.00    -0.118 C  
HETATM    3  O   UNL     1      -8.960   1.540  70.421  1.00  0.00    -0.061 OA 
HETATM    4  C   UNL     1      -9.283   3.631  69.218  1.00  0.00    -0.231 C  
ENDROOT
BRANCH   4   5
HETATM    5  C   UNL     1      -8.915   4.352  70.513  1.00  0.00    -0.155 C  
BRANCH   5   6
HETATM    6  C   UNL     1     -10.003   5.334  70.950  1.00  0.00    -0.274 C  
BRANCH   6   7
HETATM    7  C   UNL     1      -9.479   6.276  72.007  1.00  0.00    -0.158 A  
HETATM    8  C   UNL     1      -9.805   7.637  71.971  1.00  0.00    -0.211 A  
HETATM    9  C   UNL     1      -9.266   8.519  72.909  1.00  0.00    -0.189 A  
HETATM   10  C   UNL     1      -8.393   8.048  73.889  1.00  0.00    -0.319 A  
HETATM   11  C   UNL     1      -8.065   6.695  73.935  1.00  0.00    -0.119 A  
HETATM   12  C   UNL     1      -8.604   5.812  72.999  1.00  0.00    -0.121 A  
ENDBRANCH   6   7
ENDBRANCH   5   6
ENDBRANCH   4   5
TORSDOF 3
ENDMDL
MODEL      231
REMARK 921   NORMALIZED FREE ENERGY PREDICTED BY IDOCK:   -1.75 KCAL/MOL
REMARK 922        TOTAL FREE ENERGY PREDICTED BY IDOCK:   -2.38 KCAL/MOL
REMARK 923 INTER-LIGAND FREE ENERGY PREDICTED BY IDOCK:   -2.27 KCAL/MOL
REMARK 924 INTRA-LIGAND FREE ENERGY PREDICTED BY IDOCK:   -0.11 KCAL/MOL
REMARK 927      BINDING AFFINITY PREDICTED BY RF-SCORE:    0.00 PKD
ROOT
HETATM    1  O   UNL     1      -9.836  18.852  67.536  1.00  0.00    -0.308 OA 
HETATM    2  C   UNL     1      -9.238  17.679  67.847  1.00  0.00    -0.267 C  
HETATM    3  O   UNL     1      -9.086  17.313  69.001  1.00  0.00    -0.215 OA 
HETATM    4  C   UNL     1      -8.800  16.913  66.618  1.00  0.00    -0.275 C  
ENDROOT
BRANCH   4   5
HETATM    5  C   UNL     1      -8.122  15.596  66.991  1.00  0.00    -0.276 C  
BRANCH   5   6
HETATM    6  C   UNL     1      -8.638  14.427  66.150  1.00  0.00     0.580 C  
BRANCH   6   7
HETATM    7  C   UNL     1      -9.873  13.825  66.775  1.00  0.00    -0.275 A  
HETATM    8  C   UNL     1     -11.054  14.573  66.878  1.00  0.00    -0.325 A  
HETATM    9  C   UNL     1     -12.174  14.040  67.516  1.00  0.00    -0.258 A  
HETATM   10  C   UNL     1     -12.125  12.757  68.060  1.00  0.00    -0.174 A  
HETATM   11  C   UNL     1     -10.956  12.005  67.959  1.00  0.00    -0.267 A  
HETATM   12  C   UNL     1      -9.835  12.536  67.321  1.00  0.00    -0.204 A  
ENDBRANCH   6   7
ENDBRANCH   5   6
ENDBRANCH   4   5
TORSDOF 3
ENDMDL
MODEL      232
REMARK 921   NORMALIZED FREE ENERGY PREDICTED BY IDOCK:   -1.70 KCAL/MOL
REMARK 922        TOTAL FREE ENERGY PREDICTED BY IDOCK:   -2.33 KCAL/MOL
REMARK 923 INTER-LIGAND FREE ENERGY PREDICTED BY IDOCK:   -2.09 KCAL/MOL
REMARK 924 INTRA-LIGAND FREE ENERGY PREDICTED BY IDOCK:   -0.23 KCAL/MOL
REMARK 927      BINDING AFFINITY PREDICTED BY RF-SCORE:    0.00 PKD
ROOT
HETATM    1  O   UNL     1      -6.275   9.188  74.161  1.00  0.00    -0.308 OA 
HETATM    2  C   UNL     1      -7.260   8.423  73.637  1.00  0.00    -0.082 C  
HETATM    3  O   UNL     1      -7.989   8.824  72.744  1.00  0.00    -0.385 OA 
HETATM    4  C   UNL     1      -7.333   7.057  74.284  1.00  0.00    -0.109 C  
ENDROOT
BRANCH   4   5
HETATM    5  C   UNL     1      -8.455   6.213  73.683  1.00  0.00    -0.121 C  
BRANCH   5   6
HETATM    6  C   UNL     1      -7.986   5.426  72.458  1.00  0.00    -0.103 C  
BRANCH   6   7
HETATM    7  C   UNL     1      -8.803   4.168  72.287  1.00  0.00    -0.124 A  
HETATM    8  C   UNL     1      -9.363   3.529  73.400  1.00  0.00    -0.116 A  
HETATM    9  C   UNL     1     -10.062   2.330  73.250  1.00  0.00    -0.186 A  
HETATM   10  C   UNL     1     -10.205   1.758  71.986  1.00  0.00    -0.215 A  
HETATM   11  C   UNL     1      -9.655   2.389  70.872  1.00  0.00    -0.188 A  
HETATM   12  C   UNL     1      -8.956   3.589  71.021  1.00  0.00    -0.158 A  
ENDBRANCH   6   7
ENDBRANCH   5   6
ENDBRANCH   4   5
TORSDOF 3
ENDMDL
MODEL      233
REMARK 921   NORMALIZED FREE ENERGY PREDICTED BY IDOCK:   -1.66 KCAL/MOL
REMARK 922        TOTAL FREE ENERGY PREDICTED BY IDOCK:   -2.27 KCAL/MOL
REMARK 923 INTER-LIGAND FREE ENERGY PREDICTED BY IDOCK:   -1.98 KCAL/MOL
REMARK 924 INTRA-LIGAND FREE ENERGY PREDICTED BY IDOCK:   -0.29 KCAL/MOL
REMARK 927      BINDING AFFINITY PREDICTED BY RF-SCORE:    0.00 PKD
ROOT
HETATM    1  O   UNL     1      -6.907   2.315  67.001  1.00  0.00    -0.039 OA 
HETATM    2  C   UNL     1      -7.139   3.064  68.104  1.00  0.00    -0.049 C  
HETATM    3  O   UNL     1      -6.636   4.164  68.260  1.00  0.00    -0.043 OA 
HETATM    4  C   UNL     1      -8.069   2.376  69.079  1.00  0.00    -0.067 C  
ENDROOT
BRANCH   4   5
HETATM    5  C   UNL     1      -8.312   3.235  70.319  1.00  0.00    -0.085 C  
BRANCH   5   6
HETATM    6  C   UNL     1      -9.779   3.647  70.452  1.00  0.00    -0.201 C  
BRANCH   6   7
HETATM    7  C   UNL     1      -9.902   5.146  70.581  1.00  0.00    -0.274 A  
HETATM    8  C   UNL     1      -9.076   5.852  71.465  1.00  0.00    -0.150 A  
HETATM    9  C   UNL     1      -9.235   7.228  71.634  1.00  0.00    -0.155 A  
HETATM   10  C   UNL     1     -10.223   7.910  70.925  1.00  0.00    -0.213 A  
HETATM   11  C   UNL     1     -11.047   7.216  70.040  1.00  0.00    -0.288 A  
HETATM   12  C   UNL     1     -10.888   5.840  69.869  1.00  0.00    -0.417 A  
ENDBRANCH   6   7
ENDBRANCH   5   6
ENDBRANCH   4   5
TORSDOF 3
ENDMDL
MODEL      234
REMARK 921   NORMALIZED FREE ENERGY PREDICTED BY IDOCK:   -1.64 KCAL/MOL
REMARK 922        TOTAL FREE ENERGY PREDICTED BY IDOCK:   -2.25 KCAL/MOL
REMARK 923 INTER-LIGAND FREE ENERGY PREDICTED BY IDOCK:   -1.84 KCAL/MOL
REMARK 924 INTRA-LIGAND FREE ENERGY PREDICTED BY IDOCK:   -0.41 KCAL/MOL
REMARK 927      BINDING AFFINITY PREDICTED BY RF-SCORE:    0.00 PKD
ROOT
HETATM    1  O   UNL     1      -7.191   8.153  67.141  1.00  0.00    -0.081 OA 
HETATM    2  C   UNL     1      -7.430   7.808  68.428  1.00  0.00    -0.104 C  
HETATM    3  O   UNL     1      -6.653   7.123  69.072  1.00  0.00    -0.041 OA 
HETATM    4  C   UNL     1      -8.741   8.365  68.938  1.00  0.00    -0.136 C  
ENDROOT
BRANCH   4   5
HETATM    5  C   UNL     1      -8.994   7.959  70.388  1.00  0.00    -0.147 C  
BRANCH   5   6
HETATM    6  C   UNL     1     -10.148   6.963  70.511  1.00  0.00    -0.201 C  
BRANCH   6   7
HETATM    7  C   UNL     1      -9.625   5.549  70.589  1.00  0.00    -0.221 A  
HETATM    8  C   UNL     1      -9.820   4.660  69.525  1.00  0.00    -0.286 A  
HETATM    9  C   UNL     1      -9.396   3.334  69.625  1.00  0.00    -0.236 A  
HETATM   10  C   UNL     1      -8.776   2.884  70.790  1.00  0.00    -0.130 A  
HETATM   11  C   UNL     1      -8.574   3.762  71.853  1.00  0.00    -0.109 A  
HETATM   12  C   UNL     1      -8.997   5.089  71.754  1.00  0.00    -0.149 A  
ENDBRANCH   6   7
ENDBRANCH   5   6
ENDBRANCH   4   5
TORSDOF 3
ENDMDL
MODEL      235
REMARK 921   NORMALIZED FREE ENERGY PREDICTED BY IDOCK:   -1.57 KCAL/MOL
REMARK 922        TOTAL FREE ENERGY PREDICTED BY IDOCK:   -2.17 KCAL/MOL
REMARK 923 INTER-LIGAND FREE ENERGY PREDICTED BY IDOCK:   -2.26 KCAL/MOL
REMARK 924 INTRA-LIGAND FREE ENERGY PREDICTED BY IDOCK:    0.09 KCAL/MOL
REMARK 927      BINDING AFFINITY PREDICTED BY RF-SCORE:    0.00 PKD
ROOT
HETATM    1  O   UNL     1      -9.607   1.475  68.252  1.00  0.00    -0.194 OA 
HETATM    2  C   UNL     1      -9.343   2.093  69.427  1.00  0.00    -0.097 C  
HETATM    3  O   UNL     1      -9.079   1.472  70.443  1.00  0.00    -0.068 OA 
HETATM    4  C   UNL     1      -9.417   3.600  69.311  1.00  0.00    -0.244 C  
ENDROOT
BRANCH   4   5
HETATM    5  C   UNL     1      -9.122   4.278  70.648  1.00  0.00    -0.175 C  
BRANCH   5   6
HETATM    6  C   UNL     1     -10.248   5.223  71.072  1.00  0.00    -0.299 C  
BRANCH   6   7
HETATM    7  C   UNL     1     -10.167   6.524  70.310  1.00  0.00    -0.227 A  
HETATM    8  C   UNL     1      -9.205   6.701  69.308  1.00  0.00    -0.140 A  
HETATM    9  C   UNL     1      -9.086   7.927  68.651  1.00  0.00    -0.136 A  
HETATM   10  C   UNL     1      -9.926   8.986  68.992  1.00  0.00    -0.191 A  
HETATM   11  C   UNL     1     -10.888   8.818  69.985  1.00  0.00    -0.231 A  
HETATM   12  C   UNL     1     -11.009   7.593  70.642  1.00  0.00    -0.259 A  
ENDBRANCH   6   7
ENDBRANCH   5   6
ENDBRANCH   4   5
TORSDOF 3
ENDMDL
MODEL      236
REMARK 921   NORMALIZED FREE ENERGY PREDICTED BY IDOCK:   -1.55 KCAL/MOL
REMARK 922        TOTAL FREE ENERGY PREDICTED BY IDOCK:   -2.14 KCAL/MOL
REMARK 923 INTER-LIGAND FREE ENERGY PREDICTED BY IDOCK:   -1.99 KCAL/MOL
REMARK 924 INTRA-LIGAND FREE ENERGY PREDICTED BY IDOCK:   -0.15 KCAL/MOL
REMARK 927      BINDING AFFINITY PREDICTED BY RF-SCORE:    0.00 PKD
ROOT
HETATM    1  O   UNL     1      -7.372   7.210  71.541  1.00  0.00    -0.076 OA 
HETATM    2  C   UNL     1      -7.971   7.812  70.488  1.00  0.00    -0.098 C  
HETATM    3  O   UNL     1      -7.733   8.967  70.178  1.00  0.00    -0.070 OA 
HETATM    4  C   UNL     1      -8.939   6.892  69.775  1.00  0.00    -0.141 C  
ENDROOT
BRANCH   4   5
HETATM    5  C   UNL     1      -9.608   7.593  68.594  1.00  0.00    -0.152 C  
BRANCH   5   6
HETATM    6  C   UNL     1      -8.641   7.799  67.427  1.00  0.00    -0.125 C  
BRANCH   6   7
HETATM    7  C   UNL     1      -8.993   9.048  66.656  1.00  0.00    -0.163 A  
HETATM    8  C   UNL     1      -9.887   9.984  67.192  1.00  0.00    -0.231 A  
HETATM    9  C   UNL     1     -10.264  11.105  66.451  1.00  0.00    -0.279 A  
HETATM   10  C   UNL     1      -9.755  11.299  65.168  1.00  0.00    -0.285 A  
HETATM   11  C   UNL     1      -8.862  10.375  64.629  1.00  0.00    -0.216 A  
HETATM   12  C   UNL     1      -8.482   9.254  65.368  1.00  0.00    -0.157 A  
ENDBRANCH   6   7
ENDBRANCH   5   6
ENDBRANCH   4   5
TORSDOF 3
ENDMDL
MODEL      237
REMARK 921   NORMALIZED FREE ENERGY PREDICTED BY IDOCK:   -1.52 KCAL/MOL
REMARK 922        TOTAL FREE ENERGY PREDICTED BY IDOCK:   -2.11 KCAL/MOL
REMARK 923 INTER-LIGAND FREE ENERGY PREDICTED BY IDOCK:   -1.84 KCAL/MOL
REMARK 924 INTRA-LIGAND FREE ENERGY PREDICTED BY IDOCK:   -0.27 KCAL/MOL
REMARK 927      BINDING AFFINITY PREDICTED BY RF-SCORE:    0.00 PKD
ROOT
HETATM    1  O   UNL     1      -7.100   4.650  66.130  1.00  0.00    -0.071 OA 
HETATM    2  C   UNL     1      -7.445   5.540  67.089  1.00  0.00    -0.084 C  
HETATM    3  O   UNL     1      -6.694   6.432  67.448  1.00  0.00    -0.056 OA 
HETATM    4  C   UNL     1      -8.834   5.289  67.634  1.00  0.00    -0.105 C  
ENDROOT
BRANCH   4   5
HETATM    5  C   UNL     1      -9.200   6.301  68.718  1.00  0.00    -0.125 C  
BRANCH   5   6
HETATM    6  C   UNL     1      -9.332   5.644  70.093  1.00  0.00    -0.188 C  
BRANCH   6   7
HETATM    7  C   UNL     1     -10.503   6.222  70.850  1.00  0.00    -0.274 A  
HETATM    8  C   UNL     1     -11.034   5.550  71.959  1.00  0.00    -0.276 A  
HETATM    9  C   UNL     1     -12.158   6.051  72.617  1.00  0.00    -0.028 A  
HETATM   10  C   UNL     1     -12.763   7.225  72.172  1.00  0.00    -0.135 A  
HETATM   11  C   UNL     1     -12.239   7.903  71.073  1.00  0.00    -0.214 A  
HETATM   12  C   UNL     1     -11.115   7.405  70.414  1.00  0.00    -0.284 A  
ENDBRANCH   6   7
ENDBRANCH   5   6
ENDBRANCH   4   5
TORSDOF 3
ENDMDL
MODEL      238
REMARK 921   NORMALIZED FREE ENERGY PREDICTED BY IDOCK:   -1.52 KCAL/MOL
REMARK 922        TOTAL FREE ENERGY PREDICTED BY IDOCK:   -2.11 KCAL/MOL
REMARK 923 INTER-LIGAND FREE ENERGY PREDICTED BY IDOCK:   -1.83 KCAL/MOL
REMARK 924 INTRA-LIGAND FREE ENERGY PREDICTED BY IDOCK:   -0.28 KCAL/MOL
REMARK 927      BINDING AFFINITY PREDICTED BY RF-SCORE:    0.00 PKD
ROOT
HETATM    1  O   UNL     1      -7.892  10.079  70.036  1.00  0.00    -0.166 OA 
HETATM    2  C   UNL     1      -7.964   8.775  70.393  1.00  0.00    -0.112 C  
HETATM    3  O   UNL     1      -7.936   8.419  71.560  1.00  0.00    -0.108 OA 
HETATM    4  C   UNL     1      -8.080   7.858  69.196  1.00  0.00    -0.124 C  
ENDROOT
BRANCH   4   5
HETATM    5  C   UNL     1      -8.153   6.392  69.620  1.00  0.00    -0.124 C  
BRANCH   5   6
HETATM    6  C   UNL     1      -9.560   5.816  69.447  1.00  0.00    -0.179 C  
BRANCH   6   7
HETATM    7  C   UNL     1      -9.507   4.486  68.734  1.00  0.00    -0.221 A  
HETATM    8  C   UNL     1      -9.603   3.289  69.455  1.00  0.00    -0.119 A  
HETATM    9  C   UNL     1      -9.487   2.061  68.803  1.00  0.00    -0.192 A  
HETATM   10  C   UNL     1      -9.270   2.017  67.427  1.00  0.00    -0.142 A  
HETATM   11  C   UNL     1      -9.177   3.203  66.701  1.00  0.00    -0.165 A  
HETATM   12  C   UNL     1      -9.294   4.432  67.350  1.00  0.00    -0.178 A  
ENDBRANCH   6   7
ENDBRANCH   5   6
ENDBRANCH   4   5
TORSDOF 3
ENDMDL
MODEL      239
REMARK 921   NORMALIZED FREE ENERGY PREDICTED BY IDOCK:   -1.47 KCAL/MOL
REMARK 922        TOTAL FREE ENERGY PREDICTED BY IDOCK:   -2.06 KCAL/MOL
REMARK 923 INTER-LIGAND FREE ENERGY PREDICTED BY IDOCK:   -1.82 KCAL/MOL
REMARK 924 INTRA-LIGAND FREE ENERGY PREDICTED BY IDOCK:   -0.24 KCAL/MOL
REMARK 927      BINDING AFFINITY PREDICTED BY RF-SCORE:    0.00 PKD
ROOT
HETATM    1  O   UNL     1     -10.309  10.082  65.162  1.00  0.00    -0.215 OA 
HETATM    2  C   UNL     1      -9.608   9.640  66.231  1.00  0.00    -0.221 C  
HETATM    3  O   UNL     1      -8.710  10.294  66.735  1.00  0.00    -0.126 OA 
HETATM    4  C   UNL     1     -10.071   8.277  66.698  1.00  0.00    -0.351 C  
ENDROOT
BRANCH   4   5
HETATM    5  C   UNL     1      -9.264   7.795  67.902  1.00  0.00    -0.141 C  
BRANCH   5   6
HETATM    6  C   UNL     1      -9.820   8.337  69.220  1.00  0.00    -0.186 C  
BRANCH   6   7
HETATM    7  C   UNL     1      -8.804   8.192  70.327  1.00  0.00    -0.141 A  
HETATM    8  C   UNL     1      -7.507   8.698  70.171  1.00  0.00    -0.054 A  
HETATM    9  C   UNL     1      -6.549   8.504  71.167  1.00  0.00    -0.055 A  
HETATM   10  C   UNL     1      -6.877   7.801  72.325  1.00  0.00    -0.062 A  
HETATM   11  C   UNL     1      -8.165   7.298  72.491  1.00  0.00    -0.122 A  
HETATM   12  C   UNL     1      -9.125   7.491  71.496  1.00  0.00    -0.146 A  
ENDBRANCH   6   7
ENDBRANCH   5   6
ENDBRANCH   4   5
TORSDOF 3
ENDMDL
MODEL      240
REMARK 921   NORMALIZED FREE ENERGY PREDICTED BY IDOCK:   -1.47 KCAL/MOL
REMARK 922        TOTAL FREE ENERGY PREDICTED BY IDOCK:   -2.05 KCAL/MOL
REMARK 923 INTER-LIGAND FREE ENERGY PREDICTED BY IDOCK:   -1.79 KCAL/MOL
REMARK 924 INTRA-LIGAND FREE ENERGY PREDICTED BY IDOCK:   -0.26 KCAL/MOL
REMARK 927      BINDING AFFINITY PREDICTED BY RF-SCORE:    0.00 PKD
ROOT
HETATM    1  O   UNL     1      -8.314   9.212  68.957  1.00  0.00    -0.121 OA 
HETATM    2  C   UNL     1      -8.495   7.913  68.627  1.00  0.00    -0.128 C  
HETATM    3  O   UNL     1      -8.036   7.002  69.296  1.00  0.00    -0.117 OA 
HETATM    4  C   UNL     1      -9.311   7.750  67.363  1.00  0.00    -0.168 C  
ENDROOT
BRANCH   4   5
HETATM    5  C   UNL     1      -9.498   6.277  67.004  1.00  0.00    -0.146 C  
BRANCH   5   6
HETATM    6  C   UNL     1      -8.395   5.770  66.074  1.00  0.00    -0.126 C  
BRANCH   6   7
HETATM    7  C   UNL     1      -8.985   4.996  64.920  1.00  0.00    -0.114 A  
HETATM    8  C   UNL     1      -8.416   5.081  63.643  1.00  0.00    -0.127 A  
HETATM    9  C   UNL     1      -9.002   4.419  62.563  1.00  0.00    -0.120 A  
HETATM   10  C   UNL     1     -10.162   3.668  62.748  1.00  0.00    -0.180 A  
HETATM   11  C   UNL     1     -10.732   3.574  64.016  1.00  0.00    -0.220 A  
HETATM   12  C   UNL     1     -10.148   4.235  65.098  1.00  0.00    -0.221 A  
ENDBRANCH   6   7
ENDBRANCH   5   6
ENDBRANCH   4   5
TORSDOF 3
ENDMDL
MODEL      241
REMARK 921   NORMALIZED FREE ENERGY PREDICTED BY IDOCK:   -1.45 KCAL/MOL
REMARK 922        TOTAL FREE ENERGY PREDICTED BY IDOCK:   -2.03 KCAL/MOL
REMARK 923 INTER-LIGAND FREE ENERGY PREDICTED BY IDOCK:   -1.79 KCAL/MOL
REMARK 924 INTRA-LIGAND FREE ENERGY PREDICTED BY IDOCK:   -0.25 KCAL/MOL
REMARK 927      BINDING AFFINITY PREDICTED BY RF-SCORE:    0.00 PKD
ROOT
HETATM    1  O   UNL     1     -11.908   7.171  70.722  1.00  0.00    -0.325 OA 
HETATM    2  C   UNL     1     -10.799   6.783  70.051  1.00  0.00    -0.266 C  
HETATM    3  O   UNL     1     -10.077   5.885  70.452  1.00  0.00    -0.182 OA 
HETATM    4  C   UNL     1     -10.586   7.583  68.784  1.00  0.00    -0.179 C  
ENDROOT
BRANCH   4   5
HETATM    5  C   UNL     1      -9.327   7.133  68.045  1.00  0.00    -0.129 C  
BRANCH   5   6
HETATM    6  C   UNL     1      -9.473   7.269  66.529  1.00  0.00    -0.218 C  
BRANCH   6   7
HETATM    7  C   UNL     1      -8.150   7.623  65.895  1.00  0.00    -0.122 A  
HETATM    8  C   UNL     1      -7.069   8.029  66.687  1.00  0.00    -0.076 A  
HETATM    9  C   UNL     1      -5.867   8.420  66.096  1.00  0.00    -0.044 A  
HETATM   10  C   UNL     1      -5.735   8.411  64.708  1.00  0.00    -0.048 A  
HETATM   11  C   UNL     1      -6.804   8.005  63.912  1.00  0.00    -0.067 A  
HETATM   12  C   UNL     1      -8.006   7.613  64.501  1.00  0.00    -0.130 A  
ENDBRANCH   6   7
ENDBRANCH   5   6
ENDBRANCH   4   5
TORSDOF 3
ENDMDL
MODEL      242
REMARK 921   NORMALIZED FREE ENERGY PREDICTED BY IDOCK:   -1.39 KCAL/MOL
REMARK 922        TOTAL FREE ENERGY PREDICTED BY IDOCK:   -1.96 KCAL/MOL
REMARK 923 INTER-LIGAND FREE ENERGY PREDICTED BY IDOCK:   -2.66 KCAL/MOL
REMARK 924 INTRA-LIGAND FREE ENERGY PREDICTED BY IDOCK:    0.71 KCAL/MOL
REMARK 927      BINDING AFFINITY PREDICTED BY RF-SCORE:    0.00 PKD
ROOT
HETATM    1  O   UNL     1      -9.591   4.286  70.284  1.00  0.00    -0.164 OA 
HETATM    2  C   UNL     1      -9.962   4.848  71.458  1.00  0.00    -0.194 C  
HETATM    3  O   UNL     1      -9.629   4.383  72.535  1.00  0.00    -0.136 OA 
HETATM    4  C   UNL     1     -10.813   6.083  71.259  1.00  0.00    -0.331 C  
ENDROOT
BRANCH   4   5
HETATM    5  C   UNL     1     -11.226   6.698  72.595  1.00  0.00    -0.285 C  
BRANCH   5   6
HETATM    6  C   UNL     1     -10.041   7.336  73.322  1.00  0.00    -0.341 C  
BRANCH   6   7
HETATM    7  C   UNL     1      -9.161   8.086  72.352  1.00  0.00    -0.264 A  
HETATM    8  C   UNL     1      -9.700   8.630  71.179  1.00  0.00    -0.287 A  
HETATM    9  C   UNL     1      -8.875   9.264  70.250  1.00  0.00    -0.254 A  
HETATM   10  C   UNL     1      -7.503   9.359  70.483  1.00  0.00    -0.154 A  
HETATM   11  C   UNL     1      -6.959   8.825  71.649  1.00  0.00    -0.085 A  
HETATM   12  C   UNL     1      -7.783   8.191  72.580  1.00  0.00    -0.169 A  
ENDBRANCH   6   7
ENDBRANCH   5   6
ENDBRANCH   4   5
TORSDOF 3
ENDMDL
MODEL      243
REMARK 921   NORMALIZED FREE ENERGY PREDICTED BY IDOCK:   -1.38 KCAL/MOL
REMARK 922        TOTAL FREE ENERGY PREDICTED BY IDOCK:   -1.94 KCAL/MOL
REMARK 923 INTER-LIGAND FREE ENERGY PREDICTED BY IDOCK:   -1.65 KCAL/MOL
REMARK 924 INTRA-LIGAND FREE ENERGY PREDICTED BY IDOCK:   -0.29 KCAL/MOL
REMARK 927      BINDING AFFINITY PREDICTED BY RF-SCORE:    0.00 PKD
ROOT
HETATM    1  O   UNL     1      -7.204  11.967  67.532  1.00  0.00    -0.105 OA 
HETATM    2  C   UNL     1      -7.858  10.878  67.064  1.00  0.00    -0.132 C  
HETATM    3  O   UNL     1      -8.030  10.685  65.872  1.00  0.00    -0.154 OA 
HETATM    4  C   UNL     1      -8.329   9.969  68.179  1.00  0.00    -0.113 C  
ENDROOT
BRANCH   4   5
HETATM    5  C   UNL     1      -9.070   8.751  67.630  1.00  0.00    -0.145 C  
BRANCH   5   6
HETATM    6  C   UNL     1      -8.192   7.497  67.636  1.00  0.00    -0.118 C  
BRANCH   6   7
HETATM    7  C   UNL     1      -8.753   6.459  68.578  1.00  0.00    -0.121 A  
HETATM    8  C   UNL     1      -7.907   5.760  69.448  1.00  0.00    -0.093 A  
HETATM    9  C   UNL     1      -8.415   4.753  70.270  1.00  0.00    -0.095 A  
HETATM   10  C   UNL     1      -9.772   4.435  70.228  1.00  0.00    -0.281 A  
HETATM   11  C   UNL     1     -10.621   5.128  69.369  1.00  0.00    -0.104 A  
HETATM   12  C   UNL     1     -10.115   6.135  68.546  1.00  0.00    -0.193 A  
ENDBRANCH   6   7
ENDBRANCH   5   6
ENDBRANCH   4   5
TORSDOF 3
ENDMDL
MODEL      244
REMARK 921   NORMALIZED FREE ENERGY PREDICTED BY IDOCK:    1.62 KCAL/MOL
REMARK 922        TOTAL FREE ENERGY PREDICTED BY IDOCK:    1.58 KCAL/MOL
REMARK 923 INTER-LIGAND FREE ENERGY PREDICTED BY IDOCK:    1.63 KCAL/MOL
REMARK 924 INTRA-LIGAND FREE ENERGY PREDICTED BY IDOCK:   -0.05 KCAL/MOL
REMARK 927      BINDING AFFINITY PREDICTED BY RF-SCORE:    0.00 PKD
ROOT
HETATM    1  O   UNL     1     -12.272  16.570  71.656  1.00  0.00    -0.178 OA 
HETATM    2  C   UNL     1     -12.644  15.362  71.173  1.00  0.00    -0.422 C  
HETATM    3  O   UNL     1     -13.686  15.200  70.559  1.00  0.00    -0.127 OA 
HETATM    4  C   UNL     1     -11.631  14.282  71.486  1.00  0.00     0.249 C  
ENDROOT
BRANCH   4   5
HETATM    5  C   UNL     1     -12.072  12.927  70.938  1.00  0.00    -0.162 C  
BRANCH   5   6
HETATM    6  C   UNL     1     -11.839  12.815  69.430  1.00  0.00    -0.359 C  
BRANCH   6   7
HETATM    7  C   UNL     1     -10.443  13.266  69.072  1.00  0.00    -0.044 A  
HETATM    8  C   UNL     1     -10.234  14.143  68.000  1.00  0.00    -0.232 A  
HETATM    9  C   UNL     1      -8.939  14.507  67.627  1.00  0.00    -0.193 A  
HETATM   10  C   UNL     1      -7.843  13.996  68.320  1.00  0.00    -0.140 A  
HETATM   11  C   UNL     1      -8.042  13.127  69.390  1.00  0.00     0.860 A  
HETATM   12  C   UNL     1      -9.335  12.762  69.765  1.00  0.00     2.377 A  
ENDBRANCH   6   7
ENDBRANCH   5   6
ENDBRANCH   4   5
TORSDOF 3
ENDMDL
