MODEL        1
REMARK 921   NORMALIZED FREE ENERGY PREDICTED BY IDOCK:   -5.12 KCAL/MOL
REMARK 922        TOTAL FREE ENERGY PREDICTED BY IDOCK:   -6.21 KCAL/MOL
REMARK 923 INTER-LIGAND FREE ENERGY PREDICTED BY IDOCK:   -6.01 KCAL/MOL
REMARK 924 INTRA-LIGAND FREE ENERGY PREDICTED BY IDOCK:   -0.20 KCAL/MOL
REMARK 927      BINDING AFFINITY PREDICTED BY RF-SCORE:    0.00 PKD
ROOT
HETATM    1  C   UNL     1     -12.523  15.638  74.091  1.00  0.00    -0.661 C  
HETATM    2  N   UNL     1     -13.735  16.065  73.403  1.00  0.00    -0.807 NA 
HETATM    3  H   UNL     1     -13.731  17.069  73.223  1.00  0.00     0.000 HD 
ENDROOT
BRANCH   2   4
HETATM    4  C   UNL     1     -13.944  15.293  72.164  1.00  0.00    -0.549 C  
BRANCH   4   5
HETATM    5  C   UNL     1     -12.638  14.798  71.480  1.00  0.00    -0.333 C  
HETATM    6  H   UNL     1     -11.683  15.244  69.847  1.00  0.00     0.000 HD 
HETATM    7  O   UNL     1     -12.481  15.546  70.265  1.00  0.00    -0.399 OA 
BRANCH   5   8
HETATM    8  C   UNL     1     -12.593  13.303  71.195  1.00  0.00    -0.412 A  
HETATM    9  C   UNL     1     -13.190  12.355  72.047  1.00  0.00    -0.514 A  
HETATM   10  C   UNL     1     -13.114  10.995  71.747  1.00  0.00    -0.449 A  
HETATM   11  O   UNL     1     -13.708  10.058  72.540  1.00  0.00    -0.632 OA 
HETATM   12  C   UNL     1     -12.430  10.545  70.626  1.00  0.00    -0.456 A  
HETATM   13  H   UNL     1     -13.655   9.131  72.336  1.00  0.00     0.000 HD 
HETATM   14  C   UNL     1     -11.841  11.468  69.767  1.00  0.00    -0.429 A  
HETATM   15  C   UNL     1     -11.947  12.834  70.037  1.00  0.00    -0.371 A  
ENDBRANCH   5   8
ENDBRANCH   4   5
ENDBRANCH   2   4
TORSDOF 3
ENDMDL
MODEL        2
REMARK 921   NORMALIZED FREE ENERGY PREDICTED BY IDOCK:   -4.81 KCAL/MOL
REMARK 922        TOTAL FREE ENERGY PREDICTED BY IDOCK:   -5.86 KCAL/MOL
REMARK 923 INTER-LIGAND FREE ENERGY PREDICTED BY IDOCK:   -5.71 KCAL/MOL
REMARK 924 INTRA-LIGAND FREE ENERGY PREDICTED BY IDOCK:   -0.15 KCAL/MOL
REMARK 927      BINDING AFFINITY PREDICTED BY RF-SCORE:    0.00 PKD
ROOT
HETATM    1  C   UNL     1      -9.435  10.975  62.801  1.00  0.00    -0.334 C  
HETATM    2  N   UNL     1     -10.818  11.240  63.176  1.00  0.00    -0.817 NA 
HETATM    3  H   UNL     1     -11.468  10.654  62.651  1.00  0.00     0.000 HD 
ENDROOT
BRANCH   2   4
HETATM    4  C   UNL     1     -11.012  11.097  64.630  1.00  0.00    -0.168 C  
BRANCH   4   5
HETATM    5  C   UNL     1     -12.008  12.115  65.255  1.00  0.00    -0.248 C  
HETATM    6  H   UNL     1     -13.804  12.724  64.829  1.00  0.00     0.000 HD 
HETATM    7  O   UNL     1     -13.195  12.102  64.448  1.00  0.00    -0.758 OA 
BRANCH   5   8
HETATM    8  C   UNL     1     -11.471  13.534  65.391  1.00  0.00    -0.318 A  
HETATM    9  C   UNL     1     -11.785  14.549  64.469  1.00  0.00    -0.421 A  
HETATM   10  C   UNL     1     -11.261  15.832  64.632  1.00  0.00    -0.363 A  
HETATM   11  O   UNL     1     -11.572  16.842  63.769  1.00  0.00    -1.331 OA 
HETATM   12  C   UNL     1     -10.405  16.128  65.683  1.00  0.00    -0.405 A  
HETATM   13  H   UNL     1     -11.215  17.715  63.880  1.00  0.00     0.000 HD 
HETATM   14  C   UNL     1     -10.091  15.139  66.610  1.00  0.00    -0.271 A  
HETATM   15  C   UNL     1     -10.642  13.863  66.478  1.00  0.00    -0.279 A  
ENDBRANCH   5   8
ENDBRANCH   4   5
ENDBRANCH   2   4
TORSDOF 3
ENDMDL
MODEL        3
REMARK 921   NORMALIZED FREE ENERGY PREDICTED BY IDOCK:   -4.75 KCAL/MOL
REMARK 922        TOTAL FREE ENERGY PREDICTED BY IDOCK:   -5.79 KCAL/MOL
REMARK 923 INTER-LIGAND FREE ENERGY PREDICTED BY IDOCK:   -5.65 KCAL/MOL
REMARK 924 INTRA-LIGAND FREE ENERGY PREDICTED BY IDOCK:   -0.14 KCAL/MOL
REMARK 927      BINDING AFFINITY PREDICTED BY RF-SCORE:    0.00 PKD
ROOT
HETATM    1  C   UNL     1      -9.442  10.395  63.068  1.00  0.00    -0.330 C  
HETATM    2  N   UNL     1     -10.782  10.960  62.975  1.00  0.00    -0.746 NA 
HETATM    3  H   UNL     1     -11.467  10.381  63.460  1.00  0.00     0.000 HD 
ENDROOT
BRANCH   2   4
HETATM    4  C   UNL     1     -10.808  12.352  63.459  1.00  0.00    -0.438 C  
BRANCH   4   5
HETATM    5  C   UNL     1     -12.100  12.749  64.226  1.00  0.00    -0.425 C  
HETATM    6  H   UNL     1     -13.343  14.242  64.154  1.00  0.00     0.000 HD 
HETATM    7  O   UNL     1     -12.553  13.999  63.685  1.00  0.00    -0.818 OA 
BRANCH   5   8
HETATM    8  C   UNL     1     -11.942  12.848  65.737  1.00  0.00    -0.496 A  
HETATM    9  C   UNL     1     -12.232  14.028  66.448  1.00  0.00    -0.492 A  
HETATM   10  C   UNL     1     -12.062  14.072  67.833  1.00  0.00    -0.279 A  
HETATM   11  O   UNL     1     -12.362  15.193  68.550  1.00  0.00    -0.572 OA 
HETATM   12  C   UNL     1     -11.583  12.973  68.532  1.00  0.00    -0.363 A  
HETATM   13  H   UNL     1     -12.246  15.223  69.492  1.00  0.00     0.000 HD 
HETATM   14  C   UNL     1     -11.300  11.796  67.847  1.00  0.00    -0.362 A  
HETATM   15  C   UNL     1     -11.505  11.728  66.467  1.00  0.00    -0.325 A  
ENDBRANCH   5   8
ENDBRANCH   4   5
ENDBRANCH   2   4
TORSDOF 3
ENDMDL
MODEL        4
REMARK 921   NORMALIZED FREE ENERGY PREDICTED BY IDOCK:   -4.75 KCAL/MOL
REMARK 922        TOTAL FREE ENERGY PREDICTED BY IDOCK:   -5.78 KCAL/MOL
REMARK 923 INTER-LIGAND FREE ENERGY PREDICTED BY IDOCK:   -5.61 KCAL/MOL
REMARK 924 INTRA-LIGAND FREE ENERGY PREDICTED BY IDOCK:   -0.17 KCAL/MOL
REMARK 927      BINDING AFFINITY PREDICTED BY RF-SCORE:    0.00 PKD
ROOT
HETATM    1  C   UNL     1     -10.837  16.873  65.138  1.00  0.00    -0.094 C  
HETATM    2  N   UNL     1     -11.511  16.296  63.982  1.00  0.00    -1.521 NA 
HETATM    3  H   UNL     1     -10.845  15.996  63.270  1.00  0.00     0.000 HD 
ENDROOT
BRANCH   2   4
HETATM    4  C   UNL     1     -12.409  15.197  64.383  1.00  0.00    -0.209 C  
BRANCH   4   5
HETATM    5  C   UNL     1     -11.719  13.809  64.508  1.00  0.00    -0.407 C  
HETATM    6  H   UNL     1     -11.967  12.067  63.682  1.00  0.00     0.000 HD 
HETATM    7  O   UNL     1     -12.388  12.916  63.606  1.00  0.00    -0.594 OA 
BRANCH   5   8
HETATM    8  C   UNL     1     -11.700  13.229  65.916  1.00  0.00    -0.403 A  
HETATM    9  C   UNL     1     -12.078  13.981  67.045  1.00  0.00    -0.455 A  
HETATM   10  C   UNL     1     -12.035  13.407  68.316  1.00  0.00    -0.317 A  
HETATM   11  O   UNL     1     -12.423  14.103  69.423  1.00  0.00    -0.489 OA 
HETATM   12  C   UNL     1     -11.599  12.103  68.500  1.00  0.00    -0.366 A  
HETATM   13  H   UNL     1     -12.393  13.713  70.289  1.00  0.00     0.000 HD 
HETATM   14  C   UNL     1     -11.230  11.342  67.395  1.00  0.00    -0.370 A  
HETATM   15  C   UNL     1     -11.308  11.894  66.114  1.00  0.00    -0.383 A  
ENDBRANCH   5   8
ENDBRANCH   4   5
ENDBRANCH   2   4
TORSDOF 3
ENDMDL
MODEL        5
REMARK 921   NORMALIZED FREE ENERGY PREDICTED BY IDOCK:   -4.74 KCAL/MOL
REMARK 922        TOTAL FREE ENERGY PREDICTED BY IDOCK:   -5.77 KCAL/MOL
REMARK 923 INTER-LIGAND FREE ENERGY PREDICTED BY IDOCK:   -5.67 KCAL/MOL
REMARK 924 INTRA-LIGAND FREE ENERGY PREDICTED BY IDOCK:   -0.10 KCAL/MOL
REMARK 927      BINDING AFFINITY PREDICTED BY RF-SCORE:    0.00 PKD
ROOT
HETATM    1  C   UNL     1     -12.097  13.275  66.196  1.00  0.00    -0.421 C  
HETATM    2  N   UNL     1     -11.673  14.500  66.863  1.00  0.00    -0.385 NA 
HETATM    3  H   UNL     1     -12.289  15.282  66.638  1.00  0.00     0.000 HD 
ENDROOT
BRANCH   2   4
HETATM    4  C   UNL     1     -11.557  14.301  68.319  1.00  0.00    -0.324 C  
BRANCH   4   5
HETATM    5  C   UNL     1     -11.779  15.584  69.168  1.00  0.00    -0.365 C  
HETATM    6  H   UNL     1     -10.705  17.140  69.623  1.00  0.00     0.000 HD 
HETATM    7  O   UNL     1     -10.569  16.355  69.104  1.00  0.00    -0.265 OA 
BRANCH   5   8
HETATM    8  C   UNL     1     -12.172  15.331  70.618  1.00  0.00    -0.412 A  
HETATM    9  C   UNL     1     -12.963  14.232  71.002  1.00  0.00    -0.411 A  
HETATM   10  C   UNL     1     -13.304  14.049  72.343  1.00  0.00    -0.518 A  
HETATM   11  O   UNL     1     -14.045  12.977  72.747  1.00  0.00    -0.737 OA 
HETATM   12  C   UNL     1     -12.898  14.951  73.316  1.00  0.00    -0.646 A  
HETATM   13  H   UNL     1     -14.278  12.852  73.659  1.00  0.00     0.000 HD 
HETATM   14  C   UNL     1     -12.108  16.038  72.956  1.00  0.00    -0.628 A  
HETATM   15  C   UNL     1     -11.727  16.208  71.623  1.00  0.00    -0.558 A  
ENDBRANCH   5   8
ENDBRANCH   4   5
ENDBRANCH   2   4
TORSDOF 3
ENDMDL
MODEL        6
REMARK 921   NORMALIZED FREE ENERGY PREDICTED BY IDOCK:   -4.71 KCAL/MOL
REMARK 922        TOTAL FREE ENERGY PREDICTED BY IDOCK:   -5.74 KCAL/MOL
REMARK 923 INTER-LIGAND FREE ENERGY PREDICTED BY IDOCK:   -5.64 KCAL/MOL
REMARK 924 INTRA-LIGAND FREE ENERGY PREDICTED BY IDOCK:   -0.10 KCAL/MOL
REMARK 927      BINDING AFFINITY PREDICTED BY RF-SCORE:    0.00 PKD
ROOT
HETATM    1  C   UNL     1     -12.033  10.646  70.059  1.00  0.00    -0.329 C  
HETATM    2  N   UNL     1     -12.285  10.935  68.654  1.00  0.00    -0.810 NA 
HETATM    3  H   UNL     1     -13.284  11.009  68.459  1.00  0.00     0.000 HD 
ENDROOT
BRANCH   2   4
HETATM    4  C   UNL     1     -11.556  12.140  68.218  1.00  0.00    -0.325 C  
BRANCH   4   5
HETATM    5  C   UNL     1     -11.803  12.548  66.738  1.00  0.00    -0.346 C  
HETATM    6  H   UNL     1     -11.357  11.788  65.006  1.00  0.00     0.000 HD 
HETATM    7  O   UNL     1     -11.206  11.539  65.910  1.00  0.00    -0.274 OA 
BRANCH   5   8
HETATM    8  C   UNL     1     -11.279  13.927  66.359  1.00  0.00    -0.319 A  
HETATM    9  C   UNL     1     -11.644  14.567  65.160  1.00  0.00    -0.371 A  
HETATM   10  C   UNL     1     -11.129  15.827  64.853  1.00  0.00    -0.399 A  
HETATM   11  O   UNL     1     -11.488  16.483  63.712  1.00  0.00    -1.615 OA 
HETATM   12  C   UNL     1     -10.234  16.462  65.702  1.00  0.00    -0.349 A  
HETATM   13  H   UNL     1     -11.137  17.341  63.502  1.00  0.00     0.000 HD 
HETATM   14  C   UNL     1      -9.869  15.849  66.896  1.00  0.00    -0.251 A  
HETATM   15  C   UNL     1     -10.410  14.606  67.231  1.00  0.00    -0.256 A  
ENDBRANCH   5   8
ENDBRANCH   4   5
ENDBRANCH   2   4
TORSDOF 3
ENDMDL
MODEL        7
REMARK 921   NORMALIZED FREE ENERGY PREDICTED BY IDOCK:   -4.71 KCAL/MOL
REMARK 922        TOTAL FREE ENERGY PREDICTED BY IDOCK:   -5.73 KCAL/MOL
REMARK 923 INTER-LIGAND FREE ENERGY PREDICTED BY IDOCK:   -5.60 KCAL/MOL
REMARK 924 INTRA-LIGAND FREE ENERGY PREDICTED BY IDOCK:   -0.13 KCAL/MOL
REMARK 927      BINDING AFFINITY PREDICTED BY RF-SCORE:    0.00 PKD
ROOT
HETATM    1  C   UNL     1     -11.380  10.414  70.096  1.00  0.00    -0.323 C  
HETATM    2  N   UNL     1     -12.219  10.837  68.982  1.00  0.00    -0.761 NA 
HETATM    3  H   UNL     1     -12.832  11.609  69.246  1.00  0.00     0.000 HD 
ENDROOT
BRANCH   2   4
HETATM    4  C   UNL     1     -11.404  11.171  67.799  1.00  0.00    -0.293 C  
BRANCH   4   5
HETATM    5  C   UNL     1     -11.310  12.691  67.485  1.00  0.00    -0.308 C  
HETATM    6  H   UNL     1     -12.153  14.298  68.182  1.00  0.00     0.000 HD 
HETATM    7  O   UNL     1     -12.210  13.369  68.374  1.00  0.00    -0.293 OA 
BRANCH   5   8
HETATM    8  C   UNL     1     -11.608  13.065  66.039  1.00  0.00    -0.409 A  
HETATM    9  C   UNL     1     -11.688  14.403  65.608  1.00  0.00    -0.356 A  
HETATM   10  C   UNL     1     -11.972  14.694  64.274  1.00  0.00    -0.386 A  
HETATM   11  O   UNL     1     -12.028  15.981  63.824  1.00  0.00    -1.339 OA 
HETATM   12  C   UNL     1     -12.207  13.683  63.353  1.00  0.00    -0.236 A  
HETATM   13  H   UNL     1     -12.222  16.179  62.915  1.00  0.00     0.000 HD 
HETATM   14  C   UNL     1     -12.123  12.354  63.759  1.00  0.00    -0.618 A  
HETATM   15  C   UNL     1     -11.799  12.051  65.083  1.00  0.00    -0.278 A  
ENDBRANCH   5   8
ENDBRANCH   4   5
ENDBRANCH   2   4
TORSDOF 3
ENDMDL
MODEL        8
REMARK 921   NORMALIZED FREE ENERGY PREDICTED BY IDOCK:   -4.71 KCAL/MOL
REMARK 922        TOTAL FREE ENERGY PREDICTED BY IDOCK:   -5.73 KCAL/MOL
REMARK 923 INTER-LIGAND FREE ENERGY PREDICTED BY IDOCK:   -5.63 KCAL/MOL
REMARK 924 INTRA-LIGAND FREE ENERGY PREDICTED BY IDOCK:   -0.10 KCAL/MOL
REMARK 927      BINDING AFFINITY PREDICTED BY RF-SCORE:    0.00 PKD
ROOT
HETATM    1  C   UNL     1     -10.855  15.176  69.618  1.00  0.00    -0.286 C  
HETATM    2  N   UNL     1     -10.971  13.743  69.856  1.00  0.00    -0.446 NA 
HETATM    3  H   UNL     1     -11.893  13.496  70.216  1.00  0.00     0.000 HD 
ENDROOT
BRANCH   2   4
HETATM    4  C   UNL     1     -10.636  12.973  68.645  1.00  0.00    -0.236 C  
BRANCH   4   5
HETATM    5  C   UNL     1     -11.863  12.508  67.812  1.00  0.00    -0.313 C  
HETATM    6  H   UNL     1     -12.977  10.916  67.770  1.00  0.00     0.000 HD 
HETATM    7  O   UNL     1     -12.227  11.200  68.279  1.00  0.00    -0.613 OA 
BRANCH   5   8
HETATM    8  C   UNL     1     -11.645  12.493  66.304  1.00  0.00    -0.449 A  
HETATM    9  C   UNL     1     -12.235  13.443  65.449  1.00  0.00    -0.492 A  
HETATM   10  C   UNL     1     -12.012  13.381  64.073  1.00  0.00    -0.464 A  
HETATM   11  O   UNL     1     -12.549  14.305  63.224  1.00  0.00    -1.069 OA 
HETATM   12  C   UNL     1     -11.231  12.378  63.517  1.00  0.00    -0.540 A  
HETATM   13  H   UNL     1     -12.397  14.263  62.288  1.00  0.00     0.000 HD 
HETATM   14  C   UNL     1     -10.632  11.437  64.348  1.00  0.00    -0.403 A  
HETATM   15  C   UNL     1     -10.816  11.513  65.730  1.00  0.00    -0.319 A  
ENDBRANCH   5   8
ENDBRANCH   4   5
ENDBRANCH   2   4
TORSDOF 3
ENDMDL
MODEL        9
REMARK 921   NORMALIZED FREE ENERGY PREDICTED BY IDOCK:   -4.70 KCAL/MOL
REMARK 922        TOTAL FREE ENERGY PREDICTED BY IDOCK:   -5.72 KCAL/MOL
REMARK 923 INTER-LIGAND FREE ENERGY PREDICTED BY IDOCK:   -5.60 KCAL/MOL
REMARK 924 INTRA-LIGAND FREE ENERGY PREDICTED BY IDOCK:   -0.12 KCAL/MOL
REMARK 927      BINDING AFFINITY PREDICTED BY RF-SCORE:    0.00 PKD
ROOT
HETATM    1  C   UNL     1     -11.472  15.080  69.563  1.00  0.00    -0.294 C  
HETATM    2  N   UNL     1     -11.682  14.134  70.651  1.00  0.00    -0.485 NA 
HETATM    3  H   UNL     1     -12.068  14.591  71.477  1.00  0.00     0.000 HD 
ENDROOT
BRANCH   2   4
HETATM    4  C   UNL     1     -12.519  13.000  70.217  1.00  0.00    -0.147 C  
BRANCH   4   5
HETATM    5  C   UNL     1     -11.724  11.741  69.769  1.00  0.00    -0.335 C  
HETATM    6  H   UNL     1     -11.689  10.628  68.176  1.00  0.00     0.000 HD 
HETATM    7  O   UNL     1     -12.174  11.397  68.450  1.00  0.00    -0.571 OA 
BRANCH   5   8
HETATM    8  C   UNL     1     -11.845  10.543  70.702  1.00  0.00    -0.458 A  
HETATM    9  C   UNL     1     -13.022  10.267  71.423  1.00  0.00    -0.540 A  
HETATM   10  C   UNL     1     -13.081   9.161  72.273  1.00  0.00    -0.438 A  
HETATM   11  O   UNL     1     -14.218   8.854  72.961  1.00  0.00    -1.106 OA 
HETATM   12  C   UNL     1     -11.982   8.331  72.447  1.00  0.00    -0.447 A  
HETATM   13  H   UNL     1     -14.258   8.101  73.540  1.00  0.00     0.000 HD 
HETATM   14  C   UNL     1     -10.814   8.584  71.735  1.00  0.00    -0.374 A  
HETATM   15  C   UNL     1     -10.758   9.664  70.852  1.00  0.00    -0.402 A  
ENDBRANCH   5   8
ENDBRANCH   4   5
ENDBRANCH   2   4
TORSDOF 3
ENDMDL
MODEL       10
REMARK 921   NORMALIZED FREE ENERGY PREDICTED BY IDOCK:   -4.68 KCAL/MOL
REMARK 922        TOTAL FREE ENERGY PREDICTED BY IDOCK:   -5.70 KCAL/MOL
REMARK 923 INTER-LIGAND FREE ENERGY PREDICTED BY IDOCK:   -5.60 KCAL/MOL
REMARK 924 INTRA-LIGAND FREE ENERGY PREDICTED BY IDOCK:   -0.10 KCAL/MOL
REMARK 927      BINDING AFFINITY PREDICTED BY RF-SCORE:    0.00 PKD
ROOT
HETATM    1  C   UNL     1     -10.055  19.810  67.150  1.00  0.00    -0.424 C  
HETATM    2  N   UNL     1     -10.511  18.932  66.080  1.00  0.00    -0.483 NA 
HETATM    3  H   UNL     1     -10.008  19.108  65.210  1.00  0.00     0.000 HD 
ENDROOT
BRANCH   2   4
HETATM    4  C   UNL     1     -10.425  17.516  66.480  1.00  0.00    -0.270 C  
BRANCH   4   5
HETATM    5  C   UNL     1     -10.521  16.503  65.305  1.00  0.00    -0.213 C  
HETATM    6  H   UNL     1     -11.446  16.458  63.596  1.00  0.00     0.000 HD 
HETATM    7  O   UNL     1     -11.387  17.077  64.314  1.00  0.00    -1.191 OA 
BRANCH   5   8
HETATM    8  C   UNL     1     -11.008  15.114  65.696  1.00  0.00    -0.359 A  
HETATM    9  C   UNL     1     -11.990  14.425  64.960  1.00  0.00    -0.413 A  
HETATM   10  C   UNL     1     -12.409  13.157  65.365  1.00  0.00    -0.481 A  
HETATM   11  O   UNL     1     -13.339  12.456  64.654  1.00  0.00    -0.778 OA 
HETATM   12  C   UNL     1     -11.892  12.561  66.506  1.00  0.00    -0.434 A  
HETATM   13  H   UNL     1     -13.625  11.593  64.930  1.00  0.00     0.000 HD 
HETATM   14  C   UNL     1     -10.914  13.223  67.241  1.00  0.00    -0.284 A  
HETATM   15  C   UNL     1     -10.458  14.475  66.822  1.00  0.00    -0.270 A  
ENDBRANCH   5   8
ENDBRANCH   4   5
ENDBRANCH   2   4
TORSDOF 3
ENDMDL
MODEL       11
REMARK 921   NORMALIZED FREE ENERGY PREDICTED BY IDOCK:   -4.67 KCAL/MOL
REMARK 922        TOTAL FREE ENERGY PREDICTED BY IDOCK:   -5.69 KCAL/MOL
REMARK 923 INTER-LIGAND FREE ENERGY PREDICTED BY IDOCK:   -5.51 KCAL/MOL
REMARK 924 INTRA-LIGAND FREE ENERGY PREDICTED BY IDOCK:   -0.18 KCAL/MOL
REMARK 927      BINDING AFFINITY PREDICTED BY RF-SCORE:    0.00 PKD
ROOT
HETATM    1  C   UNL     1     -10.007  10.417  64.302  1.00  0.00    -0.298 C  
HETATM    2  N   UNL     1     -10.646  11.110  63.190  1.00  0.00    -0.779 NA 
HETATM    3  H   UNL     1     -11.417  10.566  62.803  1.00  0.00     0.000 HD 
ENDROOT
BRANCH   2   4
HETATM    4  C   UNL     1     -11.079  12.463  63.584  1.00  0.00    -0.473 C  
BRANCH   4   5
HETATM    5  C   UNL     1     -11.786  12.541  64.966  1.00  0.00    -0.396 C  
HETATM    6  H   UNL     1     -13.633  12.628  65.567  1.00  0.00     0.000 HD 
HETATM    7  O   UNL     1     -13.200  12.580  64.722  1.00  0.00    -0.839 OA 
BRANCH   5   8
HETATM    8  C   UNL     1     -11.363  13.718  65.835  1.00  0.00    -0.311 A  
HETATM    9  C   UNL     1     -12.009  14.030  67.046  1.00  0.00    -0.472 A  
HETATM   10  C   UNL     1     -11.590  15.125  67.803  1.00  0.00    -0.289 A  
HETATM   11  O   UNL     1     -12.179  15.433  68.994  1.00  0.00    -0.579 OA 
HETATM   12  C   UNL     1     -10.554  15.941  67.371  1.00  0.00    -0.315 A  
HETATM   13  H   UNL     1     -11.894  16.178  69.509  1.00  0.00     0.000 HD 
HETATM   14  C   UNL     1      -9.898  15.643  66.180  1.00  0.00    -0.340 A  
HETATM   15  C   UNL     1     -10.283  14.526  65.436  1.00  0.00    -0.415 A  
ENDBRANCH   5   8
ENDBRANCH   4   5
ENDBRANCH   2   4
TORSDOF 3
ENDMDL
MODEL       12
REMARK 921   NORMALIZED FREE ENERGY PREDICTED BY IDOCK:   -4.66 KCAL/MOL
REMARK 922        TOTAL FREE ENERGY PREDICTED BY IDOCK:   -5.68 KCAL/MOL
REMARK 923 INTER-LIGAND FREE ENERGY PREDICTED BY IDOCK:   -5.54 KCAL/MOL
REMARK 924 INTRA-LIGAND FREE ENERGY PREDICTED BY IDOCK:   -0.14 KCAL/MOL
REMARK 927      BINDING AFFINITY PREDICTED BY RF-SCORE:    0.00 PKD
ROOT
HETATM    1  C   UNL     1     -12.176  15.684  70.875  1.00  0.00    -0.419 C  
HETATM    2  N   UNL     1     -12.779  15.335  69.594  1.00  0.00    -0.613 NA 
HETATM    3  H   UNL     1     -13.351  16.097  69.229  1.00  0.00     0.000 HD 
ENDROOT
BRANCH   2   4
HETATM    4  C   UNL     1     -11.755  14.911  68.622  1.00  0.00    -0.330 C  
BRANCH   4   5
HETATM    5  C   UNL     1     -11.834  13.414  68.210  1.00  0.00    -0.358 C  
HETATM    6  H   UNL     1     -10.824  11.810  68.642  1.00  0.00     0.000 HD 
HETATM    7  O   UNL     1     -10.776  12.725  68.894  1.00  0.00    -0.230 OA 
BRANCH   5   8
HETATM    8  C   UNL     1     -11.753  13.158  66.710  1.00  0.00    -0.439 A  
HETATM    9  C   UNL     1     -12.178  14.106  65.761  1.00  0.00    -0.458 A  
HETATM   10  C   UNL     1     -12.093  13.821  64.398  1.00  0.00    -0.436 A  
HETATM   11  O   UNL     1     -12.471  14.733  63.456  1.00  0.00    -1.053 OA 
HETATM   12  C   UNL     1     -11.615  12.598  63.950  1.00  0.00    -0.521 A  
HETATM   13  H   UNL     1     -12.413  14.539  62.528  1.00  0.00     0.000 HD 
HETATM   14  C   UNL     1     -11.181  11.652  64.873  1.00  0.00    -0.287 A  
HETATM   15  C   UNL     1     -11.225  11.943  66.238  1.00  0.00    -0.392 A  
ENDBRANCH   5   8
ENDBRANCH   4   5
ENDBRANCH   2   4
TORSDOF 3
ENDMDL
MODEL       13
REMARK 921   NORMALIZED FREE ENERGY PREDICTED BY IDOCK:   -4.65 KCAL/MOL
REMARK 922        TOTAL FREE ENERGY PREDICTED BY IDOCK:   -5.66 KCAL/MOL
REMARK 923 INTER-LIGAND FREE ENERGY PREDICTED BY IDOCK:   -5.51 KCAL/MOL
REMARK 924 INTRA-LIGAND FREE ENERGY PREDICTED BY IDOCK:   -0.15 KCAL/MOL
REMARK 927      BINDING AFFINITY PREDICTED BY RF-SCORE:    0.00 PKD
ROOT
HETATM    1  C   UNL     1     -12.481  12.284  63.497  1.00  0.00    -0.534 C  
HETATM    2  N   UNL     1     -12.066  13.674  63.356  1.00  0.00    -0.938 NA 
HETATM    3  H   UNL     1     -12.443  14.094  62.505  1.00  0.00     0.000 HD 
ENDROOT
BRANCH   2   4
HETATM    4  C   UNL     1     -12.421  14.460  64.551  1.00  0.00    -0.339 C  
BRANCH   4   5
HETATM    5  C   UNL     1     -11.251  14.682  65.552  1.00  0.00    -0.343 C  
HETATM    6  H   UNL     1      -9.342  14.317  65.544  1.00  0.00     0.000 HD 
HETATM    7  O   UNL     1     -10.057  14.182  64.932  1.00  0.00    -0.385 OA 
BRANCH   5   8
HETATM    8  C   UNL     1     -11.450  14.042  66.920  1.00  0.00    -0.373 A  
HETATM    9  C   UNL     1     -11.703  12.666  67.078  1.00  0.00    -0.438 A  
HETATM   10  C   UNL     1     -11.887  12.129  68.352  1.00  0.00    -0.303 A  
HETATM   11  O   UNL     1     -12.105  10.795  68.536  1.00  0.00    -0.788 OA 
HETATM   12  C   UNL     1     -11.851  12.934  69.482  1.00  0.00    -0.383 A  
HETATM   13  H   UNL     1     -12.230  10.429  69.404  1.00  0.00     0.000 HD 
HETATM   14  C   UNL     1     -11.593  14.294  69.346  1.00  0.00    -0.354 A  
HETATM   15  C   UNL     1     -11.368  14.835  68.078  1.00  0.00    -0.332 A  
ENDBRANCH   5   8
ENDBRANCH   4   5
ENDBRANCH   2   4
TORSDOF 3
ENDMDL
MODEL       14
REMARK 921   NORMALIZED FREE ENERGY PREDICTED BY IDOCK:   -4.63 KCAL/MOL
REMARK 922        TOTAL FREE ENERGY PREDICTED BY IDOCK:   -5.64 KCAL/MOL
REMARK 923 INTER-LIGAND FREE ENERGY PREDICTED BY IDOCK:   -5.55 KCAL/MOL
REMARK 924 INTRA-LIGAND FREE ENERGY PREDICTED BY IDOCK:   -0.09 KCAL/MOL
REMARK 927      BINDING AFFINITY PREDICTED BY RF-SCORE:    0.00 PKD
ROOT
HETATM    1  C   UNL     1      -9.972  20.110  67.497  1.00  0.00    -0.430 C  
HETATM    2  N   UNL     1     -10.431  18.743  67.706  1.00  0.00    -0.417 NA 
HETATM    3  H   UNL     1     -11.369  18.720  68.106  1.00  0.00     0.000 HD 
ENDROOT
BRANCH   2   4
HETATM    4  C   UNL     1     -10.353  17.960  66.459  1.00  0.00    -0.362 C  
BRANCH   4   5
HETATM    5  C   UNL     1      -9.784  16.523  66.631  1.00  0.00    -0.260 C  
HETATM    6  H   UNL     1      -8.200  15.585  66.008  1.00  0.00     0.000 HD 
HETATM    7  O   UNL     1      -8.548  16.463  65.903  1.00  0.00    -0.407 OA 
BRANCH   5   8
HETATM    8  C   UNL     1     -10.719  15.407  66.185  1.00  0.00    -0.316 A  
HETATM    9  C   UNL     1     -11.178  15.294  64.859  1.00  0.00    -0.422 A  
HETATM   10  C   UNL     1     -12.042  14.258  64.501  1.00  0.00    -0.480 A  
HETATM   11  O   UNL     1     -12.479  14.109  63.218  1.00  0.00    -1.146 OA 
HETATM   12  C   UNL     1     -12.486  13.338  65.441  1.00  0.00    -0.543 A  
HETATM   13  H   UNL     1     -13.067  13.404  62.974  1.00  0.00     0.000 HD 
HETATM   14  C   UNL     1     -12.036  13.429  66.754  1.00  0.00    -0.447 A  
HETATM   15  C   UNL     1     -11.139  14.438  67.113  1.00  0.00    -0.318 A  
ENDBRANCH   5   8
ENDBRANCH   4   5
ENDBRANCH   2   4
TORSDOF 3
ENDMDL
MODEL       15
REMARK 921   NORMALIZED FREE ENERGY PREDICTED BY IDOCK:   -4.59 KCAL/MOL
REMARK 922        TOTAL FREE ENERGY PREDICTED BY IDOCK:   -5.59 KCAL/MOL
REMARK 923 INTER-LIGAND FREE ENERGY PREDICTED BY IDOCK:   -5.45 KCAL/MOL
REMARK 924 INTRA-LIGAND FREE ENERGY PREDICTED BY IDOCK:   -0.15 KCAL/MOL
REMARK 927      BINDING AFFINITY PREDICTED BY RF-SCORE:    0.00 PKD
ROOT
HETATM    1  C   UNL     1     -10.270  11.526  63.394  1.00  0.00    -0.420 C  
HETATM    2  N   UNL     1      -9.996  12.927  63.687  1.00  0.00    -0.709 NA 
HETATM    3  H   UNL     1      -9.797  13.456  62.838  1.00  0.00     0.000 HD 
ENDROOT
BRANCH   2   4
HETATM    4  C   UNL     1     -11.094  13.534  64.461  1.00  0.00    -0.381 C  
BRANCH   4   5
HETATM    5  C   UNL     1     -11.876  12.540  65.366  1.00  0.00    -0.428 C  
HETATM    6  H   UNL     1     -13.722  11.941  65.481  1.00  0.00     0.000 HD 
HETATM    7  O   UNL     1     -13.243  12.548  64.928  1.00  0.00    -0.787 OA 
BRANCH   5   8
HETATM    8  C   UNL     1     -11.793  12.833  66.858  1.00  0.00    -0.440 A  
HETATM    9  C   UNL     1     -11.634  11.815  67.817  1.00  0.00    -0.374 A  
HETATM   10  C   UNL     1     -11.572  12.134  69.174  1.00  0.00    -0.319 A  
HETATM   11  O   UNL     1     -11.390  11.170  70.123  1.00  0.00    -0.395 OA 
HETATM   12  C   UNL     1     -11.691  13.446  69.609  1.00  0.00    -0.375 A  
HETATM   13  H   UNL     1     -11.349  11.387  71.047  1.00  0.00     0.000 HD 
HETATM   14  C   UNL     1     -11.839  14.466  68.675  1.00  0.00    -0.366 A  
HETATM   15  C   UNL     1     -11.862  14.162  67.312  1.00  0.00    -0.452 A  
ENDBRANCH   5   8
ENDBRANCH   4   5
ENDBRANCH   2   4
TORSDOF 3
ENDMDL
MODEL       16
REMARK 921   NORMALIZED FREE ENERGY PREDICTED BY IDOCK:   -4.55 KCAL/MOL
REMARK 922        TOTAL FREE ENERGY PREDICTED BY IDOCK:   -5.55 KCAL/MOL
REMARK 923 INTER-LIGAND FREE ENERGY PREDICTED BY IDOCK:   -5.44 KCAL/MOL
REMARK 924 INTRA-LIGAND FREE ENERGY PREDICTED BY IDOCK:   -0.12 KCAL/MOL
REMARK 927      BINDING AFFINITY PREDICTED BY RF-SCORE:    0.00 PKD
ROOT
HETATM    1  C   UNL     1     -11.656  15.390  71.075  1.00  0.00    -0.367 C  
HETATM    2  N   UNL     1     -10.856  14.840  69.988  1.00  0.00    -0.434 NA 
HETATM    3  H   UNL     1     -10.526  13.899  70.204  1.00  0.00     0.000 HD 
ENDROOT
BRANCH   2   4
HETATM    4  C   UNL     1     -11.594  14.876  68.712  1.00  0.00    -0.323 C  
BRANCH   4   5
HETATM    5  C   UNL     1     -11.694  13.507  67.982  1.00  0.00    -0.359 C  
HETATM    6  H   UNL     1     -10.582  11.917  67.874  1.00  0.00     0.000 HD 
HETATM    7  O   UNL     1     -10.521  12.754  68.320  1.00  0.00    -0.228 OA 
BRANCH   5   8
HETATM    8  C   UNL     1     -11.850  13.599  66.469  1.00  0.00    -0.441 A  
HETATM    9  C   UNL     1     -11.862  14.830  65.788  1.00  0.00    -0.202 A  
HETATM   10  C   UNL     1     -12.017  14.863  64.401  1.00  0.00    -0.394 A  
HETATM   11  O   UNL     1     -12.003  16.040  63.712  1.00  0.00    -1.339 OA 
HETATM   12  C   UNL     1     -12.187  13.695  63.671  1.00  0.00    -0.376 A  
HETATM   13  H   UNL     1     -12.109  16.062  62.768  1.00  0.00     0.000 HD 
HETATM   14  C   UNL     1     -12.169  12.469  64.327  1.00  0.00    -0.535 A  
HETATM   15  C   UNL     1     -11.975  12.423  65.709  1.00  0.00    -0.437 A  
ENDBRANCH   5   8
ENDBRANCH   4   5
ENDBRANCH   2   4
TORSDOF 3
ENDMDL
MODEL       17
REMARK 921   NORMALIZED FREE ENERGY PREDICTED BY IDOCK:   -4.55 KCAL/MOL
REMARK 922        TOTAL FREE ENERGY PREDICTED BY IDOCK:   -5.54 KCAL/MOL
REMARK 923 INTER-LIGAND FREE ENERGY PREDICTED BY IDOCK:   -5.43 KCAL/MOL
REMARK 924 INTRA-LIGAND FREE ENERGY PREDICTED BY IDOCK:   -0.12 KCAL/MOL
REMARK 927      BINDING AFFINITY PREDICTED BY RF-SCORE:    0.00 PKD
ROOT
HETATM    1  C   UNL     1     -11.905  15.945  72.026  1.00  0.00    -0.515 C  
HETATM    2  N   UNL     1     -11.658  16.279  70.629  1.00  0.00    -0.520 NA 
HETATM    3  H   UNL     1     -10.727  16.672  70.496  1.00  0.00     0.000 HD 
ENDROOT
BRANCH   2   4
HETATM    4  C   UNL     1     -11.885  15.113  69.756  1.00  0.00    -0.333 C  
BRANCH   4   5
HETATM    5  C   UNL     1     -10.761  14.856  68.713  1.00  0.00    -0.252 C  
HETATM    6  H   UNL     1      -9.124  15.768  68.196  1.00  0.00     0.000 HD 
HETATM    7  O   UNL     1      -9.811  15.925  68.834  1.00  0.00    -0.204 OA 
BRANCH   5   8
HETATM    8  C   UNL     1     -11.241  14.730  67.273  1.00  0.00    -0.351 A  
HETATM    9  C   UNL     1     -11.008  15.731  66.312  1.00  0.00    -0.163 A  
HETATM   10  C   UNL     1     -11.476  15.573  65.007  1.00  0.00    -0.218 A  
HETATM   11  O   UNL     1     -11.240  16.515  64.048  1.00  0.00    -1.409 OA 
HETATM   12  C   UNL     1     -12.198  14.447  64.635  1.00  0.00    -0.479 A  
HETATM   13  H   UNL     1     -11.560  16.407  63.160  1.00  0.00     0.000 HD 
HETATM   14  C   UNL     1     -12.430  13.443  65.569  1.00  0.00    -0.534 A  
HETATM   15  C   UNL     1     -11.931  13.573  66.867  1.00  0.00    -0.447 A  
ENDBRANCH   5   8
ENDBRANCH   4   5
ENDBRANCH   2   4
TORSDOF 3
ENDMDL
MODEL       18
REMARK 921   NORMALIZED FREE ENERGY PREDICTED BY IDOCK:   -4.53 KCAL/MOL
REMARK 922        TOTAL FREE ENERGY PREDICTED BY IDOCK:   -5.53 KCAL/MOL
REMARK 923 INTER-LIGAND FREE ENERGY PREDICTED BY IDOCK:   -5.40 KCAL/MOL
REMARK 924 INTRA-LIGAND FREE ENERGY PREDICTED BY IDOCK:   -0.12 KCAL/MOL
REMARK 927      BINDING AFFINITY PREDICTED BY RF-SCORE:    0.00 PKD
ROOT
HETATM    1  C   UNL     1     -10.544  18.360  67.421  1.00  0.00    -0.413 C  
HETATM    2  N   UNL     1     -10.945  17.058  67.938  1.00  0.00    -0.298 NA 
HETATM    3  H   UNL     1     -10.552  16.297  67.384  1.00  0.00     0.000 HD 
ENDROOT
BRANCH   2   4
HETATM    4  C   UNL     1     -10.602  16.924  69.366  1.00  0.00    -0.292 C  
BRANCH   4   5
HETATM    5  C   UNL     1     -10.550  15.459  69.885  1.00  0.00    -0.303 C  
HETATM    6  H   UNL     1     -10.570  13.701  69.057  1.00  0.00     0.000 HD 
HETATM    7  O   UNL     1     -10.602  14.596  68.739  1.00  0.00    -0.234 OA 
BRANCH   5   8
HETATM    8  C   UNL     1     -11.646  15.093  70.877  1.00  0.00    -0.380 A  
HETATM    9  C   UNL     1     -11.978  15.916  71.970  1.00  0.00    -0.602 A  
HETATM   10  C   UNL     1     -12.984  15.533  72.857  1.00  0.00    -0.477 A  
HETATM   11  O   UNL     1     -13.345  16.324  73.908  1.00  0.00    -0.934 OA 
HETATM   12  C   UNL     1     -13.658  14.330  72.700  1.00  0.00    -0.601 A  
HETATM   13  H   UNL     1     -14.030  16.063  74.512  1.00  0.00     0.000 HD 
HETATM   14  C   UNL     1     -13.350  13.508  71.621  1.00  0.00    -0.420 A  
HETATM   15  C   UNL     1     -12.373  13.902  70.704  1.00  0.00    -0.451 A  
ENDBRANCH   5   8
ENDBRANCH   4   5
ENDBRANCH   2   4
TORSDOF 3
ENDMDL
MODEL       19
REMARK 921   NORMALIZED FREE ENERGY PREDICTED BY IDOCK:   -4.50 KCAL/MOL
REMARK 922        TOTAL FREE ENERGY PREDICTED BY IDOCK:   -5.49 KCAL/MOL
REMARK 923 INTER-LIGAND FREE ENERGY PREDICTED BY IDOCK:   -5.37 KCAL/MOL
REMARK 924 INTRA-LIGAND FREE ENERGY PREDICTED BY IDOCK:   -0.12 KCAL/MOL
REMARK 927      BINDING AFFINITY PREDICTED BY RF-SCORE:    0.00 PKD
ROOT
HETATM    1  C   UNL     1     -11.311  12.669  66.321  1.00  0.00    -0.329 C  
HETATM    2  N   UNL     1     -11.756  11.785  67.390  1.00  0.00    -0.588 NA 
HETATM    3  H   UNL     1     -11.489  10.817  67.212  1.00  0.00     0.000 HD 
ENDROOT
BRANCH   2   4
HETATM    4  C   UNL     1     -11.271  12.249  68.702  1.00  0.00    -0.259 C  
BRANCH   4   5
HETATM    5  C   UNL     1     -12.301  12.118  69.859  1.00  0.00    -0.060 C  
HETATM    6  H   UNL     1     -12.820  13.220  71.374  1.00  0.00     0.000 HD 
HETATM    7  O   UNL     1     -12.190  13.300  70.667  1.00  0.00    -0.360 OA 
BRANCH   5   8
HETATM    8  C   UNL     1     -12.145  10.869  70.716  1.00  0.00    -0.469 A  
HETATM    9  C   UNL     1     -13.121  10.470  71.648  1.00  0.00    -0.551 A  
HETATM   10  C   UNL     1     -12.927   9.322  72.418  1.00  0.00    -0.377 A  
HETATM   11  O   UNL     1     -13.869   8.896  73.308  1.00  0.00    -1.163 OA 
HETATM   12  C   UNL     1     -11.767   8.568  72.302  1.00  0.00    -0.443 A  
HETATM   13  H   UNL     1     -13.737   8.114  73.832  1.00  0.00     0.000 HD 
HETATM   14  C   UNL     1     -10.796   8.943  71.380  1.00  0.00    -0.378 A  
HETATM   15  C   UNL     1     -10.998  10.067  70.576  1.00  0.00    -0.392 A  
ENDBRANCH   5   8
ENDBRANCH   4   5
ENDBRANCH   2   4
TORSDOF 3
ENDMDL
MODEL       20
REMARK 921   NORMALIZED FREE ENERGY PREDICTED BY IDOCK:   -4.50 KCAL/MOL
REMARK 922        TOTAL FREE ENERGY PREDICTED BY IDOCK:   -5.49 KCAL/MOL
REMARK 923 INTER-LIGAND FREE ENERGY PREDICTED BY IDOCK:   -5.34 KCAL/MOL
REMARK 924 INTRA-LIGAND FREE ENERGY PREDICTED BY IDOCK:   -0.15 KCAL/MOL
REMARK 927      BINDING AFFINITY PREDICTED BY RF-SCORE:    0.00 PKD
ROOT
HETATM    1  C   UNL     1     -12.379  10.491  70.500  1.00  0.00    -0.343 C  
HETATM    2  N   UNL     1     -12.503  10.899  69.107  1.00  0.00    -0.670 NA 
HETATM    3  H   UNL     1     -13.212  11.624  68.990  1.00  0.00     0.000 HD 
ENDROOT
BRANCH   2   4
HETATM    4  C   UNL     1     -11.201  11.320  68.558  1.00  0.00    -0.252 C  
BRANCH   4   5
HETATM    5  C   UNL     1     -11.230  12.666  67.781  1.00  0.00    -0.274 C  
HETATM    6  H   UNL     1     -12.404  14.215  67.749  1.00  0.00     0.000 HD 
HETATM    7  O   UNL     1     -12.386  13.392  68.223  1.00  0.00    -0.187 OA 
BRANCH   5   8
HETATM    8  C   UNL     1     -11.235  12.530  66.264  1.00  0.00    -0.359 A  
HETATM    9  C   UNL     1     -11.879  13.460  65.427  1.00  0.00    -0.381 A  
HETATM   10  C   UNL     1     -11.863  13.286  64.042  1.00  0.00    -0.455 A  
HETATM   11  O   UNL     1     -12.455  14.187  63.206  1.00  0.00    -1.146 OA 
HETATM   12  C   UNL     1     -11.241  12.188  63.464  1.00  0.00    -0.536 A  
HETATM   13  H   UNL     1     -12.444  14.069  62.263  1.00  0.00     0.000 HD 
HETATM   14  C   UNL     1     -10.591  11.264  64.276  1.00  0.00    -0.422 A  
HETATM   15  C   UNL     1     -10.567  11.450  65.659  1.00  0.00    -0.314 A  
ENDBRANCH   5   8
ENDBRANCH   4   5
ENDBRANCH   2   4
TORSDOF 3
ENDMDL
MODEL       21
REMARK 921   NORMALIZED FREE ENERGY PREDICTED BY IDOCK:   -4.49 KCAL/MOL
REMARK 922        TOTAL FREE ENERGY PREDICTED BY IDOCK:   -5.48 KCAL/MOL
REMARK 923 INTER-LIGAND FREE ENERGY PREDICTED BY IDOCK:   -5.36 KCAL/MOL
REMARK 924 INTRA-LIGAND FREE ENERGY PREDICTED BY IDOCK:   -0.12 KCAL/MOL
REMARK 927      BINDING AFFINITY PREDICTED BY RF-SCORE:    0.00 PKD
ROOT
HETATM    1  C   UNL     1     -10.303   6.009  67.303  1.00  0.00    -0.223 C  
HETATM    2  N   UNL     1     -11.413   6.577  68.057  1.00  0.00    -0.611 NA 
HETATM    3  H   UNL     1     -12.310   6.212  67.736  1.00  0.00     0.000 HD 
ENDROOT
BRANCH   2   4
HETATM    4  C   UNL     1     -11.231   6.375  69.506  1.00  0.00    -0.412 C  
BRANCH   4   5
HETATM    5  C   UNL     1     -10.540   7.556  70.244  1.00  0.00    -0.229 C  
HETATM    6  H   UNL     1      -9.295   7.713  71.728  1.00  0.00     0.000 HD 
HETATM    7  O   UNL     1      -9.717   6.992  71.277  1.00  0.00    -0.172 OA 
BRANCH   5   8
HETATM    8  C   UNL     1     -11.492   8.591  70.827  1.00  0.00    -0.281 A  
HETATM    9  C   UNL     1     -12.433   8.272  71.824  1.00  0.00    -0.367 A  
HETATM   10  C   UNL     1     -13.290   9.255  72.320  1.00  0.00    -0.477 A  
HETATM   11  O   UNL     1     -14.191   8.979  73.307  1.00  0.00    -1.192 OA 
HETATM   12  C   UNL     1     -13.255  10.552  71.829  1.00  0.00    -0.522 A  
HETATM   13  H   UNL     1     -14.775   9.648  73.644  1.00  0.00     0.000 HD 
HETATM   14  C   UNL     1     -12.325  10.888  70.850  1.00  0.00    -0.501 A  
HETATM   15  C   UNL     1     -11.435   9.922  70.376  1.00  0.00    -0.372 A  
ENDBRANCH   5   8
ENDBRANCH   4   5
ENDBRANCH   2   4
TORSDOF 3
ENDMDL
MODEL       22
REMARK 921   NORMALIZED FREE ENERGY PREDICTED BY IDOCK:   -4.49 KCAL/MOL
REMARK 922        TOTAL FREE ENERGY PREDICTED BY IDOCK:   -5.48 KCAL/MOL
REMARK 923 INTER-LIGAND FREE ENERGY PREDICTED BY IDOCK:   -5.39 KCAL/MOL
REMARK 924 INTRA-LIGAND FREE ENERGY PREDICTED BY IDOCK:   -0.09 KCAL/MOL
REMARK 927      BINDING AFFINITY PREDICTED BY RF-SCORE:    0.00 PKD
ROOT
HETATM    1  C   UNL     1      -9.973  12.726  64.928  1.00  0.00    -0.136 C  
HETATM    2  N   UNL     1     -10.253  14.077  64.457  1.00  0.00    -0.689 NA 
HETATM    3  H   UNL     1     -11.217  14.170  64.137  1.00  0.00     0.000 HD 
ENDROOT
BRANCH   2   4
HETATM    4  C   UNL     1      -9.924  15.079  65.487  1.00  0.00    -0.356 C  
BRANCH   4   5
HETATM    5  C   UNL     1     -10.910  16.278  65.564  1.00  0.00    -0.245 C  
HETATM    6  H   UNL     1     -11.647  17.541  64.284  1.00  0.00     0.000 HD 
HETATM    7  O   UNL     1     -11.045  16.808  64.237  1.00  0.00    -1.106 OA 
BRANCH   5   8
HETATM    8  C   UNL     1     -10.505  17.378  66.537  1.00  0.00    -0.264 A  
HETATM    9  C   UNL     1     -10.099  18.654  66.105  1.00  0.00    -0.399 A  
HETATM   10  C   UNL     1      -9.729  19.625  67.036  1.00  0.00    -0.360 A  
HETATM   11  O   UNL     1      -9.358  20.879  66.646  1.00  0.00    -0.615 OA 
HETATM   12  C   UNL     1      -9.727  19.351  68.396  1.00  0.00    -0.488 A  
HETATM   13  H   UNL     1      -9.106  21.540  67.280  1.00  0.00     0.000 HD 
HETATM   14  C   UNL     1     -10.134  18.098  68.843  1.00  0.00    -0.354 A  
HETATM   15  C   UNL     1     -10.545  17.132  67.922  1.00  0.00    -0.376 A  
ENDBRANCH   5   8
ENDBRANCH   4   5
ENDBRANCH   2   4
TORSDOF 3
ENDMDL
MODEL       23
REMARK 921   NORMALIZED FREE ENERGY PREDICTED BY IDOCK:   -4.48 KCAL/MOL
REMARK 922        TOTAL FREE ENERGY PREDICTED BY IDOCK:   -5.46 KCAL/MOL
REMARK 923 INTER-LIGAND FREE ENERGY PREDICTED BY IDOCK:   -5.35 KCAL/MOL
REMARK 924 INTRA-LIGAND FREE ENERGY PREDICTED BY IDOCK:   -0.12 KCAL/MOL
REMARK 927      BINDING AFFINITY PREDICTED BY RF-SCORE:    0.00 PKD
ROOT
HETATM    1  C   UNL     1     -11.874  15.507  72.088  1.00  0.00    -0.462 C  
HETATM    2  N   UNL     1     -11.504  14.591  71.017  1.00  0.00    -0.518 NA 
HETATM    3  H   UNL     1     -11.736  13.626  71.252  1.00  0.00     0.000 HD 
ENDROOT
BRANCH   2   4
HETATM    4  C   UNL     1     -12.108  14.998  69.735  1.00  0.00    -0.314 C  
BRANCH   4   5
HETATM    5  C   UNL     1     -12.024  13.929  68.610  1.00  0.00    -0.366 C  
HETATM    6  H   UNL     1     -11.039  12.273  68.352  1.00  0.00     0.000 HD 
HETATM    7  O   UNL     1     -11.090  12.927  69.039  1.00  0.00    -0.251 OA 
BRANCH   5   8
HETATM    8  C   UNL     1     -11.633  14.470  67.241  1.00  0.00    -0.405 A  
HETATM    9  C   UNL     1     -12.278  14.062  66.058  1.00  0.00    -0.484 A  
HETATM   10  C   UNL     1     -11.876  14.580  64.826  1.00  0.00    -0.441 A  
HETATM   11  O   UNL     1     -12.502  14.224  63.668  1.00  0.00    -1.043 OA 
HETATM   12  C   UNL     1     -10.825  15.481  64.735  1.00  0.00    -0.385 A  
HETATM   13  H   UNL     1     -12.228  14.576  62.829  1.00  0.00     0.000 HD 
HETATM   14  C   UNL     1     -10.182  15.903  65.895  1.00  0.00    -0.373 A  
HETATM   15  C   UNL     1     -10.603  15.421  67.137  1.00  0.00    -0.305 A  
ENDBRANCH   5   8
ENDBRANCH   4   5
ENDBRANCH   2   4
TORSDOF 3
ENDMDL
MODEL       24
REMARK 921   NORMALIZED FREE ENERGY PREDICTED BY IDOCK:   -4.45 KCAL/MOL
REMARK 922        TOTAL FREE ENERGY PREDICTED BY IDOCK:   -5.43 KCAL/MOL
REMARK 923 INTER-LIGAND FREE ENERGY PREDICTED BY IDOCK:   -5.25 KCAL/MOL
REMARK 924 INTRA-LIGAND FREE ENERGY PREDICTED BY IDOCK:   -0.18 KCAL/MOL
REMARK 927      BINDING AFFINITY PREDICTED BY RF-SCORE:    0.00 PKD
ROOT
HETATM    1  C   UNL     1     -11.494  15.074  64.550  1.00  0.00    -0.318 C  
HETATM    2  N   UNL     1     -12.533  14.272  63.917  1.00  0.00    -0.969 NA 
HETATM    3  H   UNL     1     -12.976  14.773  63.146  1.00  0.00     0.000 HD 
ENDROOT
BRANCH   2   4
HETATM    4  C   UNL     1     -12.008  12.965  63.484  1.00  0.00    -0.556 C  
BRANCH   4   5
HETATM    5  C   UNL     1     -10.604  12.610  64.050  1.00  0.00    -0.427 C  
HETATM    6  H   UNL     1      -8.957  11.897  63.303  1.00  0.00     0.000 HD 
HETATM    7  O   UNL     1      -9.815  12.114  62.958  1.00  0.00    -0.365 OA 
BRANCH   5   8
HETATM    8  C   UNL     1     -10.611  11.610  65.199  1.00  0.00    -0.343 A  
HETATM    9  C   UNL     1     -11.429  11.773  66.333  1.00  0.00    -0.309 A  
HETATM   10  C   UNL     1     -11.393  10.833  67.364  1.00  0.00    -0.160 A  
HETATM   11  O   UNL     1     -12.195  10.951  68.461  1.00  0.00    -0.799 OA 
HETATM   12  C   UNL     1     -10.539   9.741  67.309  1.00  0.00    -0.320 A  
HETATM   13  H   UNL     1     -12.171  10.312  69.163  1.00  0.00     0.000 HD 
HETATM   14  C   UNL     1      -9.731   9.559  66.192  1.00  0.00    -0.324 A  
HETATM   15  C   UNL     1      -9.788  10.472  65.136  1.00  0.00    -0.359 A  
ENDBRANCH   5   8
ENDBRANCH   4   5
ENDBRANCH   2   4
TORSDOF 3
ENDMDL
MODEL       25
REMARK 921   NORMALIZED FREE ENERGY PREDICTED BY IDOCK:   -4.45 KCAL/MOL
REMARK 922        TOTAL FREE ENERGY PREDICTED BY IDOCK:   -5.43 KCAL/MOL
REMARK 923 INTER-LIGAND FREE ENERGY PREDICTED BY IDOCK:   -5.37 KCAL/MOL
REMARK 924 INTRA-LIGAND FREE ENERGY PREDICTED BY IDOCK:   -0.06 KCAL/MOL
REMARK 927      BINDING AFFINITY PREDICTED BY RF-SCORE:    0.00 PKD
ROOT
HETATM    1  C   UNL     1     -10.840  16.883  65.130  1.00  0.00    -0.094 C  
HETATM    2  N   UNL     1     -11.517  16.256  64.002  1.00  0.00    -1.521 NA 
HETATM    3  H   UNL     1     -10.851  15.917  63.307  1.00  0.00     0.000 HD 
ENDROOT
BRANCH   2   4
HETATM    4  C   UNL     1     -12.424  15.185  64.454  1.00  0.00    -0.089 C  
BRANCH   4   5
HETATM    5  C   UNL     1     -11.735  13.814  64.704  1.00  0.00    -0.395 C  
HETATM    6  H   UNL     1     -11.959  12.012  64.009  1.00  0.00     0.000 HD 
HETATM    7  O   UNL     1     -12.380  12.851  63.857  1.00  0.00    -0.527 OA 
BRANCH   5   8
HETATM    8  C   UNL     1     -11.751  13.345  66.152  1.00  0.00    -0.405 A  
HETATM    9  C   UNL     1     -11.796  11.982  66.502  1.00  0.00    -0.237 A  
HETATM   10  C   UNL     1     -11.818  11.603  67.844  1.00  0.00    -0.203 A  
HETATM   11  O   UNL     1     -11.833  10.289  68.211  1.00  0.00    -0.734 OA 
HETATM   12  C   UNL     1     -11.823  12.551  68.858  1.00  0.00    -0.346 A  
HETATM   13  H   UNL     1     -11.849  10.030  69.125  1.00  0.00     0.000 HD 
HETATM   14  C   UNL     1     -11.769  13.902  68.531  1.00  0.00    -0.390 A  
HETATM   15  C   UNL     1     -11.706  14.291  67.192  1.00  0.00    -0.430 A  
ENDBRANCH   5   8
ENDBRANCH   4   5
ENDBRANCH   2   4
TORSDOF 3
ENDMDL
MODEL       26
REMARK 921   NORMALIZED FREE ENERGY PREDICTED BY IDOCK:   -4.43 KCAL/MOL
REMARK 922        TOTAL FREE ENERGY PREDICTED BY IDOCK:   -5.41 KCAL/MOL
REMARK 923 INTER-LIGAND FREE ENERGY PREDICTED BY IDOCK:   -5.23 KCAL/MOL
REMARK 924 INTRA-LIGAND FREE ENERGY PREDICTED BY IDOCK:   -0.18 KCAL/MOL
REMARK 927      BINDING AFFINITY PREDICTED BY RF-SCORE:    0.00 PKD
ROOT
HETATM    1  C   UNL     1     -10.629  15.737  65.226  1.00  0.00    -0.423 C  
HETATM    2  N   UNL     1     -11.595  15.401  64.188  1.00  0.00    -0.804 NA 
HETATM    3  H   UNL     1     -11.149  15.313  63.275  1.00  0.00     0.000 HD 
ENDROOT
BRANCH   2   4
HETATM    4  C   UNL     1     -12.356  14.189  64.541  1.00  0.00    -0.392 C  
BRANCH   4   5
HETATM    5  C   UNL     1     -11.793  12.871  63.937  1.00  0.00    -0.473 C  
HETATM    6  H   UNL     1     -12.513  11.440  62.837  1.00  0.00     0.000 HD 
HETATM    7  O   UNL     1     -12.858  12.245  63.206  1.00  0.00    -0.719 OA 
BRANCH   5   8
HETATM    8  C   UNL     1     -11.204  11.902  64.954  1.00  0.00    -0.350 A  
HETATM    9  C   UNL     1     -10.436  10.786  64.573  1.00  0.00    -0.351 A  
HETATM   10  C   UNL     1      -9.926   9.922  65.543  1.00  0.00    -0.292 A  
HETATM   11  O   UNL     1      -9.155   8.849  65.204  1.00  0.00    -0.355 OA 
HETATM   12  C   UNL     1     -10.182  10.126  66.892  1.00  0.00    -0.295 A  
HETATM   13  H   UNL     1      -8.808   8.261  65.864  1.00  0.00     0.000 HD 
HETATM   14  C   UNL     1     -10.932  11.229  67.287  1.00  0.00    -0.342 A  
HETATM   15  C   UNL     1     -11.413  12.122  66.328  1.00  0.00    -0.433 A  
ENDBRANCH   5   8
ENDBRANCH   4   5
ENDBRANCH   2   4
TORSDOF 3
ENDMDL
MODEL       27
REMARK 921   NORMALIZED FREE ENERGY PREDICTED BY IDOCK:   -4.39 KCAL/MOL
REMARK 922        TOTAL FREE ENERGY PREDICTED BY IDOCK:   -5.36 KCAL/MOL
REMARK 923 INTER-LIGAND FREE ENERGY PREDICTED BY IDOCK:   -5.17 KCAL/MOL
REMARK 924 INTRA-LIGAND FREE ENERGY PREDICTED BY IDOCK:   -0.19 KCAL/MOL
REMARK 927      BINDING AFFINITY PREDICTED BY RF-SCORE:    0.00 PKD
ROOT
HETATM    1  C   UNL     1     -10.166  11.770  63.436  1.00  0.00    -0.449 C  
HETATM    2  N   UNL     1     -11.329  12.603  63.157  1.00  0.00    -0.769 NA 
HETATM    3  H   UNL     1     -11.725  12.399  62.240  1.00  0.00     0.000 HD 
ENDROOT
BRANCH   2   4
HETATM    4  C   UNL     1     -12.338  12.483  64.224  1.00  0.00    -0.456 C  
BRANCH   4   5
HETATM    5  C   UNL     1     -12.662  13.811  64.964  1.00  0.00    -0.336 C  
HETATM    6  H   UNL     1     -12.845  15.673  64.438  1.00  0.00     0.000 HD 
HETATM    7  O   UNL     1     -12.647  14.861  63.985  1.00  0.00    -0.832 OA 
BRANCH   5   8
HETATM    8  C   UNL     1     -11.726  14.145  66.118  1.00  0.00    -0.402 A  
HETATM    9  C   UNL     1     -11.864  13.562  67.392  1.00  0.00    -0.423 A  
HETATM   10  C   UNL     1     -10.986  13.908  68.420  1.00  0.00    -0.253 A  
HETATM   11  O   UNL     1     -11.079  13.337  69.656  1.00  0.00    -0.456 OA 
HETATM   12  C   UNL     1      -9.982  14.845  68.221  1.00  0.00    -0.222 A  
HETATM   13  H   UNL     1     -10.482  13.573  70.356  1.00  0.00     0.000 HD 
HETATM   14  C   UNL     1      -9.825  15.424  66.966  1.00  0.00    -0.236 A  
HETATM   15  C   UNL     1     -10.673  15.056  65.920  1.00  0.00    -0.337 A  
ENDBRANCH   5   8
ENDBRANCH   4   5
ENDBRANCH   2   4
TORSDOF 3
ENDMDL
MODEL       28
REMARK 921   NORMALIZED FREE ENERGY PREDICTED BY IDOCK:   -4.38 KCAL/MOL
REMARK 922        TOTAL FREE ENERGY PREDICTED BY IDOCK:   -5.35 KCAL/MOL
REMARK 923 INTER-LIGAND FREE ENERGY PREDICTED BY IDOCK:   -5.24 KCAL/MOL
REMARK 924 INTRA-LIGAND FREE ENERGY PREDICTED BY IDOCK:   -0.12 KCAL/MOL
REMARK 927      BINDING AFFINITY PREDICTED BY RF-SCORE:    0.00 PKD
ROOT
HETATM    1  C   UNL     1     -11.851  10.485  70.484  1.00  0.00    -0.347 C  
HETATM    2  N   UNL     1     -12.276  10.701  69.107  1.00  0.00    -0.731 NA 
HETATM    3  H   UNL     1     -13.275  10.528  68.992  1.00  0.00     0.000 HD 
ENDROOT
BRANCH   2   4
HETATM    4  C   UNL     1     -11.900  12.047  68.638  1.00  0.00    -0.311 C  
BRANCH   4   5
HETATM    5  C   UNL     1     -10.725  12.074  67.620  1.00  0.00    -0.217 C  
HETATM    6  H   UNL     1      -9.137  13.168  67.378  1.00  0.00     0.000 HD 
HETATM    7  O   UNL     1      -9.855  13.151  68.000  1.00  0.00    -0.217 OA 
BRANCH   5   8
HETATM    8  C   UNL     1     -11.144  12.217  66.163  1.00  0.00    -0.354 A  
HETATM    9  C   UNL     1     -10.561  11.454  65.134  1.00  0.00    -0.352 A  
HETATM   10  C   UNL     1     -10.973  11.628  63.812  1.00  0.00    -0.422 A  
HETATM   11  O   UNL     1     -10.444  10.882  62.799  1.00  0.00    -0.772 OA 
HETATM   12  C   UNL     1     -11.940  12.566  63.480  1.00  0.00    -0.629 A  
HETATM   13  H   UNL     1     -10.724  11.000  61.899  1.00  0.00     0.000 HD 
HETATM   14  C   UNL     1     -12.534  13.322  64.485  1.00  0.00    -0.381 A  
HETATM   15  C   UNL     1     -12.158  13.127  65.815  1.00  0.00    -0.502 A  
ENDBRANCH   5   8
ENDBRANCH   4   5
ENDBRANCH   2   4
TORSDOF 3
ENDMDL
MODEL       29
REMARK 921   NORMALIZED FREE ENERGY PREDICTED BY IDOCK:   -4.37 KCAL/MOL
REMARK 922        TOTAL FREE ENERGY PREDICTED BY IDOCK:   -5.34 KCAL/MOL
REMARK 923 INTER-LIGAND FREE ENERGY PREDICTED BY IDOCK:   -5.14 KCAL/MOL
REMARK 924 INTRA-LIGAND FREE ENERGY PREDICTED BY IDOCK:   -0.20 KCAL/MOL
REMARK 927      BINDING AFFINITY PREDICTED BY RF-SCORE:    0.00 PKD
ROOT
HETATM    1  C   UNL     1      -8.341  10.873  68.855  1.00  0.00    -0.139 C  
HETATM    2  N   UNL     1      -9.600  11.378  69.385  1.00  0.00    -0.325 NA 
HETATM    3  H   UNL     1      -9.505  11.677  70.356  1.00  0.00     0.000 HD 
ENDROOT
BRANCH   2   4
HETATM    4  C   UNL     1     -10.142  12.455  68.536  1.00  0.00    -0.185 C  
BRANCH   4   5
HETATM    5  C   UNL     1     -11.453  12.090  67.784  1.00  0.00    -0.325 C  
HETATM    6  H   UNL     1     -12.680  10.583  67.804  1.00  0.00     0.000 HD 
HETATM    7  O   UNL     1     -11.879  10.806  68.263  1.00  0.00    -0.504 OA 
BRANCH   5   8
HETATM    8  C   UNL     1     -11.338  12.081  66.265  1.00  0.00    -0.415 A  
HETATM    9  C   UNL     1     -11.998  13.022  65.454  1.00  0.00    -0.457 A  
HETATM   10  C   UNL     1     -11.869  12.966  64.066  1.00  0.00    -0.443 A  
HETATM   11  O   UNL     1     -12.475  13.883  63.258  1.00  0.00    -1.113 OA 
HETATM   12  C   UNL     1     -11.114  11.975  63.456  1.00  0.00    -0.519 A  
HETATM   13  H   UNL     1     -12.387  13.845  62.313  1.00  0.00     0.000 HD 
HETATM   14  C   UNL     1     -10.446  11.041  64.242  1.00  0.00    -0.427 A  
HETATM   15  C   UNL     1     -10.536  11.113  65.634  1.00  0.00    -0.286 A  
ENDBRANCH   5   8
ENDBRANCH   4   5
ENDBRANCH   2   4
TORSDOF 3
ENDMDL
MODEL       30
REMARK 921   NORMALIZED FREE ENERGY PREDICTED BY IDOCK:   -4.37 KCAL/MOL
REMARK 922        TOTAL FREE ENERGY PREDICTED BY IDOCK:   -5.33 KCAL/MOL
REMARK 923 INTER-LIGAND FREE ENERGY PREDICTED BY IDOCK:   -5.19 KCAL/MOL
REMARK 924 INTRA-LIGAND FREE ENERGY PREDICTED BY IDOCK:   -0.14 KCAL/MOL
REMARK 927      BINDING AFFINITY PREDICTED BY RF-SCORE:    0.00 PKD
ROOT
HETATM    1  C   UNL     1     -10.263  17.873  68.183  1.00  0.00    -0.382 C  
HETATM    2  N   UNL     1     -10.862  16.564  67.957  1.00  0.00    -0.344 NA 
HETATM    3  H   UNL     1     -10.891  16.331  66.964  1.00  0.00     0.000 HD 
ENDROOT
BRANCH   2   4
HETATM    4  C   UNL     1     -10.174  15.521  68.740  1.00  0.00    -0.212 C  
BRANCH   4   5
HETATM    5  C   UNL     1     -11.084  14.347  69.197  1.00  0.00    -0.265 C  
HETATM    6  H   UNL     1     -12.616  13.417  68.445  1.00  0.00     0.000 HD 
HETATM    7  O   UNL     1     -12.060  14.134  68.166  1.00  0.00    -0.343 OA 
BRANCH   5   8
HETATM    8  C   UNL     1     -11.767  14.553  70.542  1.00  0.00    -0.338 A  
HETATM    9  C   UNL     1     -12.735  13.660  71.040  1.00  0.00    -0.408 A  
HETATM   10  C   UNL     1     -13.339  13.898  72.275  1.00  0.00    -0.503 A  
HETATM   11  O   UNL     1     -14.259  13.035  72.793  1.00  0.00    -0.708 OA 
HETATM   12  C   UNL     1     -13.022  15.022  73.024  1.00  0.00    -0.590 A  
HETATM   13  H   UNL     1     -14.671  13.197  73.634  1.00  0.00     0.000 HD 
HETATM   14  C   UNL     1     -12.061  15.910  72.552  1.00  0.00    -0.611 A  
HETATM   15  C   UNL     1     -11.421  15.661  71.336  1.00  0.00    -0.488 A  
ENDBRANCH   5   8
ENDBRANCH   4   5
ENDBRANCH   2   4
TORSDOF 3
ENDMDL
MODEL       31
REMARK 921   NORMALIZED FREE ENERGY PREDICTED BY IDOCK:   -4.36 KCAL/MOL
REMARK 922        TOTAL FREE ENERGY PREDICTED BY IDOCK:   -5.32 KCAL/MOL
REMARK 923 INTER-LIGAND FREE ENERGY PREDICTED BY IDOCK:   -5.22 KCAL/MOL
REMARK 924 INTRA-LIGAND FREE ENERGY PREDICTED BY IDOCK:   -0.10 KCAL/MOL
REMARK 927      BINDING AFFINITY PREDICTED BY RF-SCORE:    0.00 PKD
ROOT
HETATM    1  C   UNL     1     -10.670  19.373  66.862  1.00  0.00    -0.465 C  
HETATM    2  N   UNL     1     -10.613  18.526  65.677  1.00  0.00    -0.589 NA 
HETATM    3  H   UNL     1      -9.803  18.746  65.097  1.00  0.00     0.000 HD 
ENDROOT
BRANCH   2   4
HETATM    4  C   UNL     1     -10.649  17.098  66.041  1.00  0.00    -0.204 C  
BRANCH   4   5
HETATM    5  C   UNL     1     -10.695  16.121  64.833  1.00  0.00    -0.274 C  
HETATM    6  H   UNL     1     -11.701  16.028  63.173  1.00  0.00     0.000 HD 
HETATM    7  O   UNL     1     -11.673  16.625  63.911  1.00  0.00    -1.153 OA 
BRANCH   5   8
HETATM    8  C   UNL     1     -10.998  14.672  65.192  1.00  0.00    -0.395 A  
HETATM    9  C   UNL     1     -10.269  13.971  66.171  1.00  0.00    -0.308 A  
HETATM   10  C   UNL     1     -10.580  12.641  66.458  1.00  0.00    -0.253 A  
HETATM   11  O   UNL     1      -9.908  11.947  67.421  1.00  0.00    -0.182 OA 
HETATM   12  C   UNL     1     -11.589  11.977  65.775  1.00  0.00    -0.353 A  
HETATM   13  H   UNL     1     -10.120  11.041  67.616  1.00  0.00     0.000 HD 
HETATM   14  C   UNL     1     -12.326  12.657  64.811  1.00  0.00    -0.556 A  
HETATM   15  C   UNL     1     -12.050  14.000  64.544  1.00  0.00    -0.484 A  
ENDBRANCH   5   8
ENDBRANCH   4   5
ENDBRANCH   2   4
TORSDOF 3
ENDMDL
MODEL       32
REMARK 921   NORMALIZED FREE ENERGY PREDICTED BY IDOCK:   -4.36 KCAL/MOL
REMARK 922        TOTAL FREE ENERGY PREDICTED BY IDOCK:   -5.32 KCAL/MOL
REMARK 923 INTER-LIGAND FREE ENERGY PREDICTED BY IDOCK:   -5.19 KCAL/MOL
REMARK 924 INTRA-LIGAND FREE ENERGY PREDICTED BY IDOCK:   -0.13 KCAL/MOL
REMARK 927      BINDING AFFINITY PREDICTED BY RF-SCORE:    0.00 PKD
ROOT
HETATM    1  C   UNL     1     -14.345  15.254  71.836  1.00  0.00    -0.589 C  
HETATM    2  N   UNL     1     -13.583  15.305  70.595  1.00  0.00    -0.742 NA 
HETATM    3  H   UNL     1     -13.141  16.215  70.463  1.00  0.00     0.000 HD 
ENDROOT
BRANCH   2   4
HETATM    4  C   UNL     1     -12.598  14.209  70.530  1.00  0.00    -0.342 C  
BRANCH   4   5
HETATM    5  C   UNL     1     -11.426  14.448  69.537  1.00  0.00    -0.288 C  
HETATM    6  H   UNL     1     -10.616  16.010  68.711  1.00  0.00     0.000 HD 
HETATM    7  O   UNL     1     -11.332  15.864  69.318  1.00  0.00    -0.308 OA 
BRANCH   5   8
HETATM    8  C   UNL     1     -11.552  13.712  68.210  1.00  0.00    -0.374 A  
HETATM    9  C   UNL     1     -12.269  14.241  67.120  1.00  0.00    -0.312 A  
HETATM   10  C   UNL     1     -12.363  13.523  65.927  1.00  0.00    -0.456 A  
HETATM   11  O   UNL     1     -13.027  14.025  64.846  1.00  0.00    -0.707 OA 
HETATM   12  C   UNL     1     -11.780  12.271  65.796  1.00  0.00    -0.445 A  
HETATM   13  H   UNL     1     -13.091  13.536  64.034  1.00  0.00     0.000 HD 
HETATM   14  C   UNL     1     -11.060  11.736  66.859  1.00  0.00    -0.361 A  
HETATM   15  C   UNL     1     -10.926  12.464  68.044  1.00  0.00    -0.262 A  
ENDBRANCH   5   8
ENDBRANCH   4   5
ENDBRANCH   2   4
TORSDOF 3
ENDMDL
MODEL       33
REMARK 921   NORMALIZED FREE ENERGY PREDICTED BY IDOCK:   -4.35 KCAL/MOL
REMARK 922        TOTAL FREE ENERGY PREDICTED BY IDOCK:   -5.32 KCAL/MOL
REMARK 923 INTER-LIGAND FREE ENERGY PREDICTED BY IDOCK:   -5.21 KCAL/MOL
REMARK 924 INTRA-LIGAND FREE ENERGY PREDICTED BY IDOCK:   -0.11 KCAL/MOL
REMARK 927      BINDING AFFINITY PREDICTED BY RF-SCORE:    0.00 PKD
ROOT
HETATM    1  C   UNL     1     -14.060   8.652  71.989  1.00  0.00    -0.453 C  
HETATM    2  N   UNL     1     -13.559   9.466  70.889  1.00  0.00    -0.574 NA 
HETATM    3  H   UNL     1     -14.318   9.804  70.297  1.00  0.00     0.000 HD 
ENDROOT
BRANCH   2   4
HETATM    4  C   UNL     1     -12.721  10.573  71.384  1.00  0.00    -0.442 C  
BRANCH   4   5
HETATM    5  C   UNL     1     -12.582  11.770  70.402  1.00  0.00    -0.105 C  
HETATM    6  H   UNL     1     -11.273  12.320  69.075  1.00  0.00     0.000 HD 
HETATM    7  O   UNL     1     -11.359  11.588  69.675  1.00  0.00    -0.266 OA 
BRANCH   5   8
HETATM    8  C   UNL     1     -12.611  13.144  71.060  1.00  0.00    -0.397 A  
HETATM    9  C   UNL     1     -12.010  14.273  70.472  1.00  0.00    -0.402 A  
HETATM   10  C   UNL     1     -12.055  15.508  71.119  1.00  0.00    -0.380 A  
HETATM   11  O   UNL     1     -11.506  16.624  70.559  1.00  0.00    -0.501 OA 
HETATM   12  C   UNL     1     -12.665  15.647  72.358  1.00  0.00    -0.509 A  
HETATM   13  H   UNL     1     -11.537  17.465  71.000  1.00  0.00     0.000 HD 
HETATM   14  C   UNL     1     -13.272  14.544  72.950  1.00  0.00    -0.612 A  
HETATM   15  C   UNL     1     -13.267  13.312  72.293  1.00  0.00    -0.567 A  
ENDBRANCH   5   8
ENDBRANCH   4   5
ENDBRANCH   2   4
TORSDOF 3
ENDMDL
MODEL       34
REMARK 921   NORMALIZED FREE ENERGY PREDICTED BY IDOCK:   -4.30 KCAL/MOL
REMARK 922        TOTAL FREE ENERGY PREDICTED BY IDOCK:   -5.25 KCAL/MOL
REMARK 923 INTER-LIGAND FREE ENERGY PREDICTED BY IDOCK:   -5.13 KCAL/MOL
REMARK 924 INTRA-LIGAND FREE ENERGY PREDICTED BY IDOCK:   -0.13 KCAL/MOL
REMARK 927      BINDING AFFINITY PREDICTED BY RF-SCORE:    0.00 PKD
ROOT
HETATM    1  C   UNL     1     -13.733   6.872  71.596  1.00  0.00    -0.160 C  
HETATM    2  N   UNL     1     -14.213   8.114  71.006  1.00  0.00    -0.650 NA 
HETATM    3  H   UNL     1     -15.233   8.142  70.967  1.00  0.00     0.000 HD 
ENDROOT
BRANCH   2   4
HETATM    4  C   UNL     1     -13.665   9.287  71.711  1.00  0.00    -0.377 C  
BRANCH   4   5
HETATM    5  C   UNL     1     -12.469   9.975  70.994  1.00  0.00    -0.362 C  
HETATM    6  H   UNL     1     -10.537   9.948  71.201  1.00  0.00     0.000 HD 
HETATM    7  O   UNL     1     -11.267   9.527  71.639  1.00  0.00    -0.378 OA 
BRANCH   5   8
HETATM    8  C   UNL     1     -12.527  11.496  70.971  1.00  0.00    -0.458 A  
HETATM    9  C   UNL     1     -13.206  12.239  71.956  1.00  0.00    -0.508 A  
HETATM   10  C   UNL     1     -13.238  13.632  71.886  1.00  0.00    -0.411 A  
HETATM   11  O   UNL     1     -13.864  14.377  72.842  1.00  0.00    -0.589 OA 
HETATM   12  C   UNL     1     -12.629  14.312  70.840  1.00  0.00    -0.426 A  
HETATM   13  H   UNL     1     -13.886  15.326  72.794  1.00  0.00     0.000 HD 
HETATM   14  C   UNL     1     -11.945  13.595  69.864  1.00  0.00    -0.415 A  
HETATM   15  C   UNL     1     -11.873  12.203  69.946  1.00  0.00    -0.392 A  
ENDBRANCH   5   8
ENDBRANCH   4   5
ENDBRANCH   2   4
TORSDOF 3
ENDMDL
MODEL       35
REMARK 921   NORMALIZED FREE ENERGY PREDICTED BY IDOCK:   -4.27 KCAL/MOL
REMARK 922        TOTAL FREE ENERGY PREDICTED BY IDOCK:   -5.22 KCAL/MOL
REMARK 923 INTER-LIGAND FREE ENERGY PREDICTED BY IDOCK:   -5.07 KCAL/MOL
REMARK 924 INTRA-LIGAND FREE ENERGY PREDICTED BY IDOCK:   -0.15 KCAL/MOL
REMARK 927      BINDING AFFINITY PREDICTED BY RF-SCORE:    0.00 PKD
ROOT
HETATM    1  C   UNL     1      -9.858  11.698  63.107  1.00  0.00    -0.382 C  
HETATM    2  N   UNL     1     -11.193  12.281  63.059  1.00  0.00    -0.632 NA 
HETATM    3  H   UNL     1     -11.813  11.748  62.449  1.00  0.00     0.000 HD 
ENDROOT
BRANCH   2   4
HETATM    4  C   UNL     1     -11.759  12.429  64.412  1.00  0.00    -0.366 C  
BRANCH   4   5
HETATM    5  C   UNL     1     -12.300  13.849  64.737  1.00  0.00    -0.400 C  
HETATM    6  H   UNL     1     -12.784  15.413  63.690  1.00  0.00     0.000 HD 
HETATM    7  O   UNL     1     -12.453  14.545  63.491  1.00  0.00    -0.727 OA 
BRANCH   5   8
HETATM    8  C   UNL     1     -11.437  14.659  65.696  1.00  0.00    -0.340 A  
HETATM    9  C   UNL     1     -10.446  15.552  65.246  1.00  0.00    -0.437 A  
HETATM   10  C   UNL     1      -9.674  16.264  66.165  1.00  0.00    -0.329 A  
HETATM   11  O   UNL     1      -8.727  17.157  65.756  1.00  0.00    -0.527 OA 
HETATM   12  C   UNL     1      -9.845  16.091  67.531  1.00  0.00    -0.235 A  
HETATM   13  H   UNL     1      -8.202  17.642  66.382  1.00  0.00     0.000 HD 
HETATM   14  C   UNL     1     -10.825  15.220  67.994  1.00  0.00    -0.288 A  
HETATM   15  C   UNL     1     -11.630  14.532  67.083  1.00  0.00    -0.406 A  
ENDBRANCH   5   8
ENDBRANCH   4   5
ENDBRANCH   2   4
TORSDOF 3
ENDMDL
MODEL       36
REMARK 921   NORMALIZED FREE ENERGY PREDICTED BY IDOCK:   -4.26 KCAL/MOL
REMARK 922        TOTAL FREE ENERGY PREDICTED BY IDOCK:   -5.21 KCAL/MOL
REMARK 923 INTER-LIGAND FREE ENERGY PREDICTED BY IDOCK:   -5.08 KCAL/MOL
REMARK 924 INTRA-LIGAND FREE ENERGY PREDICTED BY IDOCK:   -0.13 KCAL/MOL
REMARK 927      BINDING AFFINITY PREDICTED BY RF-SCORE:    0.00 PKD
ROOT
HETATM    1  C   UNL     1     -11.432  12.747  64.881  1.00  0.00    -0.320 C  
HETATM    2  N   UNL     1     -12.067  12.326  66.123  1.00  0.00    -0.627 NA 
HETATM    3  H   UNL     1     -11.873  11.346  66.330  1.00  0.00     0.000 HD 
ENDROOT
BRANCH   2   4
HETATM    4  C   UNL     1     -11.683  13.204  67.243  1.00  0.00    -0.374 C  
BRANCH   4   5
HETATM    5  C   UNL     1     -11.039  12.470  68.452  1.00  0.00    -0.258 C  
HETATM    6  H   UNL     1     -10.462  10.649  68.811  1.00  0.00     0.000 HD 
HETATM    7  O   UNL     1     -10.855  11.098  68.071  1.00  0.00    -0.194 OA 
BRANCH   5   8
HETATM    8  C   UNL     1     -11.830  12.561  69.751  1.00  0.00    -0.380 A  
HETATM    9  C   UNL     1     -12.206  11.420  70.484  1.00  0.00    -0.478 A  
HETATM   10  C   UNL     1     -12.939  11.555  71.664  1.00  0.00    -0.394 A  
HETATM   11  O   UNL     1     -13.292  10.469  72.409  1.00  0.00    -0.602 OA 
HETATM   12  C   UNL     1     -13.332  12.803  72.125  1.00  0.00    -0.593 A  
HETATM   13  H   UNL     1     -13.791  10.561  73.213  1.00  0.00     0.000 HD 
HETATM   14  C   UNL     1     -12.961  13.943  71.418  1.00  0.00    -0.430 A  
HETATM   15  C   UNL     1     -12.194  13.821  70.257  1.00  0.00    -0.429 A  
ENDBRANCH   5   8
ENDBRANCH   4   5
ENDBRANCH   2   4
TORSDOF 3
ENDMDL
MODEL       37
REMARK 921   NORMALIZED FREE ENERGY PREDICTED BY IDOCK:   -4.26 KCAL/MOL
REMARK 922        TOTAL FREE ENERGY PREDICTED BY IDOCK:   -5.20 KCAL/MOL
REMARK 923 INTER-LIGAND FREE ENERGY PREDICTED BY IDOCK:   -5.09 KCAL/MOL
REMARK 924 INTRA-LIGAND FREE ENERGY PREDICTED BY IDOCK:   -0.11 KCAL/MOL
REMARK 927      BINDING AFFINITY PREDICTED BY RF-SCORE:    0.00 PKD
ROOT
HETATM    1  C   UNL     1     -12.416  12.194  63.438  1.00  0.00    -0.512 C  
HETATM    2  N   UNL     1     -12.193  13.624  63.275  1.00  0.00    -1.063 NA 
HETATM    3  H   UNL     1     -12.870  14.039  62.634  1.00  0.00     0.000 HD 
ENDROOT
BRANCH   2   4
HETATM    4  C   UNL     1     -12.185  14.314  64.578  1.00  0.00    -0.455 C  
BRANCH   4   5
HETATM    5  C   UNL     1     -10.769  14.654  65.124  1.00  0.00    -0.414 C  
HETATM    6  H   UNL     1      -9.456  13.731  66.221  1.00  0.00     0.000 HD 
HETATM    7  O   UNL     1     -10.322  13.524  65.887  1.00  0.00    -0.286 OA 
BRANCH   5   8
HETATM    8  C   UNL     1     -10.694  15.925  65.960  1.00  0.00    -0.289 A  
HETATM    9  C   UNL     1     -10.596  17.203  65.379  1.00  0.00    -0.116 A  
HETATM   10  C   UNL     1     -10.520  18.337  66.189  1.00  0.00    -0.383 A  
HETATM   11  O   UNL     1     -10.453  19.590  65.652  1.00  0.00    -0.456 OA 
HETATM   12  C   UNL     1     -10.514  18.232  67.572  1.00  0.00    -0.431 A  
HETATM   13  H   UNL     1     -10.401  20.362  66.203  1.00  0.00     0.000 HD 
HETATM   14  C   UNL     1     -10.620  16.977  68.164  1.00  0.00    -0.369 A  
HETATM   15  C   UNL     1     -10.737  15.839  67.363  1.00  0.00    -0.317 A  
ENDBRANCH   5   8
ENDBRANCH   4   5
ENDBRANCH   2   4
TORSDOF 3
ENDMDL
MODEL       38
REMARK 921   NORMALIZED FREE ENERGY PREDICTED BY IDOCK:   -4.25 KCAL/MOL
REMARK 922        TOTAL FREE ENERGY PREDICTED BY IDOCK:   -5.19 KCAL/MOL
REMARK 923 INTER-LIGAND FREE ENERGY PREDICTED BY IDOCK:   -5.06 KCAL/MOL
REMARK 924 INTRA-LIGAND FREE ENERGY PREDICTED BY IDOCK:   -0.14 KCAL/MOL
REMARK 927      BINDING AFFINITY PREDICTED BY RF-SCORE:    0.00 PKD
ROOT
HETATM    1  C   UNL     1     -12.116  12.708  63.226  1.00  0.00    -0.433 C  
HETATM    2  N   UNL     1     -12.277  14.014  63.852  1.00  0.00    -0.827 NA 
HETATM    3  H   UNL     1     -13.195  14.112  64.285  1.00  0.00     0.000 HD 
ENDROOT
BRANCH   2   4
HETATM    4  C   UNL     1     -11.192  14.282  64.813  1.00  0.00    -0.385 C  
BRANCH   4   5
HETATM    5  C   UNL     1     -11.670  14.703  66.231  1.00  0.00    -0.320 C  
HETATM    6  H   UNL     1     -11.117  16.035  67.533  1.00  0.00     0.000 HD 
HETATM    7  O   UNL     1     -10.825  15.778  66.667  1.00  0.00    -0.310 OA 
BRANCH   5   8
HETATM    8  C   UNL     1     -11.680  13.582  67.262  1.00  0.00    -0.423 A  
HETATM    9  C   UNL     1     -11.807  13.829  68.641  1.00  0.00    -0.409 A  
HETATM   10  C   UNL     1     -11.802  12.768  69.547  1.00  0.00    -0.316 A  
HETATM   11  O   UNL     1     -11.951  12.977  70.887  1.00  0.00    -0.476 OA 
HETATM   12  C   UNL     1     -11.647  11.458  69.117  1.00  0.00    -0.381 A  
HETATM   13  H   UNL     1     -11.947  12.254  71.504  1.00  0.00     0.000 HD 
HETATM   14  C   UNL     1     -11.530  11.194  67.756  1.00  0.00    -0.349 A  
HETATM   15  C   UNL     1     -11.574  12.245  66.838  1.00  0.00    -0.427 A  
ENDBRANCH   5   8
ENDBRANCH   4   5
ENDBRANCH   2   4
TORSDOF 3
ENDMDL
MODEL       39
REMARK 921   NORMALIZED FREE ENERGY PREDICTED BY IDOCK:   -4.24 KCAL/MOL
REMARK 922        TOTAL FREE ENERGY PREDICTED BY IDOCK:   -5.18 KCAL/MOL
REMARK 923 INTER-LIGAND FREE ENERGY PREDICTED BY IDOCK:   -5.06 KCAL/MOL
REMARK 924 INTRA-LIGAND FREE ENERGY PREDICTED BY IDOCK:   -0.12 KCAL/MOL
REMARK 927      BINDING AFFINITY PREDICTED BY RF-SCORE:    0.00 PKD
ROOT
HETATM    1  C   UNL     1      -9.921   8.716  69.394  1.00  0.00    -0.197 C  
HETATM    2  N   UNL     1     -11.268   9.268  69.314  1.00  0.00    -0.441 NA 
HETATM    3  H   UNL     1     -11.927   8.729  69.875  1.00  0.00     0.000 HD 
ENDROOT
BRANCH   2   4
HETATM    4  C   UNL     1     -11.281  10.695  69.682  1.00  0.00    -0.289 C  
BRANCH   4   5
HETATM    5  C   UNL     1     -12.112  11.030  70.953  1.00  0.00    -0.339 C  
HETATM    6  H   UNL     1     -13.748  10.347  71.750  1.00  0.00     0.000 HD 
HETATM    7  O   UNL     1     -13.240  10.143  70.973  1.00  0.00    -0.394 OA 
BRANCH   5   8
HETATM    8  C   UNL     1     -12.571  12.479  71.053  1.00  0.00    -0.350 A  
HETATM    9  C   UNL     1     -12.189  13.456  70.115  1.00  0.00    -0.385 A  
HETATM   10  C   UNL     1     -12.630  14.773  70.256  1.00  0.00    -0.315 A  
HETATM   11  O   UNL     1     -12.298  15.734  69.347  1.00  0.00    -0.532 OA 
HETATM   12  C   UNL     1     -13.425  15.153  71.328  1.00  0.00    -0.559 A  
HETATM   13  H   UNL     1     -12.597  16.631  69.443  1.00  0.00     0.000 HD 
HETATM   14  C   UNL     1     -13.820  14.198  72.260  1.00  0.00    -0.643 A  
HETATM   15  C   UNL     1     -13.418  12.869  72.106  1.00  0.00    -0.619 A  
ENDBRANCH   5   8
ENDBRANCH   4   5
ENDBRANCH   2   4
TORSDOF 3
ENDMDL
MODEL       40
REMARK 921   NORMALIZED FREE ENERGY PREDICTED BY IDOCK:   -4.24 KCAL/MOL
REMARK 922        TOTAL FREE ENERGY PREDICTED BY IDOCK:   -5.18 KCAL/MOL
REMARK 923 INTER-LIGAND FREE ENERGY PREDICTED BY IDOCK:   -5.05 KCAL/MOL
REMARK 924 INTRA-LIGAND FREE ENERGY PREDICTED BY IDOCK:   -0.13 KCAL/MOL
REMARK 927      BINDING AFFINITY PREDICTED BY RF-SCORE:    0.00 PKD
ROOT
HETATM    1  C   UNL     1     -11.204   6.509  70.057  1.00  0.00    -0.393 C  
HETATM    2  N   UNL     1     -12.346   7.300  70.495  1.00  0.00    -0.585 NA 
HETATM    3  H   UNL     1     -13.122   6.707  70.790  1.00  0.00     0.000 HD 
ENDROOT
BRANCH   2   4
HETATM    4  C   UNL     1     -11.960   8.253  71.551  1.00  0.00    -0.296 C  
BRANCH   4   5
HETATM    5  C   UNL     1     -13.099   9.204  72.015  1.00  0.00    -0.429 C  
HETATM    6  H   UNL     1     -15.028   9.261  71.782  1.00  0.00     0.000 HD 
HETATM    7  O   UNL     1     -14.332   8.680  71.499  1.00  0.00    -0.410 OA 
BRANCH   5   8
HETATM    8  C   UNL     1     -12.925  10.660  71.601  1.00  0.00    -0.582 A  
HETATM    9  C   UNL     1     -13.522  11.720  72.309  1.00  0.00    -0.143 A  
HETATM   10  C   UNL     1     -13.340  13.037  71.884  1.00  0.00    -0.446 A  
HETATM   11  O   UNL     1     -13.883  14.085  72.567  1.00  0.00    -0.555 OA 
HETATM   12  C   UNL     1     -12.595  13.329  70.750  1.00  0.00    -0.357 A  
HETATM   13  H   UNL     1     -13.760  14.982  72.278  1.00  0.00     0.000 HD 
HETATM   14  C   UNL     1     -11.990  12.294  70.044  1.00  0.00    -0.379 A  
HETATM   15  C   UNL     1     -12.133  10.976  70.483  1.00  0.00    -0.470 A  
ENDBRANCH   5   8
ENDBRANCH   4   5
ENDBRANCH   2   4
TORSDOF 3
ENDMDL
MODEL       41
REMARK 921   NORMALIZED FREE ENERGY PREDICTED BY IDOCK:   -4.23 KCAL/MOL
REMARK 922        TOTAL FREE ENERGY PREDICTED BY IDOCK:   -5.18 KCAL/MOL
REMARK 923 INTER-LIGAND FREE ENERGY PREDICTED BY IDOCK:   -5.08 KCAL/MOL
REMARK 924 INTRA-LIGAND FREE ENERGY PREDICTED BY IDOCK:   -0.10 KCAL/MOL
REMARK 927      BINDING AFFINITY PREDICTED BY RF-SCORE:    0.00 PKD
ROOT
HETATM    1  C   UNL     1     -12.232  13.508  66.297  1.00  0.00    -0.416 C  
HETATM    2  N   UNL     1     -11.700  14.688  66.966  1.00  0.00    -0.380 NA 
HETATM    3  H   UNL     1     -12.274  15.512  66.787  1.00  0.00     0.000 HD 
ENDROOT
BRANCH   2   4
HETATM    4  C   UNL     1     -11.529  14.449  68.411  1.00  0.00    -0.301 C  
BRANCH   4   5
HETATM    5  C   UNL     1     -11.866  15.669  69.314  1.00  0.00    -0.363 C  
HETATM    6  H   UNL     1     -10.931  17.286  69.852  1.00  0.00     0.000 HD 
HETATM    7  O   UNL     1     -10.725  16.541  69.300  1.00  0.00    -0.295 OA 
BRANCH   5   8
HETATM    8  C   UNL     1     -12.250  15.318  70.745  1.00  0.00    -0.411 A  
HETATM    9  C   UNL     1     -12.031  16.199  71.821  1.00  0.00    -0.560 A  
HETATM   10  C   UNL     1     -12.392  15.828  73.117  1.00  0.00    -0.483 A  
HETATM   11  O   UNL     1     -12.217  16.673  74.173  1.00  0.00    -0.512 OA 
HETATM   12  C   UNL     1     -12.947  14.583  73.377  1.00  0.00    -0.381 A  
HETATM   13  H   UNL     1     -12.463  16.420  75.055  1.00  0.00     0.000 HD 
HETATM   14  C   UNL     1     -13.180  13.703  72.325  1.00  0.00    -0.565 A  
HETATM   15  C   UNL     1     -12.859  14.080  71.020  1.00  0.00    -0.410 A  
ENDBRANCH   5   8
ENDBRANCH   4   5
ENDBRANCH   2   4
TORSDOF 3
ENDMDL
MODEL       42
REMARK 921   NORMALIZED FREE ENERGY PREDICTED BY IDOCK:   -4.22 KCAL/MOL
REMARK 922        TOTAL FREE ENERGY PREDICTED BY IDOCK:   -5.16 KCAL/MOL
REMARK 923 INTER-LIGAND FREE ENERGY PREDICTED BY IDOCK:   -5.04 KCAL/MOL
REMARK 924 INTRA-LIGAND FREE ENERGY PREDICTED BY IDOCK:   -0.11 KCAL/MOL
REMARK 927      BINDING AFFINITY PREDICTED BY RF-SCORE:    0.00 PKD
ROOT
HETATM    1  C   UNL     1     -12.192  16.869  74.514  1.00  0.00    -0.053 C  
HETATM    2  N   UNL     1     -13.296  16.156  73.885  1.00  0.00    -0.918 NA 
HETATM    3  H   UNL     1     -13.732  16.713  73.150  1.00  0.00     0.000 HD 
ENDROOT
BRANCH   2   4
HETATM    4  C   UNL     1     -12.863  14.839  73.384  1.00  0.00    -0.475 C  
BRANCH   4   5
HETATM    5  C   UNL     1     -13.619  14.346  72.118  1.00  0.00    -0.435 C  
HETATM    6  H   UNL     1     -14.726  12.807  71.686  1.00  0.00     0.000 HD 
HETATM    7  O   UNL     1     -14.264  13.109  72.459  1.00  0.00    -0.654 OA 
BRANCH   5   8
HETATM    8  C   UNL     1     -12.748  14.169  70.882  1.00  0.00    -0.432 A  
HETATM    9  C   UNL     1     -12.330  15.258  70.094  1.00  0.00    -0.392 A  
HETATM   10  C   UNL     1     -11.539  15.043  68.964  1.00  0.00    -0.319 A  
HETATM   11  O   UNL     1     -11.096  16.082  68.199  1.00  0.00    -0.332 OA 
HETATM   12  C   UNL     1     -11.172  13.762  68.578  1.00  0.00    -0.304 A  
HETATM   13  H   UNL     1     -10.559  15.936  67.430  1.00  0.00     0.000 HD 
HETATM   14  C   UNL     1     -11.569  12.674  69.350  1.00  0.00    -0.369 A  
HETATM   15  C   UNL     1     -12.326  12.881  70.505  1.00  0.00    -0.362 A  
ENDBRANCH   5   8
ENDBRANCH   4   5
ENDBRANCH   2   4
TORSDOF 3
ENDMDL
MODEL       43
REMARK 921   NORMALIZED FREE ENERGY PREDICTED BY IDOCK:   -4.21 KCAL/MOL
REMARK 922        TOTAL FREE ENERGY PREDICTED BY IDOCK:   -5.15 KCAL/MOL
REMARK 923 INTER-LIGAND FREE ENERGY PREDICTED BY IDOCK:   -4.97 KCAL/MOL
REMARK 924 INTRA-LIGAND FREE ENERGY PREDICTED BY IDOCK:   -0.18 KCAL/MOL
REMARK 927      BINDING AFFINITY PREDICTED BY RF-SCORE:    0.00 PKD
ROOT
HETATM    1  C   UNL     1     -11.305  14.224  66.902  1.00  0.00    -0.343 C  
HETATM    2  N   UNL     1      -9.910  14.402  66.520  1.00  0.00    -0.276 NA 
HETATM    3  H   UNL     1      -9.480  13.517  66.248  1.00  0.00     0.000 HD 
ENDROOT
BRANCH   2   4
HETATM    4  C   UNL     1      -9.772  15.420  65.463  1.00  0.00    -0.283 C  
BRANCH   4   5
HETATM    5  C   UNL     1     -10.703  16.654  65.626  1.00  0.00    -0.214 C  
HETATM    6  H   UNL     1     -11.794  17.726  64.426  1.00  0.00     0.000 HD 
HETATM    7  O   UNL     1     -11.225  16.972  64.326  1.00  0.00    -1.186 OA 
BRANCH   5   8
HETATM    8  C   UNL     1     -10.042  17.877  66.248  1.00  0.00    -0.351 A  
HETATM    9  C   UNL     1      -8.894  17.782  67.057  1.00  0.00    -0.260 A  
HETATM   10  C   UNL     1      -8.330  18.931  67.612  1.00  0.00    -0.272 A  
HETATM   11  O   UNL     1      -7.202  18.871  68.377  1.00  0.00    -0.260 OA 
HETATM   12  C   UNL     1      -8.896  20.181  67.403  1.00  0.00    -0.440 A  
HETATM   13  H   UNL     1      -6.818  19.653  68.755  1.00  0.00     0.000 HD 
HETATM   14  C   UNL     1     -10.025  20.295  66.598  1.00  0.00    -0.561 A  
HETATM   15  C   UNL     1     -10.574  19.156  66.005  1.00  0.00    -0.524 A  
ENDBRANCH   5   8
ENDBRANCH   4   5
ENDBRANCH   2   4
TORSDOF 3
ENDMDL
MODEL       44
REMARK 921   NORMALIZED FREE ENERGY PREDICTED BY IDOCK:   -4.20 KCAL/MOL
REMARK 922        TOTAL FREE ENERGY PREDICTED BY IDOCK:   -5.13 KCAL/MOL
REMARK 923 INTER-LIGAND FREE ENERGY PREDICTED BY IDOCK:   -4.99 KCAL/MOL
REMARK 924 INTRA-LIGAND FREE ENERGY PREDICTED BY IDOCK:   -0.14 KCAL/MOL
REMARK 927      BINDING AFFINITY PREDICTED BY RF-SCORE:    0.00 PKD
ROOT
HETATM    1  C   UNL     1     -11.617  12.199  63.653  1.00  0.00    -0.486 C  
HETATM    2  N   UNL     1     -11.677  13.649  63.779  1.00  0.00    -0.665 NA 
HETATM    3  H   UNL     1     -12.605  13.963  64.064  1.00  0.00     0.000 HD 
ENDROOT
BRANCH   2   4
HETATM    4  C   UNL     1     -10.632  14.148  64.691  1.00  0.00    -0.368 C  
BRANCH   4   5
HETATM    5  C   UNL     1     -11.045  15.385  65.537  1.00  0.00    -0.298 C  
HETATM    6  H   UNL     1     -10.253  17.117  65.926  1.00  0.00     0.000 HD 
HETATM    7  O   UNL     1     -10.000  16.361  65.409  1.00  0.00    -0.534 OA 
BRANCH   5   8
HETATM    8  C   UNL     1     -11.322  15.092  67.006  1.00  0.00    -0.319 A  
HETATM    9  C   UNL     1     -11.175  16.068  68.009  1.00  0.00    -0.303 A  
HETATM   10  C   UNL     1     -11.433  15.748  69.343  1.00  0.00    -0.355 A  
HETATM   11  O   UNL     1     -11.326  16.682  70.331  1.00  0.00    -0.493 OA 
HETATM   12  C   UNL     1     -11.811  14.465  69.712  1.00  0.00    -0.375 A  
HETATM   13  H   UNL     1     -11.501  16.463  71.239  1.00  0.00     0.000 HD 
HETATM   14  C   UNL     1     -11.970  13.489  68.733  1.00  0.00    -0.374 A  
HETATM   15  C   UNL     1     -11.754  13.810  67.391  1.00  0.00    -0.417 A  
ENDBRANCH   5   8
ENDBRANCH   4   5
ENDBRANCH   2   4
TORSDOF 3
ENDMDL
MODEL       45
REMARK 921   NORMALIZED FREE ENERGY PREDICTED BY IDOCK:   -4.19 KCAL/MOL
REMARK 922        TOTAL FREE ENERGY PREDICTED BY IDOCK:   -5.13 KCAL/MOL
REMARK 923 INTER-LIGAND FREE ENERGY PREDICTED BY IDOCK:   -5.00 KCAL/MOL
REMARK 924 INTRA-LIGAND FREE ENERGY PREDICTED BY IDOCK:   -0.13 KCAL/MOL
REMARK 927      BINDING AFFINITY PREDICTED BY RF-SCORE:    0.00 PKD
ROOT
HETATM    1  C   UNL     1     -12.399  14.164  65.163  1.00  0.00    -0.451 C  
HETATM    2  N   UNL     1     -12.582  13.851  66.575  1.00  0.00    -0.463 NA 
HETATM    3  H   UNL     1     -13.144  13.008  66.702  1.00  0.00     0.000 HD 
ENDROOT
BRANCH   2   4
HETATM    4  C   UNL     1     -11.287  13.750  67.270  1.00  0.00    -0.321 C  
BRANCH   4   5
HETATM    5  C   UNL     1     -11.278  14.329  68.713  1.00  0.00    -0.262 C  
HETATM    6  H   UNL     1      -9.908  14.967  69.935  1.00  0.00     0.000 HD 
HETATM    7  O   UNL     1      -9.913  14.613  69.053  1.00  0.00    -0.226 OA 
BRANCH   5   8
HETATM    8  C   UNL     1     -11.914  13.431  69.767  1.00  0.00    -0.396 A  
HETATM    9  C   UNL     1     -12.760  13.934  70.773  1.00  0.00    -0.383 A  
HETATM   10  C   UNL     1     -13.311  13.071  71.721  1.00  0.00    -0.378 A  
HETATM   11  O   UNL     1     -14.157  13.527  72.690  1.00  0.00    -0.762 OA 
HETATM   12  C   UNL     1     -13.020  11.714  71.712  1.00  0.00    -0.483 A  
HETATM   13  H   UNL     1     -14.532  12.940  73.336  1.00  0.00     0.000 HD 
HETATM   14  C   UNL     1     -12.193  11.199  70.719  1.00  0.00    -0.484 A  
HETATM   15  C   UNL     1     -11.669  12.047  69.741  1.00  0.00    -0.390 A  
ENDBRANCH   5   8
ENDBRANCH   4   5
ENDBRANCH   2   4
TORSDOF 3
ENDMDL
MODEL       46
REMARK 921   NORMALIZED FREE ENERGY PREDICTED BY IDOCK:   -4.17 KCAL/MOL
REMARK 922        TOTAL FREE ENERGY PREDICTED BY IDOCK:   -5.11 KCAL/MOL
REMARK 923 INTER-LIGAND FREE ENERGY PREDICTED BY IDOCK:   -4.93 KCAL/MOL
REMARK 924 INTRA-LIGAND FREE ENERGY PREDICTED BY IDOCK:   -0.18 KCAL/MOL
REMARK 927      BINDING AFFINITY PREDICTED BY RF-SCORE:    0.00 PKD
ROOT
HETATM    1  C   UNL     1      -9.891  11.028  62.835  1.00  0.00    -0.284 C  
HETATM    2  N   UNL     1     -11.320  11.217  63.044  1.00  0.00    -0.827 NA 
HETATM    3  H   UNL     1     -11.705  10.509  63.670  1.00  0.00     0.000 HD 
ENDROOT
BRANCH   2   4
HETATM    4  C   UNL     1     -11.613  12.581  63.522  1.00  0.00    -0.508 C  
BRANCH   4   5
HETATM    5  C   UNL     1     -12.272  12.648  64.928  1.00  0.00    -0.471 C  
HETATM    6  H   UNL     1     -13.563  13.817  65.792  1.00  0.00     0.000 HD 
HETATM    7  O   UNL     1     -13.160  13.776  64.932  1.00  0.00    -0.716 OA 
BRANCH   5   8
HETATM    8  C   UNL     1     -11.292  12.738  66.091  1.00  0.00    -0.371 A  
HETATM    9  C   UNL     1      -9.982  13.228  65.934  1.00  0.00    -0.280 A  
HETATM   10  C   UNL     1      -9.118  13.282  67.029  1.00  0.00    -0.232 A  
HETATM   11  O   UNL     1      -7.853  13.779  66.911  1.00  0.00    -0.364 OA 
HETATM   12  C   UNL     1      -9.517  12.834  68.280  1.00  0.00    -0.203 A  
HETATM   13  H   UNL     1      -7.265  13.816  67.656  1.00  0.00     0.000 HD 
HETATM   14  C   UNL     1     -10.811  12.355  68.455  1.00  0.00    -0.270 A  
HETATM   15  C   UNL     1     -11.696  12.334  67.376  1.00  0.00    -0.405 A  
ENDBRANCH   5   8
ENDBRANCH   4   5
ENDBRANCH   2   4
TORSDOF 3
ENDMDL
MODEL       47
REMARK 921   NORMALIZED FREE ENERGY PREDICTED BY IDOCK:   -4.17 KCAL/MOL
REMARK 922        TOTAL FREE ENERGY PREDICTED BY IDOCK:   -5.11 KCAL/MOL
REMARK 923 INTER-LIGAND FREE ENERGY PREDICTED BY IDOCK:   -4.93 KCAL/MOL
REMARK 924 INTRA-LIGAND FREE ENERGY PREDICTED BY IDOCK:   -0.18 KCAL/MOL
REMARK 927      BINDING AFFINITY PREDICTED BY RF-SCORE:    0.00 PKD
ROOT
HETATM    1  C   UNL     1     -11.903  12.501  69.313  1.00  0.00    -0.304 C  
HETATM    2  N   UNL     1     -10.453  12.592  69.201  1.00  0.00    -0.434 NA 
HETATM    3  H   UNL     1     -10.065  11.793  68.699  1.00  0.00     0.000 HD 
ENDROOT
BRANCH   2   4
HETATM    4  C   UNL     1     -10.046  13.869  68.587  1.00  0.00    -0.203 C  
BRANCH   4   5
HETATM    5  C   UNL     1      -9.406  13.736  67.177  1.00  0.00    -0.240 C  
HETATM    6  H   UNL     1      -8.061  14.719  66.175  1.00  0.00     0.000 HD 
HETATM    7  O   UNL     1      -8.452  14.800  67.037  1.00  0.00    -0.213 OA 
BRANCH   5   8
HETATM    8  C   UNL     1     -10.397  13.753  66.020  1.00  0.00    -0.311 A  
HETATM    9  C   UNL     1     -10.814  14.949  65.405  1.00  0.00    -0.379 A  
HETATM   10  C   UNL     1     -11.732  14.913  64.354  1.00  0.00    -0.328 A  
HETATM   11  O   UNL     1     -12.132  16.053  63.722  1.00  0.00    -1.318 OA 
HETATM   12  C   UNL     1     -12.269  13.712  63.912  1.00  0.00    -0.429 A  
HETATM   13  H   UNL     1     -12.757  16.029  63.006  1.00  0.00     0.000 HD 
HETATM   14  C   UNL     1     -11.861  12.521  64.502  1.00  0.00    -0.448 A  
HETATM   15  C   UNL     1     -10.913  12.542  65.527  1.00  0.00    -0.322 A  
ENDBRANCH   5   8
ENDBRANCH   4   5
ENDBRANCH   2   4
TORSDOF 3
ENDMDL
MODEL       48
REMARK 921   NORMALIZED FREE ENERGY PREDICTED BY IDOCK:   -4.16 KCAL/MOL
REMARK 922        TOTAL FREE ENERGY PREDICTED BY IDOCK:   -5.09 KCAL/MOL
REMARK 923 INTER-LIGAND FREE ENERGY PREDICTED BY IDOCK:   -4.94 KCAL/MOL
REMARK 924 INTRA-LIGAND FREE ENERGY PREDICTED BY IDOCK:   -0.15 KCAL/MOL
REMARK 927      BINDING AFFINITY PREDICTED BY RF-SCORE:    0.00 PKD
ROOT
HETATM    1  C   UNL     1     -12.162  12.838  63.251  1.00  0.00    -0.410 C  
HETATM    2  N   UNL     1     -12.373  14.107  63.936  1.00  0.00    -0.932 NA 
HETATM    3  H   UNL     1     -13.052  14.690  63.446  1.00  0.00     0.000 HD 
ENDROOT
BRANCH   2   4
HETATM    4  C   UNL     1     -12.756  13.895  65.344  1.00  0.00    -0.490 C  
BRANCH   4   5
HETATM    5  C   UNL     1     -11.619  13.342  66.249  1.00  0.00    -0.344 C  
HETATM    6  H   UNL     1     -11.456  11.877  67.516  1.00  0.00     0.000 HD 
HETATM    7  O   UNL     1     -12.150  12.215  66.962  1.00  0.00    -0.591 OA 
BRANCH   5   8
HETATM    8  C   UNL     1     -11.025  14.354  67.219  1.00  0.00    -0.301 A  
HETATM    9  C   UNL     1     -11.112  14.200  68.616  1.00  0.00    -0.283 A  
HETATM   10  C   UNL     1     -10.559  15.160  69.464  1.00  0.00    -0.270 A  
HETATM   11  O   UNL     1     -10.604  15.021  70.820  1.00  0.00    -0.532 OA 
HETATM   12  C   UNL     1      -9.938  16.293  68.956  1.00  0.00    -0.256 A  
HETATM   13  H   UNL     1     -10.228  15.675  71.397  1.00  0.00     0.000 HD 
HETATM   14  C   UNL     1      -9.834  16.458  67.579  1.00  0.00    -0.239 A  
HETATM   15  C   UNL     1     -10.349  15.483  66.722  1.00  0.00    -0.288 A  
ENDBRANCH   5   8
ENDBRANCH   4   5
ENDBRANCH   2   4
TORSDOF 3
ENDMDL
MODEL       49
REMARK 921   NORMALIZED FREE ENERGY PREDICTED BY IDOCK:   -4.14 KCAL/MOL
REMARK 922        TOTAL FREE ENERGY PREDICTED BY IDOCK:   -5.06 KCAL/MOL
REMARK 923 INTER-LIGAND FREE ENERGY PREDICTED BY IDOCK:   -4.89 KCAL/MOL
REMARK 924 INTRA-LIGAND FREE ENERGY PREDICTED BY IDOCK:   -0.17 KCAL/MOL
REMARK 927      BINDING AFFINITY PREDICTED BY RF-SCORE:    0.00 PKD
ROOT
HETATM    1  C   UNL     1     -11.210  16.340  69.861  1.00  0.00    -0.317 C  
HETATM    2  N   UNL     1     -11.433  16.466  71.296  1.00  0.00    -0.539 NA 
HETATM    3  H   UNL     1     -12.096  17.211  71.508  1.00  0.00     0.000 HD 
ENDROOT
BRANCH   2   4
HETATM    4  C   UNL     1     -11.853  15.181  71.884  1.00  0.00    -0.404 C  
BRANCH   4   5
HETATM    5  C   UNL     1     -12.936  14.418  71.070  1.00  0.00    -0.349 C  
HETATM    6  H   UNL     1     -14.869  14.247  71.168  1.00  0.00     0.000 HD 
HETATM    7  O   UNL     1     -14.208  14.713  71.665  1.00  0.00    -0.438 OA 
BRANCH   5   8
HETATM    8  C   UNL     1     -12.726  12.912  70.982  1.00  0.00    -0.338 A  
HETATM    9  C   UNL     1     -12.025  12.310  69.919  1.00  0.00    -0.377 A  
HETATM   10  C   UNL     1     -11.867  10.925  69.879  1.00  0.00    -0.349 A  
HETATM   11  O   UNL     1     -11.168  10.318  68.876  1.00  0.00    -0.282 OA 
HETATM   12  C   UNL     1     -12.414  10.111  70.861  1.00  0.00    -0.455 A  
HETATM   13  H   UNL     1     -11.061   9.375  68.848  1.00  0.00     0.000 HD 
HETATM   14  C   UNL     1     -13.102  10.689  71.923  1.00  0.00    -0.563 A  
HETATM   15  C   UNL     1     -13.231  12.078  71.995  1.00  0.00    -0.481 A  
ENDBRANCH   5   8
ENDBRANCH   4   5
ENDBRANCH   2   4
TORSDOF 3
ENDMDL
MODEL       50
REMARK 921   NORMALIZED FREE ENERGY PREDICTED BY IDOCK:   -4.14 KCAL/MOL
REMARK 922        TOTAL FREE ENERGY PREDICTED BY IDOCK:   -5.06 KCAL/MOL
REMARK 923 INTER-LIGAND FREE ENERGY PREDICTED BY IDOCK:   -4.92 KCAL/MOL
REMARK 924 INTRA-LIGAND FREE ENERGY PREDICTED BY IDOCK:   -0.14 KCAL/MOL
REMARK 927      BINDING AFFINITY PREDICTED BY RF-SCORE:    0.00 PKD
ROOT
HETATM    1  C   UNL     1     -12.109  12.438  63.362  1.00  0.00    -0.524 C  
HETATM    2  N   UNL     1     -12.295  13.880  63.467  1.00  0.00    -1.087 NA 
HETATM    3  H   UNL     1     -13.180  14.174  63.054  1.00  0.00     0.000 HD 
ENDROOT
BRANCH   2   4
HETATM    4  C   UNL     1     -12.169  14.333  64.864  1.00  0.00    -0.440 C  
BRANCH   4   5
HETATM    5  C   UNL     1     -11.620  15.778  65.030  1.00  0.00    -0.011 C  
HETATM    6  H   UNL     1     -11.175  17.231  63.818  1.00  0.00     0.000 HD 
HETATM    7  O   UNL     1     -11.510  16.348  63.717  1.00  0.00    -1.002 OA 
BRANCH   5   8
HETATM    8  C   UNL     1     -10.290  15.877  65.766  1.00  0.00    -0.396 A  
HETATM    9  C   UNL     1      -9.658  17.109  66.016  1.00  0.00    -0.190 A  
HETATM   10  C   UNL     1      -8.435  17.146  66.687  1.00  0.00    -0.250 A  
HETATM   11  O   UNL     1      -7.815  18.328  66.968  1.00  0.00    -0.215 OA 
HETATM   12  C   UNL     1      -7.806  15.979  67.097  1.00  0.00    -0.244 A  
HETATM   13  H   UNL     1      -6.982  18.354  67.424  1.00  0.00     0.000 HD 
HETATM   14  C   UNL     1      -8.421  14.753  66.867  1.00  0.00    -0.230 A  
HETATM   15  C   UNL     1      -9.664  14.707  66.232  1.00  0.00    -0.329 A  
ENDBRANCH   5   8
ENDBRANCH   4   5
ENDBRANCH   2   4
TORSDOF 3
ENDMDL
MODEL       51
REMARK 921   NORMALIZED FREE ENERGY PREDICTED BY IDOCK:   -4.13 KCAL/MOL
REMARK 922        TOTAL FREE ENERGY PREDICTED BY IDOCK:   -5.06 KCAL/MOL
REMARK 923 INTER-LIGAND FREE ENERGY PREDICTED BY IDOCK:   -4.97 KCAL/MOL
REMARK 924 INTRA-LIGAND FREE ENERGY PREDICTED BY IDOCK:   -0.09 KCAL/MOL
REMARK 927      BINDING AFFINITY PREDICTED BY RF-SCORE:    0.00 PKD
ROOT
HETATM    1  C   UNL     1     -10.716   7.216  67.704  1.00  0.00    -0.244 C  
HETATM    2  N   UNL     1     -10.530   8.033  66.512  1.00  0.00    -0.430 NA 
HETATM    3  H   UNL     1     -11.284   7.893  65.839  1.00  0.00     0.000 HD 
ENDROOT
BRANCH   2   4
HETATM    4  C   UNL     1     -10.373   9.457  66.862  1.00  0.00    -0.238 C  
BRANCH   4   5
HETATM    5  C   UNL     1     -10.004  10.381  65.667  1.00  0.00    -0.272 C  
HETATM    6  H   UNL     1      -8.385  11.267  65.059  1.00  0.00     0.000 HD 
HETATM    7  O   UNL     1      -8.610  10.702  65.789  1.00  0.00    -0.170 OA 
BRANCH   5   8
HETATM    8  C   UNL     1     -10.836  11.653  65.562  1.00  0.00    -0.334 A  
HETATM    9  C   UNL     1     -11.265  12.172  64.326  1.00  0.00    -0.409 A  
HETATM   10  C   UNL     1     -12.018  13.346  64.281  1.00  0.00    -0.430 A  
HETATM   11  O   UNL     1     -12.470  13.855  63.099  1.00  0.00    -1.121 OA 
HETATM   12  C   UNL     1     -12.337  14.037  65.441  1.00  0.00    -0.495 A  
HETATM   13  H   UNL     1     -12.982  14.654  63.069  1.00  0.00     0.000 HD 
HETATM   14  C   UNL     1     -11.931  13.534  66.672  1.00  0.00    -0.452 A  
HETATM   15  C   UNL     1     -11.211  12.339  66.731  1.00  0.00    -0.371 A  
ENDBRANCH   5   8
ENDBRANCH   4   5
ENDBRANCH   2   4
TORSDOF 3
ENDMDL
MODEL       52
REMARK 921   NORMALIZED FREE ENERGY PREDICTED BY IDOCK:   -4.12 KCAL/MOL
REMARK 922        TOTAL FREE ENERGY PREDICTED BY IDOCK:   -5.04 KCAL/MOL
REMARK 923 INTER-LIGAND FREE ENERGY PREDICTED BY IDOCK:   -4.93 KCAL/MOL
REMARK 924 INTRA-LIGAND FREE ENERGY PREDICTED BY IDOCK:   -0.11 KCAL/MOL
REMARK 927      BINDING AFFINITY PREDICTED BY RF-SCORE:    0.00 PKD
ROOT
HETATM    1  C   UNL     1     -10.063   7.133  68.227  1.00  0.00    -0.167 C  
HETATM    2  N   UNL     1     -10.948   8.271  68.014  1.00  0.00    -0.460 NA 
HETATM    3  H   UNL     1     -11.113   8.785  68.880  1.00  0.00     0.000 HD 
ENDROOT
BRANCH   2   4
HETATM    4  C   UNL     1     -10.436   9.153  66.950  1.00  0.00    -0.217 C  
BRANCH   4   5
HETATM    5  C   UNL     1     -10.713  10.666  67.172  1.00  0.00    -0.272 C  
HETATM    6  H   UNL     1     -11.963  11.696  68.246  1.00  0.00     0.000 HD 
HETATM    7  O   UNL     1     -11.794  10.771  68.110  1.00  0.00    -0.533 OA 
BRANCH   5   8
HETATM    8  C   UNL     1     -11.028  11.451  65.905  1.00  0.00    -0.268 A  
HETATM    9  C   UNL     1     -11.827  12.610  65.918  1.00  0.00    -0.499 A  
HETATM   10  C   UNL     1     -12.095  13.290  64.729  1.00  0.00    -0.409 A  
HETATM   11  O   UNL     1     -12.843  14.431  64.716  1.00  0.00    -0.647 OA 
HETATM   12  C   UNL     1     -11.608  12.830  63.514  1.00  0.00    -0.565 A  
HETATM   13  H   UNL     1     -13.026  14.893  63.906  1.00  0.00     0.000 HD 
HETATM   14  C   UNL     1     -10.808  11.691  63.484  1.00  0.00    -0.497 A  
HETATM   15  C   UNL     1     -10.501  11.027  64.673  1.00  0.00    -0.398 A  
ENDBRANCH   5   8
ENDBRANCH   4   5
ENDBRANCH   2   4
TORSDOF 3
ENDMDL
MODEL       53
REMARK 921   NORMALIZED FREE ENERGY PREDICTED BY IDOCK:   -4.12 KCAL/MOL
REMARK 922        TOTAL FREE ENERGY PREDICTED BY IDOCK:   -5.04 KCAL/MOL
REMARK 923 INTER-LIGAND FREE ENERGY PREDICTED BY IDOCK:   -4.91 KCAL/MOL
REMARK 924 INTRA-LIGAND FREE ENERGY PREDICTED BY IDOCK:   -0.13 KCAL/MOL
REMARK 927      BINDING AFFINITY PREDICTED BY RF-SCORE:    0.00 PKD
ROOT
HETATM    1  C   UNL     1      -9.139  10.138  69.300  1.00  0.00    -0.198 C  
HETATM    2  N   UNL     1      -9.455  11.518  68.953  1.00  0.00    -0.399 NA 
HETATM    3  H   UNL     1      -8.901  12.178  69.499  1.00  0.00     0.000 HD 
ENDROOT
BRANCH   2   4
HETATM    4  C   UNL     1      -9.304  11.750  67.505  1.00  0.00    -0.174 C  
BRANCH   4   5
HETATM    5  C   UNL     1      -9.299  13.247  67.085  1.00  0.00    -0.240 C  
HETATM    6  H   UNL     1      -9.534  14.939  68.012  1.00  0.00     0.000 HD 
HETATM    7  O   UNL     1      -9.537  14.025  68.268  1.00  0.00    -0.213 OA 
BRANCH   5   8
HETATM    8  C   UNL     1     -10.303  13.610  65.998  1.00  0.00    -0.305 A  
HETATM    9  C   UNL     1     -10.401  14.911  65.469  1.00  0.00    -0.388 A  
HETATM   10  C   UNL     1     -11.344  15.196  64.480  1.00  0.00    -0.290 A  
HETATM   11  O   UNL     1     -11.442  16.440  63.930  1.00  0.00    -1.569 OA 
HETATM   12  C   UNL     1     -12.216  14.220  64.018  1.00  0.00    -0.336 A  
HETATM   13  H   UNL     1     -12.084  16.634  63.257  1.00  0.00     0.000 HD 
HETATM   14  C   UNL     1     -12.126  12.927  64.523  1.00  0.00    -0.473 A  
HETATM   15  C   UNL     1     -11.160  12.621  65.483  1.00  0.00    -0.329 A  
ENDBRANCH   5   8
ENDBRANCH   4   5
ENDBRANCH   2   4
TORSDOF 3
ENDMDL
MODEL       54
REMARK 921   NORMALIZED FREE ENERGY PREDICTED BY IDOCK:   -4.10 KCAL/MOL
REMARK 922        TOTAL FREE ENERGY PREDICTED BY IDOCK:   -5.01 KCAL/MOL
REMARK 923 INTER-LIGAND FREE ENERGY PREDICTED BY IDOCK:   -4.89 KCAL/MOL
REMARK 924 INTRA-LIGAND FREE ENERGY PREDICTED BY IDOCK:   -0.12 KCAL/MOL
REMARK 927      BINDING AFFINITY PREDICTED BY RF-SCORE:    0.00 PKD
ROOT
HETATM    1  C   UNL     1     -10.807  11.268  63.549  1.00  0.00    -0.294 C  
HETATM    2  N   UNL     1     -10.991  12.699  63.341  1.00  0.00    -0.608 NA 
HETATM    3  H   UNL     1     -11.898  12.903  62.921  1.00  0.00     0.000 HD 
ENDROOT
BRANCH   2   4
HETATM    4  C   UNL     1     -10.792  13.449  64.594  1.00  0.00    -0.392 C  
BRANCH   4   5
HETATM    5  C   UNL     1     -11.915  13.255  65.652  1.00  0.00    -0.412 C  
HETATM    6  H   UNL     1     -13.838  13.530  65.687  1.00  0.00     0.000 HD 
HETATM    7  O   UNL     1     -13.152  13.648  65.040  1.00  0.00    -0.742 OA 
BRANCH   5   8
HETATM    8  C   UNL     1     -11.702  14.011  66.957  1.00  0.00    -0.425 A  
HETATM    9  C   UNL     1     -11.245  15.342  66.990  1.00  0.00    -0.275 A  
HETATM   10  C   UNL     1     -11.056  15.988  68.212  1.00  0.00    -0.351 A  
HETATM   11  O   UNL     1     -10.642  17.287  68.272  1.00  0.00    -0.366 OA 
HETATM   12  C   UNL     1     -11.288  15.333  69.413  1.00  0.00    -0.304 A  
HETATM   13  H   UNL     1     -10.513  17.727  69.104  1.00  0.00     0.000 HD 
HETATM   14  C   UNL     1     -11.749  14.021  69.400  1.00  0.00    -0.365 A  
HETATM   15  C   UNL     1     -11.979  13.378  68.182  1.00  0.00    -0.356 A  
ENDBRANCH   5   8
ENDBRANCH   4   5
ENDBRANCH   2   4
TORSDOF 3
ENDMDL
MODEL       55
REMARK 921   NORMALIZED FREE ENERGY PREDICTED BY IDOCK:   -4.09 KCAL/MOL
REMARK 922        TOTAL FREE ENERGY PREDICTED BY IDOCK:   -5.00 KCAL/MOL
REMARK 923 INTER-LIGAND FREE ENERGY PREDICTED BY IDOCK:   -4.87 KCAL/MOL
REMARK 924 INTRA-LIGAND FREE ENERGY PREDICTED BY IDOCK:   -0.13 KCAL/MOL
REMARK 927      BINDING AFFINITY PREDICTED BY RF-SCORE:    0.00 PKD
ROOT
HETATM    1  C   UNL     1     -10.695   9.479  68.338  1.00  0.00    -0.186 C  
HETATM    2  N   UNL     1     -11.770  10.446  68.159  1.00  0.00    -0.743 NA 
HETATM    3  H   UNL     1     -12.673   9.985  68.041  1.00  0.00     0.000 HD 
ENDROOT
BRANCH   2   4
HETATM    4  C   UNL     1     -11.799  11.421  69.264  1.00  0.00    -0.349 C  
BRANCH   4   5
HETATM    5  C   UNL     1     -11.583  12.899  68.831  1.00  0.00    -0.315 C  
HETATM    6  H   UNL     1     -10.123  13.901  68.028  1.00  0.00     0.000 HD 
HETATM    7  O   UNL     1     -10.256  12.998  68.292  1.00  0.00    -0.235 OA 
BRANCH   5   8
HETATM    8  C   UNL     1     -11.787  13.926  69.937  1.00  0.00    -0.394 A  
HETATM    9  C   UNL     1     -12.613  13.680  71.049  1.00  0.00    -0.441 A  
HETATM   10  C   UNL     1     -12.775  14.657  72.032  1.00  0.00    -0.334 A  
HETATM   11  O   UNL     1     -13.547  14.435  73.135  1.00  0.00    -0.602 OA 
HETATM   12  C   UNL     1     -12.152  15.893  71.925  1.00  0.00    -0.578 A  
HETATM   13  H   UNL     1     -13.658  15.100  73.804  1.00  0.00     0.000 HD 
HETATM   14  C   UNL     1     -11.324  16.150  70.837  1.00  0.00    -0.394 A  
HETATM   15  C   UNL     1     -11.124  15.164  69.868  1.00  0.00    -0.302 A  
ENDBRANCH   5   8
ENDBRANCH   4   5
ENDBRANCH   2   4
TORSDOF 3
ENDMDL
MODEL       56
REMARK 921   NORMALIZED FREE ENERGY PREDICTED BY IDOCK:   -4.06 KCAL/MOL
REMARK 922        TOTAL FREE ENERGY PREDICTED BY IDOCK:   -4.97 KCAL/MOL
REMARK 923 INTER-LIGAND FREE ENERGY PREDICTED BY IDOCK:   -4.94 KCAL/MOL
REMARK 924 INTRA-LIGAND FREE ENERGY PREDICTED BY IDOCK:   -0.03 KCAL/MOL
REMARK 927      BINDING AFFINITY PREDICTED BY RF-SCORE:    0.00 PKD
ROOT
HETATM    1  C   UNL     1      -7.126  16.344  67.391  1.00  0.00    -0.159 C  
HETATM    2  N   UNL     1      -8.377  15.932  68.015  1.00  0.00    -0.158 NA 
HETATM    3  H   UNL     1      -8.295  15.898  69.031  1.00  0.00     0.000 HD 
ENDROOT
BRANCH   2   4
HETATM    4  C   UNL     1      -9.494  16.794  67.588  1.00  0.00    -0.234 C  
BRANCH   4   5
HETATM    5  C   UNL     1      -9.889  16.650  66.092  1.00  0.00    -0.318 C  
HETATM    6  H   UNL     1     -10.749  17.795  64.777  1.00  0.00     0.000 HD 
HETATM    7  O   UNL     1     -10.507  17.883  65.692  1.00  0.00    -0.610 OA 
BRANCH   5   8
HETATM    8  C   UNL     1     -10.802  15.472  65.781  1.00  0.00    -0.337 A  
HETATM    9  C   UNL     1     -11.292  15.219  64.486  1.00  0.00    -0.307 A  
HETATM   10  C   UNL     1     -12.133  14.131  64.254  1.00  0.00    -0.444 A  
HETATM   11  O   UNL     1     -12.599  13.847  63.003  1.00  0.00    -1.030 OA 
HETATM   12  C   UNL     1     -12.526  13.294  65.289  1.00  0.00    -0.543 A  
HETATM   13  H   UNL     1     -13.173  13.106  62.846  1.00  0.00     0.000 HD 
HETATM   14  C   UNL     1     -12.045  13.523  66.574  1.00  0.00    -0.460 A  
HETATM   15  C   UNL     1     -11.170  14.585  66.810  1.00  0.00    -0.336 A  
ENDBRANCH   5   8
ENDBRANCH   4   5
ENDBRANCH   2   4
TORSDOF 3
ENDMDL
MODEL       57
REMARK 921   NORMALIZED FREE ENERGY PREDICTED BY IDOCK:   -4.05 KCAL/MOL
REMARK 922        TOTAL FREE ENERGY PREDICTED BY IDOCK:   -4.96 KCAL/MOL
REMARK 923 INTER-LIGAND FREE ENERGY PREDICTED BY IDOCK:   -4.87 KCAL/MOL
REMARK 924 INTRA-LIGAND FREE ENERGY PREDICTED BY IDOCK:   -0.10 KCAL/MOL
REMARK 927      BINDING AFFINITY PREDICTED BY RF-SCORE:    0.00 PKD
ROOT
HETATM    1  C   UNL     1     -10.746  15.185  69.434  1.00  0.00    -0.265 C  
HETATM    2  N   UNL     1     -10.866  13.742  69.597  1.00  0.00    -0.449 NA 
HETATM    3  H   UNL     1     -11.784  13.480  69.958  1.00  0.00     0.000 HD 
ENDROOT
BRANCH   2   4
HETATM    4  C   UNL     1     -10.556  13.036  68.341  1.00  0.00    -0.251 C  
BRANCH   4   5
HETATM    5  C   UNL     1     -11.799  12.542  67.549  1.00  0.00    -0.323 C  
HETATM    6  H   UNL     1     -12.965  10.990  67.642  1.00  0.00     0.000 HD 
HETATM    7  O   UNL     1     -12.205  11.292  68.126  1.00  0.00    -0.622 OA 
BRANCH   5   8
HETATM    8  C   UNL     1     -11.585  12.393  66.049  1.00  0.00    -0.455 A  
HETATM    9  C   UNL     1     -10.343  12.022  65.499  1.00  0.00    -0.298 A  
HETATM   10  C   UNL     1     -10.194  11.907  64.117  1.00  0.00    -0.330 A  
HETATM   11  O   UNL     1      -9.010  11.523  63.559  1.00  0.00    -0.456 OA 
HETATM   12  C   UNL     1     -11.249  12.178  63.257  1.00  0.00    -0.409 A  
HETATM   13  H   UNL     1      -8.908  11.445  62.618  1.00  0.00     0.000 HD 
HETATM   14  C   UNL     1     -12.486  12.536  63.783  1.00  0.00    -0.552 A  
HETATM   15  C   UNL     1     -12.657  12.615  65.166  1.00  0.00    -0.459 A  
ENDBRANCH   5   8
ENDBRANCH   4   5
ENDBRANCH   2   4
TORSDOF 3
ENDMDL
MODEL       58
REMARK 921   NORMALIZED FREE ENERGY PREDICTED BY IDOCK:   -4.03 KCAL/MOL
REMARK 922        TOTAL FREE ENERGY PREDICTED BY IDOCK:   -4.94 KCAL/MOL
REMARK 923 INTER-LIGAND FREE ENERGY PREDICTED BY IDOCK:   -4.82 KCAL/MOL
REMARK 924 INTRA-LIGAND FREE ENERGY PREDICTED BY IDOCK:   -0.11 KCAL/MOL
REMARK 927      BINDING AFFINITY PREDICTED BY RF-SCORE:    0.00 PKD
ROOT
HETATM    1  C   UNL     1      -8.175  18.602  67.096  1.00  0.00    -0.252 C  
HETATM    2  N   UNL     1      -8.653  17.843  65.948  1.00  0.00    -0.507 NA 
HETATM    3  H   UNL     1      -7.952  17.178  65.620  1.00  0.00     0.000 HD 
ENDROOT
BRANCH   2   4
HETATM    4  C   UNL     1      -9.935  17.180  66.244  1.00  0.00    -0.304 C  
BRANCH   4   5
HETATM    5  C   UNL     1     -10.337  16.065  65.238  1.00  0.00    -0.290 C  
HETATM    6  H   UNL     1     -11.618  15.915  63.784  1.00  0.00     0.000 HD 
HETATM    7  O   UNL     1     -11.373  16.597  64.399  1.00  0.00    -1.023 OA 
BRANCH   5   8
HETATM    8  C   UNL     1     -10.788  14.758  65.878  1.00  0.00    -0.331 A  
HETATM    9  C   UNL     1     -10.225  14.271  67.072  1.00  0.00    -0.260 A  
HETATM   10  C   UNL     1     -10.666  13.064  67.614  1.00  0.00    -0.227 A  
HETATM   11  O   UNL     1     -10.158  12.583  68.785  1.00  0.00    -0.379 OA 
HETATM   12  C   UNL     1     -11.643  12.308  66.982  1.00  0.00    -0.418 A  
HETATM   13  H   UNL     1     -10.458  11.760  69.154  1.00  0.00     0.000 HD 
HETATM   14  C   UNL     1     -12.218  12.778  65.805  1.00  0.00    -0.469 A  
HETATM   15  C   UNL     1     -11.812  14.005  65.276  1.00  0.00    -0.363 A  
ENDBRANCH   5   8
ENDBRANCH   4   5
ENDBRANCH   2   4
TORSDOF 3
ENDMDL
MODEL       59
REMARK 921   NORMALIZED FREE ENERGY PREDICTED BY IDOCK:   -4.02 KCAL/MOL
REMARK 922        TOTAL FREE ENERGY PREDICTED BY IDOCK:   -4.92 KCAL/MOL
REMARK 923 INTER-LIGAND FREE ENERGY PREDICTED BY IDOCK:   -4.79 KCAL/MOL
REMARK 924 INTRA-LIGAND FREE ENERGY PREDICTED BY IDOCK:   -0.13 KCAL/MOL
REMARK 927      BINDING AFFINITY PREDICTED BY RF-SCORE:    0.00 PKD
ROOT
HETATM    1  C   UNL     1      -7.064   9.981  66.042  1.00  0.00    -0.111 C  
HETATM    2  N   UNL     1      -7.659  10.601  64.864  1.00  0.00    -0.351 NA 
HETATM    3  H   UNL     1      -6.987  10.677  64.101  1.00  0.00     0.000 HD 
ENDROOT
BRANCH   2   4
HETATM    4  C   UNL     1      -8.879   9.887  64.445  1.00  0.00    -0.217 C  
BRANCH   4   5
HETATM    5  C   UNL     1      -9.804  10.690  63.488  1.00  0.00    -0.326 C  
HETATM    6  H   UNL     1      -9.531  11.787  61.907  1.00  0.00     0.000 HD 
HETATM    7  O   UNL     1      -8.966  11.297  62.492  1.00  0.00    -0.327 OA 
BRANCH   5   8
HETATM    8  C   UNL     1     -10.670  11.742  64.168  1.00  0.00    -0.410 A  
HETATM    9  C   UNL     1     -11.177  12.859  63.478  1.00  0.00    -0.350 A  
HETATM   10  C   UNL     1     -11.959  13.801  64.148  1.00  0.00    -0.432 A  
HETATM   11  O   UNL     1     -12.487  14.878  63.498  1.00  0.00    -1.001 OA 
HETATM   12  C   UNL     1     -12.232  13.674  65.503  1.00  0.00    -0.476 A  
HETATM   13  H   UNL     1     -13.019  15.519  63.955  1.00  0.00     0.000 HD 
HETATM   14  C   UNL     1     -11.746  12.571  66.199  1.00  0.00    -0.466 A  
HETATM   15  C   UNL     1     -10.997  11.602  65.528  1.00  0.00    -0.327 A  
ENDBRANCH   5   8
ENDBRANCH   4   5
ENDBRANCH   2   4
TORSDOF 3
ENDMDL
MODEL       60
REMARK 921   NORMALIZED FREE ENERGY PREDICTED BY IDOCK:   -4.01 KCAL/MOL
REMARK 922        TOTAL FREE ENERGY PREDICTED BY IDOCK:   -4.92 KCAL/MOL
REMARK 923 INTER-LIGAND FREE ENERGY PREDICTED BY IDOCK:   -4.74 KCAL/MOL
REMARK 924 INTRA-LIGAND FREE ENERGY PREDICTED BY IDOCK:   -0.18 KCAL/MOL
REMARK 927      BINDING AFFINITY PREDICTED BY RF-SCORE:    0.00 PKD
ROOT
HETATM    1  C   UNL     1      -9.685  17.741  67.875  1.00  0.00    -0.294 C  
HETATM    2  N   UNL     1      -8.917  16.543  68.187  1.00  0.00    -0.202 NA 
HETATM    3  H   UNL     1      -8.229  16.719  68.920  1.00  0.00     0.000 HD 
ENDROOT
BRANCH   2   4
HETATM    4  C   UNL     1      -9.803  15.418  68.534  1.00  0.00    -0.207 C  
BRANCH   4   5
HETATM    5  C   UNL     1     -11.245  15.527  67.962  1.00  0.00    -0.332 C  
HETATM    6  H   UNL     1     -13.036  15.426  68.711  1.00  0.00     0.000 HD 
HETATM    7  O   UNL     1     -12.155  15.360  69.060  1.00  0.00    -0.312 OA 
BRANCH   5   8
HETATM    8  C   UNL     1     -11.567  14.540  66.848  1.00  0.00    -0.399 A  
HETATM    9  C   UNL     1     -11.891  14.957  65.544  1.00  0.00    -0.155 A  
HETATM   10  C   UNL     1     -12.188  14.014  64.559  1.00  0.00    -0.434 A  
HETATM   11  O   UNL     1     -12.478  14.389  63.280  1.00  0.00    -1.099 OA 
HETATM   12  C   UNL     1     -12.197  12.656  64.846  1.00  0.00    -0.531 A  
HETATM   13  H   UNL     1     -12.680  13.747  62.610  1.00  0.00     0.000 HD 
HETATM   14  C   UNL     1     -11.870  12.225  66.128  1.00  0.00    -0.398 A  
HETATM   15  C   UNL     1     -11.532  13.158  67.110  1.00  0.00    -0.378 A  
ENDBRANCH   5   8
ENDBRANCH   4   5
ENDBRANCH   2   4
TORSDOF 3
ENDMDL
MODEL       61
REMARK 921   NORMALIZED FREE ENERGY PREDICTED BY IDOCK:   -4.01 KCAL/MOL
REMARK 922        TOTAL FREE ENERGY PREDICTED BY IDOCK:   -4.91 KCAL/MOL
REMARK 923 INTER-LIGAND FREE ENERGY PREDICTED BY IDOCK:   -4.77 KCAL/MOL
REMARK 924 INTRA-LIGAND FREE ENERGY PREDICTED BY IDOCK:   -0.13 KCAL/MOL
REMARK 927      BINDING AFFINITY PREDICTED BY RF-SCORE:    0.00 PKD
ROOT
HETATM    1  C   UNL     1      -7.539  18.599  68.276  1.00  0.00    -0.284 C  
HETATM    2  N   UNL     1      -7.654  17.215  68.717  1.00  0.00    -0.254 NA 
HETATM    3  H   UNL     1      -7.369  17.107  69.691  1.00  0.00     0.000 HD 
ENDROOT
BRANCH   2   4
HETATM    4  C   UNL     1      -9.014  16.694  68.488  1.00  0.00    -0.235 C  
BRANCH   4   5
HETATM    5  C   UNL     1      -9.072  15.210  68.030  1.00  0.00    -0.180 C  
HETATM    6  H   UNL     1      -7.773  13.914  67.388  1.00  0.00     0.000 HD 
HETATM    7  O   UNL     1      -7.738  14.821  67.668  1.00  0.00    -0.149 OA 
BRANCH   5   8
HETATM    8  C   UNL     1     -10.036  14.931  66.884  1.00  0.00    -0.242 A  
HETATM    9  C   UNL     1     -10.340  15.895  65.905  1.00  0.00    -0.383 A  
HETATM   10  C   UNL     1     -11.238  15.595  64.879  1.00  0.00    -0.369 A  
HETATM   11  O   UNL     1     -11.528  16.500  63.901  1.00  0.00    -1.608 OA 
HETATM   12  C   UNL     1     -11.867  14.360  64.816  1.00  0.00    -0.439 A  
HETATM   13  H   UNL     1     -12.140  16.296  63.204  1.00  0.00     0.000 HD 
HETATM   14  C   UNL     1     -11.572  13.392  65.771  1.00  0.00    -0.358 A  
HETATM   15  C   UNL     1     -10.645  13.668  66.778  1.00  0.00    -0.273 A  
ENDBRANCH   5   8
ENDBRANCH   4   5
ENDBRANCH   2   4
TORSDOF 3
ENDMDL
MODEL       62
REMARK 921   NORMALIZED FREE ENERGY PREDICTED BY IDOCK:   -3.99 KCAL/MOL
REMARK 922        TOTAL FREE ENERGY PREDICTED BY IDOCK:   -4.89 KCAL/MOL
REMARK 923 INTER-LIGAND FREE ENERGY PREDICTED BY IDOCK:   -4.79 KCAL/MOL
REMARK 924 INTRA-LIGAND FREE ENERGY PREDICTED BY IDOCK:   -0.10 KCAL/MOL
REMARK 927      BINDING AFFINITY PREDICTED BY RF-SCORE:    0.00 PKD
ROOT
HETATM    1  C   UNL     1      -6.404  20.562  66.231  1.00  0.00    -0.221 C  
HETATM    2  N   UNL     1      -7.812  20.396  66.570  1.00  0.00    -0.481 NA 
HETATM    3  H   UNL     1      -8.403  20.419  65.739  1.00  0.00     0.000 HD 
ENDROOT
BRANCH   2   4
HETATM    4  C   UNL     1      -8.028  19.167  67.356  1.00  0.00    -0.259 C  
BRANCH   4   5
HETATM    5  C   UNL     1      -9.520  18.768  67.537  1.00  0.00    -0.298 C  
HETATM    6  H   UNL     1     -10.671  18.390  69.058  1.00  0.00     0.000 HD 
HETATM    7  O   UNL     1      -9.759  18.635  68.946  1.00  0.00    -0.359 OA 
BRANCH   5   8
HETATM    8  C   UNL     1      -9.936  17.500  66.804  1.00  0.00    -0.313 A  
HETATM    9  C   UNL     1     -10.645  17.532  65.589  1.00  0.00    -0.144 A  
HETATM   10  C   UNL     1     -11.013  16.342  64.959  1.00  0.00    -0.298 A  
HETATM   11  O   UNL     1     -11.675  16.343  63.767  1.00  0.00    -1.553 OA 
HETATM   12  C   UNL     1     -10.713  15.110  65.524  1.00  0.00    -0.379 A  
HETATM   13  H   UNL     1     -11.926  15.533  63.339  1.00  0.00     0.000 HD 
HETATM   14  C   UNL     1     -10.004  15.059  66.720  1.00  0.00    -0.254 A  
HETATM   15  C   UNL     1      -9.597  16.244  67.337  1.00  0.00    -0.230 A  
ENDBRANCH   5   8
ENDBRANCH   4   5
ENDBRANCH   2   4
TORSDOF 3
ENDMDL
MODEL       63
REMARK 921   NORMALIZED FREE ENERGY PREDICTED BY IDOCK:   -3.99 KCAL/MOL
REMARK 922        TOTAL FREE ENERGY PREDICTED BY IDOCK:   -4.89 KCAL/MOL
REMARK 923 INTER-LIGAND FREE ENERGY PREDICTED BY IDOCK:   -4.77 KCAL/MOL
REMARK 924 INTRA-LIGAND FREE ENERGY PREDICTED BY IDOCK:   -0.12 KCAL/MOL
REMARK 927      BINDING AFFINITY PREDICTED BY RF-SCORE:    0.00 PKD
ROOT
HETATM    1  C   UNL     1     -11.150   6.229  71.893  1.00  0.00    -0.268 C  
HETATM    2  N   UNL     1     -12.374   6.952  72.214  1.00  0.00    -0.518 NA 
HETATM    3  H   UNL     1     -12.858   6.535  73.010  1.00  0.00     0.000 HD 
ENDROOT
BRANCH   2   4
HETATM    4  C   UNL     1     -12.104   8.385  72.432  1.00  0.00    -0.378 C  
BRANCH   4   5
HETATM    5  C   UNL     1     -13.310   9.323  72.145  1.00  0.00    -0.468 C  
HETATM    6  H   UNL     1     -14.976   9.164  71.155  1.00  0.00     0.000 HD 
HETATM    7  O   UNL     1     -14.239   8.590  71.331  1.00  0.00    -0.388 OA 
BRANCH   5   8
HETATM    8  C   UNL     1     -12.948  10.645  71.481  1.00  0.00    -0.566 A  
HETATM    9  C   UNL     1     -12.189  10.709  70.297  1.00  0.00    -0.417 A  
HETATM   10  C   UNL     1     -11.875  11.946  69.732  1.00  0.00    -0.340 A  
HETATM   11  O   UNL     1     -11.165  12.037  68.571  1.00  0.00    -0.216 OA 
HETATM   12  C   UNL     1     -12.278  13.131  70.331  1.00  0.00    -0.389 A  
HETATM   13  H   UNL     1     -10.951  12.879  68.186  1.00  0.00     0.000 HD 
HETATM   14  C   UNL     1     -13.037  13.087  71.495  1.00  0.00    -0.400 A  
HETATM   15  C   UNL     1     -13.391  11.854  72.047  1.00  0.00    -0.425 A  
ENDBRANCH   5   8
ENDBRANCH   4   5
ENDBRANCH   2   4
TORSDOF 3
ENDMDL
MODEL       64
REMARK 921   NORMALIZED FREE ENERGY PREDICTED BY IDOCK:   -3.99 KCAL/MOL
REMARK 922        TOTAL FREE ENERGY PREDICTED BY IDOCK:   -4.88 KCAL/MOL
REMARK 923 INTER-LIGAND FREE ENERGY PREDICTED BY IDOCK:   -4.80 KCAL/MOL
REMARK 924 INTRA-LIGAND FREE ENERGY PREDICTED BY IDOCK:   -0.09 KCAL/MOL
REMARK 927      BINDING AFFINITY PREDICTED BY RF-SCORE:    0.00 PKD
ROOT
HETATM    1  C   UNL     1     -10.384  18.668  66.353  1.00  0.00    -0.432 C  
HETATM    2  N   UNL     1     -10.638  17.473  67.147  1.00  0.00    -0.305 NA 
HETATM    3  H   UNL     1     -11.612  17.421  67.446  1.00  0.00     0.000 HD 
ENDROOT
BRANCH   2   4
HETATM    4  C   UNL     1     -10.227  16.256  66.423  1.00  0.00    -0.313 C  
BRANCH   4   5
HETATM    5  C   UNL     1     -10.947  14.956  66.880  1.00  0.00    -0.327 C  
HETATM    6  H   UNL     1     -10.588  13.570  68.194  1.00  0.00     0.000 HD 
HETATM    7  O   UNL     1     -10.149  14.365  67.916  1.00  0.00    -0.223 OA 
BRANCH   5   8
HETATM    8  C   UNL     1     -11.211  13.947  65.769  1.00  0.00    -0.303 A  
HETATM    9  C   UNL     1     -10.189  13.477  64.923  1.00  0.00    -0.351 A  
HETATM   10  C   UNL     1     -10.483  12.559  63.913  1.00  0.00    -0.434 A  
HETATM   11  O   UNL     1      -9.508  12.065  63.097  1.00  0.00    -0.637 OA 
HETATM   12  C   UNL     1     -11.780  12.112  63.705  1.00  0.00    -0.588 A  
HETATM   13  H   UNL     1      -9.708  11.440  62.409  1.00  0.00     0.000 HD 
HETATM   14  C   UNL     1     -12.801  12.560  64.538  1.00  0.00    -0.352 A  
HETATM   15  C   UNL     1     -12.511  13.447  65.576  1.00  0.00    -0.534 A  
ENDBRANCH   5   8
ENDBRANCH   4   5
ENDBRANCH   2   4
TORSDOF 3
ENDMDL
MODEL       65
REMARK 921   NORMALIZED FREE ENERGY PREDICTED BY IDOCK:   -3.98 KCAL/MOL
REMARK 922        TOTAL FREE ENERGY PREDICTED BY IDOCK:   -4.87 KCAL/MOL
REMARK 923 INTER-LIGAND FREE ENERGY PREDICTED BY IDOCK:   -4.75 KCAL/MOL
REMARK 924 INTRA-LIGAND FREE ENERGY PREDICTED BY IDOCK:   -0.13 KCAL/MOL
REMARK 927      BINDING AFFINITY PREDICTED BY RF-SCORE:    0.00 PKD
ROOT
HETATM    1  C   UNL     1     -12.715   8.679  72.107  1.00  0.00    -0.392 C  
HETATM    2  N   UNL     1     -13.348   9.563  71.137  1.00  0.00    -0.538 NA 
HETATM    3  H   UNL     1     -14.282   9.843  71.438  1.00  0.00     0.000 HD 
ENDROOT
BRANCH   2   4
HETATM    4  C   UNL     1     -12.498  10.733  70.849  1.00  0.00    -0.402 C  
BRANCH   4   5
HETATM    5  C   UNL     1     -11.664  10.622  69.541  1.00  0.00    -0.284 C  
HETATM    6  H   UNL     1      -9.804  10.248  69.119  1.00  0.00     0.000 HD 
HETATM    7  O   UNL     1     -10.314  10.315  69.918  1.00  0.00    -0.255 OA 
BRANCH   5   8
HETATM    8  C   UNL     1     -11.701  11.859  68.652  1.00  0.00    -0.380 A  
HETATM    9  C   UNL     1     -11.900  13.152  69.171  1.00  0.00    -0.364 A  
HETATM   10  C   UNL     1     -11.935  14.253  68.314  1.00  0.00    -0.311 A  
HETATM   11  O   UNL     1     -12.098  15.520  68.792  1.00  0.00    -0.558 OA 
HETATM   12  C   UNL     1     -11.802  14.098  66.941  1.00  0.00    -0.458 A  
HETATM   13  H   UNL     1     -12.122  16.270  68.209  1.00  0.00     0.000 HD 
HETATM   14  C   UNL     1     -11.596  12.828  66.412  1.00  0.00    -0.435 A  
HETATM   15  C   UNL     1     -11.519  11.725  67.264  1.00  0.00    -0.373 A  
ENDBRANCH   5   8
ENDBRANCH   4   5
ENDBRANCH   2   4
TORSDOF 3
ENDMDL
MODEL       66
REMARK 921   NORMALIZED FREE ENERGY PREDICTED BY IDOCK:   -3.97 KCAL/MOL
REMARK 922        TOTAL FREE ENERGY PREDICTED BY IDOCK:   -4.86 KCAL/MOL
REMARK 923 INTER-LIGAND FREE ENERGY PREDICTED BY IDOCK:   -4.73 KCAL/MOL
REMARK 924 INTRA-LIGAND FREE ENERGY PREDICTED BY IDOCK:   -0.13 KCAL/MOL
REMARK 927      BINDING AFFINITY PREDICTED BY RF-SCORE:    0.00 PKD
ROOT
HETATM    1  C   UNL     1     -11.059  15.413  69.838  1.00  0.00    -0.293 C  
HETATM    2  N   UNL     1     -10.788  15.223  68.419  1.00  0.00    -0.248 NA 
HETATM    3  H   UNL     1     -10.244  15.996  68.034  1.00  0.00     0.000 HD 
ENDROOT
BRANCH   2   4
HETATM    4  C   UNL     1     -10.138  13.924  68.169  1.00  0.00    -0.250 C  
BRANCH   4   5
HETATM    5  C   UNL     1      -9.371  13.831  66.820  1.00  0.00    -0.266 C  
HETATM    6  H   UNL     1      -8.526  15.108  65.624  1.00  0.00     0.000 HD 
HETATM    7  O   UNL     1      -8.994  15.165  66.448  1.00  0.00    -0.284 OA 
BRANCH   5   8
HETATM    8  C   UNL     1     -10.142  13.160  65.691  1.00  0.00    -0.279 A  
HETATM    9  C   UNL     1     -11.027  13.871  64.859  1.00  0.00    -0.391 A  
HETATM   10  C   UNL     1     -11.718  13.210  63.843  1.00  0.00    -0.456 A  
HETATM   11  O   UNL     1     -12.560  13.879  63.004  1.00  0.00    -1.030 OA 
HETATM   12  C   UNL     1     -11.572  11.844  63.647  1.00  0.00    -0.559 A  
HETATM   13  H   UNL     1     -13.031  13.429  62.312  1.00  0.00     0.000 HD 
HETATM   14  C   UNL     1     -10.694  11.127  64.454  1.00  0.00    -0.388 A  
HETATM   15  C   UNL     1      -9.967  11.786  65.448  1.00  0.00    -0.284 A  
ENDBRANCH   5   8
ENDBRANCH   4   5
ENDBRANCH   2   4
TORSDOF 3
ENDMDL
MODEL       67
REMARK 921   NORMALIZED FREE ENERGY PREDICTED BY IDOCK:   -3.96 KCAL/MOL
REMARK 922        TOTAL FREE ENERGY PREDICTED BY IDOCK:   -4.86 KCAL/MOL
REMARK 923 INTER-LIGAND FREE ENERGY PREDICTED BY IDOCK:   -4.73 KCAL/MOL
REMARK 924 INTRA-LIGAND FREE ENERGY PREDICTED BY IDOCK:   -0.13 KCAL/MOL
REMARK 927      BINDING AFFINITY PREDICTED BY RF-SCORE:    0.00 PKD
ROOT
HETATM    1  C   UNL     1      -8.844  11.521  67.274  1.00  0.00    -0.160 C  
HETATM    2  N   UNL     1     -10.061  12.252  66.944  1.00  0.00    -0.209 NA 
HETATM    3  H   UNL     1     -10.747  11.650  66.486  1.00  0.00     0.000 HD 
ENDROOT
BRANCH   2   4
HETATM    4  C   UNL     1     -10.626  12.911  68.135  1.00  0.00    -0.237 C  
BRANCH   4   5
HETATM    5  C   UNL     1     -11.355  11.955  69.121  1.00  0.00    -0.279 C  
HETATM    6  H   UNL     1     -12.670  10.534  68.946  1.00  0.00     0.000 HD 
HETATM    7  O   UNL     1     -12.224  11.118  68.343  1.00  0.00    -0.610 OA 
BRANCH   5   8
HETATM    8  C   UNL     1     -12.136  12.652  70.228  1.00  0.00    -0.372 A  
HETATM    9  C   UNL     1     -12.304  14.049  70.266  1.00  0.00    -0.425 A  
HETATM   10  C   UNL     1     -13.021  14.641  71.306  1.00  0.00    -0.339 A  
HETATM   11  O   UNL     1     -13.222  15.990  71.352  1.00  0.00    -0.527 OA 
HETATM   12  C   UNL     1     -13.559  13.878  72.332  1.00  0.00    -0.676 A  
HETATM   13  H   UNL     1     -13.710  16.393  72.061  1.00  0.00     0.000 HD 
HETATM   14  C   UNL     1     -13.412  12.494  72.305  1.00  0.00    -0.490 A  
HETATM   15  C   UNL     1     -12.731  11.888  71.248  1.00  0.00    -0.401 A  
ENDBRANCH   5   8
ENDBRANCH   4   5
ENDBRANCH   2   4
TORSDOF 3
ENDMDL
MODEL       68
REMARK 921   NORMALIZED FREE ENERGY PREDICTED BY IDOCK:   -3.96 KCAL/MOL
REMARK 922        TOTAL FREE ENERGY PREDICTED BY IDOCK:   -4.86 KCAL/MOL
REMARK 923 INTER-LIGAND FREE ENERGY PREDICTED BY IDOCK:   -4.71 KCAL/MOL
REMARK 924 INTRA-LIGAND FREE ENERGY PREDICTED BY IDOCK:   -0.15 KCAL/MOL
REMARK 927      BINDING AFFINITY PREDICTED BY RF-SCORE:    0.00 PKD
ROOT
HETATM    1  C   UNL     1      -8.120   6.749  67.880  1.00  0.00    -0.114 C  
HETATM    2  N   UNL     1      -9.407   7.387  68.125  1.00  0.00    -0.136 NA 
HETATM    3  H   UNL     1     -10.183   6.754  67.932  1.00  0.00     0.000 HD 
ENDROOT
BRANCH   2   4
HETATM    4  C   UNL     1      -9.478   7.934  69.492  1.00  0.00    -0.160 C  
BRANCH   4   5
HETATM    5  C   UNL     1     -10.679   7.418  70.335  1.00  0.00    -0.237 C  
HETATM    6  H   UNL     1     -12.163   6.203  70.020  1.00  0.00     0.000 HD 
HETATM    7  O   UNL     1     -11.429   6.518  69.505  1.00  0.00    -0.371 OA 
BRANCH   5   8
HETATM    8  C   UNL     1     -11.585   8.509  70.891  1.00  0.00    -0.295 A  
HETATM    9  C   UNL     1     -12.530   8.258  71.903  1.00  0.00    -0.376 A  
HETATM   10  C   UNL     1     -13.344   9.290  72.374  1.00  0.00    -0.449 A  
HETATM   11  O   UNL     1     -14.249   9.081  73.373  1.00  0.00    -1.202 OA 
HETATM   12  C   UNL     1     -13.259  10.569  71.843  1.00  0.00    -0.526 A  
HETATM   13  H   UNL     1     -14.803   9.783  73.694  1.00  0.00     0.000 HD 
HETATM   14  C   UNL     1     -12.324  10.837  70.849  1.00  0.00    -0.497 A  
HETATM   15  C   UNL     1     -11.477   9.822  70.399  1.00  0.00    -0.347 A  
ENDBRANCH   5   8
ENDBRANCH   4   5
ENDBRANCH   2   4
TORSDOF 3
ENDMDL
MODEL       69
REMARK 921   NORMALIZED FREE ENERGY PREDICTED BY IDOCK:   -3.95 KCAL/MOL
REMARK 922        TOTAL FREE ENERGY PREDICTED BY IDOCK:   -4.85 KCAL/MOL
REMARK 923 INTER-LIGAND FREE ENERGY PREDICTED BY IDOCK:   -5.05 KCAL/MOL
REMARK 924 INTRA-LIGAND FREE ENERGY PREDICTED BY IDOCK:    0.20 KCAL/MOL
REMARK 927      BINDING AFFINITY PREDICTED BY RF-SCORE:    0.00 PKD
ROOT
HETATM    1  C   UNL     1     -11.106  16.092  70.318  1.00  0.00    -0.369 C  
HETATM    2  N   UNL     1     -10.810  14.685  70.081  1.00  0.00    -0.468 NA 
HETATM    3  H   UNL     1     -10.409  14.242  70.908  1.00  0.00     0.000 HD 
ENDROOT
BRANCH   2   4
HETATM    4  C   UNL     1     -12.003  13.963  69.603  1.00  0.00    -0.342 C  
BRANCH   4   5
HETATM    5  C   UNL     1     -12.884  13.351  70.728  1.00  0.00    -0.150 C  
HETATM    6  H   UNL     1     -13.177  13.732  72.612  1.00  0.00     0.000 HD 
HETATM    7  O   UNL     1     -12.639  14.106  71.924  1.00  0.00    -0.325 OA 
BRANCH   5   8
HETATM    8  C   UNL     1     -12.659  11.866  70.980  1.00  0.00    -0.381 A  
HETATM    9  C   UNL     1     -13.389  11.147  71.945  1.00  0.00    -0.409 A  
HETATM   10  C   UNL     1     -13.139   9.788  72.145  1.00  0.00    -0.422 A  
HETATM   11  O   UNL     1     -13.851   9.061  73.053  1.00  0.00    -0.969 OA 
HETATM   12  C   UNL     1     -12.156   9.126  71.424  1.00  0.00    -0.409 A  
HETATM   13  H   UNL     1     -13.681   8.136  73.190  1.00  0.00     0.000 HD 
HETATM   14  C   UNL     1     -11.430   9.819  70.460  1.00  0.00    -0.370 A  
HETATM   15  C   UNL     1     -11.700  11.168  70.223  1.00  0.00    -0.431 A  
ENDBRANCH   5   8
ENDBRANCH   4   5
ENDBRANCH   2   4
TORSDOF 3
ENDMDL
MODEL       70
REMARK 921   NORMALIZED FREE ENERGY PREDICTED BY IDOCK:   -3.93 KCAL/MOL
REMARK 922        TOTAL FREE ENERGY PREDICTED BY IDOCK:   -4.82 KCAL/MOL
REMARK 923 INTER-LIGAND FREE ENERGY PREDICTED BY IDOCK:   -4.71 KCAL/MOL
REMARK 924 INTRA-LIGAND FREE ENERGY PREDICTED BY IDOCK:   -0.10 KCAL/MOL
REMARK 927      BINDING AFFINITY PREDICTED BY RF-SCORE:    0.00 PKD
ROOT
HETATM    1  C   UNL     1     -10.055  19.810  66.276  1.00  0.00    -0.496 C  
HETATM    2  N   UNL     1     -10.221  18.475  65.717  1.00  0.00    -0.573 NA 
HETATM    3  H   UNL     1      -9.456  18.234  65.086  1.00  0.00     0.000 HD 
ENDROOT
BRANCH   2   4
HETATM    4  C   UNL     1     -10.384  17.468  66.781  1.00  0.00    -0.314 C  
BRANCH   4   5
HETATM    5  C   UNL     1     -10.371  15.994  66.287  1.00  0.00    -0.321 C  
HETATM    6  H   UNL     1     -11.058  15.056  64.729  1.00  0.00     0.000 HD 
HETATM    7  O   UNL     1     -11.066  15.956  65.031  1.00  0.00    -0.396 OA 
BRANCH   5   8
HETATM    8  C   UNL     1     -10.973  14.988  67.259  1.00  0.00    -0.326 A  
HETATM    9  C   UNL     1     -11.206  13.645  66.905  1.00  0.00    -0.326 A  
HETATM   10  C   UNL     1     -11.769  12.764  67.829  1.00  0.00    -0.359 A  
HETATM   11  O   UNL     1     -11.979  11.452  67.521  1.00  0.00    -0.626 OA 
HETATM   12  C   UNL     1     -12.134  13.191  69.098  1.00  0.00    -0.261 A  
HETATM   13  H   UNL     1     -12.363  10.851  68.150  1.00  0.00     0.000 HD 
HETATM   14  C   UNL     1     -11.902  14.512  69.468  1.00  0.00    -0.374 A  
HETATM   15  C   UNL     1     -11.302  15.392  68.565  1.00  0.00    -0.342 A  
ENDBRANCH   5   8
ENDBRANCH   4   5
ENDBRANCH   2   4
TORSDOF 3
ENDMDL
MODEL       71
REMARK 921   NORMALIZED FREE ENERGY PREDICTED BY IDOCK:   -3.92 KCAL/MOL
REMARK 922        TOTAL FREE ENERGY PREDICTED BY IDOCK:   -4.81 KCAL/MOL
REMARK 923 INTER-LIGAND FREE ENERGY PREDICTED BY IDOCK:   -4.68 KCAL/MOL
REMARK 924 INTRA-LIGAND FREE ENERGY PREDICTED BY IDOCK:   -0.13 KCAL/MOL
REMARK 927      BINDING AFFINITY PREDICTED BY RF-SCORE:    0.00 PKD
ROOT
HETATM    1  C   UNL     1     -12.363  12.385  70.709  1.00  0.00    -0.286 C  
HETATM    2  N   UNL     1     -11.348  11.901  69.782  1.00  0.00    -0.478 NA 
HETATM    3  H   UNL     1     -10.749  11.198  70.215  1.00  0.00     0.000 HD 
ENDROOT
BRANCH   2   4
HETATM    4  C   UNL     1     -11.959  11.400  68.537  1.00  0.00    -0.225 C  
BRANCH   4   5
HETATM    5  C   UNL     1     -11.044  11.490  67.284  1.00  0.00    -0.293 C  
HETATM    6  H   UNL     1      -9.125  11.518  66.976  1.00  0.00     0.000 HD 
HETATM    7  O   UNL     1      -9.684  11.462  67.743  1.00  0.00    -0.170 OA 
BRANCH   5   8
HETATM    8  C   UNL     1     -11.285  12.709  66.403  1.00  0.00    -0.350 A  
HETATM    9  C   UNL     1     -11.802  12.604  65.098  1.00  0.00    -0.437 A  
HETATM   10  C   UNL     1     -11.996  13.750  64.326  1.00  0.00    -0.443 A  
HETATM   11  O   UNL     1     -12.522  13.681  63.070  1.00  0.00    -1.020 OA 
HETATM   12  C   UNL     1     -11.662  15.007  64.812  1.00  0.00    -0.370 A  
HETATM   13  H   UNL     1     -12.654  14.461  62.544  1.00  0.00     0.000 HD 
HETATM   14  C   UNL     1     -11.158  15.130  66.103  1.00  0.00    -0.311 A  
HETATM   15  C   UNL     1     -10.998  13.993  66.898  1.00  0.00    -0.301 A  
ENDBRANCH   5   8
ENDBRANCH   4   5
ENDBRANCH   2   4
TORSDOF 3
ENDMDL
MODEL       72
REMARK 921   NORMALIZED FREE ENERGY PREDICTED BY IDOCK:   -3.92 KCAL/MOL
REMARK 922        TOTAL FREE ENERGY PREDICTED BY IDOCK:   -4.81 KCAL/MOL
REMARK 923 INTER-LIGAND FREE ENERGY PREDICTED BY IDOCK:   -4.61 KCAL/MOL
REMARK 924 INTRA-LIGAND FREE ENERGY PREDICTED BY IDOCK:   -0.20 KCAL/MOL
REMARK 927      BINDING AFFINITY PREDICTED BY RF-SCORE:    0.00 PKD
ROOT
HETATM    1  C   UNL     1      -9.359  15.380  66.074  1.00  0.00    -0.329 C  
HETATM    2  N   UNL     1     -10.094  14.435  65.244  1.00  0.00    -0.478 NA 
HETATM    3  H   UNL     1      -9.750  14.433  64.283  1.00  0.00     0.000 HD 
ENDROOT
BRANCH   2   4
HETATM    4  C   UNL     1     -10.074  13.083  65.830  1.00  0.00    -0.287 C  
BRANCH   4   5
HETATM    5  C   UNL     1     -11.467  12.540  66.258  1.00  0.00    -0.370 C  
HETATM    6  H   UNL     1     -13.309  13.072  65.943  1.00  0.00     0.000 HD 
HETATM    7  O   UNL     1     -12.458  13.404  65.681  1.00  0.00    -0.456 OA 
BRANCH   5   8
HETATM    8  C   UNL     1     -11.673  12.422  67.762  1.00  0.00    -0.413 A  
HETATM    9  C   UNL     1     -11.780  11.179  68.412  1.00  0.00    -0.349 A  
HETATM   10  C   UNL     1     -11.978  11.123  69.792  1.00  0.00    -0.357 A  
HETATM   11  O   UNL     1     -12.057   9.931  70.451  1.00  0.00    -0.390 OA 
HETATM   12  C   UNL     1     -12.098  12.282  70.547  1.00  0.00    -0.371 A  
HETATM   13  H   UNL     1     -12.192   9.893  71.391  1.00  0.00     0.000 HD 
HETATM   14  C   UNL     1     -11.985  13.520  69.923  1.00  0.00    -0.416 A  
HETATM   15  C   UNL     1     -11.747  13.586  68.548  1.00  0.00    -0.392 A  
ENDBRANCH   5   8
ENDBRANCH   4   5
ENDBRANCH   2   4
TORSDOF 3
ENDMDL
MODEL       73
REMARK 921   NORMALIZED FREE ENERGY PREDICTED BY IDOCK:   -3.90 KCAL/MOL
REMARK 922        TOTAL FREE ENERGY PREDICTED BY IDOCK:   -4.78 KCAL/MOL
REMARK 923 INTER-LIGAND FREE ENERGY PREDICTED BY IDOCK:   -4.62 KCAL/MOL
REMARK 924 INTRA-LIGAND FREE ENERGY PREDICTED BY IDOCK:   -0.16 KCAL/MOL
REMARK 927      BINDING AFFINITY PREDICTED BY RF-SCORE:    0.00 PKD
ROOT
HETATM    1  C   UNL     1      -8.643   7.945  73.543  1.00  0.00    -0.243 C  
HETATM    2  N   UNL     1      -8.284   7.582  72.178  1.00  0.00    -0.100 NA 
HETATM    3  H   UNL     1      -8.614   6.647  71.939  1.00  0.00     0.000 HD 
ENDROOT
BRANCH   2   4
HETATM    4  C   UNL     1      -8.764   8.590  71.215  1.00  0.00    -0.181 C  
BRANCH   4   5
HETATM    5  C   UNL     1     -10.118   8.242  70.533  1.00  0.00    -0.195 C  
HETATM    6  H   UNL     1     -10.767   8.198  68.702  1.00  0.00     0.000 HD 
HETATM    7  O   UNL     1      -9.940   8.410  69.119  1.00  0.00    -0.185 OA 
BRANCH   5   8
HETATM    8  C   UNL     1     -11.308   9.058  71.021  1.00  0.00    -0.362 A  
HETATM    9  C   UNL     1     -12.215   8.567  71.979  1.00  0.00    -0.429 A  
HETATM   10  C   UNL     1     -13.296   9.349  72.388  1.00  0.00    -0.424 A  
HETATM   11  O   UNL     1     -14.173   8.909  73.335  1.00  0.00    -1.241 OA 
HETATM   12  C   UNL     1     -13.516  10.607  71.845  1.00  0.00    -0.341 A  
HETATM   13  H   UNL     1     -14.909   9.442  73.613  1.00  0.00     0.000 HD 
HETATM   14  C   UNL     1     -12.625  11.113  70.904  1.00  0.00    -0.483 A  
HETATM   15  C   UNL     1     -11.517  10.354  70.518  1.00  0.00    -0.431 A  
ENDBRANCH   5   8
ENDBRANCH   4   5
ENDBRANCH   2   4
TORSDOF 3
ENDMDL
MODEL       74
REMARK 921   NORMALIZED FREE ENERGY PREDICTED BY IDOCK:   -3.87 KCAL/MOL
REMARK 922        TOTAL FREE ENERGY PREDICTED BY IDOCK:   -4.75 KCAL/MOL
REMARK 923 INTER-LIGAND FREE ENERGY PREDICTED BY IDOCK:   -4.65 KCAL/MOL
REMARK 924 INTRA-LIGAND FREE ENERGY PREDICTED BY IDOCK:   -0.09 KCAL/MOL
REMARK 927      BINDING AFFINITY PREDICTED BY RF-SCORE:    0.00 PKD
ROOT
HETATM    1  C   UNL     1     -10.750   6.185  67.534  1.00  0.00    -0.313 C  
HETATM    2  N   UNL     1     -11.192   6.972  68.678  1.00  0.00    -0.497 NA 
HETATM    3  H   UNL     1     -12.173   7.240  68.592  1.00  0.00     0.000 HD 
ENDROOT
BRANCH   2   4
HETATM    4  C   UNL     1     -10.931   6.264  69.944  1.00  0.00    -0.370 C  
BRANCH   4   5
HETATM    5  C   UNL     1     -10.554   7.186  71.138  1.00  0.00    -0.223 C  
HETATM    6  H   UNL     1     -10.326   6.939  73.052  1.00  0.00     0.000 HD 
HETATM    7  O   UNL     1     -10.557   6.376  72.323  1.00  0.00    -0.205 OA 
BRANCH   5   8
HETATM    8  C   UNL     1     -11.458   8.399  71.320  1.00  0.00    -0.325 A  
HETATM    9  C   UNL     1     -11.113   9.674  70.833  1.00  0.00    -0.422 A  
HETATM   10  C   UNL     1     -11.971  10.756  71.033  1.00  0.00    -0.304 A  
HETATM   11  O   UNL     1     -11.675  11.996  70.548  1.00  0.00    -0.510 OA 
HETATM   12  C   UNL     1     -13.161  10.609  71.732  1.00  0.00    -0.571 A  
HETATM   13  H   UNL     1     -12.259  12.733  70.685  1.00  0.00     0.000 HD 
HETATM   14  C   UNL     1     -13.522   9.354  72.212  1.00  0.00    -0.539 A  
HETATM   15  C   UNL     1     -12.690   8.256  71.982  1.00  0.00    -0.376 A  
ENDBRANCH   5   8
ENDBRANCH   4   5
ENDBRANCH   2   4
TORSDOF 3
ENDMDL
MODEL       75
REMARK 921   NORMALIZED FREE ENERGY PREDICTED BY IDOCK:   -3.86 KCAL/MOL
REMARK 922        TOTAL FREE ENERGY PREDICTED BY IDOCK:   -4.74 KCAL/MOL
REMARK 923 INTER-LIGAND FREE ENERGY PREDICTED BY IDOCK:   -4.57 KCAL/MOL
REMARK 924 INTRA-LIGAND FREE ENERGY PREDICTED BY IDOCK:   -0.17 KCAL/MOL
REMARK 927      BINDING AFFINITY PREDICTED BY RF-SCORE:    0.00 PKD
ROOT
HETATM    1  C   UNL     1     -11.016  10.473  67.792  1.00  0.00    -0.313 C  
HETATM    2  N   UNL     1     -12.244  10.874  68.464  1.00  0.00    -0.809 NA 
HETATM    3  H   UNL     1     -12.965  10.157  68.388  1.00  0.00     0.000 HD 
ENDROOT
BRANCH   2   4
HETATM    4  C   UNL     1     -11.988  11.240  69.869  1.00  0.00    -0.365 C  
BRANCH   4   5
HETATM    5  C   UNL     1     -12.616  10.276  70.915  1.00  0.00    -0.371 C  
HETATM    6  H   UNL     1     -13.606  10.497  72.573  1.00  0.00     0.000 HD 
HETATM    7  O   UNL     1     -13.222  11.086  71.934  1.00  0.00    -0.473 OA 
BRANCH   5   8
HETATM    8  C   UNL     1     -11.643   9.281  71.534  1.00  0.00    -0.452 A  
HETATM    9  C   UNL     1     -10.247   9.442  71.450  1.00  0.00    -0.297 A  
HETATM   10  C   UNL     1      -9.396   8.498  72.026  1.00  0.00    -0.283 A  
HETATM   11  O   UNL     1      -8.041   8.644  71.985  1.00  0.00    -0.247 OA 
HETATM   12  C   UNL     1      -9.900   7.374  72.666  1.00  0.00    -0.224 A  
HETATM   13  H   UNL     1      -7.462   8.001  72.376  1.00  0.00     0.000 HD 
HETATM   14  C   UNL     1     -11.278   7.203  72.766  1.00  0.00    -0.314 A  
HETATM   15  C   UNL     1     -12.138   8.163  72.228  1.00  0.00    -0.419 A  
ENDBRANCH   5   8
ENDBRANCH   4   5
ENDBRANCH   2   4
TORSDOF 3
ENDMDL
MODEL       76
REMARK 921   NORMALIZED FREE ENERGY PREDICTED BY IDOCK:   -3.85 KCAL/MOL
REMARK 922        TOTAL FREE ENERGY PREDICTED BY IDOCK:   -4.73 KCAL/MOL
REMARK 923 INTER-LIGAND FREE ENERGY PREDICTED BY IDOCK:   -4.56 KCAL/MOL
REMARK 924 INTRA-LIGAND FREE ENERGY PREDICTED BY IDOCK:   -0.16 KCAL/MOL
REMARK 927      BINDING AFFINITY PREDICTED BY RF-SCORE:    0.00 PKD
ROOT
HETATM    1  C   UNL     1     -11.028  10.464  67.791  1.00  0.00    -0.309 C  
HETATM    2  N   UNL     1     -12.284  10.865  68.411  1.00  0.00    -0.810 NA 
HETATM    3  H   UNL     1     -13.010  10.160  68.277  1.00  0.00     0.000 HD 
ENDROOT
BRANCH   2   4
HETATM    4  C   UNL     1     -12.096  11.186  69.837  1.00  0.00    -0.344 C  
BRANCH   4   5
HETATM    5  C   UNL     1     -12.831  10.231  70.819  1.00  0.00    -0.344 C  
HETATM    6  H   UNL     1     -13.898  10.462  72.428  1.00  0.00     0.000 HD 
HETATM    7  O   UNL     1     -13.449  11.045  71.827  1.00  0.00    -0.313 OA 
BRANCH   5   8
HETATM    8  C   UNL     1     -11.947   9.169  71.461  1.00  0.00    -0.422 A  
HETATM    9  C   UNL     1     -12.441   7.907  71.840  1.00  0.00    -0.352 A  
HETATM   10  C   UNL     1     -11.593   6.971  72.433  1.00  0.00    -0.245 A  
HETATM   11  O   UNL     1     -12.039   5.730  72.784  1.00  0.00    -0.543 OA 
HETATM   12  C   UNL     1     -10.261   7.268  72.685  1.00  0.00    -0.251 A  
HETATM   13  H   UNL     1     -11.461   5.093  73.188  1.00  0.00     0.000 HD 
HETATM   14  C   UNL     1      -9.753   8.508  72.308  1.00  0.00    -0.380 A  
HETATM   15  C   UNL     1     -10.584   9.436  71.678  1.00  0.00    -0.248 A  
ENDBRANCH   5   8
ENDBRANCH   4   5
ENDBRANCH   2   4
TORSDOF 3
ENDMDL
MODEL       77
REMARK 921   NORMALIZED FREE ENERGY PREDICTED BY IDOCK:   -3.85 KCAL/MOL
REMARK 922        TOTAL FREE ENERGY PREDICTED BY IDOCK:   -4.72 KCAL/MOL
REMARK 923 INTER-LIGAND FREE ENERGY PREDICTED BY IDOCK:   -4.63 KCAL/MOL
REMARK 924 INTRA-LIGAND FREE ENERGY PREDICTED BY IDOCK:   -0.09 KCAL/MOL
REMARK 927      BINDING AFFINITY PREDICTED BY RF-SCORE:    0.00 PKD
ROOT
HETATM    1  C   UNL     1     -12.136  14.403  70.159  1.00  0.00    -0.335 C  
HETATM    2  N   UNL     1     -12.262  14.654  68.729  1.00  0.00    -0.578 NA 
HETATM    3  H   UNL     1     -11.650  15.413  68.427  1.00  0.00     0.000 HD 
ENDROOT
BRANCH   2   4
HETATM    4  C   UNL     1     -12.027  13.425  67.950  1.00  0.00    -0.323 C  
BRANCH   4   5
HETATM    5  C   UNL     1     -11.706  13.660  66.447  1.00  0.00    -0.373 C  
HETATM    6  H   UNL     1     -12.755  14.057  64.860  1.00  0.00     0.000 HD 
HETATM    7  O   UNL     1     -12.951  13.914  65.778  1.00  0.00    -0.506 OA 
BRANCH   5   8
HETATM    8  C   UNL     1     -10.958  12.522  65.767  1.00  0.00    -0.327 A  
HETATM    9  C   UNL     1     -10.331  12.675  64.516  1.00  0.00    -0.369 A  
HETATM   10  C   UNL     1      -9.665  11.598  63.929  1.00  0.00    -0.230 A  
HETATM   11  O   UNL     1      -9.025  11.726  62.731  1.00  0.00    -0.629 OA 
HETATM   12  C   UNL     1      -9.627  10.356  64.546  1.00  0.00    -0.369 A  
HETATM   13  H   UNL     1      -8.572  10.993  62.331  1.00  0.00     0.000 HD 
HETATM   14  C   UNL     1     -10.232  10.189  65.788  1.00  0.00    -0.283 A  
HETATM   15  C   UNL     1     -10.867  11.270  66.402  1.00  0.00    -0.306 A  
ENDBRANCH   5   8
ENDBRANCH   4   5
ENDBRANCH   2   4
TORSDOF 3
ENDMDL
MODEL       78
REMARK 921   NORMALIZED FREE ENERGY PREDICTED BY IDOCK:   -3.83 KCAL/MOL
REMARK 922        TOTAL FREE ENERGY PREDICTED BY IDOCK:   -4.70 KCAL/MOL
REMARK 923 INTER-LIGAND FREE ENERGY PREDICTED BY IDOCK:   -4.54 KCAL/MOL
REMARK 924 INTRA-LIGAND FREE ENERGY PREDICTED BY IDOCK:   -0.16 KCAL/MOL
REMARK 927      BINDING AFFINITY PREDICTED BY RF-SCORE:    0.00 PKD
ROOT
HETATM    1  C   UNL     1     -11.830  15.430  70.049  1.00  0.00    -0.343 C  
HETATM    2  N   UNL     1     -12.078  15.328  68.617  1.00  0.00    -0.585 NA 
HETATM    3  H   UNL     1     -12.613  16.125  68.271  1.00  0.00     0.000 HD 
ENDROOT
BRANCH   2   4
HETATM    4  C   UNL     1     -10.819  15.155  67.869  1.00  0.00    -0.291 C  
BRANCH   4   5
HETATM    5  C   UNL     1     -10.655  16.102  66.647  1.00  0.00    -0.274 C  
HETATM    6  H   UNL     1      -9.700  16.018  64.956  1.00  0.00     0.000 HD 
HETATM    7  O   UNL     1      -9.801  15.439  65.703  1.00  0.00    -0.339 OA 
BRANCH   5   8
HETATM    8  C   UNL     1     -10.109  17.485  66.979  1.00  0.00    -0.323 A  
HETATM    9  C   UNL     1      -9.089  17.684  67.928  1.00  0.00    -0.260 A  
HETATM   10  C   UNL     1      -8.629  18.972  68.204  1.00  0.00    -0.320 A  
HETATM   11  O   UNL     1      -7.623  19.191  69.098  1.00  0.00    -0.322 OA 
HETATM   12  C   UNL     1      -9.179  20.080  67.574  1.00  0.00    -0.475 A  
HETATM   13  H   UNL     1      -7.310  20.069  69.286  1.00  0.00     0.000 HD 
HETATM   14  C   UNL     1     -10.182  19.902  66.626  1.00  0.00    -0.609 A  
HETATM   15  C   UNL     1     -10.621  18.614  66.314  1.00  0.00    -0.396 A  
ENDBRANCH   5   8
ENDBRANCH   4   5
ENDBRANCH   2   4
TORSDOF 3
ENDMDL
MODEL       79
REMARK 921   NORMALIZED FREE ENERGY PREDICTED BY IDOCK:   -3.82 KCAL/MOL
REMARK 922        TOTAL FREE ENERGY PREDICTED BY IDOCK:   -4.69 KCAL/MOL
REMARK 923 INTER-LIGAND FREE ENERGY PREDICTED BY IDOCK:   -4.55 KCAL/MOL
REMARK 924 INTRA-LIGAND FREE ENERGY PREDICTED BY IDOCK:   -0.14 KCAL/MOL
REMARK 927      BINDING AFFINITY PREDICTED BY RF-SCORE:    0.00 PKD
ROOT
HETATM    1  C   UNL     1      -8.013  15.358  69.147  1.00  0.00    -0.222 C  
HETATM    2  N   UNL     1      -9.325  15.001  69.671  1.00  0.00    -0.450 NA 
HETATM    3  H   UNL     1      -9.875  15.828  69.901  1.00  0.00     0.000 HD 
ENDROOT
BRANCH   2   4
HETATM    4  C   UNL     1     -10.045  14.112  68.741  1.00  0.00    -0.198 C  
BRANCH   4   5
HETATM    5  C   UNL     1     -11.587  14.077  68.939  1.00  0.00    -0.315 C  
HETATM    6  H   UNL     1     -12.931  15.354  69.525  1.00  0.00     0.000 HD 
HETATM    7  O   UNL     1     -11.988  15.375  69.403  1.00  0.00    -0.333 OA 
BRANCH   5   8
HETATM    8  C   UNL     1     -12.085  12.994  69.887  1.00  0.00    -0.347 A  
HETATM    9  C   UNL     1     -11.986  11.624  69.583  1.00  0.00    -0.390 A  
HETATM   10  C   UNL     1     -12.466  10.670  70.481  1.00  0.00    -0.358 A  
HETATM   11  O   UNL     1     -12.357   9.334  70.225  1.00  0.00    -0.452 OA 
HETATM   12  C   UNL     1     -13.071  11.046  71.672  1.00  0.00    -0.543 A  
HETATM   13  H   UNL     1     -12.684   8.685  70.836  1.00  0.00     0.000 HD 
HETATM   14  C   UNL     1     -13.169  12.396  71.994  1.00  0.00    -0.514 A  
HETATM   15  C   UNL     1     -12.656  13.357  71.120  1.00  0.00    -0.430 A  
ENDBRANCH   5   8
ENDBRANCH   4   5
ENDBRANCH   2   4
TORSDOF 3
ENDMDL
MODEL       80
REMARK 921   NORMALIZED FREE ENERGY PREDICTED BY IDOCK:   -3.80 KCAL/MOL
REMARK 922        TOTAL FREE ENERGY PREDICTED BY IDOCK:   -4.67 KCAL/MOL
REMARK 923 INTER-LIGAND FREE ENERGY PREDICTED BY IDOCK:   -4.52 KCAL/MOL
REMARK 924 INTRA-LIGAND FREE ENERGY PREDICTED BY IDOCK:   -0.15 KCAL/MOL
REMARK 927      BINDING AFFINITY PREDICTED BY RF-SCORE:    0.00 PKD
ROOT
HETATM    1  C   UNL     1     -13.476  15.465  71.380  1.00  0.00    -0.522 C  
HETATM    2  N   UNL     1     -12.117  15.987  71.316  1.00  0.00    -0.544 NA 
HETATM    3  H   UNL     1     -11.480  15.446  71.901  1.00  0.00     0.000 HD 
ENDROOT
BRANCH   2   4
HETATM    4  C   UNL     1     -11.642  16.066  69.923  1.00  0.00    -0.299 C  
BRANCH   4   5
HETATM    5  C   UNL     1     -10.475  15.097  69.580  1.00  0.00    -0.250 C  
HETATM    6  H   UNL     1      -8.701  15.294  68.812  1.00  0.00     0.000 HD 
HETATM    7  O   UNL     1      -9.413  15.886  69.022  1.00  0.00    -0.217 OA 
BRANCH   5   8
HETATM    8  C   UNL     1     -10.845  13.959  68.638  1.00  0.00    -0.278 A  
HETATM    9  C   UNL     1     -11.362  12.735  69.103  1.00  0.00    -0.337 A  
HETATM   10  C   UNL     1     -11.677  11.719  68.200  1.00  0.00    -0.307 A  
HETATM   11  O   UNL     1     -12.206  10.534  68.621  1.00  0.00    -0.794 OA 
HETATM   12  C   UNL     1     -11.467  11.879  66.838  1.00  0.00    -0.390 A  
HETATM   13  H   UNL     1     -12.420   9.842  68.006  1.00  0.00     0.000 HD 
HETATM   14  C   UNL     1     -10.966  13.086  66.359  1.00  0.00    -0.301 A  
HETATM   15  C   UNL     1     -10.685  14.124  67.251  1.00  0.00    -0.279 A  
ENDBRANCH   5   8
ENDBRANCH   4   5
ENDBRANCH   2   4
TORSDOF 3
ENDMDL
MODEL       81
REMARK 921   NORMALIZED FREE ENERGY PREDICTED BY IDOCK:   -3.78 KCAL/MOL
REMARK 922        TOTAL FREE ENERGY PREDICTED BY IDOCK:   -4.64 KCAL/MOL
REMARK 923 INTER-LIGAND FREE ENERGY PREDICTED BY IDOCK:   -4.53 KCAL/MOL
REMARK 924 INTRA-LIGAND FREE ENERGY PREDICTED BY IDOCK:   -0.11 KCAL/MOL
REMARK 927      BINDING AFFINITY PREDICTED BY RF-SCORE:    0.00 PKD
ROOT
HETATM    1  C   UNL     1     -10.268  19.262  68.226  1.00  0.00    -0.418 C  
HETATM    2  N   UNL     1     -10.753  18.196  67.360  1.00  0.00    -0.384 NA 
HETATM    3  H   UNL     1     -10.426  18.314  66.401  1.00  0.00     0.000 HD 
ENDROOT
BRANCH   2   4
HETATM    4  C   UNL     1     -10.395  16.870  67.896  1.00  0.00    -0.332 C  
BRANCH   4   5
HETATM    5  C   UNL     1     -11.491  16.210  68.780  1.00  0.00    -0.340 C  
HETATM    6  H   UNL     1     -11.879  16.158  70.684  1.00  0.00     0.000 HD 
HETATM    7  O   UNL     1     -11.209  16.560  70.144  1.00  0.00    -0.323 OA 
BRANCH   5   8
HETATM    8  C   UNL     1     -11.609  14.699  68.632  1.00  0.00    -0.343 A  
HETATM    9  C   UNL     1     -11.677  13.837  69.742  1.00  0.00    -0.367 A  
HETATM   10  C   UNL     1     -11.776  12.458  69.554  1.00  0.00    -0.322 A  
HETATM   11  O   UNL     1     -11.872  11.602  70.612  1.00  0.00    -0.452 OA 
HETATM   12  C   UNL     1     -11.782  11.906  68.281  1.00  0.00    -0.385 A  
HETATM   13  H   UNL     1     -11.939  10.663  70.484  1.00  0.00     0.000 HD 
HETATM   14  C   UNL     1     -11.724  12.744  67.172  1.00  0.00    -0.443 A  
HETATM   15  C   UNL     1     -11.666  14.128  67.348  1.00  0.00    -0.422 A  
ENDBRANCH   5   8
ENDBRANCH   4   5
ENDBRANCH   2   4
TORSDOF 3
ENDMDL
MODEL       82
REMARK 921   NORMALIZED FREE ENERGY PREDICTED BY IDOCK:   -3.76 KCAL/MOL
REMARK 922        TOTAL FREE ENERGY PREDICTED BY IDOCK:   -4.62 KCAL/MOL
REMARK 923 INTER-LIGAND FREE ENERGY PREDICTED BY IDOCK:   -4.50 KCAL/MOL
REMARK 924 INTRA-LIGAND FREE ENERGY PREDICTED BY IDOCK:   -0.12 KCAL/MOL
REMARK 927      BINDING AFFINITY PREDICTED BY RF-SCORE:    0.00 PKD
ROOT
HETATM    1  C   UNL     1     -11.204   7.120  72.809  1.00  0.00    -0.275 C  
HETATM    2  N   UNL     1     -12.325   7.701  72.083  1.00  0.00    -0.434 NA 
HETATM    3  H   UNL     1     -13.066   8.004  72.716  1.00  0.00     0.000 HD 
ENDROOT
BRANCH   2   4
HETATM    4  C   UNL     1     -11.879   8.798  71.205  1.00  0.00    -0.295 C  
BRANCH   4   5
HETATM    5  C   UNL     1     -12.282  10.220  71.687  1.00  0.00    -0.291 C  
HETATM    6  H   UNL     1     -13.868  11.006  72.489  1.00  0.00     0.000 HD 
HETATM    7  O   UNL     1     -13.622  10.137  72.194  1.00  0.00    -0.368 OA 
BRANCH   5   8
HETATM    8  C   UNL     1     -12.179  11.308  70.627  1.00  0.00    -0.489 A  
HETATM    9  C   UNL     1     -11.989  11.015  69.263  1.00  0.00    -0.410 A  
HETATM   10  C   UNL     1     -11.892  12.048  68.330  1.00  0.00    -0.300 A  
HETATM   11  O   UNL     1     -11.736  11.791  67.000  1.00  0.00    -0.555 OA 
HETATM   12  C   UNL     1     -11.955  13.378  68.723  1.00  0.00    -0.359 A  
HETATM   13  H   UNL     1     -11.670  12.495  66.364  1.00  0.00     0.000 HD 
HETATM   14  C   UNL     1     -12.152  13.686  70.066  1.00  0.00    -0.417 A  
HETATM   15  C   UNL     1     -12.290  12.659  71.002  1.00  0.00    -0.307 A  
ENDBRANCH   5   8
ENDBRANCH   4   5
ENDBRANCH   2   4
TORSDOF 3
ENDMDL
MODEL       83
REMARK 921   NORMALIZED FREE ENERGY PREDICTED BY IDOCK:   -3.75 KCAL/MOL
REMARK 922        TOTAL FREE ENERGY PREDICTED BY IDOCK:   -4.61 KCAL/MOL
REMARK 923 INTER-LIGAND FREE ENERGY PREDICTED BY IDOCK:   -4.51 KCAL/MOL
REMARK 924 INTRA-LIGAND FREE ENERGY PREDICTED BY IDOCK:   -0.10 KCAL/MOL
REMARK 927      BINDING AFFINITY PREDICTED BY RF-SCORE:    0.00 PKD
ROOT
HETATM    1  C   UNL     1      -8.009  16.596  68.758  1.00  0.00    -0.239 C  
HETATM    2  N   UNL     1      -9.206  16.031  68.150  1.00  0.00    -0.194 NA 
HETATM    3  H   UNL     1      -9.041  15.758  67.180  1.00  0.00     0.000 HD 
ENDROOT
BRANCH   2   4
HETATM    4  C   UNL     1      -9.729  14.907  68.948  1.00  0.00    -0.223 C  
BRANCH   4   5
HETATM    5  C   UNL     1     -11.230  14.584  68.707  1.00  0.00    -0.261 C  
HETATM    6  H   UNL     1     -12.869  15.626  68.622  1.00  0.00     0.000 HD 
HETATM    7  O   UNL     1     -11.951  15.824  68.769  1.00  0.00    -0.374 OA 
BRANCH   5   8
HETATM    8  C   UNL     1     -11.829  13.571  69.674  1.00  0.00    -0.398 A  
HETATM    9  C   UNL     1     -12.660  13.952  70.744  1.00  0.00    -0.424 A  
HETATM   10  C   UNL     1     -13.177  12.987  71.609  1.00  0.00    -0.336 A  
HETATM   11  O   UNL     1     -14.007  13.326  72.637  1.00  0.00    -0.741 OA 
HETATM   12  C   UNL     1     -12.868  11.643  71.452  1.00  0.00    -0.461 A  
HETATM   13  H   UNL     1     -14.359  12.669  73.226  1.00  0.00     0.000 HD 
HETATM   14  C   UNL     1     -12.056  11.247  70.393  1.00  0.00    -0.474 A  
HETATM   15  C   UNL     1     -11.566  12.201  69.499  1.00  0.00    -0.382 A  
ENDBRANCH   5   8
ENDBRANCH   4   5
ENDBRANCH   2   4
TORSDOF 3
ENDMDL
MODEL       84
REMARK 921   NORMALIZED FREE ENERGY PREDICTED BY IDOCK:   -3.75 KCAL/MOL
REMARK 922        TOTAL FREE ENERGY PREDICTED BY IDOCK:   -4.61 KCAL/MOL
REMARK 923 INTER-LIGAND FREE ENERGY PREDICTED BY IDOCK:   -4.43 KCAL/MOL
REMARK 924 INTRA-LIGAND FREE ENERGY PREDICTED BY IDOCK:   -0.18 KCAL/MOL
REMARK 927      BINDING AFFINITY PREDICTED BY RF-SCORE:    0.00 PKD
ROOT
HETATM    1  C   UNL     1      -8.107  13.208  67.871  1.00  0.00    -0.159 C  
HETATM    2  N   UNL     1      -9.293  13.325  68.709  1.00  0.00    -0.398 NA 
HETATM    3  H   UNL     1      -9.113  13.895  69.536  1.00  0.00     0.000 HD 
ENDROOT
BRANCH   2   4
HETATM    4  C   UNL     1     -10.441  13.835  67.938  1.00  0.00    -0.246 C  
BRANCH   4   5
HETATM    5  C   UNL     1     -10.132  14.152  66.447  1.00  0.00    -0.293 C  
HETATM    6  H   UNL     1     -10.154  15.754  65.346  1.00  0.00     0.000 HD 
HETATM    7  O   UNL     1     -10.343  15.560  66.257  1.00  0.00    -0.278 OA 
BRANCH   5   8
HETATM    8  C   UNL     1     -10.947  13.351  65.440  1.00  0.00    -0.297 A  
HETATM    9  C   UNL     1     -10.348  12.476  64.514  1.00  0.00    -0.362 A  
HETATM   10  C   UNL     1     -11.137  11.770  63.605  1.00  0.00    -0.439 A  
HETATM   11  O   UNL     1     -10.586  10.895  62.716  1.00  0.00    -0.780 OA 
HETATM   12  C   UNL     1     -12.515  11.932  63.575  1.00  0.00    -0.609 A  
HETATM   13  H   UNL     1     -11.123  10.415  62.097  1.00  0.00     0.000 HD 
HETATM   14  C   UNL     1     -13.125  12.785  64.489  1.00  0.00    -0.048 A  
HETATM   15  C   UNL     1     -12.348  13.465  65.429  1.00  0.00    -0.522 A  
ENDBRANCH   5   8
ENDBRANCH   4   5
ENDBRANCH   2   4
TORSDOF 3
ENDMDL
MODEL       85
REMARK 921   NORMALIZED FREE ENERGY PREDICTED BY IDOCK:   -3.74 KCAL/MOL
REMARK 922        TOTAL FREE ENERGY PREDICTED BY IDOCK:   -4.60 KCAL/MOL
REMARK 923 INTER-LIGAND FREE ENERGY PREDICTED BY IDOCK:   -4.50 KCAL/MOL
REMARK 924 INTRA-LIGAND FREE ENERGY PREDICTED BY IDOCK:   -0.10 KCAL/MOL
REMARK 927      BINDING AFFINITY PREDICTED BY RF-SCORE:    0.00 PKD
ROOT
HETATM    1  C   UNL     1      -8.342  12.755  68.426  1.00  0.00    -0.119 C  
HETATM    2  N   UNL     1      -9.369  11.772  68.747  1.00  0.00    -0.388 NA 
HETATM    3  H   UNL     1      -9.428  11.606  69.752  1.00  0.00     0.000 HD 
ENDROOT
BRANCH   2   4
HETATM    4  C   UNL     1     -10.673  12.161  68.182  1.00  0.00    -0.211 C  
BRANCH   4   5
HETATM    5  C   UNL     1     -11.014  13.672  68.317  1.00  0.00    -0.254 C  
HETATM    6  H   UNL     1     -12.466  14.692  69.110  1.00  0.00     0.000 HD 
HETATM    7  O   UNL     1     -12.257  13.769  69.028  1.00  0.00    -0.343 OA 
BRANCH   5   8
HETATM    8  C   UNL     1     -11.095  14.429  66.998  1.00  0.00    -0.317 A  
HETATM    9  C   UNL     1     -11.739  13.900  65.864  1.00  0.00    -0.372 A  
HETATM   10  C   UNL     1     -11.778  14.629  64.675  1.00  0.00    -0.426 A  
HETATM   11  O   UNL     1     -12.419  14.152  63.570  1.00  0.00    -1.076 OA 
HETATM   12  C   UNL     1     -11.166  15.871  64.575  1.00  0.00    -0.324 A  
HETATM   13  H   UNL     1     -12.446  14.649  62.760  1.00  0.00     0.000 HD 
HETATM   14  C   UNL     1     -10.533  16.414  65.688  1.00  0.00    -0.364 A  
HETATM   15  C   UNL     1     -10.523  15.710  66.894  1.00  0.00    -0.307 A  
ENDBRANCH   5   8
ENDBRANCH   4   5
ENDBRANCH   2   4
TORSDOF 3
ENDMDL
MODEL       86
REMARK 921   NORMALIZED FREE ENERGY PREDICTED BY IDOCK:   -3.73 KCAL/MOL
REMARK 922        TOTAL FREE ENERGY PREDICTED BY IDOCK:   -4.59 KCAL/MOL
REMARK 923 INTER-LIGAND FREE ENERGY PREDICTED BY IDOCK:   -4.55 KCAL/MOL
REMARK 924 INTRA-LIGAND FREE ENERGY PREDICTED BY IDOCK:   -0.04 KCAL/MOL
REMARK 927      BINDING AFFINITY PREDICTED BY RF-SCORE:    0.00 PKD
ROOT
HETATM    1  C   UNL     1     -11.962  13.500  68.467  1.00  0.00    -0.344 C  
HETATM    2  N   UNL     1     -12.027  14.901  68.075  1.00  0.00    -0.537 NA 
HETATM    3  H   UNL     1     -11.893  15.521  68.874  1.00  0.00     0.000 HD 
ENDROOT
BRANCH   2   4
HETATM    4  C   UNL     1     -11.070  15.197  66.993  1.00  0.00    -0.328 C  
BRANCH   4   5
HETATM    5  C   UNL     1      -9.811  15.992  67.439  1.00  0.00    -0.236 C  
HETATM    6  H   UNL     1      -8.673  16.001  69.015  1.00  0.00     0.000 HD 
HETATM    7  O   UNL     1      -9.443  15.515  68.742  1.00  0.00    -0.190 OA 
BRANCH   5   8
HETATM    8  C   UNL     1      -9.983  17.505  67.455  1.00  0.00    -0.315 A  
HETATM    9  C   UNL     1     -10.137  18.257  66.275  1.00  0.00    -0.389 A  
HETATM   10  C   UNL     1     -10.281  19.644  66.341  1.00  0.00    -0.488 A  
HETATM   11  O   UNL     1     -10.460  20.393  65.215  1.00  0.00    -0.309 OA 
HETATM   12  C   UNL     1     -10.251  20.311  67.557  1.00  0.00    -0.486 A  
HETATM   13  H   UNL     1     -10.559  21.337  65.260  1.00  0.00     0.000 HD 
HETATM   14  C   UNL     1     -10.109  19.583  68.734  1.00  0.00    -0.519 A  
HETATM   15  C   UNL     1     -10.004  18.191  68.682  1.00  0.00    -0.409 A  
ENDBRANCH   5   8
ENDBRANCH   4   5
ENDBRANCH   2   4
TORSDOF 3
ENDMDL
MODEL       87
REMARK 921   NORMALIZED FREE ENERGY PREDICTED BY IDOCK:   -3.72 KCAL/MOL
REMARK 922        TOTAL FREE ENERGY PREDICTED BY IDOCK:   -4.57 KCAL/MOL
REMARK 923 INTER-LIGAND FREE ENERGY PREDICTED BY IDOCK:   -4.44 KCAL/MOL
REMARK 924 INTRA-LIGAND FREE ENERGY PREDICTED BY IDOCK:   -0.13 KCAL/MOL
REMARK 927      BINDING AFFINITY PREDICTED BY RF-SCORE:    0.00 PKD
ROOT
HETATM    1  C   UNL     1     -12.188   6.954  71.571  1.00  0.00    -0.371 C  
HETATM    2  N   UNL     1     -12.273   8.279  72.171  1.00  0.00    -0.344 NA 
HETATM    3  H   UNL     1     -12.075   8.252  73.171  1.00  0.00     0.000 HD 
ENDROOT
BRANCH   2   4
HETATM    4  C   UNL     1     -11.400   9.238  71.470  1.00  0.00    -0.385 C  
BRANCH   4   5
HETATM    5  C   UNL     1     -11.914  10.705  71.471  1.00  0.00    -0.053 C  
HETATM    6  H   UNL     1     -13.579  11.582  71.959  1.00  0.00     0.000 HD 
HETATM    7  O   UNL     1     -13.264  10.685  71.958  1.00  0.00    -0.473 OA 
BRANCH   5   8
HETATM    8  C   UNL     1     -11.844  11.409  70.122  1.00  0.00    -0.440 A  
HETATM    9  C   UNL     1     -12.082  12.788  69.980  1.00  0.00    -0.355 A  
HETATM   10  C   UNL     1     -12.016  13.385  68.721  1.00  0.00    -0.324 A  
HETATM   11  O   UNL     1     -12.214  14.725  68.558  1.00  0.00    -0.580 OA 
HETATM   12  C   UNL     1     -11.741  12.636  67.585  1.00  0.00    -0.420 A  
HETATM   13  H   UNL     1     -12.169  15.132  67.701  1.00  0.00     0.000 HD 
HETATM   14  C   UNL     1     -11.494  11.273  67.708  1.00  0.00    -0.350 A  
HETATM   15  C   UNL     1     -11.519  10.673  68.969  1.00  0.00    -0.342 A  
ENDBRANCH   5   8
ENDBRANCH   4   5
ENDBRANCH   2   4
TORSDOF 3
ENDMDL
MODEL       88
REMARK 921   NORMALIZED FREE ENERGY PREDICTED BY IDOCK:   -3.70 KCAL/MOL
REMARK 922        TOTAL FREE ENERGY PREDICTED BY IDOCK:   -4.55 KCAL/MOL
REMARK 923 INTER-LIGAND FREE ENERGY PREDICTED BY IDOCK:   -4.42 KCAL/MOL
REMARK 924 INTRA-LIGAND FREE ENERGY PREDICTED BY IDOCK:   -0.13 KCAL/MOL
REMARK 927      BINDING AFFINITY PREDICTED BY RF-SCORE:    0.00 PKD
ROOT
HETATM    1  C   UNL     1      -9.282  12.895  66.568  1.00  0.00    -0.182 C  
HETATM    2  N   UNL     1      -9.068  14.251  66.079  1.00  0.00    -0.494 NA 
HETATM    3  H   UNL     1      -9.471  14.383  65.151  1.00  0.00     0.000 HD 
ENDROOT
BRANCH   2   4
HETATM    4  C   UNL     1      -9.576  15.248  67.039  1.00  0.00    -0.224 C  
BRANCH   4   5
HETATM    5  C   UNL     1     -10.396  16.404  66.400  1.00  0.00    -0.313 C  
HETATM    6  H   UNL     1     -10.904  16.897  64.589  1.00  0.00     0.000 HD 
HETATM    7  O   UNL     1     -10.403  16.191  64.980  1.00  0.00    -0.573 OA 
BRANCH   5   8
HETATM    8  C   UNL     1      -9.890  17.803  66.726  1.00  0.00    -0.320 A  
HETATM    9  C   UNL     1      -8.769  18.366  66.088  1.00  0.00    -0.126 A  
HETATM   10  C   UNL     1      -8.339  19.649  66.428  1.00  0.00    -0.353 A  
HETATM   11  O   UNL     1      -7.273  20.229  65.806  1.00  0.00    -0.368 OA 
HETATM   12  C   UNL     1      -8.984  20.384  67.412  1.00  0.00    -0.449 A  
HETATM   13  H   UNL     1      -6.980  21.103  66.038  1.00  0.00     0.000 HD 
HETATM   14  C   UNL     1     -10.100  19.848  68.047  1.00  0.00    -0.572 A  
HETATM   15  C   UNL     1     -10.563  18.581  67.685  1.00  0.00    -0.450 A  
ENDBRANCH   5   8
ENDBRANCH   4   5
ENDBRANCH   2   4
TORSDOF 3
ENDMDL
MODEL       89
REMARK 921   NORMALIZED FREE ENERGY PREDICTED BY IDOCK:   -3.69 KCAL/MOL
REMARK 922        TOTAL FREE ENERGY PREDICTED BY IDOCK:   -4.54 KCAL/MOL
REMARK 923 INTER-LIGAND FREE ENERGY PREDICTED BY IDOCK:   -4.40 KCAL/MOL
REMARK 924 INTRA-LIGAND FREE ENERGY PREDICTED BY IDOCK:   -0.14 KCAL/MOL
REMARK 927      BINDING AFFINITY PREDICTED BY RF-SCORE:    0.00 PKD
ROOT
HETATM    1  C   UNL     1      -9.829  18.696  68.509  1.00  0.00    -0.386 C  
HETATM    2  N   UNL     1      -9.778  17.240  68.554  1.00  0.00    -0.284 NA 
HETATM    3  H   UNL     1      -9.554  16.901  69.490  1.00  0.00     0.000 HD 
ENDROOT
BRANCH   2   4
HETATM    4  C   UNL     1     -11.029  16.648  68.047  1.00  0.00    -0.311 C  
BRANCH   4   5
HETATM    5  C   UNL     1     -11.774  15.737  69.063  1.00  0.00    -0.396 C  
HETATM    6  H   UNL     1     -11.663  15.431  70.979  1.00  0.00     0.000 HD 
HETATM    7  O   UNL     1     -11.208  15.987  70.358  1.00  0.00    -0.342 OA 
BRANCH   5   8
HETATM    8  C   UNL     1     -11.731  14.250  68.740  1.00  0.00    -0.378 A  
HETATM    9  C   UNL     1     -11.793  13.763  67.421  1.00  0.00    -0.431 A  
HETATM   10  C   UNL     1     -11.759  12.390  67.177  1.00  0.00    -0.345 A  
HETATM   11  O   UNL     1     -11.790  11.893  65.907  1.00  0.00    -0.466 OA 
HETATM   12  C   UNL     1     -11.690  11.478  68.221  1.00  0.00    -0.371 A  
HETATM   13  H   UNL     1     -11.767  10.957  65.741  1.00  0.00     0.000 HD 
HETATM   14  C   UNL     1     -11.619  11.940  69.531  1.00  0.00    -0.394 A  
HETATM   15  C   UNL     1     -11.611  13.314  69.783  1.00  0.00    -0.297 A  
ENDBRANCH   5   8
ENDBRANCH   4   5
ENDBRANCH   2   4
TORSDOF 3
ENDMDL
MODEL       90
REMARK 921   NORMALIZED FREE ENERGY PREDICTED BY IDOCK:   -3.69 KCAL/MOL
REMARK 922        TOTAL FREE ENERGY PREDICTED BY IDOCK:   -4.54 KCAL/MOL
REMARK 923 INTER-LIGAND FREE ENERGY PREDICTED BY IDOCK:   -4.54 KCAL/MOL
REMARK 924 INTRA-LIGAND FREE ENERGY PREDICTED BY IDOCK:    0.00 KCAL/MOL
REMARK 927      BINDING AFFINITY PREDICTED BY RF-SCORE:    0.00 PKD
ROOT
HETATM    1  C   UNL     1     -11.508  15.892  64.226  1.00  0.00    -0.191 C  
HETATM    2  N   UNL     1     -12.530  14.942  63.809  1.00  0.00    -1.062 NA 
HETATM    3  H   UNL     1     -12.883  15.156  62.876  1.00  0.00     0.000 HD 
ENDROOT
BRANCH   2   4
HETATM    4  C   UNL     1     -12.037  13.556  63.898  1.00  0.00    -0.438 C  
BRANCH   4   5
HETATM    5  C   UNL     1     -12.462  12.798  65.188  1.00  0.00    -0.501 C  
HETATM    6  H   UNL     1     -13.279  13.303  66.878  1.00  0.00     0.000 HD 
HETATM    7  O   UNL     1     -13.019  13.766  66.090  1.00  0.00    -0.274 OA 
BRANCH   5   8
HETATM    8  C   UNL     1     -11.345  12.017  65.868  1.00  0.00    -0.391 A  
HETATM    9  C   UNL     1     -11.164  12.024  67.264  1.00  0.00    -0.371 A  
HETATM   10  C   UNL     1     -10.120  11.299  67.839  1.00  0.00    -0.178 A  
HETATM   11  O   UNL     1      -9.939  11.265  69.191  1.00  0.00    -0.377 OA 
HETATM   12  C   UNL     1      -9.227  10.582  67.055  1.00  0.00    -0.167 A  
HETATM   13  H   UNL     1      -9.227  10.772  69.583  1.00  0.00     0.000 HD 
HETATM   14  C   UNL     1      -9.396  10.556  65.674  1.00  0.00    -0.242 A  
HETATM   15  C   UNL     1     -10.462  11.245  65.092  1.00  0.00    -0.351 A  
ENDBRANCH   5   8
ENDBRANCH   4   5
ENDBRANCH   2   4
TORSDOF 3
ENDMDL
MODEL       91
REMARK 921   NORMALIZED FREE ENERGY PREDICTED BY IDOCK:   -3.69 KCAL/MOL
REMARK 922        TOTAL FREE ENERGY PREDICTED BY IDOCK:   -4.54 KCAL/MOL
REMARK 923 INTER-LIGAND FREE ENERGY PREDICTED BY IDOCK:   -4.44 KCAL/MOL
REMARK 924 INTRA-LIGAND FREE ENERGY PREDICTED BY IDOCK:   -0.10 KCAL/MOL
REMARK 927      BINDING AFFINITY PREDICTED BY RF-SCORE:    0.00 PKD
ROOT
HETATM    1  C   UNL     1      -6.821  18.170  66.130  1.00  0.00    -0.263 C  
HETATM    2  N   UNL     1      -8.258  18.065  65.913  1.00  0.00    -0.526 NA 
HETATM    3  H   UNL     1      -8.525  18.414  64.992  1.00  0.00     0.000 HD 
ENDROOT
BRANCH   2   4
HETATM    4  C   UNL     1      -8.730  16.684  66.128  1.00  0.00    -0.287 C  
BRANCH   4   5
HETATM    5  C   UNL     1     -10.221  16.567  66.552  1.00  0.00    -0.300 C  
HETATM    6  H   UNL     1     -11.246  17.043  68.133  1.00  0.00     0.000 HD 
HETATM    7  O   UNL     1     -10.334  17.115  67.874  1.00  0.00    -0.318 OA 
BRANCH   5   8
HETATM    8  C   UNL     1     -10.788  15.154  66.511  1.00  0.00    -0.317 A  
HETATM    9  C   UNL     1     -11.609  14.702  65.461  1.00  0.00    -0.335 A  
HETATM   10  C   UNL     1     -12.112  13.401  65.474  1.00  0.00    -0.428 A  
HETATM   11  O   UNL     1     -12.887  12.928  64.456  1.00  0.00    -0.697 OA 
HETATM   12  C   UNL     1     -11.838  12.536  66.525  1.00  0.00    -0.434 A  
HETATM   13  H   UNL     1     -13.230  12.042  64.465  1.00  0.00     0.000 HD 
HETATM   14  C   UNL     1     -11.020  12.962  67.567  1.00  0.00    -0.283 A  
HETATM   15  C   UNL     1     -10.479  14.249  67.543  1.00  0.00    -0.252 A  
ENDBRANCH   5   8
ENDBRANCH   4   5
ENDBRANCH   2   4
TORSDOF 3
ENDMDL
MODEL       92
REMARK 921   NORMALIZED FREE ENERGY PREDICTED BY IDOCK:   -3.68 KCAL/MOL
REMARK 922        TOTAL FREE ENERGY PREDICTED BY IDOCK:   -4.53 KCAL/MOL
REMARK 923 INTER-LIGAND FREE ENERGY PREDICTED BY IDOCK:   -4.32 KCAL/MOL
REMARK 924 INTRA-LIGAND FREE ENERGY PREDICTED BY IDOCK:   -0.21 KCAL/MOL
REMARK 927      BINDING AFFINITY PREDICTED BY RF-SCORE:    0.00 PKD
ROOT
HETATM    1  C   UNL     1     -11.781  12.178  67.968  1.00  0.00    -0.344 C  
HETATM    2  N   UNL     1     -11.860  12.340  66.522  1.00  0.00    -0.598 NA 
HETATM    3  H   UNL     1     -12.418  11.602  66.092  1.00  0.00     0.000 HD 
ENDROOT
BRANCH   2   4
HETATM    4  C   UNL     1     -12.362  13.679  66.163  1.00  0.00    -0.426 C  
BRANCH   4   5
HETATM    5  C   UNL     1     -11.304  14.615  65.513  1.00  0.00    -0.341 C  
HETATM    6  H   UNL     1      -9.712  14.353  64.429  1.00  0.00     0.000 HD 
HETATM    7  O   UNL     1     -10.359  13.781  64.826  1.00  0.00    -0.410 OA 
BRANCH   5   8
HETATM    8  C   UNL     1     -10.587  15.543  66.485  1.00  0.00    -0.307 A  
HETATM    9  C   UNL     1     -11.125  15.876  67.742  1.00  0.00    -0.288 A  
HETATM   10  C   UNL     1     -10.434  16.739  68.594  1.00  0.00    -0.333 A  
HETATM   11  O   UNL     1     -10.919  17.057  69.829  1.00  0.00    -0.388 OA 
HETATM   12  C   UNL     1      -9.224  17.303  68.216  1.00  0.00    -0.265 A  
HETATM   13  H   UNL     1     -10.448  17.644  70.409  1.00  0.00     0.000 HD 
HETATM   14  C   UNL     1      -8.673  16.977  66.981  1.00  0.00    -0.240 A  
HETATM   15  C   UNL     1      -9.337  16.084  66.138  1.00  0.00    -0.377 A  
ENDBRANCH   5   8
ENDBRANCH   4   5
ENDBRANCH   2   4
TORSDOF 3
ENDMDL
MODEL       93
REMARK 921   NORMALIZED FREE ENERGY PREDICTED BY IDOCK:   -3.67 KCAL/MOL
REMARK 922        TOTAL FREE ENERGY PREDICTED BY IDOCK:   -4.51 KCAL/MOL
REMARK 923 INTER-LIGAND FREE ENERGY PREDICTED BY IDOCK:   -4.38 KCAL/MOL
REMARK 924 INTRA-LIGAND FREE ENERGY PREDICTED BY IDOCK:   -0.13 KCAL/MOL
REMARK 927      BINDING AFFINITY PREDICTED BY RF-SCORE:    0.00 PKD
ROOT
HETATM    1  C   UNL     1      -8.619  10.019  69.901  1.00  0.00    -0.146 C  
HETATM    2  N   UNL     1      -9.373  11.082  69.250  1.00  0.00    -0.409 NA 
HETATM    3  H   UNL     1      -8.821  11.936  69.164  1.00  0.00     0.000 HD 
ENDROOT
BRANCH   2   4
HETATM    4  C   UNL     1      -9.897  10.641  67.945  1.00  0.00    -0.161 C  
BRANCH   4   5
HETATM    5  C   UNL     1      -9.409  11.481  66.732  1.00  0.00    -0.181 C  
HETATM    6  H   UNL     1      -8.436  13.149  66.513  1.00  0.00     0.000 HD 
HETATM    7  O   UNL     1      -8.734  12.635  67.254  1.00  0.00    -0.182 OA 
BRANCH   5   8
HETATM    8  C   UNL     1     -10.506  11.900  65.761  1.00  0.00    -0.295 A  
HETATM    9  C   UNL     1     -11.545  12.774  66.130  1.00  0.00    -0.431 A  
HETATM   10  C   UNL     1     -12.532  13.120  65.207  1.00  0.00    -0.495 A  
HETATM   11  O   UNL     1     -13.534  13.987  65.530  1.00  0.00    -0.705 OA 
HETATM   12  C   UNL     1     -12.528  12.596  63.922  1.00  0.00    -0.498 A  
HETATM   13  H   UNL     1     -14.207  14.223  64.901  1.00  0.00     0.000 HD 
HETATM   14  C   UNL     1     -11.503  11.738  63.536  1.00  0.00    -0.489 A  
HETATM   15  C   UNL     1     -10.488  11.416  64.440  1.00  0.00    -0.388 A  
ENDBRANCH   5   8
ENDBRANCH   4   5
ENDBRANCH   2   4
TORSDOF 3
ENDMDL
MODEL       94
REMARK 921   NORMALIZED FREE ENERGY PREDICTED BY IDOCK:   -3.66 KCAL/MOL
REMARK 922        TOTAL FREE ENERGY PREDICTED BY IDOCK:   -4.51 KCAL/MOL
REMARK 923 INTER-LIGAND FREE ENERGY PREDICTED BY IDOCK:   -4.35 KCAL/MOL
REMARK 924 INTRA-LIGAND FREE ENERGY PREDICTED BY IDOCK:   -0.15 KCAL/MOL
REMARK 927      BINDING AFFINITY PREDICTED BY RF-SCORE:    0.00 PKD
ROOT
HETATM    1  C   UNL     1      -8.562   7.761  73.760  1.00  0.00    -0.252 C  
HETATM    2  N   UNL     1      -9.487   8.383  72.820  1.00  0.00    -0.268 NA 
HETATM    3  H   UNL     1      -9.111   8.388  71.871  1.00  0.00     0.000 HD 
ENDROOT
BRANCH   2   4
HETATM    4  C   UNL     1     -10.813   7.742  72.875  1.00  0.00    -0.392 C  
BRANCH   4   5
HETATM    5  C   UNL     1     -11.700   7.977  71.619  1.00  0.00    -0.283 C  
HETATM    6  H   UNL     1     -11.601   7.467  69.746  1.00  0.00     0.000 HD 
HETATM    7  O   UNL     1     -11.059   7.324  70.514  1.00  0.00    -0.254 OA 
BRANCH   5   8
HETATM    8  C   UNL     1     -11.968   9.440  71.291  1.00  0.00    -0.430 A  
HETATM    9  C   UNL     1     -12.828  10.240  72.066  1.00  0.00    -0.457 A  
HETATM   10  C   UNL     1     -13.049  11.573  71.719  1.00  0.00    -0.398 A  
HETATM   11  O   UNL     1     -13.855  12.379  72.469  1.00  0.00    -0.526 OA 
HETATM   12  C   UNL     1     -12.452  12.130  70.597  1.00  0.00    -0.330 A  
HETATM   13  H   UNL     1     -14.005  13.287  72.232  1.00  0.00     0.000 HD 
HETATM   14  C   UNL     1     -11.591  11.357  69.824  1.00  0.00    -0.407 A  
HETATM   15  C   UNL     1     -11.332  10.034  70.186  1.00  0.00    -0.357 A  
ENDBRANCH   5   8
ENDBRANCH   4   5
ENDBRANCH   2   4
TORSDOF 3
ENDMDL
MODEL       95
REMARK 921   NORMALIZED FREE ENERGY PREDICTED BY IDOCK:   -3.66 KCAL/MOL
REMARK 922        TOTAL FREE ENERGY PREDICTED BY IDOCK:   -4.51 KCAL/MOL
REMARK 923 INTER-LIGAND FREE ENERGY PREDICTED BY IDOCK:   -4.36 KCAL/MOL
REMARK 924 INTRA-LIGAND FREE ENERGY PREDICTED BY IDOCK:   -0.14 KCAL/MOL
REMARK 927      BINDING AFFINITY PREDICTED BY RF-SCORE:    0.00 PKD
ROOT
HETATM    1  C   UNL     1      -9.984  13.532  67.532  1.00  0.00    -0.230 C  
HETATM    2  N   UNL     1     -10.249  13.003  68.864  1.00  0.00    -0.435 NA 
HETATM    3  H   UNL     1     -10.679  13.705  69.467  1.00  0.00     0.000 HD 
ENDROOT
BRANCH   2   4
HETATM    4  C   UNL     1     -11.059  11.774  68.797  1.00  0.00    -0.241 C  
BRANCH   4   5
HETATM    5  C   UNL     1     -12.160  11.663  69.890  1.00  0.00    -0.301 C  
HETATM    6  H   UNL     1     -12.827  12.825  71.297  1.00  0.00     0.000 HD 
HETATM    7  O   UNL     1     -12.155  12.893  70.630  1.00  0.00    -0.349 OA 
BRANCH   5   8
HETATM    8  C   UNL     1     -12.010  10.474  70.830  1.00  0.00    -0.481 A  
HETATM    9  C   UNL     1     -10.786   9.800  71.002  1.00  0.00    -0.378 A  
HETATM   10  C   UNL     1     -10.702   8.710  71.869  1.00  0.00    -0.344 A  
HETATM   11  O   UNL     1      -9.522   8.057  72.076  1.00  0.00    -0.166 OA 
HETATM   12  C   UNL     1     -11.816   8.253  72.557  1.00  0.00    -0.439 A  
HETATM   13  H   UNL     1      -9.465   7.314  72.666  1.00  0.00     0.000 HD 
HETATM   14  C   UNL     1     -13.032   8.913  72.407  1.00  0.00    -0.467 A  
HETATM   15  C   UNL     1     -13.118  10.029  71.573  1.00  0.00    -0.531 A  
ENDBRANCH   5   8
ENDBRANCH   4   5
ENDBRANCH   2   4
TORSDOF 3
ENDMDL
MODEL       96
REMARK 921   NORMALIZED FREE ENERGY PREDICTED BY IDOCK:   -3.64 KCAL/MOL
REMARK 922        TOTAL FREE ENERGY PREDICTED BY IDOCK:   -4.48 KCAL/MOL
REMARK 923 INTER-LIGAND FREE ENERGY PREDICTED BY IDOCK:   -4.33 KCAL/MOL
REMARK 924 INTRA-LIGAND FREE ENERGY PREDICTED BY IDOCK:   -0.15 KCAL/MOL
REMARK 927      BINDING AFFINITY PREDICTED BY RF-SCORE:    0.00 PKD
ROOT
HETATM    1  C   UNL     1      -8.945  19.278  68.693  1.00  0.00    -0.374 C  
HETATM    2  N   UNL     1      -9.107  17.946  68.126  1.00  0.00    -0.271 NA 
HETATM    3  H   UNL     1      -8.805  17.221  68.778  1.00  0.00     0.000 HD 
ENDROOT
BRANCH   2   4
HETATM    4  C   UNL     1     -10.492  17.725  67.673  1.00  0.00    -0.388 C  
BRANCH   4   5
HETATM    5  C   UNL     1     -11.156  16.431  68.223  1.00  0.00    -0.337 C  
HETATM    6  H   UNL     1     -10.918  15.324  69.804  1.00  0.00     0.000 HD 
HETATM    7  O   UNL     1     -10.513  16.115  69.467  1.00  0.00    -0.254 OA 
BRANCH   5   8
HETATM    8  C   UNL     1     -11.109  15.236  67.280  1.00  0.00    -0.325 A  
HETATM    9  C   UNL     1     -11.594  13.967  67.648  1.00  0.00    -0.385 A  
HETATM   10  C   UNL     1     -11.519  12.901  66.751  1.00  0.00    -0.340 A  
HETATM   11  O   UNL     1     -12.008  11.668  67.070  1.00  0.00    -0.593 OA 
HETATM   12  C   UNL     1     -10.947  13.058  65.496  1.00  0.00    -0.296 A  
HETATM   13  H   UNL     1     -11.957  10.942  66.460  1.00  0.00     0.000 HD 
HETATM   14  C   UNL     1     -10.470  14.307  65.112  1.00  0.00    -0.432 A  
HETATM   15  C   UNL     1     -10.577  15.390  65.987  1.00  0.00    -0.330 A  
ENDBRANCH   5   8
ENDBRANCH   4   5
ENDBRANCH   2   4
TORSDOF 3
ENDMDL
MODEL       97
REMARK 921   NORMALIZED FREE ENERGY PREDICTED BY IDOCK:   -3.64 KCAL/MOL
REMARK 922        TOTAL FREE ENERGY PREDICTED BY IDOCK:   -4.48 KCAL/MOL
REMARK 923 INTER-LIGAND FREE ENERGY PREDICTED BY IDOCK:   -4.35 KCAL/MOL
REMARK 924 INTRA-LIGAND FREE ENERGY PREDICTED BY IDOCK:   -0.13 KCAL/MOL
REMARK 927      BINDING AFFINITY PREDICTED BY RF-SCORE:    0.00 PKD
ROOT
HETATM    1  C   UNL     1      -9.492   8.809  69.845  1.00  0.00    -0.169 C  
HETATM    2  N   UNL     1      -9.702  10.234  69.625  1.00  0.00    -0.352 NA 
HETATM    3  H   UNL     1      -8.928  10.653  69.109  1.00  0.00     0.000 HD 
ENDROOT
BRANCH   2   4
HETATM    4  C   UNL     1     -10.995  10.486  68.963  1.00  0.00    -0.243 C  
BRANCH   4   5
HETATM    5  C   UNL     1     -11.377  11.988  68.834  1.00  0.00    -0.278 C  
HETATM    6  H   UNL     1     -10.398  13.637  68.517  1.00  0.00     0.000 HD 
HETATM    7  O   UNL     1     -10.165  12.719  68.595  1.00  0.00    -0.222 OA 
BRANCH   5   8
HETATM    8  C   UNL     1     -12.118  12.564  70.034  1.00  0.00    -0.337 A  
HETATM    9  C   UNL     1     -12.267  13.949  70.232  1.00  0.00    -0.428 A  
HETATM   10  C   UNL     1     -12.947  14.428  71.352  1.00  0.00    -0.335 A  
HETATM   11  O   UNL     1     -13.131  15.765  71.554  1.00  0.00    -0.484 OA 
HETATM   12  C   UNL     1     -13.466  13.560  72.302  1.00  0.00    -0.669 A  
HETATM   13  H   UNL     1     -13.594  16.091  72.317  1.00  0.00     0.000 HD 
HETATM   14  C   UNL     1     -13.337  12.187  72.118  1.00  0.00    -0.438 A  
HETATM   15  C   UNL     1     -12.693  11.696  70.980  1.00  0.00    -0.395 A  
ENDBRANCH   5   8
ENDBRANCH   4   5
ENDBRANCH   2   4
TORSDOF 3
ENDMDL
MODEL       98
REMARK 921   NORMALIZED FREE ENERGY PREDICTED BY IDOCK:   -3.60 KCAL/MOL
REMARK 922        TOTAL FREE ENERGY PREDICTED BY IDOCK:   -4.44 KCAL/MOL
REMARK 923 INTER-LIGAND FREE ENERGY PREDICTED BY IDOCK:   -4.30 KCAL/MOL
REMARK 924 INTRA-LIGAND FREE ENERGY PREDICTED BY IDOCK:   -0.14 KCAL/MOL
REMARK 927      BINDING AFFINITY PREDICTED BY RF-SCORE:    0.00 PKD
ROOT
HETATM    1  C   UNL     1     -12.948   8.815  72.282  1.00  0.00    -0.408 C  
HETATM    2  N   UNL     1     -11.491   8.815  72.233  1.00  0.00    -0.351 NA 
HETATM    3  H   UNL     1     -11.100   9.633  72.700  1.00  0.00     0.000 HD 
ENDROOT
BRANCH   2   4
HETATM    4  C   UNL     1     -10.940   7.562  72.782  1.00  0.00    -0.359 C  
BRANCH   4   5
HETATM    5  C   UNL     1     -11.548   6.266  72.177  1.00  0.00    -0.319 C  
HETATM    6  H   UNL     1     -11.653   4.405  72.728  1.00  0.00     0.000 HD 
HETATM    7  O   UNL     1     -11.282   5.197  73.098  1.00  0.00    -0.298 OA 
BRANCH   5   8
HETATM    8  C   UNL     1     -11.039   5.909  70.786  1.00  0.00    -0.324 A  
HETATM    9  C   UNL     1     -11.502   6.558  69.626  1.00  0.00    -0.417 A  
HETATM   10  C   UNL     1     -11.011   6.189  68.373  1.00  0.00    -0.305 A  
HETATM   11  O   UNL     1     -11.421   6.820  67.235  1.00  0.00    -0.752 OA 
HETATM   12  C   UNL     1     -10.083   5.166  68.239  1.00  0.00    -0.199 A  
HETATM   13  H   UNL     1     -11.087   6.569  66.382  1.00  0.00     0.000 HD 
HETATM   14  C   UNL     1      -9.607   4.520  69.376  1.00  0.00    -0.264 A  
HETATM   15  C   UNL     1     -10.062   4.909  70.638  1.00  0.00    -0.306 A  
ENDBRANCH   5   8
ENDBRANCH   4   5
ENDBRANCH   2   4
TORSDOF 3
ENDMDL
MODEL       99
REMARK 921   NORMALIZED FREE ENERGY PREDICTED BY IDOCK:   -3.59 KCAL/MOL
REMARK 922        TOTAL FREE ENERGY PREDICTED BY IDOCK:   -4.42 KCAL/MOL
REMARK 923 INTER-LIGAND FREE ENERGY PREDICTED BY IDOCK:   -4.29 KCAL/MOL
REMARK 924 INTRA-LIGAND FREE ENERGY PREDICTED BY IDOCK:   -0.14 KCAL/MOL
REMARK 927      BINDING AFFINITY PREDICTED BY RF-SCORE:    0.00 PKD
ROOT
HETATM    1  C   UNL     1     -12.007  14.096  64.765  1.00  0.00    -0.431 C  
HETATM    2  N   UNL     1     -12.428  13.515  66.033  1.00  0.00    -0.424 NA 
HETATM    3  H   UNL     1     -13.125  12.782  65.897  1.00  0.00     0.000 HD 
ENDROOT
BRANCH   2   4
HETATM    4  C   UNL     1     -11.271  13.027  66.805  1.00  0.00    -0.298 C  
BRANCH   4   5
HETATM    5  C   UNL     1     -10.730  14.027  67.865  1.00  0.00    -0.240 C  
HETATM    6  H   UNL     1      -9.068  14.222  68.855  1.00  0.00     0.000 HD 
HETATM    7  O   UNL     1      -9.399  13.611  68.207  1.00  0.00    -0.200 OA 
BRANCH   5   8
HETATM    8  C   UNL     1     -11.586  14.156  69.118  1.00  0.00    -0.349 A  
HETATM    9  C   UNL     1     -11.960  13.042  69.893  1.00  0.00    -0.381 A  
HETATM   10  C   UNL     1     -12.754  13.211  71.028  1.00  0.00    -0.277 A  
HETATM   11  O   UNL     1     -13.107  12.153  71.812  1.00  0.00    -0.438 OA 
HETATM   12  C   UNL     1     -13.211  14.467  71.403  1.00  0.00    -0.424 A  
HETATM   13  H   UNL     1     -13.648  12.268  72.585  1.00  0.00     0.000 HD 
HETATM   14  C   UNL     1     -12.843  15.581  70.655  1.00  0.00    -0.466 A  
HETATM   15  C   UNL     1     -12.016  15.427  69.540  1.00  0.00    -0.358 A  
ENDBRANCH   5   8
ENDBRANCH   4   5
ENDBRANCH   2   4
TORSDOF 3
ENDMDL
MODEL      100
REMARK 921   NORMALIZED FREE ENERGY PREDICTED BY IDOCK:   -3.58 KCAL/MOL
REMARK 922        TOTAL FREE ENERGY PREDICTED BY IDOCK:   -4.41 KCAL/MOL
REMARK 923 INTER-LIGAND FREE ENERGY PREDICTED BY IDOCK:   -4.31 KCAL/MOL
REMARK 924 INTRA-LIGAND FREE ENERGY PREDICTED BY IDOCK:   -0.10 KCAL/MOL
REMARK 927      BINDING AFFINITY PREDICTED BY RF-SCORE:    0.00 PKD
ROOT
HETATM    1  C   UNL     1      -7.445  10.490  69.522  1.00  0.00    -0.146 C  
HETATM    2  N   UNL     1      -8.632  11.307  69.306  1.00  0.00    -0.373 NA 
HETATM    3  H   UNL     1      -8.495  12.263  69.634  1.00  0.00     0.000 HD 
ENDROOT
BRANCH   2   4
HETATM    4  C   UNL     1      -9.052  11.273  67.893  1.00  0.00    -0.150 C  
BRANCH   4   5
HETATM    5  C   UNL     1     -10.587  11.163  67.674  1.00  0.00    -0.211 C  
HETATM    6  H   UNL     1     -11.832   9.706  67.346  1.00  0.00     0.000 HD 
HETATM    7  O   UNL     1     -10.894   9.774  67.480  1.00  0.00    -0.283 OA 
BRANCH   5   8
HETATM    8  C   UNL     1     -11.130  11.995  66.520  1.00  0.00    -0.362 A  
HETATM    9  C   UNL     1     -10.852  11.687  65.175  1.00  0.00    -0.346 A  
HETATM   10  C   UNL     1     -11.366  12.486  64.152  1.00  0.00    -0.380 A  
HETATM   11  O   UNL     1     -11.135  12.195  62.840  1.00  0.00    -0.626 OA 
HETATM   12  C   UNL     1     -12.134  13.607  64.435  1.00  0.00    -0.470 A  
HETATM   13  H   UNL     1     -11.485  12.739  62.144  1.00  0.00     0.000 HD 
HETATM   14  C   UNL     1     -12.427  13.920  65.758  1.00  0.00    -0.530 A  
HETATM   15  C   UNL     1     -11.951  13.105  66.787  1.00  0.00    -0.434 A  
ENDBRANCH   5   8
ENDBRANCH   4   5
ENDBRANCH   2   4
TORSDOF 3
ENDMDL
MODEL      101
REMARK 921   NORMALIZED FREE ENERGY PREDICTED BY IDOCK:   -3.58 KCAL/MOL
REMARK 922        TOTAL FREE ENERGY PREDICTED BY IDOCK:   -4.40 KCAL/MOL
REMARK 923 INTER-LIGAND FREE ENERGY PREDICTED BY IDOCK:   -4.28 KCAL/MOL
REMARK 924 INTRA-LIGAND FREE ENERGY PREDICTED BY IDOCK:   -0.12 KCAL/MOL
REMARK 927      BINDING AFFINITY PREDICTED BY RF-SCORE:    0.00 PKD
ROOT
HETATM    1  C   UNL     1      -6.332  15.847  67.674  1.00  0.00    -0.164 C  
HETATM    2  N   UNL     1      -7.483  16.400  68.375  1.00  0.00    -0.164 NA 
HETATM    3  H   UNL     1      -7.540  17.413  68.263  1.00  0.00     0.000 HD 
ENDROOT
BRANCH   2   4
HETATM    4  C   UNL     1      -8.731  15.737  67.956  1.00  0.00    -0.171 C  
BRANCH   4   5
HETATM    5  C   UNL     1      -8.963  15.703  66.419  1.00  0.00    -0.326 C  
HETATM    6  H   UNL     1      -9.212  17.042  65.032  1.00  0.00     0.000 HD 
HETATM    7  O   UNL     1      -9.070  17.062  65.972  1.00  0.00    -0.464 OA 
BRANCH   5   8
HETATM    8  C   UNL     1     -10.178  14.898  65.974  1.00  0.00    -0.317 A  
HETATM    9  C   UNL     1     -10.564  13.704  66.610  1.00  0.00    -0.277 A  
HETATM   10  C   UNL     1     -11.680  12.998  66.158  1.00  0.00    -0.394 A  
HETATM   11  O   UNL     1     -12.093  11.853  66.774  1.00  0.00    -0.593 OA 
HETATM   12  C   UNL     1     -12.413  13.438  65.066  1.00  0.00    -0.479 A  
HETATM   13  H   UNL     1     -12.852  11.372  66.467  1.00  0.00     0.000 HD 
HETATM   14  C   UNL     1     -12.051  14.621  64.430  1.00  0.00    -0.481 A  
HETATM   15  C   UNL     1     -10.960  15.357  64.899  1.00  0.00    -0.453 A  
ENDBRANCH   5   8
ENDBRANCH   4   5
ENDBRANCH   2   4
TORSDOF 3
ENDMDL
MODEL      102
REMARK 921   NORMALIZED FREE ENERGY PREDICTED BY IDOCK:   -3.55 KCAL/MOL
REMARK 922        TOTAL FREE ENERGY PREDICTED BY IDOCK:   -4.37 KCAL/MOL
REMARK 923 INTER-LIGAND FREE ENERGY PREDICTED BY IDOCK:   -4.23 KCAL/MOL
REMARK 924 INTRA-LIGAND FREE ENERGY PREDICTED BY IDOCK:   -0.14 KCAL/MOL
REMARK 927      BINDING AFFINITY PREDICTED BY RF-SCORE:    0.00 PKD
ROOT
HETATM    1  C   UNL     1      -6.470  10.349  66.346  1.00  0.00    -0.097 C  
HETATM    2  N   UNL     1      -7.233  10.659  65.144  1.00  0.00    -0.342 NA 
HETATM    3  H   UNL     1      -6.639  10.669  64.315  1.00  0.00     0.000 HD 
ENDROOT
BRANCH   2   4
HETATM    4  C   UNL     1      -8.373   9.738  64.985  1.00  0.00    -0.145 C  
BRANCH   4   5
HETATM    5  C   UNL     1      -9.414  10.172  63.915  1.00  0.00    -0.275 C  
HETATM    6  H   UNL     1      -9.320  10.954  62.138  1.00  0.00     0.000 HD 
HETATM    7  O   UNL     1      -8.684  10.688  62.792  1.00  0.00    -0.192 OA 
BRANCH   5   8
HETATM    8  C   UNL     1     -10.440  11.190  64.397  1.00  0.00    -0.418 A  
HETATM    9  C   UNL     1     -10.776  11.333  65.756  1.00  0.00    -0.284 A  
HETATM   10  C   UNL     1     -11.729  12.274  66.147  1.00  0.00    -0.376 A  
HETATM   11  O   UNL     1     -12.054  12.454  67.459  1.00  0.00    -0.491 OA 
HETATM   12  C   UNL     1     -12.381  13.066  65.212  1.00  0.00    -0.537 A  
HETATM   13  H   UNL     1     -12.703  13.095  67.725  1.00  0.00     0.000 HD 
HETATM   14  C   UNL     1     -12.054  12.944  63.865  1.00  0.00    -0.553 A  
HETATM   15  C   UNL     1     -11.073  12.034  63.467  1.00  0.00    -0.519 A  
ENDBRANCH   5   8
ENDBRANCH   4   5
ENDBRANCH   2   4
TORSDOF 3
ENDMDL
MODEL      103
REMARK 921   NORMALIZED FREE ENERGY PREDICTED BY IDOCK:   -3.54 KCAL/MOL
REMARK 922        TOTAL FREE ENERGY PREDICTED BY IDOCK:   -4.36 KCAL/MOL
REMARK 923 INTER-LIGAND FREE ENERGY PREDICTED BY IDOCK:   -4.63 KCAL/MOL
REMARK 924 INTRA-LIGAND FREE ENERGY PREDICTED BY IDOCK:    0.27 KCAL/MOL
REMARK 927      BINDING AFFINITY PREDICTED BY RF-SCORE:    0.00 PKD
ROOT
HETATM    1  C   UNL     1     -12.605  11.978  63.551  1.00  0.00    -0.507 C  
HETATM    2  N   UNL     1     -11.403  12.720  63.193  1.00  0.00    -0.757 NA 
HETATM    3  H   UNL     1     -11.383  13.638  63.637  1.00  0.00     0.000 HD 
ENDROOT
BRANCH   2   4
HETATM    4  C   UNL     1     -10.187  11.944  63.498  1.00  0.00    -0.457 C  
BRANCH   4   5
HETATM    5  C   UNL     1      -9.877  11.792  65.014  1.00  0.00    -0.229 C  
HETATM    6  H   UNL     1     -10.192  10.421  66.355  1.00  0.00     0.000 HD 
HETATM    7  O   UNL     1     -10.381  10.514  65.429  1.00  0.00    -0.278 OA 
BRANCH   5   8
HETATM    8  C   UNL     1     -10.441  12.898  65.896  1.00  0.00    -0.294 A  
HETATM    9  C   UNL     1     -10.082  14.249  65.731  1.00  0.00    -0.356 A  
HETATM   10  C   UNL     1     -10.619  15.226  66.571  1.00  0.00    -0.304 A  
HETATM   11  O   UNL     1     -10.310  16.545  66.415  1.00  0.00    -0.302 OA 
HETATM   12  C   UNL     1     -11.493  14.889  67.595  1.00  0.00    -0.366 A  
HETATM   13  H   UNL     1     -10.676  17.210  66.987  1.00  0.00     0.000 HD 
HETATM   14  C   UNL     1     -11.866  13.560  67.767  1.00  0.00    -0.398 A  
HETATM   15  C   UNL     1     -11.366  12.580  66.907  1.00  0.00    -0.383 A  
ENDBRANCH   5   8
ENDBRANCH   4   5
ENDBRANCH   2   4
TORSDOF 3
ENDMDL
MODEL      104
REMARK 921   NORMALIZED FREE ENERGY PREDICTED BY IDOCK:   -3.52 KCAL/MOL
REMARK 922        TOTAL FREE ENERGY PREDICTED BY IDOCK:   -4.33 KCAL/MOL
REMARK 923 INTER-LIGAND FREE ENERGY PREDICTED BY IDOCK:   -4.17 KCAL/MOL
REMARK 924 INTRA-LIGAND FREE ENERGY PREDICTED BY IDOCK:   -0.16 KCAL/MOL
REMARK 927      BINDING AFFINITY PREDICTED BY RF-SCORE:    0.00 PKD
ROOT
HETATM    1  C   UNL     1      -7.235  19.391  69.037  1.00  0.00    -0.362 C  
HETATM    2  N   UNL     1      -7.570  19.360  67.619  1.00  0.00    -0.253 NA 
HETATM    3  H   UNL     1      -7.351  18.456  67.201  1.00  0.00     0.000 HD 
ENDROOT
BRANCH   2   4
HETATM    4  C   UNL     1      -8.979  19.733  67.397  1.00  0.00    -0.326 C  
BRANCH   4   5
HETATM    5  C   UNL     1      -9.700  18.916  66.288  1.00  0.00    -0.344 C  
HETATM    6  H   UNL     1     -11.216  19.226  65.112  1.00  0.00     0.000 HD 
HETATM    7  O   UNL     1     -10.776  19.725  65.790  1.00  0.00    -0.512 OA 
BRANCH   5   8
HETATM    8  C   UNL     1     -10.218  17.554  66.731  1.00  0.00    -0.327 A  
HETATM    9  C   UNL     1     -10.235  16.440  65.872  1.00  0.00    -0.379 A  
HETATM   10  C   UNL     1     -10.729  15.215  66.323  1.00  0.00    -0.320 A  
HETATM   11  O   UNL     1     -10.732  14.111  65.521  1.00  0.00    -0.298 OA 
HETATM   12  C   UNL     1     -11.235  15.074  67.608  1.00  0.00    -0.331 A  
HETATM   13  H   UNL     1     -11.068  13.277  65.827  1.00  0.00     0.000 HD 
HETATM   14  C   UNL     1     -11.217  16.163  68.473  1.00  0.00    -0.365 A  
HETATM   15  C   UNL     1     -10.688  17.382  68.046  1.00  0.00    -0.359 A  
ENDBRANCH   5   8
ENDBRANCH   4   5
ENDBRANCH   2   4
TORSDOF 3
ENDMDL
MODEL      105
REMARK 921   NORMALIZED FREE ENERGY PREDICTED BY IDOCK:   -3.51 KCAL/MOL
REMARK 922        TOTAL FREE ENERGY PREDICTED BY IDOCK:   -4.33 KCAL/MOL
REMARK 923 INTER-LIGAND FREE ENERGY PREDICTED BY IDOCK:   -4.16 KCAL/MOL
REMARK 924 INTRA-LIGAND FREE ENERGY PREDICTED BY IDOCK:   -0.17 KCAL/MOL
REMARK 927      BINDING AFFINITY PREDICTED BY RF-SCORE:    0.00 PKD
ROOT
HETATM    1  C   UNL     1     -12.458  14.463  70.649  1.00  0.00    -0.350 C  
HETATM    2  N   UNL     1     -11.670  13.284  70.315  1.00  0.00    -0.539 NA 
HETATM    3  H   UNL     1     -11.533  12.681  71.126  1.00  0.00     0.000 HD 
ENDROOT
BRANCH   2   4
HETATM    4  C   UNL     1     -12.266  12.547  69.186  1.00  0.00    -0.004 C  
BRANCH   4   5
HETATM    5  C   UNL     1     -11.286  12.246  68.018  1.00  0.00    -0.269 C  
HETATM    6  H   UNL     1      -9.355  12.121  67.836  1.00  0.00     0.000 HD 
HETATM    7  O   UNL     1      -9.954  12.305  68.550  1.00  0.00    -0.213 OA 
BRANCH   5   8
HETATM    8  C   UNL     1     -11.420  13.170  66.815  1.00  0.00    -0.386 A  
HETATM    9  C   UNL     1     -10.875  14.467  66.798  1.00  0.00    -0.305 A  
HETATM   10  C   UNL     1     -11.033  15.280  65.675  1.00  0.00    -0.344 A  
HETATM   11  O   UNL     1     -10.491  16.531  65.621  1.00  0.00    -0.399 OA 
HETATM   12  C   UNL     1     -11.747  14.843  64.568  1.00  0.00    -0.388 A  
HETATM   13  H   UNL     1     -10.599  17.084  64.856  1.00  0.00     0.000 HD 
HETATM   14  C   UNL     1     -12.285  13.560  64.563  1.00  0.00    -0.445 A  
HETATM   15  C   UNL     1     -12.098  12.724  65.666  1.00  0.00    -0.514 A  
ENDBRANCH   5   8
ENDBRANCH   4   5
ENDBRANCH   2   4
TORSDOF 3
ENDMDL
MODEL      106
REMARK 921   NORMALIZED FREE ENERGY PREDICTED BY IDOCK:   -3.51 KCAL/MOL
REMARK 922        TOTAL FREE ENERGY PREDICTED BY IDOCK:   -4.32 KCAL/MOL
REMARK 923 INTER-LIGAND FREE ENERGY PREDICTED BY IDOCK:   -4.20 KCAL/MOL
REMARK 924 INTRA-LIGAND FREE ENERGY PREDICTED BY IDOCK:   -0.12 KCAL/MOL
REMARK 927      BINDING AFFINITY PREDICTED BY RF-SCORE:    0.00 PKD
ROOT
HETATM    1  C   UNL     1     -10.489   5.513  66.461  1.00  0.00    -0.271 C  
HETATM    2  N   UNL     1     -11.254   6.719  66.750  1.00  0.00    -0.723 NA 
HETATM    3  H   UNL     1     -12.100   6.509  67.280  1.00  0.00     0.000 HD 
ENDROOT
BRANCH   2   4
HETATM    4  C   UNL     1     -10.421   7.726  67.433  1.00  0.00    -0.292 C  
BRANCH   4   5
HETATM    5  C   UNL     1     -10.089   8.981  66.578  1.00  0.00    -0.283 C  
HETATM    6  H   UNL     1      -8.457   9.824  65.942  1.00  0.00     0.000 HD 
HETATM    7  O   UNL     1      -8.660   9.057  66.465  1.00  0.00    -0.116 OA 
BRANCH   5   8
HETATM    8  C   UNL     1     -10.651  10.290  67.118  1.00  0.00    -0.320 A  
HETATM    9  C   UNL     1     -10.962  10.470  68.479  1.00  0.00    -0.300 A  
HETATM   10  C   UNL     1     -11.483  11.686  68.923  1.00  0.00    -0.287 A  
HETATM   11  O   UNL     1     -11.767  11.898  70.241  1.00  0.00    -0.469 OA 
HETATM   12  C   UNL     1     -11.730  12.727  68.040  1.00  0.00    -0.405 A  
HETATM   13  H   UNL     1     -12.122  12.725  70.544  1.00  0.00     0.000 HD 
HETATM   14  C   UNL     1     -11.420  12.569  66.693  1.00  0.00    -0.417 A  
HETATM   15  C   UNL     1     -10.860  11.371  66.244  1.00  0.00    -0.318 A  
ENDBRANCH   5   8
ENDBRANCH   4   5
ENDBRANCH   2   4
TORSDOF 3
ENDMDL
MODEL      107
REMARK 921   NORMALIZED FREE ENERGY PREDICTED BY IDOCK:   -3.49 KCAL/MOL
REMARK 922        TOTAL FREE ENERGY PREDICTED BY IDOCK:   -4.30 KCAL/MOL
REMARK 923 INTER-LIGAND FREE ENERGY PREDICTED BY IDOCK:   -4.19 KCAL/MOL
REMARK 924 INTRA-LIGAND FREE ENERGY PREDICTED BY IDOCK:   -0.11 KCAL/MOL
REMARK 927      BINDING AFFINITY PREDICTED BY RF-SCORE:    0.00 PKD
ROOT
HETATM    1  C   UNL     1     -10.161  13.545  64.839  1.00  0.00    -0.329 C  
HETATM    2  N   UNL     1     -11.222  14.446  65.271  1.00  0.00    -0.329 NA 
HETATM    3  H   UNL     1     -11.978  14.489  64.587  1.00  0.00     0.000 HD 
ENDROOT
BRANCH   2   4
HETATM    4  C   UNL     1     -11.721  14.079  66.609  1.00  0.00    -0.399 C  
BRANCH   4   5
HETATM    5  C   UNL     1     -11.498  15.160  67.703  1.00  0.00    -0.309 C  
HETATM    6  H   UNL     1      -9.968  16.161  68.362  1.00  0.00     0.000 HD 
HETATM    7  O   UNL     1     -10.104  15.500  67.693  1.00  0.00    -0.239 OA 
BRANCH   5   8
HETATM    8  C   UNL     1     -11.937  14.753  69.104  1.00  0.00    -0.317 A  
HETATM    9  C   UNL     1     -12.181  15.696  70.120  1.00  0.00    -0.387 A  
HETATM   10  C   UNL     1     -12.573  15.272  71.390  1.00  0.00    -0.375 A  
HETATM   11  O   UNL     1     -12.844  16.166  72.385  1.00  0.00    -0.426 OA 
HETATM   12  C   UNL     1     -12.705  13.923  71.687  1.00  0.00    -0.416 A  
HETATM   13  H   UNL     1     -13.110  15.877  73.250  1.00  0.00     0.000 HD 
HETATM   14  C   UNL     1     -12.478  12.978  70.693  1.00  0.00    -0.347 A  
HETATM   15  C   UNL     1     -12.124  13.393  69.407  1.00  0.00    -0.321 A  
ENDBRANCH   5   8
ENDBRANCH   4   5
ENDBRANCH   2   4
TORSDOF 3
ENDMDL
MODEL      108
REMARK 921   NORMALIZED FREE ENERGY PREDICTED BY IDOCK:   -3.47 KCAL/MOL
REMARK 922        TOTAL FREE ENERGY PREDICTED BY IDOCK:   -4.28 KCAL/MOL
REMARK 923 INTER-LIGAND FREE ENERGY PREDICTED BY IDOCK:   -4.18 KCAL/MOL
REMARK 924 INTRA-LIGAND FREE ENERGY PREDICTED BY IDOCK:   -0.10 KCAL/MOL
REMARK 927      BINDING AFFINITY PREDICTED BY RF-SCORE:    0.00 PKD
ROOT
HETATM    1  C   UNL     1      -7.269  20.288  65.833  1.00  0.00    -0.239 C  
HETATM    2  N   UNL     1      -8.634  19.979  66.236  1.00  0.00    -0.495 NA 
HETATM    3  H   UNL     1      -9.312  20.306  65.547  1.00  0.00     0.000 HD 
ENDROOT
BRANCH   2   4
HETATM    4  C   UNL     1      -8.795  18.540  66.515  1.00  0.00    -0.293 C  
BRANCH   4   5
HETATM    5  C   UNL     1     -10.158  18.151  67.154  1.00  0.00    -0.351 C  
HETATM    6  H   UNL     1     -10.858  18.071  68.966  1.00  0.00     0.000 HD 
HETATM    7  O   UNL     1     -10.025  18.308  68.575  1.00  0.00    -0.357 OA 
BRANCH   5   8
HETATM    8  C   UNL     1     -10.646  16.749  66.817  1.00  0.00    -0.203 A  
HETATM    9  C   UNL     1     -11.252  15.912  67.773  1.00  0.00    -0.258 A  
HETATM   10  C   UNL     1     -11.674  14.631  67.417  1.00  0.00    -0.390 A  
HETATM   11  O   UNL     1     -12.290  13.810  68.316  1.00  0.00    -0.430 OA 
HETATM   12  C   UNL     1     -11.485  14.145  66.131  1.00  0.00    -0.350 A  
HETATM   13  H   UNL     1     -12.578  12.938  68.073  1.00  0.00     0.000 HD 
HETATM   14  C   UNL     1     -10.896  14.961  65.170  1.00  0.00    -0.428 A  
HETATM   15  C   UNL     1     -10.506  16.259  65.506  1.00  0.00    -0.383 A  
ENDBRANCH   5   8
ENDBRANCH   4   5
ENDBRANCH   2   4
TORSDOF 3
ENDMDL
MODEL      109
REMARK 921   NORMALIZED FREE ENERGY PREDICTED BY IDOCK:   -3.46 KCAL/MOL
REMARK 922        TOTAL FREE ENERGY PREDICTED BY IDOCK:   -4.27 KCAL/MOL
REMARK 923 INTER-LIGAND FREE ENERGY PREDICTED BY IDOCK:   -4.15 KCAL/MOL
REMARK 924 INTRA-LIGAND FREE ENERGY PREDICTED BY IDOCK:   -0.12 KCAL/MOL
REMARK 927      BINDING AFFINITY PREDICTED BY RF-SCORE:    0.00 PKD
ROOT
HETATM    1  C   UNL     1      -7.776  12.332  68.278  1.00  0.00    -0.143 C  
HETATM    2  N   UNL     1      -9.088  12.495  67.666  1.00  0.00    -0.179 NA 
HETATM    3  H   UNL     1      -9.215  11.862  66.876  1.00  0.00     0.000 HD 
ENDROOT
BRANCH   2   4
HETATM    4  C   UNL     1     -10.164  12.341  68.662  1.00  0.00    -0.165 C  
BRANCH   4   5
HETATM    5  C   UNL     1     -10.996  11.035  68.522  1.00  0.00    -0.228 C  
HETATM    6  H   UNL     1     -12.773  10.596  67.867  1.00  0.00     0.000 HD 
HETATM    7  O   UNL     1     -12.264  11.394  67.953  1.00  0.00    -0.592 OA 
BRANCH   5   8
HETATM    8  C   UNL     1     -11.194  10.261  69.819  1.00  0.00    -0.339 A  
HETATM    9  C   UNL     1     -12.350  10.400  70.609  1.00  0.00    -0.438 A  
HETATM   10  C   UNL     1     -12.481   9.675  71.794  1.00  0.00    -0.402 A  
HETATM   11  O   UNL     1     -13.603   9.770  72.565  1.00  0.00    -0.656 OA 
HETATM   12  C   UNL     1     -11.473   8.828  72.231  1.00  0.00    -0.376 A  
HETATM   13  H   UNL     1     -13.692   9.276  73.372  1.00  0.00     0.000 HD 
HETATM   14  C   UNL     1     -10.327   8.670  71.458  1.00  0.00    -0.341 A  
HETATM   15  C   UNL     1     -10.204   9.360  70.250  1.00  0.00    -0.295 A  
ENDBRANCH   5   8
ENDBRANCH   4   5
ENDBRANCH   2   4
TORSDOF 3
ENDMDL
MODEL      110
REMARK 921   NORMALIZED FREE ENERGY PREDICTED BY IDOCK:   -3.46 KCAL/MOL
REMARK 922        TOTAL FREE ENERGY PREDICTED BY IDOCK:   -4.27 KCAL/MOL
REMARK 923 INTER-LIGAND FREE ENERGY PREDICTED BY IDOCK:   -4.08 KCAL/MOL
REMARK 924 INTRA-LIGAND FREE ENERGY PREDICTED BY IDOCK:   -0.19 KCAL/MOL
REMARK 927      BINDING AFFINITY PREDICTED BY RF-SCORE:    0.00 PKD
ROOT
HETATM    1  C   UNL     1     -12.205  14.299  69.661  1.00  0.00    -0.323 C  
HETATM    2  N   UNL     1     -10.980  13.517  69.558  1.00  0.00    -0.452 NA 
HETATM    3  H   UNL     1     -11.176  12.539  69.345  1.00  0.00     0.000 HD 
ENDROOT
BRANCH   2   4
HETATM    4  C   UNL     1     -10.051  14.110  68.579  1.00  0.00    -0.243 C  
BRANCH   4   5
HETATM    5  C   UNL     1     -10.712  15.088  67.567  1.00  0.00    -0.284 C  
HETATM    6  H   UNL     1     -11.076  15.058  65.658  1.00  0.00     0.000 HD 
HETATM    7  O   UNL     1     -10.673  14.460  66.277  1.00  0.00    -0.297 OA 
BRANCH   5   8
HETATM    8  C   UNL     1     -10.076  16.471  67.506  1.00  0.00    -0.267 A  
HETATM    9  C   UNL     1      -9.111  16.814  66.541  1.00  0.00    -0.302 A  
HETATM   10  C   UNL     1      -8.551  18.092  66.532  1.00  0.00    -0.258 A  
HETATM   11  O   UNL     1      -7.634  18.460  65.591  1.00  0.00    -0.522 OA 
HETATM   12  C   UNL     1      -8.910  19.039  67.481  1.00  0.00    -0.316 A  
HETATM   13  H   UNL     1      -7.253  19.330  65.586  1.00  0.00     0.000 HD 
HETATM   14  C   UNL     1      -9.870  18.721  68.437  1.00  0.00    -0.429 A  
HETATM   15  C   UNL     1     -10.465  17.458  68.430  1.00  0.00    -0.384 A  
ENDBRANCH   5   8
ENDBRANCH   4   5
ENDBRANCH   2   4
TORSDOF 3
ENDMDL
MODEL      111
REMARK 921   NORMALIZED FREE ENERGY PREDICTED BY IDOCK:   -3.46 KCAL/MOL
REMARK 922        TOTAL FREE ENERGY PREDICTED BY IDOCK:   -4.27 KCAL/MOL
REMARK 923 INTER-LIGAND FREE ENERGY PREDICTED BY IDOCK:   -4.12 KCAL/MOL
REMARK 924 INTRA-LIGAND FREE ENERGY PREDICTED BY IDOCK:   -0.15 KCAL/MOL
REMARK 927      BINDING AFFINITY PREDICTED BY RF-SCORE:    0.00 PKD
ROOT
HETATM    1  C   UNL     1     -10.138  11.381  67.779  1.00  0.00    -0.181 C  
HETATM    2  N   UNL     1     -11.456  11.714  67.253  1.00  0.00    -0.466 NA 
HETATM    3  H   UNL     1     -12.116  10.947  67.381  1.00  0.00     0.000 HD 
ENDROOT
BRANCH   2   4
HETATM    4  C   UNL     1     -11.961  12.969  67.838  1.00  0.00    -0.291 C  
BRANCH   4   5
HETATM    5  C   UNL     1     -12.028  14.166  66.848  1.00  0.00    -0.449 C  
HETATM    6  H   UNL     1     -11.777  14.387  64.933  1.00  0.00     0.000 HD 
HETATM    7  O   UNL     1     -11.736  13.655  65.538  1.00  0.00    -0.319 OA 
BRANCH   5   8
HETATM    8  C   UNL     1     -11.101  15.327  67.185  1.00  0.00    -0.323 A  
HETATM    9  C   UNL     1     -10.064  15.737  66.326  1.00  0.00    -0.320 A  
HETATM   10  C   UNL     1      -9.236  16.801  66.684  1.00  0.00    -0.256 A  
HETATM   11  O   UNL     1      -8.242  17.237  65.857  1.00  0.00    -0.534 OA 
HETATM   12  C   UNL     1      -9.396  17.458  67.895  1.00  0.00    -0.267 A  
HETATM   13  H   UNL     1      -7.678  17.961  66.101  1.00  0.00     0.000 HD 
HETATM   14  C   UNL     1     -10.421  17.073  68.753  1.00  0.00    -0.347 A  
HETATM   15  C   UNL     1     -11.281  16.035  68.386  1.00  0.00    -0.364 A  
ENDBRANCH   5   8
ENDBRANCH   4   5
ENDBRANCH   2   4
TORSDOF 3
ENDMDL
MODEL      112
REMARK 921   NORMALIZED FREE ENERGY PREDICTED BY IDOCK:   -3.45 KCAL/MOL
REMARK 922        TOTAL FREE ENERGY PREDICTED BY IDOCK:   -4.25 KCAL/MOL
REMARK 923 INTER-LIGAND FREE ENERGY PREDICTED BY IDOCK:   -4.14 KCAL/MOL
REMARK 924 INTRA-LIGAND FREE ENERGY PREDICTED BY IDOCK:   -0.12 KCAL/MOL
REMARK 927      BINDING AFFINITY PREDICTED BY RF-SCORE:    0.00 PKD
ROOT
HETATM    1  C   UNL     1     -10.499   5.406  66.759  1.00  0.00    -0.289 C  
HETATM    2  N   UNL     1     -11.322   6.601  66.888  1.00  0.00    -0.824 NA 
HETATM    3  H   UNL     1     -12.254   6.379  67.237  1.00  0.00     0.000 HD 
ENDROOT
BRANCH   2   4
HETATM    4  C   UNL     1     -10.657   7.618  67.723  1.00  0.00    -0.196 C  
BRANCH   4   5
HETATM    5  C   UNL     1     -10.272   8.924  66.972  1.00  0.00    -0.275 C  
HETATM    6  H   UNL     1      -8.604   9.769  66.442  1.00  0.00     0.000 HD 
HETATM    7  O   UNL     1      -8.839   8.970  66.901  1.00  0.00    -0.114 OA 
BRANCH   5   8
HETATM    8  C   UNL     1     -10.816  10.203  67.594  1.00  0.00    -0.346 A  
HETATM    9  C   UNL     1     -11.150  11.332  66.823  1.00  0.00    -0.314 A  
HETATM   10  C   UNL     1     -11.637  12.485  67.441  1.00  0.00    -0.370 A  
HETATM   11  O   UNL     1     -11.994  13.583  66.715  1.00  0.00    -0.382 OA 
HETATM   12  C   UNL     1     -11.777  12.555  68.820  1.00  0.00    -0.371 A  
HETATM   13  H   UNL     1     -12.325  14.368  67.136  1.00  0.00     0.000 HD 
HETATM   14  C   UNL     1     -11.461  11.445  69.597  1.00  0.00    -0.380 A  
HETATM   15  C   UNL     1     -11.011  10.273  68.985  1.00  0.00    -0.274 A  
ENDBRANCH   5   8
ENDBRANCH   4   5
ENDBRANCH   2   4
TORSDOF 3
ENDMDL
MODEL      113
REMARK 921   NORMALIZED FREE ENERGY PREDICTED BY IDOCK:   -3.45 KCAL/MOL
REMARK 922        TOTAL FREE ENERGY PREDICTED BY IDOCK:   -4.25 KCAL/MOL
REMARK 923 INTER-LIGAND FREE ENERGY PREDICTED BY IDOCK:   -4.15 KCAL/MOL
REMARK 924 INTRA-LIGAND FREE ENERGY PREDICTED BY IDOCK:   -0.10 KCAL/MOL
REMARK 927      BINDING AFFINITY PREDICTED BY RF-SCORE:    0.00 PKD
ROOT
HETATM    1  C   UNL     1     -10.599   8.938  71.744  1.00  0.00    -0.362 C  
HETATM    2  N   UNL     1     -11.543   9.974  71.346  1.00  0.00    -0.351 NA 
HETATM    3  H   UNL     1     -11.853  10.526  72.146  1.00  0.00     0.000 HD 
ENDROOT
BRANCH   2   4
HETATM    4  C   UNL     1     -10.980  10.828  70.284  1.00  0.00    -0.085 C  
BRANCH   4   5
HETATM    5  C   UNL     1     -12.028  11.675  69.509  1.00  0.00    -0.317 C  
HETATM    6  H   UNL     1     -12.685  11.719  67.680  1.00  0.00     0.000 HD 
HETATM    7  O   UNL     1     -12.045  11.201  68.154  1.00  0.00    -0.633 OA 
BRANCH   5   8
HETATM    8  C   UNL     1     -11.788  13.178  69.545  1.00  0.00    -0.383 A  
HETATM    9  C   UNL     1     -11.191  13.871  68.475  1.00  0.00    -0.298 A  
HETATM   10  C   UNL     1     -10.984  15.248  68.559  1.00  0.00    -0.266 A  
HETATM   11  O   UNL     1     -10.434  15.949  67.526  1.00  0.00    -0.284 OA 
HETATM   12  C   UNL     1     -11.333  15.958  69.699  1.00  0.00    -0.342 A  
HETATM   13  H   UNL     1     -10.292  16.886  67.583  1.00  0.00     0.000 HD 
HETATM   14  C   UNL     1     -11.933  15.291  70.763  1.00  0.00    -0.384 A  
HETATM   15  C   UNL     1     -12.182  13.920  70.673  1.00  0.00    -0.443 A  
ENDBRANCH   5   8
ENDBRANCH   4   5
ENDBRANCH   2   4
TORSDOF 3
ENDMDL
MODEL      114
REMARK 921   NORMALIZED FREE ENERGY PREDICTED BY IDOCK:   -3.44 KCAL/MOL
REMARK 922        TOTAL FREE ENERGY PREDICTED BY IDOCK:   -4.24 KCAL/MOL
REMARK 923 INTER-LIGAND FREE ENERGY PREDICTED BY IDOCK:   -4.06 KCAL/MOL
REMARK 924 INTRA-LIGAND FREE ENERGY PREDICTED BY IDOCK:   -0.18 KCAL/MOL
REMARK 927      BINDING AFFINITY PREDICTED BY RF-SCORE:    0.00 PKD
ROOT
HETATM    1  C   UNL     1      -9.195  10.622  66.500  1.00  0.00    -0.166 C  
HETATM    2  N   UNL     1      -8.884  11.771  65.660  1.00  0.00    -0.408 NA 
HETATM    3  H   UNL     1      -8.282  11.512  64.878  1.00  0.00     0.000 HD 
ENDROOT
BRANCH   2   4
HETATM    4  C   UNL     1     -10.113  12.442  65.200  1.00  0.00    -0.256 C  
BRANCH   4   5
HETATM    5  C   UNL     1     -11.163  12.710  66.315  1.00  0.00    -0.311 C  
HETATM    6  H   UNL     1     -13.105  12.705  66.410  1.00  0.00     0.000 HD 
HETATM    7  O   UNL     1     -12.463  12.542  65.729  1.00  0.00    -0.626 OA 
BRANCH   5   8
HETATM    8  C   UNL     1     -11.053  14.074  66.983  1.00  0.00    -0.312 A  
HETATM    9  C   UNL     1     -11.723  14.381  68.182  1.00  0.00    -0.377 A  
HETATM   10  C   UNL     1     -11.597  15.649  68.751  1.00  0.00    -0.384 A  
HETATM   11  O   UNL     1     -12.212  15.964  69.927  1.00  0.00    -0.319 OA 
HETATM   12  C   UNL     1     -10.837  16.637  68.141  1.00  0.00    -0.348 A  
HETATM   13  H   UNL     1     -12.127  16.827  70.315  1.00  0.00     0.000 HD 
HETATM   14  C   UNL     1     -10.160  16.348  66.960  1.00  0.00    -0.272 A  
HETATM   15  C   UNL     1     -10.247  15.070  66.404  1.00  0.00    -0.286 A  
ENDBRANCH   5   8
ENDBRANCH   4   5
ENDBRANCH   2   4
TORSDOF 3
ENDMDL
MODEL      115
REMARK 921   NORMALIZED FREE ENERGY PREDICTED BY IDOCK:   -3.43 KCAL/MOL
REMARK 922        TOTAL FREE ENERGY PREDICTED BY IDOCK:   -4.23 KCAL/MOL
REMARK 923 INTER-LIGAND FREE ENERGY PREDICTED BY IDOCK:   -4.10 KCAL/MOL
REMARK 924 INTRA-LIGAND FREE ENERGY PREDICTED BY IDOCK:   -0.13 KCAL/MOL
REMARK 927      BINDING AFFINITY PREDICTED BY RF-SCORE:    0.00 PKD
ROOT
HETATM    1  C   UNL     1     -10.206   4.669  66.392  1.00  0.00    -0.260 C  
HETATM    2  N   UNL     1     -11.139   5.773  66.210  1.00  0.00    -0.755 NA 
HETATM    3  H   UNL     1     -12.108   5.461  66.285  1.00  0.00     0.000 HD 
ENDROOT
BRANCH   2   4
HETATM    4  C   UNL     1     -10.849   6.875  67.146  1.00  0.00    -0.377 C  
BRANCH   4   5
HETATM    5  C   UNL     1      -9.714   7.833  66.687  1.00  0.00    -0.222 C  
HETATM    6  H   UNL     1      -7.962   8.321  67.372  1.00  0.00     0.000 HD 
HETATM    7  O   UNL     1      -8.656   7.736  67.652  1.00  0.00    -0.123 OA 
BRANCH   5   8
HETATM    8  C   UNL     1     -10.137   9.285  66.505  1.00  0.00    -0.343 A  
HETATM    9  C   UNL     1      -9.754  10.045  65.384  1.00  0.00    -0.368 A  
HETATM   10  C   UNL     1     -10.160  11.375  65.267  1.00  0.00    -0.268 A  
HETATM   11  O   UNL     1      -9.828  12.126  64.177  1.00  0.00    -0.461 OA 
HETATM   12  C   UNL     1     -10.920  11.983  66.256  1.00  0.00    -0.340 A  
HETATM   13  H   UNL     1     -10.103  13.032  64.098  1.00  0.00     0.000 HD 
HETATM   14  C   UNL     1     -11.315  11.244  67.367  1.00  0.00    -0.349 A  
HETATM   15  C   UNL     1     -10.949   9.901  67.474  1.00  0.00    -0.239 A  
ENDBRANCH   5   8
ENDBRANCH   4   5
ENDBRANCH   2   4
TORSDOF 3
ENDMDL
MODEL      116
REMARK 921   NORMALIZED FREE ENERGY PREDICTED BY IDOCK:   -3.43 KCAL/MOL
REMARK 922        TOTAL FREE ENERGY PREDICTED BY IDOCK:   -4.23 KCAL/MOL
REMARK 923 INTER-LIGAND FREE ENERGY PREDICTED BY IDOCK:   -4.11 KCAL/MOL
REMARK 924 INTRA-LIGAND FREE ENERGY PREDICTED BY IDOCK:   -0.12 KCAL/MOL
REMARK 927      BINDING AFFINITY PREDICTED BY RF-SCORE:    0.00 PKD
ROOT
HETATM    1  C   UNL     1      -6.978  18.100  68.552  1.00  0.00    -0.246 C  
HETATM    2  N   UNL     1      -7.536  17.540  67.328  1.00  0.00    -0.188 NA 
HETATM    3  H   UNL     1      -7.290  16.556  67.219  1.00  0.00     0.000 HD 
ENDROOT
BRANCH   2   4
HETATM    4  C   UNL     1      -8.994  17.745  67.266  1.00  0.00    -0.246 C  
BRANCH   4   5
HETATM    5  C   UNL     1      -9.756  16.724  66.375  1.00  0.00    -0.290 C  
HETATM    6  H   UNL     1     -11.020  16.851  64.904  1.00  0.00     0.000 HD 
HETATM    7  O   UNL     1     -10.554  17.475  65.448  1.00  0.00    -0.648 OA 
BRANCH   5   8
HETATM    8  C   UNL     1     -10.620  15.728  67.138  1.00  0.00    -0.313 A  
HETATM    9  C   UNL     1     -10.985  14.480  66.599  1.00  0.00    -0.321 A  
HETATM   10  C   UNL     1     -11.787  13.606  67.334  1.00  0.00    -0.393 A  
HETATM   11  O   UNL     1     -12.132  12.380  66.848  1.00  0.00    -0.564 OA 
HETATM   12  C   UNL     1     -12.260  13.954  68.592  1.00  0.00    -0.213 A  
HETATM   13  H   UNL     1     -12.678  11.785  67.349  1.00  0.00     0.000 HD 
HETATM   14  C   UNL     1     -11.902  15.179  69.144  1.00  0.00    -0.340 A  
HETATM   15  C   UNL     1     -11.067  16.044  68.433  1.00  0.00    -0.351 A  
ENDBRANCH   5   8
ENDBRANCH   4   5
ENDBRANCH   2   4
TORSDOF 3
ENDMDL
MODEL      117
REMARK 921   NORMALIZED FREE ENERGY PREDICTED BY IDOCK:   -3.41 KCAL/MOL
REMARK 922        TOTAL FREE ENERGY PREDICTED BY IDOCK:   -4.21 KCAL/MOL
REMARK 923 INTER-LIGAND FREE ENERGY PREDICTED BY IDOCK:   -4.09 KCAL/MOL
REMARK 924 INTRA-LIGAND FREE ENERGY PREDICTED BY IDOCK:   -0.12 KCAL/MOL
REMARK 927      BINDING AFFINITY PREDICTED BY RF-SCORE:    0.00 PKD
ROOT
HETATM    1  C   UNL     1     -12.044  16.098  72.564  1.00  0.00    -0.550 C  
HETATM    2  N   UNL     1     -12.436  16.122  71.161  1.00  0.00    -0.506 NA 
HETATM    3  H   UNL     1     -12.324  17.052  70.756  1.00  0.00     0.000 HD 
ENDROOT
BRANCH   2   4
HETATM    4  C   UNL     1     -11.707  15.102  70.387  1.00  0.00    -0.293 C  
BRANCH   4   5
HETATM    5  C   UNL     1     -11.888  15.203  68.846  1.00  0.00    -0.310 C  
HETATM    6  H   UNL     1     -12.213  13.934  67.410  1.00  0.00     0.000 HD 
HETATM    7  O   UNL     1     -12.102  13.872  68.352  1.00  0.00    -0.365 OA 
BRANCH   5   8
HETATM    8  C   UNL     1     -10.733  15.867  68.108  1.00  0.00    -0.302 A  
HETATM    9  C   UNL     1     -10.612  17.265  68.003  1.00  0.00    -0.394 A  
HETATM   10  C   UNL     1      -9.540  17.826  67.308  1.00  0.00    -0.272 A  
HETATM   11  O   UNL     1      -9.383  19.178  67.214  1.00  0.00    -0.294 OA 
HETATM   12  C   UNL     1      -8.590  17.026  66.688  1.00  0.00    -0.285 A  
HETATM   13  H   UNL     1      -8.652  19.559  66.740  1.00  0.00     0.000 HD 
HETATM   14  C   UNL     1      -8.689  15.642  66.790  1.00  0.00    -0.306 A  
HETATM   15  C   UNL     1      -9.736  15.072  67.517  1.00  0.00    -0.215 A  
ENDBRANCH   5   8
ENDBRANCH   4   5
ENDBRANCH   2   4
TORSDOF 3
ENDMDL
MODEL      118
REMARK 921   NORMALIZED FREE ENERGY PREDICTED BY IDOCK:   -3.41 KCAL/MOL
REMARK 922        TOTAL FREE ENERGY PREDICTED BY IDOCK:   -4.20 KCAL/MOL
REMARK 923 INTER-LIGAND FREE ENERGY PREDICTED BY IDOCK:   -4.04 KCAL/MOL
REMARK 924 INTRA-LIGAND FREE ENERGY PREDICTED BY IDOCK:   -0.16 KCAL/MOL
REMARK 927      BINDING AFFINITY PREDICTED BY RF-SCORE:    0.00 PKD
ROOT
HETATM    1  C   UNL     1     -14.334   7.838  71.649  1.00  0.00    -0.481 C  
HETATM    2  N   UNL     1     -13.546   8.853  70.961  1.00  0.00    -0.554 NA 
HETATM    3  H   UNL     1     -14.106   9.675  70.737  1.00  0.00     0.000 HD 
ENDROOT
BRANCH   2   4
HETATM    4  C   UNL     1     -12.344   9.210  71.737  1.00  0.00    -0.372 C  
BRANCH   4   5
HETATM    5  C   UNL     1     -11.109   8.303  71.474  1.00  0.00    -0.259 C  
HETATM    6  H   UNL     1      -9.197   8.453  71.789  1.00  0.00     0.000 HD 
HETATM    7  O   UNL     1      -9.952   9.007  71.949  1.00  0.00    -0.332 OA 
BRANCH   5   8
HETATM    8  C   UNL     1     -10.919   7.886  70.021  1.00  0.00    -0.208 A  
HETATM    9  C   UNL     1     -10.633   8.815  69.003  1.00  0.00    -0.191 A  
HETATM   10  C   UNL     1     -10.477   8.384  67.685  1.00  0.00    -0.239 A  
HETATM   11  O   UNL     1     -10.171   9.259  66.683  1.00  0.00    -0.256 OA 
HETATM   12  C   UNL     1     -10.624   7.047  67.345  1.00  0.00    -0.372 A  
HETATM   13  H   UNL     1     -10.065   8.966  65.786  1.00  0.00     0.000 HD 
HETATM   14  C   UNL     1     -10.898   6.114  68.340  1.00  0.00    -0.382 A  
HETATM   15  C   UNL     1     -11.016   6.529  69.668  1.00  0.00    -0.394 A  
ENDBRANCH   5   8
ENDBRANCH   4   5
ENDBRANCH   2   4
TORSDOF 3
ENDMDL
MODEL      119
REMARK 921   NORMALIZED FREE ENERGY PREDICTED BY IDOCK:   -3.40 KCAL/MOL
REMARK 922        TOTAL FREE ENERGY PREDICTED BY IDOCK:   -4.20 KCAL/MOL
REMARK 923 INTER-LIGAND FREE ENERGY PREDICTED BY IDOCK:   -4.05 KCAL/MOL
REMARK 924 INTRA-LIGAND FREE ENERGY PREDICTED BY IDOCK:   -0.15 KCAL/MOL
REMARK 927      BINDING AFFINITY PREDICTED BY RF-SCORE:    0.00 PKD
ROOT
HETATM    1  C   UNL     1      -7.989  10.669  68.976  1.00  0.00    -0.140 C  
HETATM    2  N   UNL     1      -9.178  11.489  69.170  1.00  0.00    -0.390 NA 
HETATM    3  H   UNL     1      -8.936  12.436  69.463  1.00  0.00     0.000 HD 
ENDROOT
BRANCH   2   4
HETATM    4  C   UNL     1     -10.024  11.494  67.962  1.00  0.00    -0.189 C  
BRANCH   4   5
HETATM    5  C   UNL     1     -11.516  11.850  68.217  1.00  0.00    -0.311 C  
HETATM    6  H   UNL     1     -13.069  12.166  67.091  1.00  0.00     0.000 HD 
HETATM    7  O   UNL     1     -12.157  11.948  66.936  1.00  0.00    -0.599 OA 
BRANCH   5   8
HETATM    8  C   UNL     1     -11.741  13.121  69.025  1.00  0.00    -0.367 A  
HETATM    9  C   UNL     1     -11.423  14.397  68.524  1.00  0.00    -0.326 A  
HETATM   10  C   UNL     1     -11.640  15.532  69.307  1.00  0.00    -0.357 A  
HETATM   11  O   UNL     1     -11.367  16.783  68.836  1.00  0.00    -0.203 OA 
HETATM   12  C   UNL     1     -12.145  15.429  70.595  1.00  0.00    -0.412 A  
HETATM   13  H   UNL     1     -11.514  17.555  69.369  1.00  0.00     0.000 HD 
HETATM   14  C   UNL     1     -12.474  14.176  71.103  1.00  0.00    -0.445 A  
HETATM   15  C   UNL     1     -12.299  13.038  70.313  1.00  0.00    -0.311 A  
ENDBRANCH   5   8
ENDBRANCH   4   5
ENDBRANCH   2   4
TORSDOF 3
ENDMDL
MODEL      120
REMARK 921   NORMALIZED FREE ENERGY PREDICTED BY IDOCK:   -3.40 KCAL/MOL
REMARK 922        TOTAL FREE ENERGY PREDICTED BY IDOCK:   -4.19 KCAL/MOL
REMARK 923 INTER-LIGAND FREE ENERGY PREDICTED BY IDOCK:   -4.38 KCAL/MOL
REMARK 924 INTRA-LIGAND FREE ENERGY PREDICTED BY IDOCK:    0.19 KCAL/MOL
REMARK 927      BINDING AFFINITY PREDICTED BY RF-SCORE:    0.00 PKD
ROOT
HETATM    1  C   UNL     1     -12.434  15.699  74.054  1.00  0.00    -0.651 C  
HETATM    2  N   UNL     1     -11.929  15.905  72.703  1.00  0.00    -0.463 NA 
HETATM    3  H   UNL     1     -11.160  15.270  72.489  1.00  0.00     0.000 HD 
ENDROOT
BRANCH   2   4
HETATM    4  C   UNL     1     -13.012  15.800  71.708  1.00  0.00    -0.435 C  
BRANCH   4   5
HETATM    5  C   UNL     1     -12.760  14.759  70.581  1.00  0.00    -0.358 C  
HETATM    6  H   UNL     1     -12.187  12.903  70.522  1.00  0.00     0.000 HD 
HETATM    7  O   UNL     1     -12.342  13.539  71.211  1.00  0.00    -0.336 OA 
BRANCH   5   8
HETATM    8  C   UNL     1     -11.746  15.189  69.528  1.00  0.00    -0.351 A  
HETATM    9  C   UNL     1     -11.857  14.810  68.178  1.00  0.00    -0.318 A  
HETATM   10  C   UNL     1     -10.897  15.222  67.252  1.00  0.00    -0.318 A  
HETATM   11  O   UNL     1     -10.995  14.892  65.932  1.00  0.00    -0.324 OA 
HETATM   12  C   UNL     1      -9.807  15.987  67.642  1.00  0.00    -0.235 A  
HETATM   13  H   UNL     1     -10.342  15.172  65.302  1.00  0.00     0.000 HD 
HETATM   14  C   UNL     1      -9.687  16.380  68.971  1.00  0.00    -0.262 A  
HETATM   15  C   UNL     1     -10.663  16.006  69.897  1.00  0.00    -0.334 A  
ENDBRANCH   5   8
ENDBRANCH   4   5
ENDBRANCH   2   4
TORSDOF 3
ENDMDL
MODEL      121
REMARK 921   NORMALIZED FREE ENERGY PREDICTED BY IDOCK:   -3.39 KCAL/MOL
REMARK 922        TOTAL FREE ENERGY PREDICTED BY IDOCK:   -4.19 KCAL/MOL
REMARK 923 INTER-LIGAND FREE ENERGY PREDICTED BY IDOCK:   -4.08 KCAL/MOL
REMARK 924 INTRA-LIGAND FREE ENERGY PREDICTED BY IDOCK:   -0.11 KCAL/MOL
REMARK 927      BINDING AFFINITY PREDICTED BY RF-SCORE:    0.00 PKD
ROOT
HETATM    1  C   UNL     1      -7.881  10.002  66.963  1.00  0.00    -0.102 C  
HETATM    2  N   UNL     1      -7.736  10.038  68.413  1.00  0.00    -0.084 NA 
HETATM    3  H   UNL     1      -6.944  10.616  68.696  1.00  0.00     0.000 HD 
ENDROOT
BRANCH   2   4
HETATM    4  C   UNL     1      -8.986  10.472  69.063  1.00  0.00    -0.176 C  
BRANCH   4   5
HETATM    5  C   UNL     1      -9.660   9.393  69.957  1.00  0.00    -0.226 C  
HETATM    6  H   UNL     1     -10.360   7.603  69.667  1.00  0.00     0.000 HD 
HETATM    7  O   UNL     1      -9.948   8.262  69.120  1.00  0.00    -0.185 OA 
BRANCH   5   8
HETATM    8  C   UNL     1     -10.919   9.857  70.678  1.00  0.00    -0.405 A  
HETATM    9  C   UNL     1     -11.558   9.072  71.656  1.00  0.00    -0.426 A  
HETATM   10  C   UNL     1     -12.715   9.536  72.282  1.00  0.00    -0.311 A  
HETATM   11  O   UNL     1     -13.339   8.809  73.254  1.00  0.00    -0.915 OA 
HETATM   12  C   UNL     1     -13.274  10.760  71.941  1.00  0.00    -0.524 A  
HETATM   13  H   UNL     1     -14.127   9.125  73.680  1.00  0.00     0.000 HD 
HETATM   14  C   UNL     1     -12.650  11.553  70.983  1.00  0.00    -0.457 A  
HETATM   15  C   UNL     1     -11.470  11.116  70.379  1.00  0.00    -0.265 A  
ENDBRANCH   5   8
ENDBRANCH   4   5
ENDBRANCH   2   4
TORSDOF 3
ENDMDL
MODEL      122
REMARK 921   NORMALIZED FREE ENERGY PREDICTED BY IDOCK:   -3.39 KCAL/MOL
REMARK 922        TOTAL FREE ENERGY PREDICTED BY IDOCK:   -4.18 KCAL/MOL
REMARK 923 INTER-LIGAND FREE ENERGY PREDICTED BY IDOCK:   -4.23 KCAL/MOL
REMARK 924 INTRA-LIGAND FREE ENERGY PREDICTED BY IDOCK:    0.05 KCAL/MOL
REMARK 927      BINDING AFFINITY PREDICTED BY RF-SCORE:    0.00 PKD
ROOT
HETATM    1  C   UNL     1     -12.519  13.808  64.572  1.00  0.00    -0.285 C  
HETATM    2  N   UNL     1     -11.823  13.183  63.454  1.00  0.00    -0.738 NA 
HETATM    3  H   UNL     1     -11.010  13.728  63.167  1.00  0.00     0.000 HD 
ENDROOT
BRANCH   2   4
HETATM    4  C   UNL     1     -11.460  11.789  63.766  1.00  0.00    -0.420 C  
BRANCH   4   5
HETATM    5  C   UNL     1     -10.188  11.631  64.647  1.00  0.00    -0.281 C  
HETATM    6  H   UNL     1      -8.897  10.213  64.961  1.00  0.00     0.000 HD 
HETATM    7  O   UNL     1      -9.674  10.310  64.423  1.00  0.00    -0.297 OA 
BRANCH   5   8
HETATM    8  C   UNL     1     -10.406  11.873  66.135  1.00  0.00    -0.261 A  
HETATM    9  C   UNL     1     -11.330  11.127  66.891  1.00  0.00    -0.168 A  
HETATM   10  C   UNL     1     -11.500  11.393  68.250  1.00  0.00    -0.299 A  
HETATM   11  O   UNL     1     -12.367  10.667  69.013  1.00  0.00    -0.770 OA 
HETATM   12  C   UNL     1     -10.789  12.407  68.877  1.00  0.00    -0.239 A  
HETATM   13  H   UNL     1     -12.483  10.849  69.938  1.00  0.00     0.000 HD 
HETATM   14  C   UNL     1      -9.865  13.148  68.147  1.00  0.00    -0.228 A  
HETATM   15  C   UNL     1      -9.658  12.863  66.796  1.00  0.00    -0.246 A  
ENDBRANCH   5   8
ENDBRANCH   4   5
ENDBRANCH   2   4
TORSDOF 3
ENDMDL
MODEL      123
REMARK 921   NORMALIZED FREE ENERGY PREDICTED BY IDOCK:   -3.39 KCAL/MOL
REMARK 922        TOTAL FREE ENERGY PREDICTED BY IDOCK:   -4.18 KCAL/MOL
REMARK 923 INTER-LIGAND FREE ENERGY PREDICTED BY IDOCK:   -4.08 KCAL/MOL
REMARK 924 INTRA-LIGAND FREE ENERGY PREDICTED BY IDOCK:   -0.10 KCAL/MOL
REMARK 927      BINDING AFFINITY PREDICTED BY RF-SCORE:    0.00 PKD
ROOT
HETATM    1  C   UNL     1      -9.048  14.329  67.174  1.00  0.00    -0.228 C  
HETATM    2  N   UNL     1      -9.840  15.093  66.219  1.00  0.00    -0.276 NA 
HETATM    3  H   UNL     1     -10.786  15.259  66.563  1.00  0.00     0.000 HD 
ENDROOT
BRANCH   2   4
HETATM    4  C   UNL     1      -9.166  16.353  65.855  1.00  0.00    -0.199 C  
BRANCH   4   5
HETATM    5  C   UNL     1      -9.735  17.618  66.557  1.00  0.00    -0.304 C  
HETATM    6  H   UNL     1     -10.981  19.026  66.064  1.00  0.00     0.000 HD 
HETATM    7  O   UNL     1     -10.633  18.252  65.635  1.00  0.00    -0.614 OA 
BRANCH   5   8
HETATM    8  C   UNL     1      -8.683  18.608  67.042  1.00  0.00    -0.285 A  
HETATM    9  C   UNL     1      -8.043  19.512  66.173  1.00  0.00    -0.342 A  
HETATM   10  C   UNL     1      -7.079  20.393  66.664  1.00  0.00    -0.258 A  
HETATM   11  O   UNL     1      -6.464  21.298  65.850  1.00  0.00    -0.479 OA 
HETATM   12  C   UNL     1      -6.712  20.382  68.002  1.00  0.00    -0.336 A  
HETATM   13  H   UNL     1      -5.807  21.898  66.184  1.00  0.00     0.000 HD 
HETATM   14  C   UNL     1      -7.341  19.502  68.877  1.00  0.00    -0.398 A  
HETATM   15  C   UNL     1      -8.336  18.644  68.404  1.00  0.00    -0.362 A  
ENDBRANCH   5   8
ENDBRANCH   4   5
ENDBRANCH   2   4
TORSDOF 3
ENDMDL
MODEL      124
REMARK 921   NORMALIZED FREE ENERGY PREDICTED BY IDOCK:   -3.38 KCAL/MOL
REMARK 922        TOTAL FREE ENERGY PREDICTED BY IDOCK:   -4.18 KCAL/MOL
REMARK 923 INTER-LIGAND FREE ENERGY PREDICTED BY IDOCK:   -4.05 KCAL/MOL
REMARK 924 INTRA-LIGAND FREE ENERGY PREDICTED BY IDOCK:   -0.13 KCAL/MOL
REMARK 927      BINDING AFFINITY PREDICTED BY RF-SCORE:    0.00 PKD
ROOT
HETATM    1  C   UNL     1      -7.854   5.793  71.428  1.00  0.00    -0.112 C  
HETATM    2  N   UNL     1      -9.176   5.977  70.843  1.00  0.00    -0.153 NA 
HETATM    3  H   UNL     1      -9.532   5.110  70.440  1.00  0.00     0.000 HD 
ENDROOT
BRANCH   2   4
HETATM    4  C   UNL     1     -10.117   6.547  71.824  1.00  0.00    -0.184 C  
BRANCH   4   5
HETATM    5  C   UNL     1     -11.542   6.827  71.268  1.00  0.00    -0.320 C  
HETATM    6  H   UNL     1     -12.471   6.449  69.603  1.00  0.00     0.000 HD 
HETATM    7  O   UNL     1     -11.601   6.278  69.943  1.00  0.00    -0.435 OA 
BRANCH   5   8
HETATM    8  C   UNL     1     -11.947   8.295  71.255  1.00  0.00    -0.317 A  
HETATM    9  C   UNL     1     -11.218   9.270  70.547  1.00  0.00    -0.315 A  
HETATM   10  C   UNL     1     -11.624  10.605  70.573  1.00  0.00    -0.350 A  
HETATM   11  O   UNL     1     -10.954  11.565  69.874  1.00  0.00    -0.461 OA 
HETATM   12  C   UNL     1     -12.730  11.004  71.311  1.00  0.00    -0.537 A  
HETATM   13  H   UNL     1     -11.230  12.474  69.892  1.00  0.00     0.000 HD 
HETATM   14  C   UNL     1     -13.467  10.053  72.009  1.00  0.00    -0.448 A  
HETATM   15  C   UNL     1     -13.093   8.708  71.957  1.00  0.00    -0.417 A  
ENDBRANCH   5   8
ENDBRANCH   4   5
ENDBRANCH   2   4
TORSDOF 3
ENDMDL
MODEL      125
REMARK 921   NORMALIZED FREE ENERGY PREDICTED BY IDOCK:   -3.38 KCAL/MOL
REMARK 922        TOTAL FREE ENERGY PREDICTED BY IDOCK:   -4.17 KCAL/MOL
REMARK 923 INTER-LIGAND FREE ENERGY PREDICTED BY IDOCK:   -4.05 KCAL/MOL
REMARK 924 INTRA-LIGAND FREE ENERGY PREDICTED BY IDOCK:   -0.13 KCAL/MOL
REMARK 927      BINDING AFFINITY PREDICTED BY RF-SCORE:    0.00 PKD
ROOT
HETATM    1  C   UNL     1     -10.478  16.991  67.767  1.00  0.00    -0.349 C  
HETATM    2  N   UNL     1     -10.208  15.566  67.626  1.00  0.00    -0.252 NA 
HETATM    3  H   UNL     1     -10.768  15.012  68.275  1.00  0.00     0.000 HD 
ENDROOT
BRANCH   2   4
HETATM    4  C   UNL     1     -10.397  15.124  66.232  1.00  0.00    -0.294 C  
BRANCH   4   5
HETATM    5  C   UNL     1     -11.452  13.998  66.046  1.00  0.00    -0.338 C  
HETATM    6  H   UNL     1     -12.616  12.990  67.231  1.00  0.00     0.000 HD 
HETATM    7  O   UNL     1     -11.971  13.678  67.345  1.00  0.00    -0.376 OA 
BRANCH   5   8
HETATM    8  C   UNL     1     -10.933  12.743  65.355  1.00  0.00    -0.313 A  
HETATM    9  C   UNL     1     -10.572  11.586  66.070  1.00  0.00    -0.310 A  
HETATM   10  C   UNL     1     -10.093  10.464  65.392  1.00  0.00    -0.284 A  
HETATM   11  O   UNL     1      -9.762   9.320  66.057  1.00  0.00    -0.254 OA 
HETATM   12  C   UNL     1      -9.938  10.471  64.013  1.00  0.00    -0.363 A  
HETATM   13  H   UNL     1      -9.436   8.556  65.596  1.00  0.00     0.000 HD 
HETATM   14  C   UNL     1     -10.300  11.603  63.289  1.00  0.00    -0.444 A  
HETATM   15  C   UNL     1     -10.818  12.717  63.954  1.00  0.00    -0.468 A  
ENDBRANCH   5   8
ENDBRANCH   4   5
ENDBRANCH   2   4
TORSDOF 3
ENDMDL
MODEL      126
REMARK 921   NORMALIZED FREE ENERGY PREDICTED BY IDOCK:   -3.37 KCAL/MOL
REMARK 922        TOTAL FREE ENERGY PREDICTED BY IDOCK:   -4.16 KCAL/MOL
REMARK 923 INTER-LIGAND FREE ENERGY PREDICTED BY IDOCK:   -4.14 KCAL/MOL
REMARK 924 INTRA-LIGAND FREE ENERGY PREDICTED BY IDOCK:   -0.03 KCAL/MOL
REMARK 927      BINDING AFFINITY PREDICTED BY RF-SCORE:    0.00 PKD
ROOT
HETATM    1  C   UNL     1      -8.027  18.628  68.202  1.00  0.00    -0.289 C  
HETATM    2  N   UNL     1      -8.440  17.268  68.525  1.00  0.00    -0.261 NA 
HETATM    3  H   UNL     1      -8.570  17.144  69.529  1.00  0.00     0.000 HD 
ENDROOT
BRANCH   2   4
HETATM    4  C   UNL     1      -9.647  16.885  67.770  1.00  0.00    -0.249 C  
BRANCH   4   5
HETATM    5  C   UNL     1     -10.075  15.400  67.941  1.00  0.00    -0.226 C  
HETATM    6  H   UNL     1     -11.019  14.102  66.845  1.00  0.00     0.000 HD 
HETATM    7  O   UNL     1     -10.758  15.010  66.741  1.00  0.00    -0.296 OA 
BRANCH   5   8
HETATM    8  C   UNL     1     -10.941  15.121  69.162  1.00  0.00    -0.260 A  
HETATM    9  C   UNL     1     -11.116  16.063  70.193  1.00  0.00    -0.372 A  
HETATM   10  C   UNL     1     -11.913  15.757  71.296  1.00  0.00    -0.434 A  
HETATM   11  O   UNL     1     -12.122  16.661  72.296  1.00  0.00    -0.569 OA 
HETATM   12  C   UNL     1     -12.527  14.518  71.415  1.00  0.00    -0.423 A  
HETATM   13  H   UNL     1     -12.664  16.452  73.047  1.00  0.00     0.000 HD 
HETATM   14  C   UNL     1     -12.373  13.577  70.402  1.00  0.00    -0.397 A  
HETATM   15  C   UNL     1     -11.610  13.889  69.274  1.00  0.00    -0.358 A  
ENDBRANCH   5   8
ENDBRANCH   4   5
ENDBRANCH   2   4
TORSDOF 3
ENDMDL
MODEL      127
REMARK 921   NORMALIZED FREE ENERGY PREDICTED BY IDOCK:   -3.35 KCAL/MOL
REMARK 922        TOTAL FREE ENERGY PREDICTED BY IDOCK:   -4.14 KCAL/MOL
REMARK 923 INTER-LIGAND FREE ENERGY PREDICTED BY IDOCK:   -3.96 KCAL/MOL
REMARK 924 INTRA-LIGAND FREE ENERGY PREDICTED BY IDOCK:   -0.18 KCAL/MOL
REMARK 927      BINDING AFFINITY PREDICTED BY RF-SCORE:    0.00 PKD
ROOT
HETATM    1  C   UNL     1      -8.390  10.424  67.149  1.00  0.00    -0.126 C  
HETATM    2  N   UNL     1      -9.289  10.659  68.271  1.00  0.00    -0.151 NA 
HETATM    3  H   UNL     1      -8.897  10.309  69.146  1.00  0.00     0.000 HD 
ENDROOT
BRANCH   2   4
HETATM    4  C   UNL     1      -9.653  12.084  68.373  1.00  0.00    -0.190 C  
BRANCH   4   5
HETATM    5  C   UNL     1      -9.114  12.975  67.219  1.00  0.00    -0.209 C  
HETATM    6  H   UNL     1      -8.146  14.657  67.112  1.00  0.00     0.000 HD 
HETATM    7  O   UNL     1      -8.475  14.113  67.818  1.00  0.00    -0.155 OA 
BRANCH   5   8
HETATM    8  C   UNL     1     -10.165  13.424  66.212  1.00  0.00    -0.298 A  
HETATM    9  C   UNL     1     -11.205  12.578  65.782  1.00  0.00    -0.356 A  
HETATM   10  C   UNL     1     -12.139  13.032  64.851  1.00  0.00    -0.413 A  
HETATM   11  O   UNL     1     -13.173  12.243  64.438  1.00  0.00    -0.806 OA 
HETATM   12  C   UNL     1     -12.052  14.308  64.312  1.00  0.00    -0.467 A  
HETATM   13  H   UNL     1     -13.809  12.553  63.804  1.00  0.00     0.000 HD 
HETATM   14  C   UNL     1     -11.037  15.161  64.733  1.00  0.00    -0.395 A  
HETATM   15  C   UNL     1     -10.121  14.730  65.694  1.00  0.00    -0.393 A  
ENDBRANCH   5   8
ENDBRANCH   4   5
ENDBRANCH   2   4
TORSDOF 3
ENDMDL
MODEL      128
REMARK 921   NORMALIZED FREE ENERGY PREDICTED BY IDOCK:   -3.34 KCAL/MOL
REMARK 922        TOTAL FREE ENERGY PREDICTED BY IDOCK:   -4.12 KCAL/MOL
REMARK 923 INTER-LIGAND FREE ENERGY PREDICTED BY IDOCK:   -4.03 KCAL/MOL
REMARK 924 INTRA-LIGAND FREE ENERGY PREDICTED BY IDOCK:   -0.09 KCAL/MOL
REMARK 927      BINDING AFFINITY PREDICTED BY RF-SCORE:    0.00 PKD
ROOT
HETATM    1  C   UNL     1      -7.228  12.742  67.289  1.00  0.00    -0.082 C  
HETATM    2  N   UNL     1      -8.603  13.220  67.225  1.00  0.00    -0.204 NA 
HETATM    3  H   UNL     1      -9.096  12.839  66.417  1.00  0.00     0.000 HD 
ENDROOT
BRANCH   2   4
HETATM    4  C   UNL     1      -9.323  12.940  68.481  1.00  0.00    -0.074 C  
BRANCH   4   5
HETATM    5  C   UNL     1     -10.835  12.625  68.306  1.00  0.00    -0.239 C  
HETATM    6  H   UNL     1     -12.265  13.312  67.183  1.00  0.00     0.000 HD 
HETATM    7  O   UNL     1     -11.341  13.504  67.290  1.00  0.00    -0.291 OA 
BRANCH   5   8
HETATM    8  C   UNL     1     -11.665  12.748  69.577  1.00  0.00    -0.383 A  
HETATM    9  C   UNL     1     -12.079  11.625  70.318  1.00  0.00    -0.443 A  
HETATM   10  C   UNL     1     -12.847  11.789  71.471  1.00  0.00    -0.345 A  
HETATM   11  O   UNL     1     -13.238  10.720  72.223  1.00  0.00    -0.605 OA 
HETATM   12  C   UNL     1     -13.239  13.050  71.898  1.00  0.00    -0.527 A  
HETATM   13  H   UNL     1     -13.761  10.832  73.008  1.00  0.00     0.000 HD 
HETATM   14  C   UNL     1     -12.831  14.172  71.185  1.00  0.00    -0.431 A  
HETATM   15  C   UNL     1     -12.029  14.021  70.052  1.00  0.00    -0.404 A  
ENDBRANCH   5   8
ENDBRANCH   4   5
ENDBRANCH   2   4
TORSDOF 3
ENDMDL
MODEL      129
REMARK 921   NORMALIZED FREE ENERGY PREDICTED BY IDOCK:   -3.32 KCAL/MOL
REMARK 922        TOTAL FREE ENERGY PREDICTED BY IDOCK:   -4.10 KCAL/MOL
REMARK 923 INTER-LIGAND FREE ENERGY PREDICTED BY IDOCK:   -3.96 KCAL/MOL
REMARK 924 INTRA-LIGAND FREE ENERGY PREDICTED BY IDOCK:   -0.13 KCAL/MOL
REMARK 927      BINDING AFFINITY PREDICTED BY RF-SCORE:    0.00 PKD
ROOT
HETATM    1  C   UNL     1     -10.035  10.045  65.751  1.00  0.00    -0.276 C  
HETATM    2  N   UNL     1     -10.220  11.347  65.123  1.00  0.00    -0.263 NA 
HETATM    3  H   UNL     1     -11.185  11.486  64.825  1.00  0.00     0.000 HD 
ENDROOT
BRANCH   2   4
HETATM    4  C   UNL     1      -9.763  12.435  66.007  1.00  0.00    -0.244 C  
BRANCH   4   5
HETATM    5  C   UNL     1     -10.726  13.652  66.090  1.00  0.00    -0.286 C  
HETATM    6  H   UNL     1     -10.670  15.498  65.485  1.00  0.00     0.000 HD 
HETATM    7  O   UNL     1     -10.081  14.754  65.434  1.00  0.00    -0.350 OA 
BRANCH   5   8
HETATM    8  C   UNL     1     -11.143  14.043  67.502  1.00  0.00    -0.313 A  
HETATM    9  C   UNL     1     -11.398  13.087  68.503  1.00  0.00    -0.323 A  
HETATM   10  C   UNL     1     -11.787  13.495  69.780  1.00  0.00    -0.329 A  
HETATM   11  O   UNL     1     -12.012  12.591  70.777  1.00  0.00    -0.486 OA 
HETATM   12  C   UNL     1     -11.955  14.839  70.083  1.00  0.00    -0.367 A  
HETATM   13  H   UNL     1     -12.277  12.869  71.646  1.00  0.00     0.000 HD 
HETATM   14  C   UNL     1     -11.699  15.798  69.108  1.00  0.00    -0.398 A  
HETATM   15  C   UNL     1     -11.271  15.402  67.839  1.00  0.00    -0.329 A  
ENDBRANCH   5   8
ENDBRANCH   4   5
ENDBRANCH   2   4
TORSDOF 3
ENDMDL
MODEL      130
REMARK 921   NORMALIZED FREE ENERGY PREDICTED BY IDOCK:   -3.30 KCAL/MOL
REMARK 922        TOTAL FREE ENERGY PREDICTED BY IDOCK:   -4.08 KCAL/MOL
REMARK 923 INTER-LIGAND FREE ENERGY PREDICTED BY IDOCK:   -3.94 KCAL/MOL
REMARK 924 INTRA-LIGAND FREE ENERGY PREDICTED BY IDOCK:   -0.14 KCAL/MOL
REMARK 927      BINDING AFFINITY PREDICTED BY RF-SCORE:    0.00 PKD
ROOT
HETATM    1  C   UNL     1      -8.081   7.681  68.049  1.00  0.00    -0.123 C  
HETATM    2  N   UNL     1      -9.516   7.791  68.282  1.00  0.00    -0.146 NA 
HETATM    3  H   UNL     1     -10.005   6.937  68.016  1.00  0.00     0.000 HD 
ENDROOT
BRANCH   2   4
HETATM    4  C   UNL     1      -9.801   8.169  69.678  1.00  0.00    -0.184 C  
BRANCH   4   5
HETATM    5  C   UNL     1     -10.728   7.181  70.440  1.00  0.00    -0.235 C  
HETATM    6  H   UNL     1     -11.744   5.594  69.961  1.00  0.00     0.000 HD 
HETATM    7  O   UNL     1     -11.177   6.198  69.495  1.00  0.00    -0.389 OA 
BRANCH   5   8
HETATM    8  C   UNL     1     -11.916   7.829  71.139  1.00  0.00    -0.312 A  
HETATM    9  C   UNL     1     -11.966   9.208  71.415  1.00  0.00    -0.410 A  
HETATM   10  C   UNL     1     -13.074   9.753  72.067  1.00  0.00    -0.452 A  
HETATM   11  O   UNL     1     -13.161  11.090  72.321  1.00  0.00    -0.612 OA 
HETATM   12  C   UNL     1     -14.130   8.952  72.477  1.00  0.00    -0.441 A  
HETATM   13  H   UNL     1     -13.915  11.461  72.765  1.00  0.00     0.000 HD 
HETATM   14  C   UNL     1     -14.102   7.588  72.204  1.00  0.00    -0.226 A  
HETATM   15  C   UNL     1     -13.017   7.039  71.518  1.00  0.00    -0.411 A  
ENDBRANCH   5   8
ENDBRANCH   4   5
ENDBRANCH   2   4
TORSDOF 3
ENDMDL
MODEL      131
REMARK 921   NORMALIZED FREE ENERGY PREDICTED BY IDOCK:   -3.28 KCAL/MOL
REMARK 922        TOTAL FREE ENERGY PREDICTED BY IDOCK:   -4.05 KCAL/MOL
REMARK 923 INTER-LIGAND FREE ENERGY PREDICTED BY IDOCK:   -3.88 KCAL/MOL
REMARK 924 INTRA-LIGAND FREE ENERGY PREDICTED BY IDOCK:   -0.17 KCAL/MOL
REMARK 927      BINDING AFFINITY PREDICTED BY RF-SCORE:    0.00 PKD
ROOT
HETATM    1  C   UNL     1      -8.088   9.929  69.788  1.00  0.00    -0.176 C  
HETATM    2  N   UNL     1      -9.433   9.763  70.323  1.00  0.00    -0.340 NA 
HETATM    3  H   UNL     1      -9.670  10.507  70.979  1.00  0.00     0.000 HD 
ENDROOT
BRANCH   2   4
HETATM    4  C   UNL     1     -10.428   9.656  69.240  1.00  0.00    -0.217 C  
BRANCH   4   5
HETATM    5  C   UNL     1     -10.690  10.979  68.467  1.00  0.00    -0.202 C  
HETATM    6  H   UNL     1     -12.250  12.083  68.115  1.00  0.00     0.000 HD 
HETATM    7  O   UNL     1     -12.090  11.275  68.588  1.00  0.00    -0.543 OA 
BRANCH   5   8
HETATM    8  C   UNL     1     -10.274  10.957  67.002  1.00  0.00    -0.256 A  
HETATM    9  C   UNL     1     -10.337  12.101  66.185  1.00  0.00    -0.264 A  
HETATM   10  C   UNL     1      -9.953  12.028  64.846  1.00  0.00    -0.227 A  
HETATM   11  O   UNL     1      -9.976  13.128  64.039  1.00  0.00    -0.721 OA 
HETATM   12  C   UNL     1      -9.530  10.831  64.285  1.00  0.00    -0.307 A  
HETATM   13  H   UNL     1      -9.715  13.078  63.127  1.00  0.00     0.000 HD 
HETATM   14  C   UNL     1      -9.453   9.692  65.080  1.00  0.00    -0.332 A  
HETATM   15  C   UNL     1      -9.796   9.764  66.432  1.00  0.00    -0.298 A  
ENDBRANCH   5   8
ENDBRANCH   4   5
ENDBRANCH   2   4
TORSDOF 3
ENDMDL
MODEL      132
REMARK 921   NORMALIZED FREE ENERGY PREDICTED BY IDOCK:   -3.27 KCAL/MOL
REMARK 922        TOTAL FREE ENERGY PREDICTED BY IDOCK:   -4.05 KCAL/MOL
REMARK 923 INTER-LIGAND FREE ENERGY PREDICTED BY IDOCK:   -3.94 KCAL/MOL
REMARK 924 INTRA-LIGAND FREE ENERGY PREDICTED BY IDOCK:   -0.11 KCAL/MOL
REMARK 927      BINDING AFFINITY PREDICTED BY RF-SCORE:    0.00 PKD
ROOT
HETATM    1  C   UNL     1     -11.885  15.274  69.413  1.00  0.00    -0.343 C  
HETATM    2  N   UNL     1     -12.156  14.978  68.012  1.00  0.00    -0.529 NA 
HETATM    3  H   UNL     1     -11.568  15.534  67.391  1.00  0.00     0.000 HD 
ENDROOT
BRANCH   2   4
HETATM    4  C   UNL     1     -12.023  13.536  67.738  1.00  0.00    -0.334 C  
BRANCH   4   5
HETATM    5  C   UNL     1     -10.642  13.108  67.165  1.00  0.00    -0.257 C  
HETATM    6  H   UNL     1      -9.621  13.532  65.566  1.00  0.00     0.000 HD 
HETATM    7  O   UNL     1     -10.465  13.793  65.916  1.00  0.00    -0.284 OA 
BRANCH   5   8
HETATM    8  C   UNL     1     -10.462  11.607  66.980  1.00  0.00    -0.258 A  
HETATM    9  C   UNL     1      -9.929  11.053  65.801  1.00  0.00    -0.294 A  
HETATM   10  C   UNL     1      -9.794   9.670  65.676  1.00  0.00    -0.299 A  
HETATM   11  O   UNL     1      -9.254   9.107  64.556  1.00  0.00    -0.430 OA 
HETATM   12  C   UNL     1     -10.201   8.814  66.690  1.00  0.00    -0.340 A  
HETATM   13  H   UNL     1      -9.162   8.166  64.471  1.00  0.00     0.000 HD 
HETATM   14  C   UNL     1     -10.721   9.345  67.866  1.00  0.00    -0.269 A  
HETATM   15  C   UNL     1     -10.824  10.729  68.018  1.00  0.00    -0.302 A  
ENDBRANCH   5   8
ENDBRANCH   4   5
ENDBRANCH   2   4
TORSDOF 3
ENDMDL
MODEL      133
REMARK 921   NORMALIZED FREE ENERGY PREDICTED BY IDOCK:   -3.27 KCAL/MOL
REMARK 922        TOTAL FREE ENERGY PREDICTED BY IDOCK:   -4.05 KCAL/MOL
REMARK 923 INTER-LIGAND FREE ENERGY PREDICTED BY IDOCK:   -3.95 KCAL/MOL
REMARK 924 INTRA-LIGAND FREE ENERGY PREDICTED BY IDOCK:   -0.10 KCAL/MOL
REMARK 927      BINDING AFFINITY PREDICTED BY RF-SCORE:    0.00 PKD
ROOT
HETATM    1  C   UNL     1     -11.635  15.693  64.391  1.00  0.00    -0.249 C  
HETATM    2  N   UNL     1     -11.222  14.303  64.241  1.00  0.00    -0.607 NA 
HETATM    3  H   UNL     1     -10.383  14.221  63.666  1.00  0.00     0.000 HD 
ENDROOT
BRANCH   2   4
HETATM    4  C   UNL     1     -11.047  13.655  65.553  1.00  0.00    -0.295 C  
BRANCH   4   5
HETATM    5  C   UNL     1     -11.550  12.186  65.624  1.00  0.00    -0.351 C  
HETATM    6  H   UNL     1     -12.330  11.061  67.004  1.00  0.00     0.000 HD 
HETATM    7  O   UNL     1     -12.022  11.959  66.961  1.00  0.00    -0.615 OA 
BRANCH   5   8
HETATM    8  C   UNL     1     -10.516  11.136  65.238  1.00  0.00    -0.326 A  
HETATM    9  C   UNL     1      -9.815  10.382  66.198  1.00  0.00    -0.278 A  
HETATM   10  C   UNL     1      -8.871   9.438  65.794  1.00  0.00    -0.171 A  
HETATM   11  O   UNL     1      -8.197   8.674  66.702  1.00  0.00    -0.105 OA 
HETATM   12  C   UNL     1      -8.583   9.240  64.451  1.00  0.00    -0.216 A  
HETATM   13  H   UNL     1      -7.554   8.031  66.427  1.00  0.00     0.000 HD 
HETATM   14  C   UNL     1      -9.273   9.970  63.489  1.00  0.00    -0.315 A  
HETATM   15  C   UNL     1     -10.249  10.888  63.880  1.00  0.00    -0.418 A  
ENDBRANCH   5   8
ENDBRANCH   4   5
ENDBRANCH   2   4
TORSDOF 3
ENDMDL
MODEL      134
REMARK 921   NORMALIZED FREE ENERGY PREDICTED BY IDOCK:   -3.27 KCAL/MOL
REMARK 922        TOTAL FREE ENERGY PREDICTED BY IDOCK:   -4.04 KCAL/MOL
REMARK 923 INTER-LIGAND FREE ENERGY PREDICTED BY IDOCK:   -3.85 KCAL/MOL
REMARK 924 INTRA-LIGAND FREE ENERGY PREDICTED BY IDOCK:   -0.19 KCAL/MOL
REMARK 927      BINDING AFFINITY PREDICTED BY RF-SCORE:    0.00 PKD
ROOT
HETATM    1  C   UNL     1     -12.008  14.293  67.634  1.00  0.00    -0.365 C  
HETATM    2  N   UNL     1     -11.103  13.871  68.695  1.00  0.00    -0.254 NA 
HETATM    3  H   UNL     1     -11.070  12.855  68.779  1.00  0.00     0.000 HD 
ENDROOT
BRANCH   2   4
HETATM    4  C   UNL     1      -9.758  14.444  68.506  1.00  0.00    -0.225 C  
BRANCH   4   5
HETATM    5  C   UNL     1      -9.667  15.538  67.405  1.00  0.00    -0.218 C  
HETATM    6  H   UNL     1      -8.717  15.722  65.719  1.00  0.00     0.000 HD 
HETATM    7  O   UNL     1      -8.772  15.053  66.392  1.00  0.00    -0.256 OA 
BRANCH   5   8
HETATM    8  C   UNL     1      -9.220  16.907  67.899  1.00  0.00    -0.234 A  
HETATM    9  C   UNL     1     -10.132  17.876  68.359  1.00  0.00    -0.385 A  
HETATM   10  C   UNL     1      -9.673  19.120  68.793  1.00  0.00    -0.430 A  
HETATM   11  O   UNL     1     -10.532  20.067  69.269  1.00  0.00    -0.615 OA 
HETATM   12  C   UNL     1      -8.323  19.439  68.759  1.00  0.00    -0.379 A  
HETATM   13  H   UNL     1     -10.220  20.915  69.565  1.00  0.00     0.000 HD 
HETATM   14  C   UNL     1      -7.406  18.490  68.317  1.00  0.00    -0.294 A  
HETATM   15  C   UNL     1      -7.851  17.228  67.918  1.00  0.00    -0.197 A  
ENDBRANCH   5   8
ENDBRANCH   4   5
ENDBRANCH   2   4
TORSDOF 3
ENDMDL
MODEL      135
REMARK 921   NORMALIZED FREE ENERGY PREDICTED BY IDOCK:   -3.27 KCAL/MOL
REMARK 922        TOTAL FREE ENERGY PREDICTED BY IDOCK:   -4.04 KCAL/MOL
REMARK 923 INTER-LIGAND FREE ENERGY PREDICTED BY IDOCK:   -3.87 KCAL/MOL
REMARK 924 INTRA-LIGAND FREE ENERGY PREDICTED BY IDOCK:   -0.17 KCAL/MOL
REMARK 927      BINDING AFFINITY PREDICTED BY RF-SCORE:    0.00 PKD
ROOT
HETATM    1  C   UNL     1      -9.587  16.246  65.956  1.00  0.00    -0.337 C  
HETATM    2  N   UNL     1     -10.556  16.475  67.020  1.00  0.00    -0.292 NA 
HETATM    3  H   UNL     1     -11.230  17.196  66.764  1.00  0.00     0.000 HD 
ENDROOT
BRANCH   2   4
HETATM    4  C   UNL     1     -11.225  15.220  67.410  1.00  0.00    -0.311 C  
BRANCH   4   5
HETATM    5  C   UNL     1     -11.323  14.159  66.278  1.00  0.00    -0.338 C  
HETATM    6  H   UNL     1     -12.760  13.432  65.190  1.00  0.00     0.000 HD 
HETATM    7  O   UNL     1     -12.700  14.081  65.881  1.00  0.00    -0.495 OA 
BRANCH   5   8
HETATM    8  C   UNL     1     -10.797  12.778  66.649  1.00  0.00    -0.288 A  
HETATM    9  C   UNL     1     -11.451  11.948  67.579  1.00  0.00    -0.396 A  
HETATM   10  C   UNL     1     -10.925  10.695  67.893  1.00  0.00    -0.295 A  
HETATM   11  O   UNL     1     -11.553   9.859  68.768  1.00  0.00    -0.496 OA 
HETATM   12  C   UNL     1      -9.740  10.251  67.321  1.00  0.00    -0.199 A  
HETATM   13  H   UNL     1     -11.195   9.006  68.982  1.00  0.00     0.000 HD 
HETATM   14  C   UNL     1      -9.085  11.054  66.393  1.00  0.00    -0.191 A  
HETATM   15  C   UNL     1      -9.625  12.293  66.042  1.00  0.00    -0.230 A  
ENDBRANCH   5   8
ENDBRANCH   4   5
ENDBRANCH   2   4
TORSDOF 3
ENDMDL
MODEL      136
REMARK 921   NORMALIZED FREE ENERGY PREDICTED BY IDOCK:   -3.22 KCAL/MOL
REMARK 922        TOTAL FREE ENERGY PREDICTED BY IDOCK:   -3.98 KCAL/MOL
REMARK 923 INTER-LIGAND FREE ENERGY PREDICTED BY IDOCK:   -3.84 KCAL/MOL
REMARK 924 INTRA-LIGAND FREE ENERGY PREDICTED BY IDOCK:   -0.14 KCAL/MOL
REMARK 927      BINDING AFFINITY PREDICTED BY RF-SCORE:    0.00 PKD
ROOT
HETATM    1  C   UNL     1      -7.219  19.396  69.078  1.00  0.00    -0.362 C  
HETATM    2  N   UNL     1      -7.575  19.281  67.669  1.00  0.00    -0.241 NA 
HETATM    3  H   UNL     1      -7.204  18.424  67.258  1.00  0.00     0.000 HD 
ENDROOT
BRANCH   2   4
HETATM    4  C   UNL     1      -9.033  19.388  67.478  1.00  0.00    -0.303 C  
BRANCH   4   5
HETATM    5  C   UNL     1      -9.610  18.475  66.360  1.00  0.00    -0.316 C  
HETATM    6  H   UNL     1     -11.100  18.591  65.118  1.00  0.00     0.000 HD 
HETATM    7  O   UNL     1     -10.747  19.149  65.801  1.00  0.00    -0.468 OA 
BRANCH   5   8
HETATM    8  C   UNL     1      -9.991  17.072  66.813  1.00  0.00    -0.297 A  
HETATM    9  C   UNL     1      -9.943  16.678  68.164  1.00  0.00    -0.259 A  
HETATM   10  C   UNL     1     -10.294  15.378  68.528  1.00  0.00    -0.226 A  
HETATM   11  O   UNL     1     -10.284  14.978  69.833  1.00  0.00    -0.421 OA 
HETATM   12  C   UNL     1     -10.671  14.442  67.575  1.00  0.00    -0.271 A  
HETATM   13  H   UNL     1     -10.523  14.092  70.081  1.00  0.00     0.000 HD 
HETATM   14  C   UNL     1     -10.733  14.817  66.236  1.00  0.00    -0.313 A  
HETATM   15  C   UNL     1     -10.422  16.127  65.866  1.00  0.00    -0.366 A  
ENDBRANCH   5   8
ENDBRANCH   4   5
ENDBRANCH   2   4
TORSDOF 3
ENDMDL
MODEL      137
REMARK 921   NORMALIZED FREE ENERGY PREDICTED BY IDOCK:   -3.21 KCAL/MOL
REMARK 922        TOTAL FREE ENERGY PREDICTED BY IDOCK:   -3.97 KCAL/MOL
REMARK 923 INTER-LIGAND FREE ENERGY PREDICTED BY IDOCK:   -3.80 KCAL/MOL
REMARK 924 INTRA-LIGAND FREE ENERGY PREDICTED BY IDOCK:   -0.17 KCAL/MOL
REMARK 927      BINDING AFFINITY PREDICTED BY RF-SCORE:    0.00 PKD
ROOT
HETATM    1  C   UNL     1     -10.193  17.754  68.651  1.00  0.00    -0.377 C  
HETATM    2  N   UNL     1      -9.980  16.465  69.296  1.00  0.00    -0.268 NA 
HETATM    3  H   UNL     1     -10.718  15.801  69.059  1.00  0.00     0.000 HD 
ENDROOT
BRANCH   2   4
HETATM    4  C   UNL     1      -8.644  15.927  68.983  1.00  0.00    -0.239 C  
BRANCH   4   5
HETATM    5  C   UNL     1      -8.632  14.436  68.543  1.00  0.00    -0.175 C  
HETATM    6  H   UNL     1      -7.368  13.280  67.623  1.00  0.00     0.000 HD 
HETATM    7  O   UNL     1      -7.376  14.192  67.892  1.00  0.00    -0.122 OA 
BRANCH   5   8
HETATM    8  C   UNL     1      -9.788  14.026  67.640  1.00  0.00    -0.233 A  
HETATM    9  C   UNL     1      -9.882  14.446  66.300  1.00  0.00    -0.321 A  
HETATM   10  C   UNL     1     -10.966  14.051  65.516  1.00  0.00    -0.309 A  
HETATM   11  O   UNL     1     -11.068  14.420  64.207  1.00  0.00    -0.606 OA 
HETATM   12  C   UNL     1     -11.981  13.263  66.040  1.00  0.00    -0.473 A  
HETATM   13  H   UNL     1     -11.806  14.151  63.673  1.00  0.00     0.000 HD 
HETATM   14  C   UNL     1     -11.900  12.830  67.360  1.00  0.00    -0.404 A  
HETATM   15  C   UNL     1     -10.799  13.187  68.141  1.00  0.00    -0.271 A  
ENDBRANCH   5   8
ENDBRANCH   4   5
ENDBRANCH   2   4
TORSDOF 3
ENDMDL
MODEL      138
REMARK 921   NORMALIZED FREE ENERGY PREDICTED BY IDOCK:   -3.19 KCAL/MOL
REMARK 922        TOTAL FREE ENERGY PREDICTED BY IDOCK:   -3.95 KCAL/MOL
REMARK 923 INTER-LIGAND FREE ENERGY PREDICTED BY IDOCK:   -3.75 KCAL/MOL
REMARK 924 INTRA-LIGAND FREE ENERGY PREDICTED BY IDOCK:   -0.20 KCAL/MOL
REMARK 927      BINDING AFFINITY PREDICTED BY RF-SCORE:    0.00 PKD
ROOT
HETATM    1  C   UNL     1     -11.512  11.781  67.316  1.00  0.00    -0.303 C  
HETATM    2  N   UNL     1     -10.906  12.348  68.514  1.00  0.00    -0.234 NA 
HETATM    3  H   UNL     1      -9.992  12.756  68.315  1.00  0.00     0.000 HD 
ENDROOT
BRANCH   2   4
HETATM    4  C   UNL     1     -11.807  13.322  69.156  1.00  0.00    -0.329 C  
BRANCH   4   5
HETATM    5  C   UNL     1     -11.188  14.731  69.376  1.00  0.00    -0.284 C  
HETATM    6  H   UNL     1     -11.878  16.474  69.890  1.00  0.00     0.000 HD 
HETATM    7  O   UNL     1     -12.256  15.613  69.756  1.00  0.00    -0.360 OA 
BRANCH   5   8
HETATM    8  C   UNL     1     -10.435  15.293  68.178  1.00  0.00    -0.246 A  
HETATM    9  C   UNL     1     -11.083  15.647  66.979  1.00  0.00    -0.200 A  
HETATM   10  C   UNL     1     -10.346  16.149  65.906  1.00  0.00    -0.367 A  
HETATM   11  O   UNL     1     -10.952  16.526  64.743  1.00  0.00    -0.688 OA 
HETATM   12  C   UNL     1      -8.968  16.286  65.983  1.00  0.00    -0.325 A  
HETATM   13  H   UNL     1     -10.451  16.868  64.012  1.00  0.00     0.000 HD 
HETATM   14  C   UNL     1      -8.311  15.951  67.163  1.00  0.00    -0.231 A  
HETATM   15  C   UNL     1      -9.044  15.485  68.257  1.00  0.00    -0.186 A  
ENDBRANCH   5   8
ENDBRANCH   4   5
ENDBRANCH   2   4
TORSDOF 3
ENDMDL
MODEL      139
REMARK 921   NORMALIZED FREE ENERGY PREDICTED BY IDOCK:   -3.19 KCAL/MOL
REMARK 922        TOTAL FREE ENERGY PREDICTED BY IDOCK:   -3.94 KCAL/MOL
REMARK 923 INTER-LIGAND FREE ENERGY PREDICTED BY IDOCK:   -3.85 KCAL/MOL
REMARK 924 INTRA-LIGAND FREE ENERGY PREDICTED BY IDOCK:   -0.10 KCAL/MOL
REMARK 927      BINDING AFFINITY PREDICTED BY RF-SCORE:    0.00 PKD
ROOT
HETATM    1  C   UNL     1      -8.826  14.574  67.214  1.00  0.00    -0.208 C  
HETATM    2  N   UNL     1      -9.517  15.479  66.305  1.00  0.00    -0.296 NA 
HETATM    3  H   UNL     1     -10.470  15.668  66.617  1.00  0.00     0.000 HD 
ENDROOT
BRANCH   2   4
HETATM    4  C   UNL     1      -8.752  16.723  66.109  1.00  0.00    -0.264 C  
BRANCH   4   5
HETATM    5  C   UNL     1      -9.295  17.949  66.896  1.00  0.00    -0.275 C  
HETATM    6  H   UNL     1     -10.597  19.348  66.542  1.00  0.00     0.000 HD 
HETATM    7  O   UNL     1     -10.266  18.599  66.061  1.00  0.00    -0.464 OA 
BRANCH   5   8
HETATM    8  C   UNL     1      -8.232  18.941  67.348  1.00  0.00    -0.289 A  
HETATM    9  C   UNL     1      -7.646  18.887  68.626  1.00  0.00    -0.366 A  
HETATM   10  C   UNL     1      -6.682  19.825  68.997  1.00  0.00    -0.337 A  
HETATM   11  O   UNL     1      -6.078  19.779  70.219  1.00  0.00    -0.288 OA 
HETATM   12  C   UNL     1      -6.299  20.840  68.131  1.00  0.00    -0.354 A  
HETATM   13  H   UNL     1      -5.422  20.417  70.471  1.00  0.00     0.000 HD 
HETATM   14  C   UNL     1      -6.860  20.904  66.860  1.00  0.00    -0.375 A  
HETATM   15  C   UNL     1      -7.796  19.946  66.465  1.00  0.00    -0.330 A  
ENDBRANCH   5   8
ENDBRANCH   4   5
ENDBRANCH   2   4
TORSDOF 3
ENDMDL
MODEL      140
REMARK 921   NORMALIZED FREE ENERGY PREDICTED BY IDOCK:   -3.19 KCAL/MOL
REMARK 922        TOTAL FREE ENERGY PREDICTED BY IDOCK:   -3.94 KCAL/MOL
REMARK 923 INTER-LIGAND FREE ENERGY PREDICTED BY IDOCK:   -3.84 KCAL/MOL
REMARK 924 INTRA-LIGAND FREE ENERGY PREDICTED BY IDOCK:   -0.11 KCAL/MOL
REMARK 927      BINDING AFFINITY PREDICTED BY RF-SCORE:    0.00 PKD
ROOT
HETATM    1  C   UNL     1      -9.628  12.585  65.761  1.00  0.00    -0.129 C  
HETATM    2  N   UNL     1     -10.905  13.088  66.252  1.00  0.00    -0.277 NA 
HETATM    3  H   UNL     1     -11.508  13.392  65.487  1.00  0.00     0.000 HD 
ENDROOT
BRANCH   2   4
HETATM    4  C   UNL     1     -11.576  12.093  67.108  1.00  0.00    -0.335 C  
BRANCH   4   5
HETATM    5  C   UNL     1     -11.790  12.544  68.581  1.00  0.00    -0.297 C  
HETATM    6  H   UNL     1     -10.857  13.725  69.811  1.00  0.00     0.000 HD 
HETATM    7  O   UNL     1     -10.726  13.449  68.911  1.00  0.00    -0.242 OA 
BRANCH   5   8
HETATM    8  C   UNL     1     -11.857  11.409  69.594  1.00  0.00    -0.431 A  
HETATM    9  C   UNL     1     -11.160  10.199  69.416  1.00  0.00    -0.288 A  
HETATM   10  C   UNL     1     -11.261   9.185  70.369  1.00  0.00    -0.240 A  
HETATM   11  O   UNL     1     -10.574   8.014  70.236  1.00  0.00    -0.222 OA 
HETATM   12  C   UNL     1     -12.064   9.332  71.491  1.00  0.00    -0.435 A  
HETATM   13  H   UNL     1     -10.643   7.323  70.885  1.00  0.00     0.000 HD 
HETATM   14  C   UNL     1     -12.753  10.525  71.688  1.00  0.00    -0.550 A  
HETATM   15  C   UNL     1     -12.627  11.561  70.761  1.00  0.00    -0.390 A  
ENDBRANCH   5   8
ENDBRANCH   4   5
ENDBRANCH   2   4
TORSDOF 3
ENDMDL
MODEL      141
REMARK 921   NORMALIZED FREE ENERGY PREDICTED BY IDOCK:   -3.18 KCAL/MOL
REMARK 922        TOTAL FREE ENERGY PREDICTED BY IDOCK:   -3.94 KCAL/MOL
REMARK 923 INTER-LIGAND FREE ENERGY PREDICTED BY IDOCK:   -4.02 KCAL/MOL
REMARK 924 INTRA-LIGAND FREE ENERGY PREDICTED BY IDOCK:    0.08 KCAL/MOL
REMARK 927      BINDING AFFINITY PREDICTED BY RF-SCORE:    0.00 PKD
ROOT
HETATM    1  C   UNL     1     -10.334  15.536  69.568  1.00  0.00    -0.271 C  
HETATM    2  N   UNL     1      -9.138  14.726  69.375  1.00  0.00    -0.412 NA 
HETATM    3  H   UNL     1      -9.233  14.102  68.573  1.00  0.00     0.000 HD 
ENDROOT
BRANCH   2   4
HETATM    4  C   UNL     1      -7.935  15.570  69.267  1.00  0.00    -0.238 C  
BRANCH   4   5
HETATM    5  C   UNL     1      -7.604  16.047  67.825  1.00  0.00    -0.140 C  
HETATM    6  H   UNL     1      -6.118  16.980  66.988  1.00  0.00     0.000 HD 
HETATM    7  O   UNL     1      -6.320  16.688  67.869  1.00  0.00    -0.122 OA 
BRANCH   5   8
HETATM    8  C   UNL     1      -8.641  16.974  67.204  1.00  0.00    -0.220 A  
HETATM    9  C   UNL     1      -9.446  16.583  66.118  1.00  0.00    -0.347 A  
HETATM   10  C   UNL     1     -10.376  17.473  65.578  1.00  0.00    -0.019 A  
HETATM   11  O   UNL     1     -11.188  17.110  64.544  1.00  0.00    -1.104 OA 
HETATM   12  C   UNL     1     -10.510  18.760  66.077  1.00  0.00    -0.483 A  
HETATM   13  H   UNL     1     -11.821  17.716  64.176  1.00  0.00     0.000 HD 
HETATM   14  C   UNL     1      -9.729  19.161  67.157  1.00  0.00    -0.393 A  
HETATM   15  C   UNL     1      -8.824  18.266  67.730  1.00  0.00    -0.270 A  
ENDBRANCH   5   8
ENDBRANCH   4   5
ENDBRANCH   2   4
TORSDOF 3
ENDMDL
MODEL      142
REMARK 921   NORMALIZED FREE ENERGY PREDICTED BY IDOCK:   -3.15 KCAL/MOL
REMARK 922        TOTAL FREE ENERGY PREDICTED BY IDOCK:   -3.91 KCAL/MOL
REMARK 923 INTER-LIGAND FREE ENERGY PREDICTED BY IDOCK:   -3.80 KCAL/MOL
REMARK 924 INTRA-LIGAND FREE ENERGY PREDICTED BY IDOCK:   -0.10 KCAL/MOL
REMARK 927      BINDING AFFINITY PREDICTED BY RF-SCORE:    0.00 PKD
ROOT
HETATM    1  C   UNL     1      -5.894  18.513  68.902  1.00  0.00    -0.210 C  
HETATM    2  N   UNL     1      -6.547  17.793  67.816  1.00  0.00    -0.184 NA 
HETATM    3  H   UNL     1      -6.274  16.810  67.801  1.00  0.00     0.000 HD 
ENDROOT
BRANCH   2   4
HETATM    4  C   UNL     1      -8.011  17.950  67.878  1.00  0.00    -0.235 C  
BRANCH   4   5
HETATM    5  C   UNL     1      -8.813  16.851  67.126  1.00  0.00    -0.206 C  
HETATM    6  H   UNL     1      -9.782  16.760  65.443  1.00  0.00     0.000 HD 
HETATM    7  O   UNL     1      -9.292  17.431  65.903  1.00  0.00    -0.508 OA 
BRANCH   5   8
HETATM    8  C   UNL     1      -9.967  16.247  67.916  1.00  0.00    -0.241 A  
HETATM    9  C   UNL     1     -10.332  16.716  69.192  1.00  0.00    -0.326 A  
HETATM   10  C   UNL     1     -11.392  16.123  69.880  1.00  0.00    -0.317 A  
HETATM   11  O   UNL     1     -11.785  16.576  71.105  1.00  0.00    -0.626 OA 
HETATM   12  C   UNL     1     -12.087  15.051  69.339  1.00  0.00    -0.290 A  
HETATM   13  H   UNL     1     -12.506  16.172  71.574  1.00  0.00     0.000 HD 
HETATM   14  C   UNL     1     -11.747  14.580  68.075  1.00  0.00    -0.373 A  
HETATM   15  C   UNL     1     -10.714  15.192  67.361  1.00  0.00    -0.286 A  
ENDBRANCH   5   8
ENDBRANCH   4   5
ENDBRANCH   2   4
TORSDOF 3
ENDMDL
MODEL      143
REMARK 921   NORMALIZED FREE ENERGY PREDICTED BY IDOCK:   -3.15 KCAL/MOL
REMARK 922        TOTAL FREE ENERGY PREDICTED BY IDOCK:   -3.90 KCAL/MOL
REMARK 923 INTER-LIGAND FREE ENERGY PREDICTED BY IDOCK:   -3.77 KCAL/MOL
REMARK 924 INTRA-LIGAND FREE ENERGY PREDICTED BY IDOCK:   -0.13 KCAL/MOL
REMARK 927      BINDING AFFINITY PREDICTED BY RF-SCORE:    0.00 PKD
ROOT
HETATM    1  C   UNL     1     -10.902  19.545  65.673  1.00  0.00    -0.256 C  
HETATM    2  N   UNL     1      -9.565  19.060  65.988  1.00  0.00    -0.471 NA 
HETATM    3  H   UNL     1      -9.153  18.556  65.203  1.00  0.00     0.000 HD 
ENDROOT
BRANCH   2   4
HETATM    4  C   UNL     1      -8.694  20.159  66.444  1.00  0.00    -0.244 C  
BRANCH   4   5
HETATM    5  C   UNL     1      -7.175  19.828  66.437  1.00  0.00    -0.255 C  
HETATM    6  H   UNL     1      -6.035  18.603  65.447  1.00  0.00     0.000 HD 
HETATM    7  O   UNL     1      -6.963  18.806  65.451  1.00  0.00    -0.481 OA 
BRANCH   5   8
HETATM    8  C   UNL     1      -6.608  19.395  67.783  1.00  0.00    -0.247 A  
HETATM    9  C   UNL     1      -6.372  20.307  68.828  1.00  0.00    -0.347 A  
HETATM   10  C   UNL     1      -5.842  19.863  70.041  1.00  0.00    -0.306 A  
HETATM   11  O   UNL     1      -5.630  20.720  71.080  1.00  0.00    -0.532 OA 
HETATM   12  C   UNL     1      -5.516  18.528  70.234  1.00  0.00    -0.238 A  
HETATM   13  H   UNL     1      -5.269  20.418  71.905  1.00  0.00     0.000 HD 
HETATM   14  C   UNL     1      -5.752  17.611  69.215  1.00  0.00    -0.205 A  
HETATM   15  C   UNL     1      -6.318  18.038  68.013  1.00  0.00    -0.183 A  
ENDBRANCH   5   8
ENDBRANCH   4   5
ENDBRANCH   2   4
TORSDOF 3
ENDMDL
MODEL      144
REMARK 921   NORMALIZED FREE ENERGY PREDICTED BY IDOCK:   -3.13 KCAL/MOL
REMARK 922        TOTAL FREE ENERGY PREDICTED BY IDOCK:   -3.88 KCAL/MOL
REMARK 923 INTER-LIGAND FREE ENERGY PREDICTED BY IDOCK:   -3.76 KCAL/MOL
REMARK 924 INTRA-LIGAND FREE ENERGY PREDICTED BY IDOCK:   -0.13 KCAL/MOL
REMARK 927      BINDING AFFINITY PREDICTED BY RF-SCORE:    0.00 PKD
ROOT
HETATM    1  C   UNL     1     -11.771  12.425  66.281  1.00  0.00    -0.395 C  
HETATM    2  N   UNL     1     -11.338  13.815  66.219  1.00  0.00    -0.314 NA 
HETATM    3  H   UNL     1     -11.676  14.276  65.375  1.00  0.00     0.000 HD 
ENDROOT
BRANCH   2   4
HETATM    4  C   UNL     1     -11.732  14.551  67.434  1.00  0.00    -0.400 C  
BRANCH   4   5
HETATM    5  C   UNL     1     -10.555  14.919  68.381  1.00  0.00    -0.244 C  
HETATM    6  H   UNL     1     -10.276  14.906  70.304  1.00  0.00     0.000 HD 
HETATM    7  O   UNL     1     -10.996  14.681  69.726  1.00  0.00    -0.254 OA 
BRANCH   5   8
HETATM    8  C   UNL     1     -10.038  16.344  68.233  1.00  0.00    -0.248 A  
HETATM    9  C   UNL     1      -8.756  16.728  68.669  1.00  0.00    -0.255 A  
HETATM   10  C   UNL     1      -8.331  18.049  68.521  1.00  0.00    -0.304 A  
HETATM   11  O   UNL     1      -7.084  18.443  68.908  1.00  0.00    -0.275 OA 
HETATM   12  C   UNL     1      -9.164  19.013  67.969  1.00  0.00    -0.355 A  
HETATM   13  H   UNL     1      -6.795  19.342  68.807  1.00  0.00     0.000 HD 
HETATM   14  C   UNL     1     -10.431  18.649  67.524  1.00  0.00    -0.473 A  
HETATM   15  C   UNL     1     -10.850  17.321  67.631  1.00  0.00    -0.238 A  
ENDBRANCH   5   8
ENDBRANCH   4   5
ENDBRANCH   2   4
TORSDOF 3
ENDMDL
MODEL      145
REMARK 921   NORMALIZED FREE ENERGY PREDICTED BY IDOCK:   -3.12 KCAL/MOL
REMARK 922        TOTAL FREE ENERGY PREDICTED BY IDOCK:   -3.87 KCAL/MOL
REMARK 923 INTER-LIGAND FREE ENERGY PREDICTED BY IDOCK:   -3.72 KCAL/MOL
REMARK 924 INTRA-LIGAND FREE ENERGY PREDICTED BY IDOCK:   -0.15 KCAL/MOL
REMARK 927      BINDING AFFINITY PREDICTED BY RF-SCORE:    0.00 PKD
ROOT
HETATM    1  C   UNL     1      -6.102  10.582  65.716  1.00  0.00    -0.133 C  
HETATM    2  N   UNL     1      -7.380  10.751  65.038  1.00  0.00    -0.356 NA 
HETATM    3  H   UNL     1      -7.267  10.775  64.024  1.00  0.00     0.000 HD 
ENDROOT
BRANCH   2   4
HETATM    4  C   UNL     1      -8.344   9.715  65.452  1.00  0.00    -0.141 C  
BRANCH   4   5
HETATM    5  C   UNL     1      -9.823  10.019  65.080  1.00  0.00    -0.304 C  
HETATM    6  H   UNL     1     -10.740  10.663  63.492  1.00  0.00     0.000 HD 
HETATM    7  O   UNL     1      -9.837  10.477  63.719  1.00  0.00    -0.305 OA 
BRANCH   5   8
HETATM    8  C   UNL     1     -10.517  11.026  65.988  1.00  0.00    -0.304 A  
HETATM    9  C   UNL     1     -10.417  10.968  67.390  1.00  0.00    -0.255 A  
HETATM   10  C   UNL     1     -11.080  11.909  68.180  1.00  0.00    -0.242 A  
HETATM   11  O   UNL     1     -10.977  11.893  69.540  1.00  0.00    -0.430 OA 
HETATM   12  C   UNL     1     -11.867  12.898  67.608  1.00  0.00    -0.400 A  
HETATM   13  H   UNL     1     -11.429  12.534  70.078  1.00  0.00     0.000 HD 
HETATM   14  C   UNL     1     -11.970  12.976  66.223  1.00  0.00    -0.477 A  
HETATM   15  C   UNL     1     -11.278  12.065  65.422  1.00  0.00    -0.374 A  
ENDBRANCH   5   8
ENDBRANCH   4   5
ENDBRANCH   2   4
TORSDOF 3
ENDMDL
MODEL      146
REMARK 921   NORMALIZED FREE ENERGY PREDICTED BY IDOCK:   -3.11 KCAL/MOL
REMARK 922        TOTAL FREE ENERGY PREDICTED BY IDOCK:   -3.86 KCAL/MOL
REMARK 923 INTER-LIGAND FREE ENERGY PREDICTED BY IDOCK:   -3.72 KCAL/MOL
REMARK 924 INTRA-LIGAND FREE ENERGY PREDICTED BY IDOCK:   -0.14 KCAL/MOL
REMARK 927      BINDING AFFINITY PREDICTED BY RF-SCORE:    0.00 PKD
ROOT
HETATM    1  C   UNL     1     -10.357  15.553  69.542  1.00  0.00    -0.271 C  
HETATM    2  N   UNL     1      -9.166  14.776  69.223  1.00  0.00    -0.390 NA 
HETATM    3  H   UNL     1      -9.307  14.197  68.394  1.00  0.00     0.000 HD 
ENDROOT
BRANCH   2   4
HETATM    4  C   UNL     1      -7.984  15.645  69.083  1.00  0.00    -0.227 C  
BRANCH   4   5
HETATM    5  C   UNL     1      -7.742  16.184  67.645  1.00  0.00    -0.142 C  
HETATM    6  H   UNL     1      -6.328  15.998  66.324  1.00  0.00     0.000 HD 
HETATM    7  O   UNL     1      -6.477  15.669  67.202  1.00  0.00    -0.293 OA 
BRANCH   5   8
HETATM    8  C   UNL     1      -7.772  17.702  67.517  1.00  0.00    -0.210 A  
HETATM    9  C   UNL     1      -8.788  18.377  66.814  1.00  0.00    -0.283 A  
HETATM   10  C   UNL     1      -8.767  19.769  66.717  1.00  0.00    -0.339 A  
HETATM   11  O   UNL     1      -9.753  20.451  66.066  1.00  0.00    -0.655 OA 
HETATM   12  C   UNL     1      -7.741  20.512  67.284  1.00  0.00    -0.375 A  
HETATM   13  H   UNL     1      -9.739  21.398  66.000  1.00  0.00     0.000 HD 
HETATM   14  C   UNL     1      -6.734  19.862  67.991  1.00  0.00    -0.308 A  
HETATM   15  C   UNL     1      -6.767  18.473  68.128  1.00  0.00    -0.231 A  
ENDBRANCH   5   8
ENDBRANCH   4   5
ENDBRANCH   2   4
TORSDOF 3
ENDMDL
MODEL      147
REMARK 921   NORMALIZED FREE ENERGY PREDICTED BY IDOCK:   -3.10 KCAL/MOL
REMARK 922        TOTAL FREE ENERGY PREDICTED BY IDOCK:   -3.85 KCAL/MOL
REMARK 923 INTER-LIGAND FREE ENERGY PREDICTED BY IDOCK:   -3.70 KCAL/MOL
REMARK 924 INTRA-LIGAND FREE ENERGY PREDICTED BY IDOCK:   -0.14 KCAL/MOL
REMARK 927      BINDING AFFINITY PREDICTED BY RF-SCORE:    0.00 PKD
ROOT
HETATM    1  C   UNL     1      -9.463  16.210  66.051  1.00  0.00    -0.339 C  
HETATM    2  N   UNL     1     -10.635  16.451  66.882  1.00  0.00    -0.288 NA 
HETATM    3  H   UNL     1     -11.269  17.124  66.451  1.00  0.00     0.000 HD 
ENDROOT
BRANCH   2   4
HETATM    4  C   UNL     1     -11.323  15.190  67.212  1.00  0.00    -0.303 C  
BRANCH   4   5
HETATM    5  C   UNL     1     -11.456  14.194  66.026  1.00  0.00    -0.342 C  
HETATM    6  H   UNL     1     -12.937  13.426  65.030  1.00  0.00     0.000 HD 
HETATM    7  O   UNL     1     -12.856  14.035  65.755  1.00  0.00    -0.516 OA 
BRANCH   5   8
HETATM    8  C   UNL     1     -10.800  12.838  66.253  1.00  0.00    -0.299 A  
HETATM    9  C   UNL     1      -9.590  12.475  65.633  1.00  0.00    -0.099 A  
HETATM   10  C   UNL     1      -9.033  11.216  65.865  1.00  0.00    -0.199 A  
HETATM   11  O   UNL     1      -7.847  10.848  65.300  1.00  0.00    -0.347 OA 
HETATM   12  C   UNL     1      -9.666  10.292  66.685  1.00  0.00    -0.233 A  
HETATM   13  H   UNL     1      -7.468   9.992  65.458  1.00  0.00     0.000 HD 
HETATM   14  C   UNL     1     -10.858  10.638  67.314  1.00  0.00    -0.345 A  
HETATM   15  C   UNL     1     -11.402  11.909  67.119  1.00  0.00    -0.393 A  
ENDBRANCH   5   8
ENDBRANCH   4   5
ENDBRANCH   2   4
TORSDOF 3
ENDMDL
MODEL      148
REMARK 921   NORMALIZED FREE ENERGY PREDICTED BY IDOCK:   -3.10 KCAL/MOL
REMARK 922        TOTAL FREE ENERGY PREDICTED BY IDOCK:   -3.85 KCAL/MOL
REMARK 923 INTER-LIGAND FREE ENERGY PREDICTED BY IDOCK:   -3.75 KCAL/MOL
REMARK 924 INTRA-LIGAND FREE ENERGY PREDICTED BY IDOCK:   -0.10 KCAL/MOL
REMARK 927      BINDING AFFINITY PREDICTED BY RF-SCORE:    0.00 PKD
ROOT
HETATM    1  C   UNL     1     -12.985  15.403  70.994  1.00  0.00    -0.492 C  
HETATM    2  N   UNL     1     -12.850  15.822  69.605  1.00  0.00    -0.476 NA 
HETATM    3  H   UNL     1     -12.855  16.839  69.518  1.00  0.00     0.000 HD 
ENDROOT
BRANCH   2   4
HETATM    4  C   UNL     1     -11.651  15.230  68.984  1.00  0.00    -0.343 C  
BRANCH   4   5
HETATM    5  C   UNL     1     -10.987  16.110  67.887  1.00  0.00    -0.318 C  
HETATM    6  H   UNL     1     -10.526  15.864  66.015  1.00  0.00     0.000 HD 
HETATM    7  O   UNL     1     -10.932  15.327  66.685  1.00  0.00    -0.313 OA 
BRANCH   5   8
HETATM    8  C   UNL     1      -9.604  16.638  68.242  1.00  0.00    -0.233 A  
HETATM    9  C   UNL     1      -9.302  18.013  68.249  1.00  0.00    -0.299 A  
HETATM   10  C   UNL     1      -8.016  18.447  68.573  1.00  0.00    -0.314 A  
HETATM   11  O   UNL     1      -7.704  19.775  68.615  1.00  0.00    -0.329 OA 
HETATM   12  C   UNL     1      -7.006  17.542  68.867  1.00  0.00    -0.252 A  
HETATM   13  H   UNL     1      -6.829  20.071  68.835  1.00  0.00     0.000 HD 
HETATM   14  C   UNL     1      -7.288  16.180  68.874  1.00  0.00    -0.186 A  
HETATM   15  C   UNL     1      -8.582  15.737  68.591  1.00  0.00    -0.194 A  
ENDBRANCH   5   8
ENDBRANCH   4   5
ENDBRANCH   2   4
TORSDOF 3
ENDMDL
MODEL      149
REMARK 921   NORMALIZED FREE ENERGY PREDICTED BY IDOCK:   -3.10 KCAL/MOL
REMARK 922        TOTAL FREE ENERGY PREDICTED BY IDOCK:   -3.84 KCAL/MOL
REMARK 923 INTER-LIGAND FREE ENERGY PREDICTED BY IDOCK:   -3.94 KCAL/MOL
REMARK 924 INTRA-LIGAND FREE ENERGY PREDICTED BY IDOCK:    0.09 KCAL/MOL
REMARK 927      BINDING AFFINITY PREDICTED BY RF-SCORE:    0.00 PKD
ROOT
HETATM    1  C   UNL     1     -10.831  16.431  67.809  1.00  0.00    -0.306 C  
HETATM    2  N   UNL     1     -10.861  14.993  68.039  1.00  0.00    -0.262 NA 
HETATM    3  H   UNL     1     -11.177  14.770  68.983  1.00  0.00     0.000 HD 
ENDROOT
BRANCH   2   4
HETATM    4  C   UNL     1     -11.675  14.307  67.018  1.00  0.00    -0.403 C  
BRANCH   4   5
HETATM    5  C   UNL     1     -11.287  12.823  66.769  1.00  0.00    -0.313 C  
HETATM    6  H   UNL     1     -12.023  11.363  65.717  1.00  0.00     0.000 HD 
HETATM    7  O   UNL     1     -12.260  12.270  65.869  1.00  0.00    -0.634 OA 
BRANCH   5   8
HETATM    8  C   UNL     1     -11.179  11.970  68.026  1.00  0.00    -0.316 A  
HETATM    9  C   UNL     1     -10.238  10.931  68.153  1.00  0.00    -0.197 A  
HETATM   10  C   UNL     1     -10.184  10.171  69.322  1.00  0.00    -0.223 A  
HETATM   11  O   UNL     1      -9.263   9.178  69.482  1.00  0.00    -0.149 OA 
HETATM   12  C   UNL     1     -11.067  10.402  70.368  1.00  0.00    -0.371 A  
HETATM   13  H   UNL     1      -9.227   8.660  70.278  1.00  0.00     0.000 HD 
HETATM   14  C   UNL     1     -11.998  11.430  70.264  1.00  0.00    -0.460 A  
HETATM   15  C   UNL     1     -12.033  12.223  69.115  1.00  0.00    -0.303 A  
ENDBRANCH   5   8
ENDBRANCH   4   5
ENDBRANCH   2   4
TORSDOF 3
ENDMDL
MODEL      150
REMARK 921   NORMALIZED FREE ENERGY PREDICTED BY IDOCK:   -3.09 KCAL/MOL
REMARK 922        TOTAL FREE ENERGY PREDICTED BY IDOCK:   -3.83 KCAL/MOL
REMARK 923 INTER-LIGAND FREE ENERGY PREDICTED BY IDOCK:   -3.72 KCAL/MOL
REMARK 924 INTRA-LIGAND FREE ENERGY PREDICTED BY IDOCK:   -0.12 KCAL/MOL
REMARK 927      BINDING AFFINITY PREDICTED BY RF-SCORE:    0.00 PKD
ROOT
HETATM    1  C   UNL     1      -6.701  19.785  69.490  1.00  0.00    -0.337 C  
HETATM    2  N   UNL     1      -6.704  18.926  68.313  1.00  0.00    -0.233 NA 
HETATM    3  H   UNL     1      -6.121  18.100  68.450  1.00  0.00     0.000 HD 
ENDROOT
BRANCH   2   4
HETATM    4  C   UNL     1      -8.078  18.562  67.923  1.00  0.00    -0.256 C  
BRANCH   4   5
HETATM    5  C   UNL     1      -8.602  17.239  68.549  1.00  0.00    -0.270 C  
HETATM    6  H   UNL     1      -7.776  15.639  69.281  1.00  0.00     0.000 HD 
HETATM    7  O   UNL     1      -7.456  16.448  68.898  1.00  0.00    -0.189 OA 
BRANCH   5   8
HETATM    8  C   UNL     1      -9.549  16.442  67.661  1.00  0.00    -0.227 A  
HETATM    9  C   UNL     1     -10.518  15.569  68.189  1.00  0.00    -0.259 A  
HETATM   10  C   UNL     1     -11.357  14.854  67.333  1.00  0.00    -0.347 A  
HETATM   11  O   UNL     1     -12.324  14.022  67.818  1.00  0.00    -0.516 OA 
HETATM   12  C   UNL     1     -11.240  14.965  65.955  1.00  0.00    -0.327 A  
HETATM   13  H   UNL     1     -12.895  13.535  67.236  1.00  0.00     0.000 HD 
HETATM   14  C   UNL     1     -10.294  15.830  65.416  1.00  0.00    -0.417 A  
HETATM   15  C   UNL     1      -9.476  16.581  66.264  1.00  0.00    -0.339 A  
ENDBRANCH   5   8
ENDBRANCH   4   5
ENDBRANCH   2   4
TORSDOF 3
ENDMDL
MODEL      151
REMARK 921   NORMALIZED FREE ENERGY PREDICTED BY IDOCK:   -3.09 KCAL/MOL
REMARK 922        TOTAL FREE ENERGY PREDICTED BY IDOCK:   -3.83 KCAL/MOL
REMARK 923 INTER-LIGAND FREE ENERGY PREDICTED BY IDOCK:   -3.73 KCAL/MOL
REMARK 924 INTRA-LIGAND FREE ENERGY PREDICTED BY IDOCK:   -0.10 KCAL/MOL
REMARK 927      BINDING AFFINITY PREDICTED BY RF-SCORE:    0.00 PKD
ROOT
HETATM    1  C   UNL     1      -5.998  18.637  65.122  1.00  0.00    -0.259 C  
HETATM    2  N   UNL     1      -7.317  18.708  65.737  1.00  0.00    -0.486 NA 
HETATM    3  H   UNL     1      -8.038  18.939  65.053  1.00  0.00     0.000 HD 
ENDROOT
BRANCH   2   4
HETATM    4  C   UNL     1      -7.634  17.465  66.462  1.00  0.00    -0.282 C  
BRANCH   4   5
HETATM    5  C   UNL     1      -8.994  17.483  67.217  1.00  0.00    -0.235 C  
HETATM    6  H   UNL     1      -9.572  17.982  69.004  1.00  0.00     0.000 HD 
HETATM    7  O   UNL     1      -8.742  17.972  68.543  1.00  0.00    -0.297 OA 
BRANCH   5   8
HETATM    8  C   UNL     1      -9.712  16.141  67.272  1.00  0.00    -0.233 A  
HETATM    9  C   UNL     1      -9.193  14.983  66.662  1.00  0.00    -0.302 A  
HETATM   10  C   UNL     1      -9.894  13.779  66.732  1.00  0.00    -0.275 A  
HETATM   11  O   UNL     1      -9.400  12.636  66.174  1.00  0.00    -0.357 OA 
HETATM   12  C   UNL     1     -11.120  13.699  67.377  1.00  0.00    -0.299 A  
HETATM   13  H   UNL     1      -9.877  11.816  66.222  1.00  0.00     0.000 HD 
HETATM   14  C   UNL     1     -11.644  14.831  67.994  1.00  0.00    -0.367 A  
HETATM   15  C   UNL     1     -10.932  16.031  67.963  1.00  0.00    -0.341 A  
ENDBRANCH   5   8
ENDBRANCH   4   5
ENDBRANCH   2   4
TORSDOF 3
ENDMDL
MODEL      152
REMARK 921   NORMALIZED FREE ENERGY PREDICTED BY IDOCK:   -3.09 KCAL/MOL
REMARK 922        TOTAL FREE ENERGY PREDICTED BY IDOCK:   -3.83 KCAL/MOL
REMARK 923 INTER-LIGAND FREE ENERGY PREDICTED BY IDOCK:   -3.63 KCAL/MOL
REMARK 924 INTRA-LIGAND FREE ENERGY PREDICTED BY IDOCK:   -0.20 KCAL/MOL
REMARK 927      BINDING AFFINITY PREDICTED BY RF-SCORE:    0.00 PKD
ROOT
HETATM    1  C   UNL     1     -11.947   6.363  71.602  1.00  0.00    -0.291 C  
HETATM    2  N   UNL     1     -11.633   7.490  72.472  1.00  0.00    -0.429 NA 
HETATM    3  H   UNL     1     -11.424   7.183  73.422  1.00  0.00     0.000 HD 
ENDROOT
BRANCH   2   4
HETATM    4  C   UNL     1     -10.541   8.306  71.912  1.00  0.00    -0.282 C  
BRANCH   4   5
HETATM    5  C   UNL     1     -10.975   9.711  71.407  1.00  0.00    -0.284 C  
HETATM    6  H   UNL     1     -12.600  10.773  71.511  1.00  0.00     0.000 HD 
HETATM    7  O   UNL     1     -12.335   9.914  71.820  1.00  0.00    -0.383 OA 
BRANCH   5   8
HETATM    8  C   UNL     1     -10.837   9.922  69.905  1.00  0.00    -0.316 A  
HETATM    9  C   UNL     1     -10.355   8.917  69.046  1.00  0.00    -0.226 A  
HETATM   10  C   UNL     1     -10.239   9.162  67.677  1.00  0.00    -0.236 A  
HETATM   11  O   UNL     1      -9.801   8.197  66.817  1.00  0.00    -0.214 OA 
HETATM   12  C   UNL     1     -10.567  10.398  67.139  1.00  0.00    -0.319 A  
HETATM   13  H   UNL     1      -9.722   8.364  65.885  1.00  0.00     0.000 HD 
HETATM   14  C   UNL     1     -11.054  11.400  67.972  1.00  0.00    -0.317 A  
HETATM   15  C   UNL     1     -11.212  11.153  69.337  1.00  0.00    -0.334 A  
ENDBRANCH   5   8
ENDBRANCH   4   5
ENDBRANCH   2   4
TORSDOF 3
ENDMDL
MODEL      153
REMARK 921   NORMALIZED FREE ENERGY PREDICTED BY IDOCK:   -3.06 KCAL/MOL
REMARK 922        TOTAL FREE ENERGY PREDICTED BY IDOCK:   -3.80 KCAL/MOL
REMARK 923 INTER-LIGAND FREE ENERGY PREDICTED BY IDOCK:   -3.61 KCAL/MOL
REMARK 924 INTRA-LIGAND FREE ENERGY PREDICTED BY IDOCK:   -0.18 KCAL/MOL
REMARK 927      BINDING AFFINITY PREDICTED BY RF-SCORE:    0.00 PKD
ROOT
HETATM    1  C   UNL     1      -9.900  20.337  67.018  1.00  0.00    -0.467 C  
HETATM    2  N   UNL     1     -10.285  19.528  68.168  1.00  0.00    -0.426 NA 
HETATM    3  H   UNL     1     -11.093  19.922  68.650  1.00  0.00     0.000 HD 
ENDROOT
BRANCH   2   4
HETATM    4  C   UNL     1     -10.516  18.125  67.778  1.00  0.00    -0.404 C  
BRANCH   4   5
HETATM    5  C   UNL     1      -9.436  17.528  66.833  1.00  0.00    -0.274 C  
HETATM    6  H   UNL     1      -9.462  16.556  65.150  1.00  0.00     0.000 HD 
HETATM    7  O   UNL     1     -10.122  16.921  65.727  1.00  0.00    -0.502 OA 
BRANCH   5   8
HETATM    8  C   UNL     1      -8.494  16.527  67.489  1.00  0.00    -0.189 A  
HETATM    9  C   UNL     1      -8.102  15.334  66.854  1.00  0.00    -0.224 A  
HETATM   10  C   UNL     1      -7.244  14.444  67.501  1.00  0.00    -0.180 A  
HETATM   11  O   UNL     1      -6.826  13.294  66.898  1.00  0.00    -0.394 OA 
HETATM   12  C   UNL     1      -6.781  14.699  68.784  1.00  0.00    -0.088 A  
HETATM   13  H   UNL     1      -6.241  12.688  67.338  1.00  0.00     0.000 HD 
HETATM   14  C   UNL     1      -7.150  15.878  69.424  1.00  0.00    -0.215 A  
HETATM   15  C   UNL     1      -7.976  16.794  68.769  1.00  0.00    -0.250 A  
ENDBRANCH   5   8
ENDBRANCH   4   5
ENDBRANCH   2   4
TORSDOF 3
ENDMDL
MODEL      154
REMARK 921   NORMALIZED FREE ENERGY PREDICTED BY IDOCK:   -3.05 KCAL/MOL
REMARK 922        TOTAL FREE ENERGY PREDICTED BY IDOCK:   -3.78 KCAL/MOL
REMARK 923 INTER-LIGAND FREE ENERGY PREDICTED BY IDOCK:   -3.64 KCAL/MOL
REMARK 924 INTRA-LIGAND FREE ENERGY PREDICTED BY IDOCK:   -0.14 KCAL/MOL
REMARK 927      BINDING AFFINITY PREDICTED BY RF-SCORE:    0.00 PKD
ROOT
HETATM    1  C   UNL     1     -10.855   6.088  66.977  1.00  0.00    -0.331 C  
HETATM    2  N   UNL     1     -10.884   7.542  67.075  1.00  0.00    -0.524 NA 
HETATM    3  H   UNL     1     -11.825   7.887  67.266  1.00  0.00     0.000 HD 
ENDROOT
BRANCH   2   4
HETATM    4  C   UNL     1      -9.915   8.027  68.074  1.00  0.00    -0.179 C  
BRANCH   4   5
HETATM    5  C   UNL     1     -10.417   9.217  68.940  1.00  0.00    -0.215 C  
HETATM    6  H   UNL     1      -9.565  10.647  69.944  1.00  0.00     0.000 HD 
HETATM    7  O   UNL     1      -9.258   9.920  69.415  1.00  0.00    -0.186 OA 
BRANCH   5   8
HETATM    8  C   UNL     1     -11.317   8.826  70.105  1.00  0.00    -0.099 A  
HETATM    9  C   UNL     1     -12.190   9.741  70.722  1.00  0.00    -0.342 A  
HETATM   10  C   UNL     1     -12.989   9.336  71.792  1.00  0.00    -0.396 A  
HETATM   11  O   UNL     1     -13.864  10.195  72.390  1.00  0.00    -0.519 OA 
HETATM   12  C   UNL     1     -12.923   8.041  72.286  1.00  0.00    -0.179 A  
HETATM   13  H   UNL     1     -14.407   9.920  73.119  1.00  0.00     0.000 HD 
HETATM   14  C   UNL     1     -12.073   7.121  71.683  1.00  0.00    -0.371 A  
HETATM   15  C   UNL     1     -11.299   7.504  70.586  1.00  0.00    -0.301 A  
ENDBRANCH   5   8
ENDBRANCH   4   5
ENDBRANCH   2   4
TORSDOF 3
ENDMDL
MODEL      155
REMARK 921   NORMALIZED FREE ENERGY PREDICTED BY IDOCK:   -3.04 KCAL/MOL
REMARK 922        TOTAL FREE ENERGY PREDICTED BY IDOCK:   -3.77 KCAL/MOL
REMARK 923 INTER-LIGAND FREE ENERGY PREDICTED BY IDOCK:   -3.64 KCAL/MOL
REMARK 924 INTRA-LIGAND FREE ENERGY PREDICTED BY IDOCK:   -0.12 KCAL/MOL
REMARK 927      BINDING AFFINITY PREDICTED BY RF-SCORE:    0.00 PKD
ROOT
HETATM    1  C   UNL     1     -10.513   5.453  69.375  1.00  0.00    -0.261 C  
HETATM    2  N   UNL     1     -11.600   6.349  69.748  1.00  0.00    -0.580 NA 
HETATM    3  H   UNL     1     -12.422   5.831  70.061  1.00  0.00     0.000 HD 
ENDROOT
BRANCH   2   4
HETATM    4  C   UNL     1     -11.160   7.329  70.758  1.00  0.00    -0.266 C  
BRANCH   4   5
HETATM    5  C   UNL     1      -9.962   8.218  70.319  1.00  0.00    -0.186 C  
HETATM    6  H   UNL     1      -8.931   9.645  71.142  1.00  0.00     0.000 HD 
HETATM    7  O   UNL     1      -9.663   9.102  71.410  1.00  0.00    -0.295 OA 
BRANCH   5   8
HETATM    8  C   UNL     1     -10.188   9.010  69.038  1.00  0.00    -0.216 A  
HETATM    9  C   UNL     1     -11.011  10.151  68.994  1.00  0.00    -0.265 A  
HETATM   10  C   UNL     1     -11.194  10.838  67.794  1.00  0.00    -0.316 A  
HETATM   11  O   UNL     1     -11.963  11.963  67.729  1.00  0.00    -0.559 OA 
HETATM   12  C   UNL     1     -10.597  10.402  66.619  1.00  0.00    -0.245 A  
HETATM   13  H   UNL     1     -12.088  12.430  66.911  1.00  0.00     0.000 HD 
HETATM   14  C   UNL     1      -9.773   9.281  66.646  1.00  0.00    -0.281 A  
HETATM   15  C   UNL     1      -9.551   8.610  67.850  1.00  0.00    -0.173 A  
ENDBRANCH   5   8
ENDBRANCH   4   5
ENDBRANCH   2   4
TORSDOF 3
ENDMDL
MODEL      156
REMARK 921   NORMALIZED FREE ENERGY PREDICTED BY IDOCK:   -3.03 KCAL/MOL
REMARK 922        TOTAL FREE ENERGY PREDICTED BY IDOCK:   -3.76 KCAL/MOL
REMARK 923 INTER-LIGAND FREE ENERGY PREDICTED BY IDOCK:   -3.82 KCAL/MOL
REMARK 924 INTRA-LIGAND FREE ENERGY PREDICTED BY IDOCK:    0.06 KCAL/MOL
REMARK 927      BINDING AFFINITY PREDICTED BY RF-SCORE:    0.00 PKD
ROOT
HETATM    1  C   UNL     1     -12.544  13.403  71.041  1.00  0.00    -0.343 C  
HETATM    2  N   UNL     1     -12.990  12.593  72.166  1.00  0.00    -0.292 NA 
HETATM    3  H   UNL     1     -13.843  12.967  72.583  1.00  0.00     0.000 HD 
ENDROOT
BRANCH   2   4
HETATM    4  C   UNL     1     -13.153  11.181  71.775  1.00  0.00    -0.431 C  
BRANCH   4   5
HETATM    5  C   UNL     1     -11.941  10.575  71.012  1.00  0.00    -0.364 C  
HETATM    6  H   UNL     1     -11.514  10.240  69.146  1.00  0.00     0.000 HD 
HETATM    7  O   UNL     1     -12.254  10.610  69.612  1.00  0.00    -0.290 OA 
BRANCH   5   8
HETATM    8  C   UNL     1     -11.558   9.164  71.437  1.00  0.00    -0.411 A  
HETATM    9  C   UNL     1     -10.266   8.838  71.892  1.00  0.00    -0.415 A  
HETATM   10  C   UNL     1      -9.962   7.528  72.261  1.00  0.00    -0.181 A  
HETATM   11  O   UNL     1      -8.727   7.190  72.732  1.00  0.00    -0.117 OA 
HETATM   12  C   UNL     1     -10.909   6.517  72.166  1.00  0.00    -0.264 A  
HETATM   13  H   UNL     1      -8.520   6.298  72.983  1.00  0.00     0.000 HD 
HETATM   14  C   UNL     1     -12.194   6.822  71.728  1.00  0.00    -0.402 A  
HETATM   15  C   UNL     1     -12.520   8.138  71.394  1.00  0.00    -0.313 A  
ENDBRANCH   5   8
ENDBRANCH   4   5
ENDBRANCH   2   4
TORSDOF 3
ENDMDL
MODEL      157
REMARK 921   NORMALIZED FREE ENERGY PREDICTED BY IDOCK:   -3.01 KCAL/MOL
REMARK 922        TOTAL FREE ENERGY PREDICTED BY IDOCK:   -3.74 KCAL/MOL
REMARK 923 INTER-LIGAND FREE ENERGY PREDICTED BY IDOCK:   -3.57 KCAL/MOL
REMARK 924 INTRA-LIGAND FREE ENERGY PREDICTED BY IDOCK:   -0.17 KCAL/MOL
REMARK 927      BINDING AFFINITY PREDICTED BY RF-SCORE:    0.00 PKD
ROOT
HETATM    1  C   UNL     1     -11.679  13.576  67.335  1.00  0.00    -0.380 C  
HETATM    2  N   UNL     1     -11.425  13.190  68.717  1.00  0.00    -0.285 NA 
HETATM    3  H   UNL     1     -10.426  13.093  68.902  1.00  0.00     0.000 HD 
ENDROOT
BRANCH   2   4
HETATM    4  C   UNL     1     -12.061  14.129  69.659  1.00  0.00    -0.349 C  
BRANCH   4   5
HETATM    5  C   UNL     1     -11.071  15.043  70.433  1.00  0.00    -0.229 C  
HETATM    6  H   UNL     1     -11.222  16.305  71.903  1.00  0.00     0.000 HD 
HETATM    7  O   UNL     1     -11.827  15.746  71.430  1.00  0.00    -0.361 OA 
BRANCH   5   8
HETATM    8  C   UNL     1     -10.293  16.023  69.565  1.00  0.00    -0.278 A  
HETATM    9  C   UNL     1     -10.917  17.086  68.885  1.00  0.00    -0.141 A  
HETATM   10  C   UNL     1     -10.162  17.952  68.093  1.00  0.00    -0.382 A  
HETATM   11  O   UNL     1     -10.736  19.006  67.446  1.00  0.00    -0.461 OA 
HETATM   12  C   UNL     1      -8.794  17.774  67.939  1.00  0.00    -0.251 A  
HETATM   13  H   UNL     1     -10.222  19.596  66.907  1.00  0.00     0.000 HD 
HETATM   14  C   UNL     1      -8.159  16.734  68.611  1.00  0.00    -0.251 A  
HETATM   15  C   UNL     1      -8.899  15.886  69.437  1.00  0.00    -0.203 A  
ENDBRANCH   5   8
ENDBRANCH   4   5
ENDBRANCH   2   4
TORSDOF 3
ENDMDL
MODEL      158
REMARK 921   NORMALIZED FREE ENERGY PREDICTED BY IDOCK:   -3.01 KCAL/MOL
REMARK 922        TOTAL FREE ENERGY PREDICTED BY IDOCK:   -3.74 KCAL/MOL
REMARK 923 INTER-LIGAND FREE ENERGY PREDICTED BY IDOCK:   -3.70 KCAL/MOL
REMARK 924 INTRA-LIGAND FREE ENERGY PREDICTED BY IDOCK:   -0.04 KCAL/MOL
REMARK 927      BINDING AFFINITY PREDICTED BY RF-SCORE:    0.00 PKD
ROOT
HETATM    1  C   UNL     1      -9.419   9.893  69.896  1.00  0.00    -0.220 C  
HETATM    2  N   UNL     1     -10.118  10.886  69.091  1.00  0.00    -0.312 NA 
HETATM    3  H   UNL     1      -9.623  11.778  69.083  1.00  0.00     0.000 HD 
ENDROOT
BRANCH   2   4
HETATM    4  C   UNL     1     -10.363  10.389  67.725  1.00  0.00    -0.206 C  
BRANCH   4   5
HETATM    5  C   UNL     1     -11.074  11.401  66.784  1.00  0.00    -0.281 C  
HETATM    6  H   UNL     1     -11.025  11.781  64.878  1.00  0.00     0.000 HD 
HETATM    7  O   UNL     1     -10.590  11.162  65.453  1.00  0.00    -0.265 OA 
BRANCH   5   8
HETATM    8  C   UNL     1     -10.891  12.865  67.162  1.00  0.00    -0.278 A  
HETATM    9  C   UNL     1     -11.811  13.553  67.976  1.00  0.00    -0.400 A  
HETATM   10  C   UNL     1     -11.603  14.897  68.287  1.00  0.00    -0.334 A  
HETATM   11  O   UNL     1     -12.463  15.580  69.096  1.00  0.00    -0.609 OA 
HETATM   12  C   UNL     1     -10.509  15.589  67.786  1.00  0.00    -0.273 A  
HETATM   13  H   UNL     1     -12.322  16.496  69.308  1.00  0.00     0.000 HD 
HETATM   14  C   UNL     1      -9.584  14.922  66.989  1.00  0.00    -0.245 A  
HETATM   15  C   UNL     1      -9.762  13.567  66.704  1.00  0.00    -0.281 A  
ENDBRANCH   5   8
ENDBRANCH   4   5
ENDBRANCH   2   4
TORSDOF 3
ENDMDL
MODEL      159
REMARK 921   NORMALIZED FREE ENERGY PREDICTED BY IDOCK:   -3.00 KCAL/MOL
REMARK 922        TOTAL FREE ENERGY PREDICTED BY IDOCK:   -3.73 KCAL/MOL
REMARK 923 INTER-LIGAND FREE ENERGY PREDICTED BY IDOCK:   -3.56 KCAL/MOL
REMARK 924 INTRA-LIGAND FREE ENERGY PREDICTED BY IDOCK:   -0.17 KCAL/MOL
REMARK 927      BINDING AFFINITY PREDICTED BY RF-SCORE:    0.00 PKD
ROOT
HETATM    1  C   UNL     1      -8.431   8.458  64.859  1.00  0.00    -0.122 C  
HETATM    2  N   UNL     1      -8.607   8.428  66.305  1.00  0.00    -0.128 NA 
HETATM    3  H   UNL     1      -7.758   8.122  66.780  1.00  0.00     0.000 HD 
ENDROOT
BRANCH   2   4
HETATM    4  C   UNL     1      -9.072   9.732  66.812  1.00  0.00    -0.146 C  
BRANCH   4   5
HETATM    5  C   UNL     1      -8.899  10.914  65.817  1.00  0.00    -0.191 C  
HETATM    6  H   UNL     1      -7.848  12.550  65.790  1.00  0.00     0.000 HD 
HETATM    7  O   UNL     1      -7.955  11.827  66.397  1.00  0.00    -0.075 OA 
BRANCH   5   8
HETATM    8  C   UNL     1     -10.188  11.640  65.455  1.00  0.00    -0.306 A  
HETATM    9  C   UNL     1     -10.903  12.415  66.387  1.00  0.00    -0.291 A  
HETATM   10  C   UNL     1     -12.084  13.054  66.008  1.00  0.00    -0.432 A  
HETATM   11  O   UNL     1     -12.782  13.834  66.883  1.00  0.00    -0.355 OA 
HETATM   12  C   UNL     1     -12.592  12.920  64.724  1.00  0.00    -0.493 A  
HETATM   13  H   UNL     1     -13.587  14.268  66.626  1.00  0.00     0.000 HD 
HETATM   14  C   UNL     1     -11.894  12.166  63.787  1.00  0.00    -0.592 A  
HETATM   15  C   UNL     1     -10.689  11.556  64.144  1.00  0.00    -0.428 A  
ENDBRANCH   5   8
ENDBRANCH   4   5
ENDBRANCH   2   4
TORSDOF 3
ENDMDL
MODEL      160
REMARK 921   NORMALIZED FREE ENERGY PREDICTED BY IDOCK:   -3.00 KCAL/MOL
REMARK 922        TOTAL FREE ENERGY PREDICTED BY IDOCK:   -3.72 KCAL/MOL
REMARK 923 INTER-LIGAND FREE ENERGY PREDICTED BY IDOCK:   -3.62 KCAL/MOL
REMARK 924 INTRA-LIGAND FREE ENERGY PREDICTED BY IDOCK:   -0.11 KCAL/MOL
REMARK 927      BINDING AFFINITY PREDICTED BY RF-SCORE:    0.00 PKD
ROOT
HETATM    1  C   UNL     1      -8.049   4.188  70.710  1.00  0.00    -0.063 C  
HETATM    2  N   UNL     1      -9.291   4.522  70.024  1.00  0.00    -0.136 NA 
HETATM    3  H   UNL     1      -9.776   3.685  69.698  1.00  0.00     0.000 HD 
ENDROOT
BRANCH   2   4
HETATM    4  C   UNL     1     -10.160   5.357  70.872  1.00  0.00    -0.219 C  
BRANCH   4   5
HETATM    5  C   UNL     1     -11.330   6.050  70.119  1.00  0.00    -0.281 C  
HETATM    6  H   UNL     1     -11.714   6.474  68.261  1.00  0.00     0.000 HD 
HETATM    7  O   UNL     1     -10.999   6.050  68.722  1.00  0.00    -0.317 OA 
BRANCH   5   8
HETATM    8  C   UNL     1     -11.647   7.464  70.591  1.00  0.00    -0.295 A  
HETATM    9  C   UNL     1     -10.946   8.589  70.118  1.00  0.00    -0.221 A  
HETATM   10  C   UNL     1     -11.268   9.863  70.588  1.00  0.00    -0.344 A  
HETATM   11  O   UNL     1     -10.624  10.974  70.127  1.00  0.00    -0.420 OA 
HETATM   12  C   UNL     1     -12.258  10.047  71.543  1.00  0.00    -0.496 A  
HETATM   13  H   UNL     1     -10.843  11.842  70.447  1.00  0.00     0.000 HD 
HETATM   14  C   UNL     1     -12.967   8.947  72.014  1.00  0.00    -0.454 A  
HETATM   15  C   UNL     1     -12.681   7.672  71.520  1.00  0.00    -0.373 A  
ENDBRANCH   5   8
ENDBRANCH   4   5
ENDBRANCH   2   4
TORSDOF 3
ENDMDL
MODEL      161
REMARK 921   NORMALIZED FREE ENERGY PREDICTED BY IDOCK:   -2.99 KCAL/MOL
REMARK 922        TOTAL FREE ENERGY PREDICTED BY IDOCK:   -3.72 KCAL/MOL
REMARK 923 INTER-LIGAND FREE ENERGY PREDICTED BY IDOCK:   -3.55 KCAL/MOL
REMARK 924 INTRA-LIGAND FREE ENERGY PREDICTED BY IDOCK:   -0.17 KCAL/MOL
REMARK 927      BINDING AFFINITY PREDICTED BY RF-SCORE:    0.00 PKD
ROOT
HETATM    1  C   UNL     1      -7.885   9.979  69.833  1.00  0.00    -0.174 C  
HETATM    2  N   UNL     1      -9.242  10.051  70.361  1.00  0.00    -0.331 NA 
HETATM    3  H   UNL     1      -9.324  10.760  71.089  1.00  0.00     0.000 HD 
ENDROOT
BRANCH   2   4
HETATM    4  C   UNL     1     -10.222  10.265  69.281  1.00  0.00    -0.227 C  
BRANCH   4   5
HETATM    5  C   UNL     1     -11.224  11.427  69.535  1.00  0.00    -0.256 C  
HETATM    6  H   UNL     1     -13.156  11.622  69.458  1.00  0.00     0.000 HD 
HETATM    7  O   UNL     1     -12.544  10.913  69.303  1.00  0.00    -0.356 OA 
BRANCH   5   8
HETATM    8  C   UNL     1     -10.983  12.675  68.696  1.00  0.00    -0.292 A  
HETATM    9  C   UNL     1      -9.793  12.876  67.972  1.00  0.00    -0.223 A  
HETATM   10  C   UNL     1      -9.616  14.042  67.225  1.00  0.00    -0.238 A  
HETATM   11  O   UNL     1      -8.485  14.250  66.491  1.00  0.00    -0.420 OA 
HETATM   12  C   UNL     1     -10.588  15.032  67.199  1.00  0.00    -0.295 A  
HETATM   13  H   UNL     1      -8.365  15.043  65.982  1.00  0.00     0.000 HD 
HETATM   14  C   UNL     1     -11.774  14.846  67.902  1.00  0.00    -0.344 A  
HETATM   15  C   UNL     1     -11.978  13.666  68.620  1.00  0.00    -0.395 A  
ENDBRANCH   5   8
ENDBRANCH   4   5
ENDBRANCH   2   4
TORSDOF 3
ENDMDL
MODEL      162
REMARK 921   NORMALIZED FREE ENERGY PREDICTED BY IDOCK:   -2.99 KCAL/MOL
REMARK 922        TOTAL FREE ENERGY PREDICTED BY IDOCK:   -3.71 KCAL/MOL
REMARK 923 INTER-LIGAND FREE ENERGY PREDICTED BY IDOCK:   -3.58 KCAL/MOL
REMARK 924 INTRA-LIGAND FREE ENERGY PREDICTED BY IDOCK:   -0.13 KCAL/MOL
REMARK 927      BINDING AFFINITY PREDICTED BY RF-SCORE:    0.00 PKD
ROOT
HETATM    1  C   UNL     1     -14.242   7.800  72.160  1.00  0.00    -0.216 C  
HETATM    2  N   UNL     1     -12.931   7.176  72.281  1.00  0.00    -0.515 NA 
HETATM    3  H   UNL     1     -12.960   6.356  72.889  1.00  0.00     0.000 HD 
ENDROOT
BRANCH   2   4
HETATM    4  C   UNL     1     -12.372   6.850  70.957  1.00  0.00    -0.351 C  
BRANCH   4   5
HETATM    5  C   UNL     1     -10.934   7.386  70.710  1.00  0.00    -0.255 C  
HETATM    6  H   UNL     1     -10.087   9.135  70.761  1.00  0.00     0.000 HD 
HETATM    7  O   UNL     1     -10.966   8.807  70.911  1.00  0.00    -0.239 OA 
BRANCH   5   8
HETATM    8  C   UNL     1     -10.353   7.055  69.342  1.00  0.00    -0.218 A  
HETATM    9  C   UNL     1     -11.129   6.491  68.312  1.00  0.00    -0.332 A  
HETATM   10  C   UNL     1     -10.549   6.197  67.077  1.00  0.00    -0.315 A  
HETATM   11  O   UNL     1     -11.284   5.677  66.052  1.00  0.00    -0.737 OA 
HETATM   12  C   UNL     1      -9.200   6.426  66.846  1.00  0.00    -0.144 A  
HETATM   13  H   UNL     1     -10.889   5.476  65.212  1.00  0.00     0.000 HD 
HETATM   14  C   UNL     1      -8.420   6.991  67.849  1.00  0.00    -0.124 A  
HETATM   15  C   UNL     1      -9.000   7.327  69.075  1.00  0.00    -0.134 A  
ENDBRANCH   5   8
ENDBRANCH   4   5
ENDBRANCH   2   4
TORSDOF 3
ENDMDL
MODEL      163
REMARK 921   NORMALIZED FREE ENERGY PREDICTED BY IDOCK:   -2.97 KCAL/MOL
REMARK 922        TOTAL FREE ENERGY PREDICTED BY IDOCK:   -3.69 KCAL/MOL
REMARK 923 INTER-LIGAND FREE ENERGY PREDICTED BY IDOCK:   -3.58 KCAL/MOL
REMARK 924 INTRA-LIGAND FREE ENERGY PREDICTED BY IDOCK:   -0.11 KCAL/MOL
REMARK 927      BINDING AFFINITY PREDICTED BY RF-SCORE:    0.00 PKD
ROOT
HETATM    1  C   UNL     1      -7.422  12.893  68.009  1.00  0.00    -0.125 C  
HETATM    2  N   UNL     1      -6.897  14.005  67.227  1.00  0.00    -0.411 NA 
HETATM    3  H   UNL     1      -6.595  13.702  66.300  1.00  0.00     0.000 HD 
ENDROOT
BRANCH   2   4
HETATM    4  C   UNL     1      -7.871  15.108  67.148  1.00  0.00    -0.205 C  
BRANCH   4   5
HETATM    5  C   UNL     1      -7.333  16.402  66.476  1.00  0.00    -0.141 C  
HETATM    6  H   UNL     1      -5.604  17.284  66.371  1.00  0.00     0.000 HD 
HETATM    7  O   UNL     1      -5.933  16.493  66.781  1.00  0.00    -0.309 OA 
BRANCH   5   8
HETATM    8  C   UNL     1      -8.051  17.682  66.886  1.00  0.00    -0.249 A  
HETATM    9  C   UNL     1      -8.958  17.724  67.962  1.00  0.00    -0.263 A  
HETATM   10  C   UNL     1      -9.598  18.919  68.293  1.00  0.00    -0.352 A  
HETATM   11  O   UNL     1     -10.460  18.995  69.347  1.00  0.00    -0.406 OA 
HETATM   12  C   UNL     1      -9.377  20.077  67.561  1.00  0.00    -0.485 A  
HETATM   13  H   UNL     1     -10.896  19.808  69.573  1.00  0.00     0.000 HD 
HETATM   14  C   UNL     1      -8.477  20.056  66.501  1.00  0.00    -0.359 A  
HETATM   15  C   UNL     1      -7.801  18.875  66.187  1.00  0.00    -0.272 A  
ENDBRANCH   5   8
ENDBRANCH   4   5
ENDBRANCH   2   4
TORSDOF 3
ENDMDL
MODEL      164
REMARK 921   NORMALIZED FREE ENERGY PREDICTED BY IDOCK:   -2.95 KCAL/MOL
REMARK 922        TOTAL FREE ENERGY PREDICTED BY IDOCK:   -3.67 KCAL/MOL
REMARK 923 INTER-LIGAND FREE ENERGY PREDICTED BY IDOCK:   -3.51 KCAL/MOL
REMARK 924 INTRA-LIGAND FREE ENERGY PREDICTED BY IDOCK:   -0.16 KCAL/MOL
REMARK 927      BINDING AFFINITY PREDICTED BY RF-SCORE:    0.00 PKD
ROOT
HETATM    1  C   UNL     1      -8.544   6.248  69.751  1.00  0.00    -0.137 C  
HETATM    2  N   UNL     1      -8.376   7.593  70.287  1.00  0.00    -0.130 NA 
HETATM    3  H   UNL     1      -9.164   8.194  70.045  1.00  0.00     0.000 HD 
ENDROOT
BRANCH   2   4
HETATM    4  C   UNL     1      -8.144   7.561  71.742  1.00  0.00    -0.102 C  
BRANCH   4   5
HETATM    5  C   UNL     1      -9.205   8.323  72.585  1.00  0.00    -0.274 C  
HETATM    6  H   UNL     1      -9.647   8.429  74.475  1.00  0.00     0.000 HD 
HETATM    7  O   UNL     1      -8.999   7.963  73.960  1.00  0.00    -0.267 OA 
BRANCH   5   8
HETATM    8  C   UNL     1     -10.650   8.067  72.179  1.00  0.00    -0.335 A  
HETATM    9  C   UNL     1     -11.486   9.087  71.687  1.00  0.00    -0.431 A  
HETATM   10  C   UNL     1     -12.806   8.804  71.336  1.00  0.00    -0.280 A  
HETATM   11  O   UNL     1     -13.629   9.767  70.830  1.00  0.00    -0.585 OA 
HETATM   12  C   UNL     1     -13.330   7.528  71.486  1.00  0.00    -0.409 A  
HETATM   13  H   UNL     1     -14.528   9.574  70.591  1.00  0.00     0.000 HD 
HETATM   14  C   UNL     1     -12.516   6.505  71.962  1.00  0.00    -0.261 A  
HETATM   15  C   UNL     1     -11.182   6.769  72.278  1.00  0.00    -0.295 A  
ENDBRANCH   5   8
ENDBRANCH   4   5
ENDBRANCH   2   4
TORSDOF 3
ENDMDL
MODEL      165
REMARK 921   NORMALIZED FREE ENERGY PREDICTED BY IDOCK:   -2.95 KCAL/MOL
REMARK 922        TOTAL FREE ENERGY PREDICTED BY IDOCK:   -3.67 KCAL/MOL
REMARK 923 INTER-LIGAND FREE ENERGY PREDICTED BY IDOCK:   -3.58 KCAL/MOL
REMARK 924 INTRA-LIGAND FREE ENERGY PREDICTED BY IDOCK:   -0.09 KCAL/MOL
REMARK 927      BINDING AFFINITY PREDICTED BY RF-SCORE:    0.00 PKD
ROOT
HETATM    1  C   UNL     1     -13.370  14.600  71.283  1.00  0.00    -0.383 C  
HETATM    2  N   UNL     1     -12.000  14.153  71.066  1.00  0.00    -0.462 NA 
HETATM    3  H   UNL     1     -11.732  13.428  71.732  1.00  0.00     0.000 HD 
ENDROOT
BRANCH   2   4
HETATM    4  C   UNL     1     -11.798  13.713  69.674  1.00  0.00    -0.335 C  
BRANCH   4   5
HETATM    5  C   UNL     1     -12.028  12.194  69.434  1.00  0.00    -0.270 C  
HETATM    6  H   UNL     1     -12.155  10.622  70.570  1.00  0.00     0.000 HD 
HETATM    7  O   UNL     1     -12.014  11.550  70.717  1.00  0.00    -0.344 OA 
BRANCH   5   8
HETATM    8  C   UNL     1     -11.025  11.535  68.496  1.00  0.00    -0.268 A  
HETATM    9  C   UNL     1     -10.037  12.270  67.815  1.00  0.00    -0.202 A  
HETATM   10  C   UNL     1      -9.146  11.621  66.958  1.00  0.00    -0.179 A  
HETATM   11  O   UNL     1      -8.161  12.305  66.307  1.00  0.00    -0.385 OA 
HETATM   12  C   UNL     1      -9.229  10.253  66.740  1.00  0.00    -0.180 A  
HETATM   13  H   UNL     1      -7.555  11.863  65.724  1.00  0.00     0.000 HD 
HETATM   14  C   UNL     1     -10.193   9.509  67.413  1.00  0.00    -0.285 A  
HETATM   15  C   UNL     1     -11.063  10.143  68.302  1.00  0.00    -0.285 A  
ENDBRANCH   5   8
ENDBRANCH   4   5
ENDBRANCH   2   4
TORSDOF 3
ENDMDL
MODEL      166
REMARK 921   NORMALIZED FREE ENERGY PREDICTED BY IDOCK:   -2.95 KCAL/MOL
REMARK 922        TOTAL FREE ENERGY PREDICTED BY IDOCK:   -3.67 KCAL/MOL
REMARK 923 INTER-LIGAND FREE ENERGY PREDICTED BY IDOCK:   -3.57 KCAL/MOL
REMARK 924 INTRA-LIGAND FREE ENERGY PREDICTED BY IDOCK:   -0.09 KCAL/MOL
REMARK 927      BINDING AFFINITY PREDICTED BY RF-SCORE:    0.00 PKD
ROOT
HETATM    1  C   UNL     1      -8.487  16.233  69.058  1.00  0.00    -0.244 C  
HETATM    2  N   UNL     1      -9.725  15.559  68.689  1.00  0.00    -0.201 NA 
HETATM    3  H   UNL     1     -10.328  16.163  68.129  1.00  0.00     0.000 HD 
ENDROOT
BRANCH   2   4
HETATM    4  C   UNL     1      -9.453  14.282  68.006  1.00  0.00    -0.204 C  
BRANCH   4   5
HETATM    5  C   UNL     1     -10.721  13.514  67.536  1.00  0.00    -0.259 C  
HETATM    6  H   UNL     1     -12.079  12.431  68.408  1.00  0.00     0.000 HD 
HETATM    7  O   UNL     1     -11.304  12.900  68.695  1.00  0.00    -0.249 OA 
BRANCH   5   8
HETATM    8  C   UNL     1     -10.474  12.475  66.450  1.00  0.00    -0.269 A  
HETATM    9  C   UNL     1     -10.534  12.790  65.080  1.00  0.00    -0.334 A  
HETATM   10  C   UNL     1     -10.309  11.801  64.122  1.00  0.00    -0.331 A  
HETATM   11  O   UNL     1     -10.332  12.084  62.788  1.00  0.00    -0.476 OA 
HETATM   12  C   UNL     1     -10.050  10.489  64.494  1.00  0.00    -0.402 A  
HETATM   13  H   UNL     1     -10.180  11.410  62.136  1.00  0.00     0.000 HD 
HETATM   14  C   UNL     1      -9.978  10.161  65.844  1.00  0.00    -0.334 A  
HETATM   15  C   UNL     1     -10.161  11.152  66.810  1.00  0.00    -0.272 A  
ENDBRANCH   5   8
ENDBRANCH   4   5
ENDBRANCH   2   4
TORSDOF 3
ENDMDL
MODEL      167
REMARK 921   NORMALIZED FREE ENERGY PREDICTED BY IDOCK:   -2.93 KCAL/MOL
REMARK 922        TOTAL FREE ENERGY PREDICTED BY IDOCK:   -3.64 KCAL/MOL
REMARK 923 INTER-LIGAND FREE ENERGY PREDICTED BY IDOCK:   -3.51 KCAL/MOL
REMARK 924 INTRA-LIGAND FREE ENERGY PREDICTED BY IDOCK:   -0.13 KCAL/MOL
REMARK 927      BINDING AFFINITY PREDICTED BY RF-SCORE:    0.00 PKD
ROOT
HETATM    1  C   UNL     1     -11.767  12.224  66.202  1.00  0.00    -0.376 C  
HETATM    2  N   UNL     1     -11.365  13.470  65.563  1.00  0.00    -0.295 NA 
HETATM    3  H   UNL     1     -11.950  13.683  64.754  1.00  0.00     0.000 HD 
ENDROOT
BRANCH   2   4
HETATM    4  C   UNL     1     -11.351  14.583  66.530  1.00  0.00    -0.352 C  
BRANCH   4   5
HETATM    5  C   UNL     1     -10.730  15.903  65.990  1.00  0.00    -0.284 C  
HETATM    6  H   UNL     1     -10.526  16.714  64.235  1.00  0.00     0.000 HD 
HETATM    7  O   UNL     1     -10.905  15.907  64.565  1.00  0.00    -0.532 OA 
BRANCH   5   8
HETATM    8  C   UNL     1      -9.265  16.114  66.348  1.00  0.00    -0.334 A  
HETATM    9  C   UNL     1      -8.559  17.273  65.976  1.00  0.00    -0.127 A  
HETATM   10  C   UNL     1      -7.214  17.416  66.320  1.00  0.00    -0.311 A  
HETATM   11  O   UNL     1      -6.514  18.541  65.997  1.00  0.00    -0.196 OA 
HETATM   12  C   UNL     1      -6.539  16.416  67.006  1.00  0.00    -0.225 A  
HETATM   13  H   UNL     1      -5.598  18.638  66.231  1.00  0.00     0.000 HD 
HETATM   14  C   UNL     1      -7.224  15.267  67.390  1.00  0.00    -0.235 A  
HETATM   15  C   UNL     1      -8.580  15.133  67.086  1.00  0.00    -0.247 A  
ENDBRANCH   5   8
ENDBRANCH   4   5
ENDBRANCH   2   4
TORSDOF 3
ENDMDL
MODEL      168
REMARK 921   NORMALIZED FREE ENERGY PREDICTED BY IDOCK:   -2.92 KCAL/MOL
REMARK 922        TOTAL FREE ENERGY PREDICTED BY IDOCK:   -3.63 KCAL/MOL
REMARK 923 INTER-LIGAND FREE ENERGY PREDICTED BY IDOCK:   -3.47 KCAL/MOL
REMARK 924 INTRA-LIGAND FREE ENERGY PREDICTED BY IDOCK:   -0.16 KCAL/MOL
REMARK 927      BINDING AFFINITY PREDICTED BY RF-SCORE:    0.00 PKD
ROOT
HETATM    1  C   UNL     1     -12.166  12.511  70.422  1.00  0.00    -0.286 C  
HETATM    2  N   UNL     1     -11.749  11.528  69.430  1.00  0.00    -0.315 NA 
HETATM    3  H   UNL     1     -12.280  10.661  69.515  1.00  0.00     0.000 HD 
ENDROOT
BRANCH   2   4
HETATM    4  C   UNL     1     -11.825  12.082  68.066  1.00  0.00    -0.269 C  
BRANCH   4   5
HETATM    5  C   UNL     1     -10.468  12.573  67.488  1.00  0.00    -0.219 C  
HETATM    6  H   UNL     1      -8.610  12.456  68.045  1.00  0.00     0.000 HD 
HETATM    7  O   UNL     1      -9.439  12.157  68.398  1.00  0.00    -0.208 OA 
BRANCH   5   8
HETATM    8  C   UNL     1     -10.384  14.073  67.239  1.00  0.00    -0.264 A  
HETATM    9  C   UNL     1     -10.444  15.014  68.284  1.00  0.00    -0.237 A  
HETATM   10  C   UNL     1     -10.371  16.379  68.003  1.00  0.00    -0.288 A  
HETATM   11  O   UNL     1     -10.398  17.311  68.999  1.00  0.00    -0.330 OA 
HETATM   12  C   UNL     1     -10.267  16.838  66.698  1.00  0.00    -0.310 A  
HETATM   13  H   UNL     1     -10.349  18.241  68.808  1.00  0.00     0.000 HD 
HETATM   14  C   UNL     1     -10.198  15.922  65.653  1.00  0.00    -0.406 A  
HETATM   15  C   UNL     1     -10.228  14.553  65.926  1.00  0.00    -0.339 A  
ENDBRANCH   5   8
ENDBRANCH   4   5
ENDBRANCH   2   4
TORSDOF 3
ENDMDL
MODEL      169
REMARK 921   NORMALIZED FREE ENERGY PREDICTED BY IDOCK:   -2.91 KCAL/MOL
REMARK 922        TOTAL FREE ENERGY PREDICTED BY IDOCK:   -3.62 KCAL/MOL
REMARK 923 INTER-LIGAND FREE ENERGY PREDICTED BY IDOCK:   -4.05 KCAL/MOL
REMARK 924 INTRA-LIGAND FREE ENERGY PREDICTED BY IDOCK:    0.43 KCAL/MOL
REMARK 927      BINDING AFFINITY PREDICTED BY RF-SCORE:    0.00 PKD
ROOT
HETATM    1  C   UNL     1     -11.468  16.078  69.957  1.00  0.00    -0.331 C  
HETATM    2  N   UNL     1     -12.323  15.020  69.436  1.00  0.00    -0.563 NA 
HETATM    3  H   UNL     1     -12.223  14.919  68.426  1.00  0.00     0.000 HD 
ENDROOT
BRANCH   2   4
HETATM    4  C   UNL     1     -12.078  13.745  70.135  1.00  0.00    -0.359 C  
BRANCH   4   5
HETATM    5  C   UNL     1     -11.907  12.515  69.200  1.00  0.00    -0.296 C  
HETATM    6  H   UNL     1     -11.022  10.790  69.339  1.00  0.00     0.000 HD 
HETATM    7  O   UNL     1     -11.127  11.542  69.910  1.00  0.00    -0.162 OA 
BRANCH   5   8
HETATM    8  C   UNL     1     -11.275  12.821  67.848  1.00  0.00    -0.315 A  
HETATM    9  C   UNL     1     -10.281  13.805  67.688  1.00  0.00    -0.242 A  
HETATM   10  C   UNL     1      -9.739  14.055  66.427  1.00  0.00    -0.296 A  
HETATM   11  O   UNL     1      -8.755  14.983  66.249  1.00  0.00    -0.453 OA 
HETATM   12  C   UNL     1     -10.180  13.366  65.307  1.00  0.00    -0.312 A  
HETATM   13  H   UNL     1      -8.386  15.154  65.390  1.00  0.00     0.000 HD 
HETATM   14  C   UNL     1     -11.155  12.383  65.448  1.00  0.00    -0.344 A  
HETATM   15  C   UNL     1     -11.676  12.097  66.711  1.00  0.00    -0.377 A  
ENDBRANCH   5   8
ENDBRANCH   4   5
ENDBRANCH   2   4
TORSDOF 3
ENDMDL
MODEL      170
REMARK 921   NORMALIZED FREE ENERGY PREDICTED BY IDOCK:   -2.91 KCAL/MOL
REMARK 922        TOTAL FREE ENERGY PREDICTED BY IDOCK:   -3.62 KCAL/MOL
REMARK 923 INTER-LIGAND FREE ENERGY PREDICTED BY IDOCK:   -3.45 KCAL/MOL
REMARK 924 INTRA-LIGAND FREE ENERGY PREDICTED BY IDOCK:   -0.17 KCAL/MOL
REMARK 927      BINDING AFFINITY PREDICTED BY RF-SCORE:    0.00 PKD
ROOT
HETATM    1  C   UNL     1      -8.570   7.929  73.776  1.00  0.00    -0.265 C  
HETATM    2  N   UNL     1      -7.980   7.424  72.543  1.00  0.00    -0.098 NA 
HETATM    3  H   UNL     1      -8.315   6.486  72.323  1.00  0.00     0.000 HD 
ENDROOT
BRANCH   2   4
HETATM    4  C   UNL     1      -8.206   8.357  71.423  1.00  0.00    -0.139 C  
BRANCH   4   5
HETATM    5  C   UNL     1      -9.398   7.982  70.498  1.00  0.00    -0.155 C  
HETATM    6  H   UNL     1      -9.628   7.709  68.587  1.00  0.00     0.000 HD 
HETATM    7  O   UNL     1      -8.899   7.938  69.153  1.00  0.00    -0.141 OA 
BRANCH   5   8
HETATM    8  C   UNL     1     -10.598   8.916  70.590  1.00  0.00    -0.277 A  
HETATM    9  C   UNL     1     -10.857   9.906  69.624  1.00  0.00    -0.281 A  
HETATM   10  C   UNL     1     -11.965  10.744  69.758  1.00  0.00    -0.325 A  
HETATM   11  O   UNL     1     -12.256  11.692  68.821  1.00  0.00    -0.416 OA 
HETATM   12  C   UNL     1     -12.815  10.640  70.850  1.00  0.00    -0.473 A  
HETATM   13  H   UNL     1     -13.010  12.263  68.913  1.00  0.00     0.000 HD 
HETATM   14  C   UNL     1     -12.579   9.662  71.810  1.00  0.00    -0.497 A  
HETATM   15  C   UNL     1     -11.496   8.792  71.665  1.00  0.00    -0.386 A  
ENDBRANCH   5   8
ENDBRANCH   4   5
ENDBRANCH   2   4
TORSDOF 3
ENDMDL
MODEL      171
REMARK 921   NORMALIZED FREE ENERGY PREDICTED BY IDOCK:   -2.90 KCAL/MOL
REMARK 922        TOTAL FREE ENERGY PREDICTED BY IDOCK:   -3.61 KCAL/MOL
REMARK 923 INTER-LIGAND FREE ENERGY PREDICTED BY IDOCK:   -3.47 KCAL/MOL
REMARK 924 INTRA-LIGAND FREE ENERGY PREDICTED BY IDOCK:   -0.14 KCAL/MOL
REMARK 927      BINDING AFFINITY PREDICTED BY RF-SCORE:    0.00 PKD
ROOT
HETATM    1  C   UNL     1     -10.835  19.522  66.961  1.00  0.00    -0.427 C  
HETATM    2  N   UNL     1      -9.552  19.058  67.473  1.00  0.00    -0.301 NA 
HETATM    3  H   UNL     1      -9.184  18.286  66.916  1.00  0.00     0.000 HD 
ENDROOT
BRANCH   2   4
HETATM    4  C   UNL     1      -8.585  20.167  67.570  1.00  0.00    -0.336 C  
BRANCH   4   5
HETATM    5  C   UNL     1      -7.094  19.738  67.469  1.00  0.00    -0.233 C  
HETATM    6  H   UNL     1      -6.128  18.312  66.570  1.00  0.00     0.000 HD 
HETATM    7  O   UNL     1      -7.039  18.574  66.632  1.00  0.00    -0.195 OA 
BRANCH   5   8
HETATM    8  C   UNL     1      -6.415  19.466  68.805  1.00  0.00    -0.296 A  
HETATM    9  C   UNL     1      -6.148  18.162  69.262  1.00  0.00    -0.245 A  
HETATM   10  C   UNL     1      -5.532  17.965  70.498  1.00  0.00    -0.245 A  
HETATM   11  O   UNL     1      -5.236  16.713  70.952  1.00  0.00    -0.214 OA 
HETATM   12  C   UNL     1      -5.193  19.037  71.310  1.00  0.00    -0.307 A  
HETATM   13  H   UNL     1      -4.816  16.578  71.794  1.00  0.00     0.000 HD 
HETATM   14  C   UNL     1      -5.441  20.334  70.871  1.00  0.00    -0.320 A  
HETATM   15  C   UNL     1      -6.021  20.544  69.618  1.00  0.00    -0.358 A  
ENDBRANCH   5   8
ENDBRANCH   4   5
ENDBRANCH   2   4
TORSDOF 3
ENDMDL
MODEL      172
REMARK 921   NORMALIZED FREE ENERGY PREDICTED BY IDOCK:   -2.89 KCAL/MOL
REMARK 922        TOTAL FREE ENERGY PREDICTED BY IDOCK:   -3.60 KCAL/MOL
REMARK 923 INTER-LIGAND FREE ENERGY PREDICTED BY IDOCK:   -3.42 KCAL/MOL
REMARK 924 INTRA-LIGAND FREE ENERGY PREDICTED BY IDOCK:   -0.17 KCAL/MOL
REMARK 927      BINDING AFFINITY PREDICTED BY RF-SCORE:    0.00 PKD
ROOT
HETATM    1  C   UNL     1     -13.484   8.325  71.648  1.00  0.00    -0.331 C  
HETATM    2  N   UNL     1     -12.516   8.080  70.586  1.00  0.00    -0.467 NA 
HETATM    3  H   UNL     1     -12.437   8.880  69.959  1.00  0.00     0.000 HD 
ENDROOT
BRANCH   2   4
HETATM    4  C   UNL     1     -11.205   7.693  71.140  1.00  0.00    -0.261 C  
BRANCH   4   5
HETATM    5  C   UNL     1     -11.270   6.961  72.510  1.00  0.00    -0.267 C  
HETATM    6  H   UNL     1     -10.453   7.223  74.253  1.00  0.00     0.000 HD 
HETATM    7  O   UNL     1     -10.414   7.671  73.416  1.00  0.00    -0.351 OA 
BRANCH   5   8
HETATM    8  C   UNL     1     -10.892   5.486  72.465  1.00  0.00    -0.302 A  
HETATM    9  C   UNL     1     -10.223   4.914  71.367  1.00  0.00    -0.257 A  
HETATM   10  C   UNL     1      -9.906   3.555  71.369  1.00  0.00    -0.144 A  
HETATM   11  O   UNL     1      -9.233   2.980  70.331  1.00  0.00    -0.113 OA 
HETATM   12  C   UNL     1     -10.263   2.737  72.432  1.00  0.00    -0.209 A  
HETATM   13  H   UNL     1      -9.017   2.055  70.333  1.00  0.00     0.000 HD 
HETATM   14  C   UNL     1     -10.917   3.287  73.530  1.00  0.00    -0.324 A  
HETATM   15  C   UNL     1     -11.203   4.654  73.555  1.00  0.00    -0.400 A  
ENDBRANCH   5   8
ENDBRANCH   4   5
ENDBRANCH   2   4
TORSDOF 3
ENDMDL
MODEL      173
REMARK 921   NORMALIZED FREE ENERGY PREDICTED BY IDOCK:   -2.88 KCAL/MOL
REMARK 922        TOTAL FREE ENERGY PREDICTED BY IDOCK:   -3.58 KCAL/MOL
REMARK 923 INTER-LIGAND FREE ENERGY PREDICTED BY IDOCK:   -3.44 KCAL/MOL
REMARK 924 INTRA-LIGAND FREE ENERGY PREDICTED BY IDOCK:   -0.15 KCAL/MOL
REMARK 927      BINDING AFFINITY PREDICTED BY RF-SCORE:    0.00 PKD
ROOT
HETATM    1  C   UNL     1      -9.364   9.126  69.885  1.00  0.00    -0.186 C  
HETATM    2  N   UNL     1     -10.321   9.247  68.793  1.00  0.00    -0.206 NA 
HETATM    3  H   UNL     1     -10.482   8.350  68.334  1.00  0.00     0.000 HD 
ENDROOT
BRANCH   2   4
HETATM    4  C   UNL     1     -11.583   9.854  69.255  1.00  0.00     0.092 C  
BRANCH   4   5
HETATM    5  C   UNL     1     -11.509  10.511  70.662  1.00  0.00    -0.327 C  
HETATM    6  H   UNL     1     -12.222  10.088  72.421  1.00  0.00     0.000 HD 
HETATM    7  O   UNL     1     -12.267   9.686  71.561  1.00  0.00    -0.347 OA 
BRANCH   5   8
HETATM    8  C   UNL     1     -11.999  11.952  70.722  1.00  0.00    -0.189 A  
HETATM    9  C   UNL     1     -13.021  12.364  71.598  1.00  0.00    -0.409 A  
HETATM   10  C   UNL     1     -13.441  13.695  71.608  1.00  0.00    -0.322 A  
HETATM   11  O   UNL     1     -14.409  14.127  72.467  1.00  0.00    -0.595 OA 
HETATM   12  C   UNL     1     -12.886  14.629  70.745  1.00  0.00    -0.418 A  
HETATM   13  H   UNL     1     -14.695  15.033  72.474  1.00  0.00     0.000 HD 
HETATM   14  C   UNL     1     -11.869  14.242  69.879  1.00  0.00    -0.382 A  
HETATM   15  C   UNL     1     -11.413  12.922  69.889  1.00  0.00    -0.147 A  
ENDBRANCH   5   8
ENDBRANCH   4   5
ENDBRANCH   2   4
TORSDOF 3
ENDMDL
MODEL      174
REMARK 921   NORMALIZED FREE ENERGY PREDICTED BY IDOCK:   -2.87 KCAL/MOL
REMARK 922        TOTAL FREE ENERGY PREDICTED BY IDOCK:   -3.58 KCAL/MOL
REMARK 923 INTER-LIGAND FREE ENERGY PREDICTED BY IDOCK:   -3.45 KCAL/MOL
REMARK 924 INTRA-LIGAND FREE ENERGY PREDICTED BY IDOCK:   -0.12 KCAL/MOL
REMARK 927      BINDING AFFINITY PREDICTED BY RF-SCORE:    0.00 PKD
ROOT
HETATM    1  C   UNL     1      -9.101   7.546  73.898  1.00  0.00    -0.264 C  
HETATM    2  N   UNL     1      -9.138   7.464  72.443  1.00  0.00    -0.130 NA 
HETATM    3  H   UNL     1      -9.782   6.739  72.125  1.00  0.00     0.000 HD 
ENDROOT
BRANCH   2   4
HETATM    4  C   UNL     1      -9.454   8.773  71.844  1.00  0.00    -0.292 C  
BRANCH   4   5
HETATM    5  C   UNL     1     -10.936   8.946  71.408  1.00  0.00    -0.310 C  
HETATM    6  H   UNL     1     -12.371   7.741  70.893  1.00  0.00     0.000 HD 
HETATM    7  O   UNL     1     -11.465   7.635  71.160  1.00  0.00    -0.266 OA 
BRANCH   5   8
HETATM    8  C   UNL     1     -11.145   9.843  70.195  1.00  0.00    -0.353 A  
HETATM    9  C   UNL     1     -10.609   9.535  68.930  1.00  0.00    -0.239 A  
HETATM   10  C   UNL     1     -10.821  10.395  67.851  1.00  0.00    -0.279 A  
HETATM   11  O   UNL     1     -10.338  10.107  66.608  1.00  0.00    -0.225 OA 
HETATM   12  C   UNL     1     -11.536  11.574  68.003  1.00  0.00    -0.370 A  
HETATM   13  H   UNL     1     -10.482  10.692  65.873  1.00  0.00     0.000 HD 
HETATM   14  C   UNL     1     -12.081  11.890  69.243  1.00  0.00    -0.270 A  
HETATM   15  C   UNL     1     -11.909  11.017  70.320  1.00  0.00    -0.456 A  
ENDBRANCH   5   8
ENDBRANCH   4   5
ENDBRANCH   2   4
TORSDOF 3
ENDMDL
MODEL      175
REMARK 921   NORMALIZED FREE ENERGY PREDICTED BY IDOCK:   -2.87 KCAL/MOL
REMARK 922        TOTAL FREE ENERGY PREDICTED BY IDOCK:   -3.57 KCAL/MOL
REMARK 923 INTER-LIGAND FREE ENERGY PREDICTED BY IDOCK:   -3.46 KCAL/MOL
REMARK 924 INTRA-LIGAND FREE ENERGY PREDICTED BY IDOCK:   -0.11 KCAL/MOL
REMARK 927      BINDING AFFINITY PREDICTED BY RF-SCORE:    0.00 PKD
ROOT
HETATM    1  C   UNL     1      -5.837  11.698  67.649  1.00  0.00    -0.060 C  
HETATM    2  N   UNL     1      -6.306  12.877  66.933  1.00  0.00    -0.422 NA 
HETATM    3  H   UNL     1      -6.843  12.623  66.104  1.00  0.00     0.000 HD 
ENDROOT
BRANCH   2   4
HETATM    4  C   UNL     1      -7.069  13.771  67.822  1.00  0.00    -0.167 C  
BRANCH   4   5
HETATM    5  C   UNL     1      -7.927  14.839  67.087  1.00  0.00    -0.174 C  
HETATM    6  H   UNL     1      -8.251  16.742  67.313  1.00  0.00     0.000 HD 
HETATM    7  O   UNL     1      -7.726  16.090  67.763  1.00  0.00    -0.130 OA 
BRANCH   5   8
HETATM    8  C   UNL     1      -9.413  14.515  66.998  1.00  0.00    -0.247 A  
HETATM    9  C   UNL     1     -10.295  14.725  68.074  1.00  0.00    -0.237 A  
HETATM   10  C   UNL     1     -11.647  14.404  67.946  1.00  0.00    -0.345 A  
HETATM   11  O   UNL     1     -12.529  14.624  68.963  1.00  0.00    -0.573 OA 
HETATM   12  C   UNL     1     -12.145  13.850  66.775  1.00  0.00    -0.476 A  
HETATM   13  H   UNL     1     -13.449  14.404  68.876  1.00  0.00     0.000 HD 
HETATM   14  C   UNL     1     -11.289  13.644  65.697  1.00  0.00    -0.309 A  
HETATM   15  C   UNL     1      -9.943  13.999  65.801  1.00  0.00    -0.319 A  
ENDBRANCH   5   8
ENDBRANCH   4   5
ENDBRANCH   2   4
TORSDOF 3
ENDMDL
MODEL      176
REMARK 921   NORMALIZED FREE ENERGY PREDICTED BY IDOCK:   -2.86 KCAL/MOL
REMARK 922        TOTAL FREE ENERGY PREDICTED BY IDOCK:   -3.56 KCAL/MOL
REMARK 923 INTER-LIGAND FREE ENERGY PREDICTED BY IDOCK:   -3.41 KCAL/MOL
REMARK 924 INTRA-LIGAND FREE ENERGY PREDICTED BY IDOCK:   -0.15 KCAL/MOL
REMARK 927      BINDING AFFINITY PREDICTED BY RF-SCORE:    0.00 PKD
ROOT
HETATM    1  C   UNL     1      -5.547  14.221  69.563  1.00  0.00    -0.093 C  
HETATM    2  N   UNL     1      -6.718  15.088  69.588  1.00  0.00    -0.165 NA 
HETATM    3  H   UNL     1      -6.635  15.810  70.304  1.00  0.00     0.000 HD 
ENDROOT
BRANCH   2   4
HETATM    4  C   UNL     1      -6.979  15.668  68.258  1.00  0.00    -0.114 C  
BRANCH   4   5
HETATM    5  C   UNL     1      -6.952  17.222  68.213  1.00  0.00    -0.186 C  
HETATM    6  H   UNL     1      -6.511  18.631  69.477  1.00  0.00     0.000 HD 
HETATM    7  O   UNL     1      -6.528  17.682  69.505  1.00  0.00    -0.248 OA 
BRANCH   5   8
HETATM    8  C   UNL     1      -8.272  17.874  67.822  1.00  0.00    -0.233 A  
HETATM    9  C   UNL     1      -8.347  18.920  66.884  1.00  0.00    -0.289 A  
HETATM   10  C   UNL     1      -9.580  19.491  66.567  1.00  0.00    -0.378 A  
HETATM   11  O   UNL     1      -9.685  20.487  65.640  1.00  0.00    -0.607 OA 
HETATM   12  C   UNL     1     -10.748  19.063  67.182  1.00  0.00    -0.541 A  
HETATM   13  H   UNL     1     -10.524  20.876  65.425  1.00  0.00     0.000 HD 
HETATM   14  C   UNL     1     -10.695  18.023  68.104  1.00  0.00    -0.267 A  
HETATM   15  C   UNL     1      -9.471  17.418  68.399  1.00  0.00    -0.293 A  
ENDBRANCH   5   8
ENDBRANCH   4   5
ENDBRANCH   2   4
TORSDOF 3
ENDMDL
MODEL      177
REMARK 921   NORMALIZED FREE ENERGY PREDICTED BY IDOCK:   -2.86 KCAL/MOL
REMARK 922        TOTAL FREE ENERGY PREDICTED BY IDOCK:   -3.56 KCAL/MOL
REMARK 923 INTER-LIGAND FREE ENERGY PREDICTED BY IDOCK:   -3.41 KCAL/MOL
REMARK 924 INTRA-LIGAND FREE ENERGY PREDICTED BY IDOCK:   -0.15 KCAL/MOL
REMARK 927      BINDING AFFINITY PREDICTED BY RF-SCORE:    0.00 PKD
ROOT
HETATM    1  C   UNL     1      -8.971  11.351  66.172  1.00  0.00    -0.201 C  
HETATM    2  N   UNL     1     -10.357  11.459  66.606  1.00  0.00    -0.225 NA 
HETATM    3  H   UNL     1     -10.991  11.564  65.814  1.00  0.00     0.000 HD 
ENDROOT
BRANCH   2   4
HETATM    4  C   UNL     1     -10.739  10.317  67.458  1.00  0.00    -0.294 C  
BRANCH   4   5
HETATM    5  C   UNL     1     -11.314  10.709  68.848  1.00  0.00    -0.274 C  
HETATM    6  H   UNL     1     -11.482  12.364  69.854  1.00  0.00     0.000 HD 
HETATM    7  O   UNL     1     -11.130  12.124  69.005  1.00  0.00    -0.233 OA 
BRANCH   5   8
HETATM    8  C   UNL     1     -10.707   9.960  70.027  1.00  0.00    -0.338 A  
HETATM    9  C   UNL     1      -9.317   9.816  70.191  1.00  0.00    -0.261 A  
HETATM   10  C   UNL     1      -8.809   9.112  71.283  1.00  0.00    -0.112 A  
HETATM   11  O   UNL     1      -7.465   8.981  71.482  1.00  0.00    -0.261 OA 
HETATM   12  C   UNL     1      -9.654   8.520  72.211  1.00  0.00    -0.377 A  
HETATM   13  H   UNL     1      -7.120   8.501  72.226  1.00  0.00     0.000 HD 
HETATM   14  C   UNL     1     -11.031   8.660  72.070  1.00  0.00    -0.432 A  
HETATM   15  C   UNL     1     -11.549   9.396  71.002  1.00  0.00    -0.400 A  
ENDBRANCH   5   8
ENDBRANCH   4   5
ENDBRANCH   2   4
TORSDOF 3
ENDMDL
MODEL      178
REMARK 921   NORMALIZED FREE ENERGY PREDICTED BY IDOCK:   -2.86 KCAL/MOL
REMARK 922        TOTAL FREE ENERGY PREDICTED BY IDOCK:   -3.56 KCAL/MOL
REMARK 923 INTER-LIGAND FREE ENERGY PREDICTED BY IDOCK:   -3.35 KCAL/MOL
REMARK 924 INTRA-LIGAND FREE ENERGY PREDICTED BY IDOCK:   -0.21 KCAL/MOL
REMARK 927      BINDING AFFINITY PREDICTED BY RF-SCORE:    0.00 PKD
ROOT
HETATM    1  C   UNL     1      -9.741   9.691  70.181  1.00  0.00    -0.254 C  
HETATM    2  N   UNL     1     -10.468   9.208  71.348  1.00  0.00    -0.323 NA 
HETATM    3  H   UNL     1     -10.624   9.953  72.028  1.00  0.00     0.000 HD 
ENDROOT
BRANCH   2   4
HETATM    4  C   UNL     1     -11.731   8.557  70.957  1.00  0.00    -0.275 C  
BRANCH   4   5
HETATM    5  C   UNL     1     -11.798   7.034  71.264  1.00  0.00    -0.330 C  
HETATM    6  H   UNL     1     -11.342   5.912  72.784  1.00  0.00     0.000 HD 
HETATM    7  O   UNL     1     -11.301   6.843  72.597  1.00  0.00    -0.267 OA 
BRANCH   5   8
HETATM    8  C   UNL     1     -11.041   6.150  70.281  1.00  0.00    -0.436 A  
HETATM    9  C   UNL     1     -10.277   5.044  70.699  1.00  0.00    -0.306 A  
HETATM   10  C   UNL     1      -9.593   4.270  69.760  1.00  0.00    -0.209 A  
HETATM   11  O   UNL     1      -8.869   3.176  70.134  1.00  0.00    -0.068 OA 
HETATM   12  C   UNL     1      -9.628   4.584  68.409  1.00  0.00    -0.207 A  
HETATM   13  H   UNL     1      -8.403   2.649  69.495  1.00  0.00     0.000 HD 
HETATM   14  C   UNL     1     -10.386   5.668  67.977  1.00  0.00    -0.258 A  
HETATM   15  C   UNL     1     -11.106   6.425  68.904  1.00  0.00    -0.420 A  
ENDBRANCH   5   8
ENDBRANCH   4   5
ENDBRANCH   2   4
TORSDOF 3
ENDMDL
MODEL      179
REMARK 921   NORMALIZED FREE ENERGY PREDICTED BY IDOCK:   -2.85 KCAL/MOL
REMARK 922        TOTAL FREE ENERGY PREDICTED BY IDOCK:   -3.55 KCAL/MOL
REMARK 923 INTER-LIGAND FREE ENERGY PREDICTED BY IDOCK:   -3.44 KCAL/MOL
REMARK 924 INTRA-LIGAND FREE ENERGY PREDICTED BY IDOCK:   -0.11 KCAL/MOL
REMARK 927      BINDING AFFINITY PREDICTED BY RF-SCORE:    0.00 PKD
ROOT
HETATM    1  C   UNL     1     -10.142  17.617  66.969  1.00  0.00    -0.330 C  
HETATM    2  N   UNL     1     -10.249  16.557  67.963  1.00  0.00    -0.262 NA 
HETATM    3  H   UNL     1     -11.094  16.654  68.525  1.00  0.00     0.000 HD 
ENDROOT
BRANCH   2   4
HETATM    4  C   UNL     1     -10.165  15.226  67.333  1.00  0.00    -0.243 C  
BRANCH   4   5
HETATM    5  C   UNL     1      -9.387  14.165  68.161  1.00  0.00    -0.206 C  
HETATM    6  H   UNL     1      -7.532  13.593  68.273  1.00  0.00     0.000 HD 
HETATM    7  O   UNL     1      -8.008  14.242  67.767  1.00  0.00    -0.139 OA 
BRANCH   5   8
HETATM    8  C   UNL     1      -9.903  12.739  68.019  1.00  0.00    -0.226 A  
HETATM    9  C   UNL     1     -11.078  12.297  68.654  1.00  0.00    -0.291 A  
HETATM   10  C   UNL     1     -11.505  10.977  68.500  1.00  0.00    -0.309 A  
HETATM   11  O   UNL     1     -12.656  10.530  69.081  1.00  0.00    -0.740 OA 
HETATM   12  C   UNL     1     -10.774  10.070  67.746  1.00  0.00    -0.333 A  
HETATM   13  H   UNL     1     -12.946   9.632  68.976  1.00  0.00     0.000 HD 
HETATM   14  C   UNL     1      -9.614  10.492  67.103  1.00  0.00    -0.194 A  
HETATM   15  C   UNL     1      -9.200  11.821  67.218  1.00  0.00    -0.173 A  
ENDBRANCH   5   8
ENDBRANCH   4   5
ENDBRANCH   2   4
TORSDOF 3
ENDMDL
MODEL      180
REMARK 921   NORMALIZED FREE ENERGY PREDICTED BY IDOCK:   -2.85 KCAL/MOL
REMARK 922        TOTAL FREE ENERGY PREDICTED BY IDOCK:   -3.54 KCAL/MOL
REMARK 923 INTER-LIGAND FREE ENERGY PREDICTED BY IDOCK:   -3.39 KCAL/MOL
REMARK 924 INTRA-LIGAND FREE ENERGY PREDICTED BY IDOCK:   -0.15 KCAL/MOL
REMARK 927      BINDING AFFINITY PREDICTED BY RF-SCORE:    0.00 PKD
ROOT
HETATM    1  C   UNL     1     -12.565  12.595  64.701  1.00  0.00    -0.440 C  
HETATM    2  N   UNL     1     -11.303  11.893  64.500  1.00  0.00    -0.329 NA 
HETATM    3  H   UNL     1     -10.594  12.506  64.096  1.00  0.00     0.000 HD 
ENDROOT
BRANCH   2   4
HETATM    4  C   UNL     1     -10.835  11.271  65.752  1.00  0.00    -0.194 C  
BRANCH   4   5
HETATM    5  C   UNL     1      -9.859  12.148  66.586  1.00  0.00    -0.211 C  
HETATM    6  H   UNL     1      -8.236  11.818  67.603  1.00  0.00     0.000 HD 
HETATM    7  O   UNL     1      -8.832  11.282  67.093  1.00  0.00    -0.147 OA 
BRANCH   5   8
HETATM    8  C   UNL     1     -10.510  12.925  67.723  1.00  0.00    -0.225 A  
HETATM    9  C   UNL     1     -10.327  14.310  67.889  1.00  0.00    -0.233 A  
HETATM   10  C   UNL     1     -10.938  14.976  68.952  1.00  0.00    -0.252 A  
HETATM   11  O   UNL     1     -10.801  16.323  69.120  1.00  0.00    -0.271 OA 
HETATM   12  C   UNL     1     -11.711  14.290  69.879  1.00  0.00    -0.373 A  
HETATM   13  H   UNL     1     -11.217  16.776  69.845  1.00  0.00     0.000 HD 
HETATM   14  C   UNL     1     -11.910  12.922  69.725  1.00  0.00    -0.380 A  
HETATM   15  C   UNL     1     -11.336  12.253  68.642  1.00  0.00    -0.339 A  
ENDBRANCH   5   8
ENDBRANCH   4   5
ENDBRANCH   2   4
TORSDOF 3
ENDMDL
MODEL      181
REMARK 921   NORMALIZED FREE ENERGY PREDICTED BY IDOCK:   -2.85 KCAL/MOL
REMARK 922        TOTAL FREE ENERGY PREDICTED BY IDOCK:   -3.54 KCAL/MOL
REMARK 923 INTER-LIGAND FREE ENERGY PREDICTED BY IDOCK:   -3.45 KCAL/MOL
REMARK 924 INTRA-LIGAND FREE ENERGY PREDICTED BY IDOCK:   -0.09 KCAL/MOL
REMARK 927      BINDING AFFINITY PREDICTED BY RF-SCORE:    0.00 PKD
ROOT
HETATM    1  C   UNL     1      -6.819  13.223  67.834  1.00  0.00    -0.140 C  
HETATM    2  N   UNL     1      -7.742  14.277  67.433  1.00  0.00    -0.227 NA 
HETATM    3  H   UNL     1      -8.066  14.147  66.475  1.00  0.00     0.000 HD 
ENDROOT
BRANCH   2   4
HETATM    4  C   UNL     1      -8.869  14.386  68.377  1.00  0.00    -0.182 C  
BRANCH   4   5
HETATM    5  C   UNL     1     -10.153  13.624  67.946  1.00  0.00    -0.244 C  
HETATM    6  H   UNL     1     -11.486  13.848  66.549  1.00  0.00     0.000 HD 
HETATM    7  O   UNL     1     -10.701  14.314  66.813  1.00  0.00    -0.282 OA 
BRANCH   5   8
HETATM    8  C   UNL     1     -11.204  13.473  69.037  1.00  0.00    -0.314 A  
HETATM    9  C   UNL     1     -11.859  14.580  69.610  1.00  0.00    -0.367 A  
HETATM   10  C   UNL     1     -12.809  14.390  70.614  1.00  0.00    -0.328 A  
HETATM   11  O   UNL     1     -13.479  15.443  71.166  1.00  0.00    -0.488 OA 
HETATM   12  C   UNL     1     -13.110  13.121  71.087  1.00  0.00    -0.202 A  
HETATM   13  H   UNL     1     -14.126  15.314  71.850  1.00  0.00     0.000 HD 
HETATM   14  C   UNL     1     -12.479  12.014  70.526  1.00  0.00    -0.292 A  
HETATM   15  C   UNL     1     -11.557  12.190  69.493  1.00  0.00    -0.382 A  
ENDBRANCH   5   8
ENDBRANCH   4   5
ENDBRANCH   2   4
TORSDOF 3
ENDMDL
MODEL      182
REMARK 921   NORMALIZED FREE ENERGY PREDICTED BY IDOCK:   -2.84 KCAL/MOL
REMARK 922        TOTAL FREE ENERGY PREDICTED BY IDOCK:   -3.54 KCAL/MOL
REMARK 923 INTER-LIGAND FREE ENERGY PREDICTED BY IDOCK:   -3.44 KCAL/MOL
REMARK 924 INTRA-LIGAND FREE ENERGY PREDICTED BY IDOCK:   -0.10 KCAL/MOL
REMARK 927      BINDING AFFINITY PREDICTED BY RF-SCORE:    0.00 PKD
ROOT
HETATM    1  C   UNL     1     -12.761  13.845  65.373  1.00  0.00    -0.490 C  
HETATM    2  N   UNL     1     -11.989  13.251  66.456  1.00  0.00    -0.391 NA 
HETATM    3  H   UNL     1     -12.558  13.117  67.293  1.00  0.00     0.000 HD 
ENDROOT
BRANCH   2   4
HETATM    4  C   UNL     1     -11.350  11.993  66.028  1.00  0.00    -0.343 C  
BRANCH   4   5
HETATM    5  C   UNL     1     -10.126  11.563  66.884  1.00  0.00    -0.212 C  
HETATM    6  H   UNL     1      -8.251  11.200  66.523  1.00  0.00     0.000 HD 
HETATM    7  O   UNL     1      -8.999  11.463  66.000  1.00  0.00    -0.206 OA 
BRANCH   5   8
HETATM    8  C   UNL     1     -10.312  10.265  67.659  1.00  0.00    -0.264 A  
HETATM    9  C   UNL     1     -10.583  10.245  69.040  1.00  0.00    -0.247 A  
HETATM   10  C   UNL     1     -10.736   9.029  69.707  1.00  0.00    -0.225 A  
HETATM   11  O   UNL     1     -11.027   8.982  71.039  1.00  0.00    -0.242 OA 
HETATM   12  C   UNL     1     -10.600   7.821  69.037  1.00  0.00    -0.179 A  
HETATM   13  H   UNL     1     -11.131   8.154  71.494  1.00  0.00     0.000 HD 
HETATM   14  C   UNL     1     -10.342   7.822  67.670  1.00  0.00    -0.305 A  
HETATM   15  C   UNL     1     -10.227   9.033  66.985  1.00  0.00    -0.336 A  
ENDBRANCH   5   8
ENDBRANCH   4   5
ENDBRANCH   2   4
TORSDOF 3
ENDMDL
MODEL      183
REMARK 921   NORMALIZED FREE ENERGY PREDICTED BY IDOCK:   -2.83 KCAL/MOL
REMARK 922        TOTAL FREE ENERGY PREDICTED BY IDOCK:   -3.53 KCAL/MOL
REMARK 923 INTER-LIGAND FREE ENERGY PREDICTED BY IDOCK:   -3.32 KCAL/MOL
REMARK 924 INTRA-LIGAND FREE ENERGY PREDICTED BY IDOCK:   -0.21 KCAL/MOL
REMARK 927      BINDING AFFINITY PREDICTED BY RF-SCORE:    0.00 PKD
ROOT
HETATM    1  C   UNL     1      -6.484  19.875  69.510  1.00  0.00    -0.354 C  
HETATM    2  N   UNL     1      -5.578  19.889  68.369  1.00  0.00    -0.213 NA 
HETATM    3  H   UNL     1      -4.658  20.248  68.625  1.00  0.00     0.000 HD 
ENDROOT
BRANCH   2   4
HETATM    4  C   UNL     1      -5.486  18.556  67.746  1.00  0.00    -0.164 C  
BRANCH   4   5
HETATM    5  C   UNL     1      -6.123  18.456  66.331  1.00  0.00    -0.163 C  
HETATM    6  H   UNL     1      -6.254  19.636  64.792  1.00  0.00     0.000 HD 
HETATM    7  O   UNL     1      -5.865  19.697  65.656  1.00  0.00    -0.167 OA 
BRANCH   5   8
HETATM    8  C   UNL     1      -7.614  18.145  66.321  1.00  0.00    -0.299 A  
HETATM    9  C   UNL     1      -8.108  16.828  66.371  1.00  0.00    -0.355 A  
HETATM   10  C   UNL     1      -9.483  16.594  66.350  1.00  0.00    -0.280 A  
HETATM   11  O   UNL     1      -9.990  15.329  66.426  1.00  0.00    -0.250 OA 
HETATM   12  C   UNL     1     -10.388  17.642  66.255  1.00  0.00    -0.342 A  
HETATM   13  H   UNL     1     -10.927  15.170  66.412  1.00  0.00     0.000 HD 
HETATM   14  C   UNL     1      -9.918  18.951  66.215  1.00  0.00    -0.429 A  
HETATM   15  C   UNL     1      -8.545  19.198  66.275  1.00  0.00    -0.303 A  
ENDBRANCH   5   8
ENDBRANCH   4   5
ENDBRANCH   2   4
TORSDOF 3
ENDMDL
MODEL      184
REMARK 921   NORMALIZED FREE ENERGY PREDICTED BY IDOCK:   -2.82 KCAL/MOL
REMARK 922        TOTAL FREE ENERGY PREDICTED BY IDOCK:   -3.51 KCAL/MOL
REMARK 923 INTER-LIGAND FREE ENERGY PREDICTED BY IDOCK:   -3.43 KCAL/MOL
REMARK 924 INTRA-LIGAND FREE ENERGY PREDICTED BY IDOCK:   -0.08 KCAL/MOL
REMARK 927      BINDING AFFINITY PREDICTED BY RF-SCORE:    0.00 PKD
ROOT
HETATM    1  C   UNL     1      -6.950  19.806  69.456  1.00  0.00    -0.263 C  
HETATM    2  N   UNL     1      -6.784  19.249  68.119  1.00  0.00    -0.241 NA 
HETATM    3  H   UNL     1      -5.851  18.858  67.989  1.00  0.00     0.000 HD 
ENDROOT
BRANCH   2   4
HETATM    4  C   UNL     1      -7.834  18.258  67.822  1.00  0.00    -0.240 C  
BRANCH   4   5
HETATM    5  C   UNL     1      -7.448  17.210  66.740  1.00  0.00    -0.228 C  
HETATM    6  H   UNL     1      -7.304  17.219  64.801  1.00  0.00     0.000 HD 
HETATM    7  O   UNL     1      -7.539  17.859  65.463  1.00  0.00    -0.518 OA 
BRANCH   5   8
HETATM    8  C   UNL     1      -8.288  15.939  66.752  1.00  0.00    -0.306 A  
HETATM    9  C   UNL     1      -9.379  15.750  65.883  1.00  0.00    -0.356 A  
HETATM   10  C   UNL     1     -10.124  14.571  65.939  1.00  0.00    -0.326 A  
HETATM   11  O   UNL     1     -11.168  14.349  65.089  1.00  0.00    -0.326 OA 
HETATM   12  C   UNL     1      -9.827  13.578  66.861  1.00  0.00    -0.257 A  
HETATM   13  H   UNL     1     -11.675  13.547  65.127  1.00  0.00     0.000 HD 
HETATM   14  C   UNL     1      -8.746  13.744  67.722  1.00  0.00    -0.182 A  
HETATM   15  C   UNL     1      -7.970  14.902  67.647  1.00  0.00    -0.184 A  
ENDBRANCH   5   8
ENDBRANCH   4   5
ENDBRANCH   2   4
TORSDOF 3
ENDMDL
MODEL      185
REMARK 921   NORMALIZED FREE ENERGY PREDICTED BY IDOCK:   -2.82 KCAL/MOL
REMARK 922        TOTAL FREE ENERGY PREDICTED BY IDOCK:   -3.51 KCAL/MOL
REMARK 923 INTER-LIGAND FREE ENERGY PREDICTED BY IDOCK:   -3.45 KCAL/MOL
REMARK 924 INTRA-LIGAND FREE ENERGY PREDICTED BY IDOCK:   -0.05 KCAL/MOL
REMARK 927      BINDING AFFINITY PREDICTED BY RF-SCORE:    0.00 PKD
ROOT
HETATM    1  C   UNL     1      -9.454   4.588  65.266  1.00  0.00    -0.171 C  
HETATM    2  N   UNL     1     -10.573   4.811  66.171  1.00  0.00    -0.420 NA 
HETATM    3  H   UNL     1     -10.669   4.051  66.844  1.00  0.00     0.000 HD 
ENDROOT
BRANCH   2   4
HETATM    4  C   UNL     1     -10.463   6.119  66.843  1.00  0.00    -0.276 C  
BRANCH   4   5
HETATM    5  C   UNL     1      -9.747   6.081  68.222  1.00  0.00    -0.124 C  
HETATM    6  H   UNL     1      -9.166   4.679  69.436  1.00  0.00     0.000 HD 
HETATM    7  O   UNL     1      -9.603   4.702  68.592  1.00  0.00    -0.146 OA 
BRANCH   5   8
HETATM    8  C   UNL     1     -10.450   6.858  69.328  1.00  0.00    -0.233 A  
HETATM    9  C   UNL     1     -11.406   6.266  70.174  1.00  0.00    -0.476 A  
HETATM   10  C   UNL     1     -12.029   7.023  71.167  1.00  0.00    -0.356 A  
HETATM   11  O   UNL     1     -12.938   6.467  72.018  1.00  0.00    -0.439 OA 
HETATM   12  C   UNL     1     -11.742   8.371  71.327  1.00  0.00    -0.325 A  
HETATM   13  H   UNL     1     -13.363   6.982  72.694  1.00  0.00     0.000 HD 
HETATM   14  C   UNL     1     -10.793   8.971  70.506  1.00  0.00    -0.296 A  
HETATM   15  C   UNL     1     -10.134   8.213  69.536  1.00  0.00    -0.193 A  
ENDBRANCH   5   8
ENDBRANCH   4   5
ENDBRANCH   2   4
TORSDOF 3
ENDMDL
MODEL      186
REMARK 921   NORMALIZED FREE ENERGY PREDICTED BY IDOCK:   -2.82 KCAL/MOL
REMARK 922        TOTAL FREE ENERGY PREDICTED BY IDOCK:   -3.51 KCAL/MOL
REMARK 923 INTER-LIGAND FREE ENERGY PREDICTED BY IDOCK:   -3.48 KCAL/MOL
REMARK 924 INTRA-LIGAND FREE ENERGY PREDICTED BY IDOCK:   -0.03 KCAL/MOL
REMARK 927      BINDING AFFINITY PREDICTED BY RF-SCORE:    0.00 PKD
ROOT
HETATM    1  C   UNL     1     -10.975  16.314  64.612  1.00  0.00    -0.194 C  
HETATM    2  N   UNL     1     -11.647  15.152  64.045  1.00  0.00    -0.731 NA 
HETATM    3  H   UNL     1     -11.801  15.260  63.042  1.00  0.00     0.000 HD 
ENDROOT
BRANCH   2   4
HETATM    4  C   UNL     1     -10.914  13.911  64.351  1.00  0.00    -0.308 C  
BRANCH   4   5
HETATM    5  C   UNL     1     -11.281  13.260  65.715  1.00  0.00    -0.294 C  
HETATM    6  H   UNL     1     -12.935  12.901  66.670  1.00  0.00     0.000 HD 
HETATM    7  O   UNL     1     -12.711  13.299  65.837  1.00  0.00    -0.388 OA 
BRANCH   5   8
HETATM    8  C   UNL     1     -10.624  13.904  66.928  1.00  0.00    -0.280 A  
HETATM    9  C   UNL     1      -9.257  13.740  67.220  1.00  0.00    -0.239 A  
HETATM   10  C   UNL     1      -8.704  14.344  68.350  1.00  0.00    -0.180 A  
HETATM   11  O   UNL     1      -7.377  14.226  68.641  1.00  0.00    -0.111 OA 
HETATM   12  C   UNL     1      -9.486  15.092  69.219  1.00  0.00    -0.171 A  
HETATM   13  H   UNL     1      -7.000  14.636  69.411  1.00  0.00     0.000 HD 
HETATM   14  C   UNL     1     -10.838  15.272  68.942  1.00  0.00    -0.247 A  
HETATM   15  C   UNL     1     -11.392  14.705  67.792  1.00  0.00    -0.338 A  
ENDBRANCH   5   8
ENDBRANCH   4   5
ENDBRANCH   2   4
TORSDOF 3
ENDMDL
MODEL      187
REMARK 921   NORMALIZED FREE ENERGY PREDICTED BY IDOCK:   -2.81 KCAL/MOL
REMARK 922        TOTAL FREE ENERGY PREDICTED BY IDOCK:   -3.50 KCAL/MOL
REMARK 923 INTER-LIGAND FREE ENERGY PREDICTED BY IDOCK:   -3.33 KCAL/MOL
REMARK 924 INTRA-LIGAND FREE ENERGY PREDICTED BY IDOCK:   -0.17 KCAL/MOL
REMARK 927      BINDING AFFINITY PREDICTED BY RF-SCORE:    0.00 PKD
ROOT
HETATM    1  C   UNL     1      -6.983   9.059  68.910  1.00  0.00    -0.065 C  
HETATM    2  N   UNL     1      -8.247   8.757  69.569  1.00  0.00    -0.108 NA 
HETATM    3  H   UNL     1      -8.110   8.519  70.552  1.00  0.00     0.000 HD 
ENDROOT
BRANCH   2   4
HETATM    4  C   UNL     1      -9.210   9.862  69.407  1.00  0.00    -0.214 C  
BRANCH   4   5
HETATM    5  C   UNL     1     -10.452   9.518  68.539  1.00  0.00    -0.217 C  
HETATM    6  H   UNL     1     -11.211   7.887  67.802  1.00  0.00     0.000 HD 
HETATM    7  O   UNL     1     -10.451   8.097  68.333  1.00  0.00    -0.207 OA 
BRANCH   5   8
HETATM    8  C   UNL     1     -10.523  10.249  67.204  1.00  0.00    -0.311 A  
HETATM    9  C   UNL     1     -10.034   9.685  66.011  1.00  0.00    -0.344 A  
HETATM   10  C   UNL     1     -10.113  10.399  64.814  1.00  0.00    -0.317 A  
HETATM   11  O   UNL     1      -9.674   9.866  63.638  1.00  0.00    -0.475 OA 
HETATM   12  C   UNL     1     -10.646  11.680  64.777  1.00  0.00    -0.358 A  
HETATM   13  H   UNL     1      -9.727  10.352  62.824  1.00  0.00     0.000 HD 
HETATM   14  C   UNL     1     -11.142  12.249  65.946  1.00  0.00    -0.360 A  
HETATM   15  C   UNL     1     -11.105  11.528  67.141  1.00  0.00    -0.355 A  
ENDBRANCH   5   8
ENDBRANCH   4   5
ENDBRANCH   2   4
TORSDOF 3
ENDMDL
MODEL      188
REMARK 921   NORMALIZED FREE ENERGY PREDICTED BY IDOCK:   -2.79 KCAL/MOL
REMARK 922        TOTAL FREE ENERGY PREDICTED BY IDOCK:   -3.48 KCAL/MOL
REMARK 923 INTER-LIGAND FREE ENERGY PREDICTED BY IDOCK:   -3.35 KCAL/MOL
REMARK 924 INTRA-LIGAND FREE ENERGY PREDICTED BY IDOCK:   -0.13 KCAL/MOL
REMARK 927      BINDING AFFINITY PREDICTED BY RF-SCORE:    0.00 PKD
ROOT
HETATM    1  C   UNL     1     -14.286   7.844  71.774  1.00  0.00    -0.475 C  
HETATM    2  N   UNL     1     -13.362   8.518  72.677  1.00  0.00    -0.642 NA 
HETATM    3  H   UNL     1     -13.184   7.963  73.514  1.00  0.00     0.000 HD 
ENDROOT
BRANCH   2   4
HETATM    4  C   UNL     1     -12.109   8.875  71.986  1.00  0.00    -0.371 C  
BRANCH   4   5
HETATM    5  C   UNL     1     -11.104   7.701  71.818  1.00  0.00    -0.242 C  
HETATM    6  H   UNL     1     -10.393   6.317  72.983  1.00  0.00     0.000 HD 
HETATM    7  O   UNL     1     -11.007   7.035  73.086  1.00  0.00    -0.295 OA 
BRANCH   5   8
HETATM    8  C   UNL     1      -9.722   8.109  71.324  1.00  0.00    -0.207 A  
HETATM    9  C   UNL     1      -9.490   9.324  70.653  1.00  0.00    -0.333 A  
HETATM   10  C   UNL     1      -8.207   9.648  70.212  1.00  0.00    -0.191 A  
HETATM   11  O   UNL     1      -7.949  10.832  69.584  1.00  0.00    -0.355 OA 
HETATM   12  C   UNL     1      -7.143   8.777  70.398  1.00  0.00    -0.048 A  
HETATM   13  H   UNL     1      -7.076  11.052  69.283  1.00  0.00     0.000 HD 
HETATM   14  C   UNL     1      -7.351   7.576  71.068  1.00  0.00    -0.071 A  
HETATM   15  C   UNL     1      -8.623   7.260  71.549  1.00  0.00    -0.118 A  
ENDBRANCH   5   8
ENDBRANCH   4   5
ENDBRANCH   2   4
TORSDOF 3
ENDMDL
MODEL      189
REMARK 921   NORMALIZED FREE ENERGY PREDICTED BY IDOCK:   -2.78 KCAL/MOL
REMARK 922        TOTAL FREE ENERGY PREDICTED BY IDOCK:   -3.47 KCAL/MOL
REMARK 923 INTER-LIGAND FREE ENERGY PREDICTED BY IDOCK:   -3.32 KCAL/MOL
REMARK 924 INTRA-LIGAND FREE ENERGY PREDICTED BY IDOCK:   -0.14 KCAL/MOL
REMARK 927      BINDING AFFINITY PREDICTED BY RF-SCORE:    0.00 PKD
ROOT
HETATM    1  C   UNL     1      -5.880  11.882  67.837  1.00  0.00    -0.054 C  
HETATM    2  N   UNL     1      -6.329  12.961  66.966  1.00  0.00    -0.479 NA 
HETATM    3  H   UNL     1      -6.534  12.623  66.025  1.00  0.00     0.000 HD 
ENDROOT
BRANCH   2   4
HETATM    4  C   UNL     1      -7.481  13.672  67.550  1.00  0.00    -0.170 C  
BRANCH   4   5
HETATM    5  C   UNL     1      -8.790  13.581  66.717  1.00  0.00    -0.131 C  
HETATM    6  H   UNL     1     -10.432  14.617  66.612  1.00  0.00     0.000 HD 
HETATM    7  O   UNL     1      -9.631  14.672  67.121  1.00  0.00    -0.222 OA 
BRANCH   5   8
HETATM    8  C   UNL     1      -9.537  12.259  66.841  1.00  0.00    -0.214 A  
HETATM    9  C   UNL     1     -10.578  12.067  67.769  1.00  0.00    -0.234 A  
HETATM   10  C   UNL     1     -11.225  10.834  67.850  1.00  0.00    -0.318 A  
HETATM   11  O   UNL     1     -12.256  10.628  68.720  1.00  0.00    -0.790 OA 
HETATM   12  C   UNL     1     -10.845   9.769  67.046  1.00  0.00    -0.165 A  
HETATM   13  H   UNL     1     -12.697   9.789  68.776  1.00  0.00     0.000 HD 
HETATM   14  C   UNL     1      -9.824   9.944  66.117  1.00  0.00    -0.324 A  
HETATM   15  C   UNL     1      -9.197  11.186  65.999  1.00  0.00    -0.223 A  
ENDBRANCH   5   8
ENDBRANCH   4   5
ENDBRANCH   2   4
TORSDOF 3
ENDMDL
MODEL      190
REMARK 921   NORMALIZED FREE ENERGY PREDICTED BY IDOCK:   -2.78 KCAL/MOL
REMARK 922        TOTAL FREE ENERGY PREDICTED BY IDOCK:   -3.46 KCAL/MOL
REMARK 923 INTER-LIGAND FREE ENERGY PREDICTED BY IDOCK:   -3.30 KCAL/MOL
REMARK 924 INTRA-LIGAND FREE ENERGY PREDICTED BY IDOCK:   -0.16 KCAL/MOL
REMARK 927      BINDING AFFINITY PREDICTED BY RF-SCORE:    0.00 PKD
ROOT
HETATM    1  C   UNL     1     -10.831  11.065  64.310  1.00  0.00    -0.192 C  
HETATM    2  N   UNL     1     -11.826  12.081  63.992  1.00  0.00    -0.405 NA 
HETATM    3  H   UNL     1     -12.740  11.667  63.806  1.00  0.00     0.000 HD 
ENDROOT
BRANCH   2   4
HETATM    4  C   UNL     1     -11.898  13.105  65.050  1.00  0.00    -0.354 C  
BRANCH   4   5
HETATM    5  C   UNL     1     -10.804  12.982  66.148  1.00  0.00    -0.279 C  
HETATM    6  H   UNL     1     -10.793  12.535  68.039  1.00  0.00     0.000 HD 
HETATM    7  O   UNL     1     -11.462  12.610  67.368  1.00  0.00    -0.296 OA 
BRANCH   5   8
HETATM    8  C   UNL     1      -9.963  14.235  66.356  1.00  0.00    -0.302 A  
HETATM    9  C   UNL     1      -8.729  14.209  67.032  1.00  0.00    -0.222 A  
HETATM   10  C   UNL     1      -8.000  15.386  67.206  1.00  0.00    -0.202 A  
HETATM   11  O   UNL     1      -6.788  15.385  67.832  1.00  0.00    -0.121 OA 
HETATM   12  C   UNL     1      -8.481  16.602  66.743  1.00  0.00    -0.270 A  
HETATM   13  H   UNL     1      -6.291  16.186  67.951  1.00  0.00     0.000 HD 
HETATM   14  C   UNL     1      -9.694  16.645  66.064  1.00  0.00    -0.306 A  
HETATM   15  C   UNL     1     -10.413  15.467  65.850  1.00  0.00    -0.356 A  
ENDBRANCH   5   8
ENDBRANCH   4   5
ENDBRANCH   2   4
TORSDOF 3
ENDMDL
MODEL      191
REMARK 921   NORMALIZED FREE ENERGY PREDICTED BY IDOCK:   -2.77 KCAL/MOL
REMARK 922        TOTAL FREE ENERGY PREDICTED BY IDOCK:   -3.45 KCAL/MOL
REMARK 923 INTER-LIGAND FREE ENERGY PREDICTED BY IDOCK:   -3.29 KCAL/MOL
REMARK 924 INTRA-LIGAND FREE ENERGY PREDICTED BY IDOCK:   -0.17 KCAL/MOL
REMARK 927      BINDING AFFINITY PREDICTED BY RF-SCORE:    0.00 PKD
ROOT
HETATM    1  C   UNL     1     -10.758  19.376  65.756  1.00  0.00    -0.365 C  
HETATM    2  N   UNL     1      -9.554  19.746  66.489  1.00  0.00    -0.378 NA 
HETATM    3  H   UNL     1      -9.674  20.630  66.984  1.00  0.00     0.000 HD 
ENDROOT
BRANCH   2   4
HETATM    4  C   UNL     1      -9.133  18.667  67.401  1.00  0.00    -0.279 C  
BRANCH   4   5
HETATM    5  C   UNL     1     -10.204  17.566  67.642  1.00  0.00    -0.343 C  
HETATM    6  H   UNL     1     -11.252  16.975  69.168  1.00  0.00     0.000 HD 
HETATM    7  O   UNL     1     -10.598  17.647  69.020  1.00  0.00    -0.281 OA 
BRANCH   5   8
HETATM    8  C   UNL     1      -9.756  16.152  67.299  1.00  0.00    -0.233 A  
HETATM    9  C   UNL     1     -10.583  15.248  66.605  1.00  0.00    -0.304 A  
HETATM   10  C   UNL     1     -10.131  13.959  66.322  1.00  0.00    -0.300 A  
HETATM   11  O   UNL     1     -10.900  13.073  65.626  1.00  0.00    -0.270 OA 
HETATM   12  C   UNL     1      -8.877  13.532  66.735  1.00  0.00    -0.146 A  
HETATM   13  H   UNL     1     -10.592  12.195  65.434  1.00  0.00     0.000 HD 
HETATM   14  C   UNL     1      -8.042  14.414  67.413  1.00  0.00    -0.217 A  
HETATM   15  C   UNL     1      -8.470  15.719  67.667  1.00  0.00    -0.171 A  
ENDBRANCH   5   8
ENDBRANCH   4   5
ENDBRANCH   2   4
TORSDOF 3
ENDMDL
MODEL      192
REMARK 921   NORMALIZED FREE ENERGY PREDICTED BY IDOCK:   -2.77 KCAL/MOL
REMARK 922        TOTAL FREE ENERGY PREDICTED BY IDOCK:   -3.45 KCAL/MOL
REMARK 923 INTER-LIGAND FREE ENERGY PREDICTED BY IDOCK:   -3.33 KCAL/MOL
REMARK 924 INTRA-LIGAND FREE ENERGY PREDICTED BY IDOCK:   -0.12 KCAL/MOL
REMARK 927      BINDING AFFINITY PREDICTED BY RF-SCORE:    0.00 PKD
ROOT
HETATM    1  C   UNL     1      -8.817   8.367  71.155  1.00  0.00    -0.164 C  
HETATM    2  N   UNL     1      -9.521   9.640  71.073  1.00  0.00    -0.324 NA 
HETATM    3  H   UNL     1      -8.871  10.427  71.041  1.00  0.00     0.000 HD 
ENDROOT
BRANCH   2   4
HETATM    4  C   UNL     1     -10.455   9.660  69.933  1.00  0.00    -0.253 C  
BRANCH   4   5
HETATM    5  C   UNL     1     -11.012  11.066  69.575  1.00  0.00    -0.243 C  
HETATM    6  H   UNL     1     -12.733  11.953  69.752  1.00  0.00     0.000 HD 
HETATM    7  O   UNL     1     -12.392  11.093  69.971  1.00  0.00    -0.304 OA 
BRANCH   5   8
HETATM    8  C   UNL     1     -10.871  11.457  68.110  1.00  0.00    -0.259 A  
HETATM    9  C   UNL     1      -9.903  10.879  67.267  1.00  0.00    -0.202 A  
HETATM   10  C   UNL     1      -9.807  11.277  65.933  1.00  0.00    -0.232 A  
HETATM   11  O   UNL     1      -8.898  10.713  65.087  1.00  0.00    -0.186 OA 
HETATM   12  C   UNL     1     -10.637  12.262  65.417  1.00  0.00    -0.309 A  
HETATM   13  H   UNL     1      -8.832  10.985  64.179  1.00  0.00     0.000 HD 
HETATM   14  C   UNL     1     -11.606  12.838  66.233  1.00  0.00    -0.433 A  
HETATM   15  C   UNL     1     -11.737  12.418  67.558  1.00  0.00    -0.425 A  
ENDBRANCH   5   8
ENDBRANCH   4   5
ENDBRANCH   2   4
TORSDOF 3
ENDMDL
MODEL      193
REMARK 921   NORMALIZED FREE ENERGY PREDICTED BY IDOCK:   -2.75 KCAL/MOL
REMARK 922        TOTAL FREE ENERGY PREDICTED BY IDOCK:   -3.44 KCAL/MOL
REMARK 923 INTER-LIGAND FREE ENERGY PREDICTED BY IDOCK:   -3.45 KCAL/MOL
REMARK 924 INTRA-LIGAND FREE ENERGY PREDICTED BY IDOCK:    0.01 KCAL/MOL
REMARK 927      BINDING AFFINITY PREDICTED BY RF-SCORE:    0.00 PKD
ROOT
HETATM    1  C   UNL     1      -9.646   9.168  71.367  1.00  0.00    -0.246 C  
HETATM    2  N   UNL     1      -9.563   9.752  70.034  1.00  0.00    -0.237 NA 
HETATM    3  H   UNL     1      -8.691  10.265  69.903  1.00  0.00     0.000 HD 
ENDROOT
BRANCH   2   4
HETATM    4  C   UNL     1      -9.753   8.728  68.991  1.00  0.00    -0.172 C  
BRANCH   4   5
HETATM    5  C   UNL     1     -10.886   9.040  67.973  1.00  0.00    -0.041 C  
HETATM    6  H   UNL     1     -11.369   8.391  66.206  1.00  0.00     0.000 HD 
HETATM    7  O   UNL     1     -10.677   8.200  66.828  1.00  0.00    -0.278 OA 
BRANCH   5   8
HETATM    8  C   UNL     1     -10.983  10.500  67.552  1.00  0.00    -0.365 A  
HETATM    9  C   UNL     1     -10.304  11.005  66.427  1.00  0.00    -0.302 A  
HETATM   10  C   UNL     1     -10.417  12.354  66.086  1.00  0.00    -0.248 A  
HETATM   11  O   UNL     1      -9.793  12.864  64.985  1.00  0.00    -0.485 OA 
HETATM   12  C   UNL     1     -11.173  13.227  66.856  1.00  0.00    -0.332 A  
HETATM   13  H   UNL     1      -9.870  13.782  64.754  1.00  0.00     0.000 HD 
HETATM   14  C   UNL     1     -11.858  12.744  67.966  1.00  0.00    -0.386 A  
HETATM   15  C   UNL     1     -11.784  11.388  68.292  1.00  0.00    -0.359 A  
ENDBRANCH   5   8
ENDBRANCH   4   5
ENDBRANCH   2   4
TORSDOF 3
ENDMDL
MODEL      194
REMARK 921   NORMALIZED FREE ENERGY PREDICTED BY IDOCK:   -2.74 KCAL/MOL
REMARK 922        TOTAL FREE ENERGY PREDICTED BY IDOCK:   -3.42 KCAL/MOL
REMARK 923 INTER-LIGAND FREE ENERGY PREDICTED BY IDOCK:   -3.34 KCAL/MOL
REMARK 924 INTRA-LIGAND FREE ENERGY PREDICTED BY IDOCK:   -0.09 KCAL/MOL
REMARK 927      BINDING AFFINITY PREDICTED BY RF-SCORE:    0.00 PKD
ROOT
HETATM    1  C   UNL     1      -9.424   5.526  70.944  1.00  0.00    -0.166 C  
HETATM    2  N   UNL     1     -10.373   6.095  69.995  1.00  0.00    -0.193 NA 
HETATM    3  H   UNL     1     -11.192   5.498  69.881  1.00  0.00     0.000 HD 
ENDROOT
BRANCH   2   4
HETATM    4  C   UNL     1     -10.750   7.468  70.378  1.00  0.00    -0.239 C  
BRANCH   4   5
HETATM    5  C   UNL     1      -9.917   8.585  69.689  1.00  0.00    -0.192 C  
HETATM    6  H   UNL     1      -8.288   9.555  70.120  1.00  0.00     0.000 HD 
HETATM    7  O   UNL     1      -8.797   8.872  70.541  1.00  0.00    -0.156 OA 
BRANCH   5   8
HETATM    8  C   UNL     1     -10.690   9.860  69.379  1.00  0.00    -0.255 A  
HETATM    9  C   UNL     1     -10.829  10.356  68.069  1.00  0.00    -0.319 A  
HETATM   10  C   UNL     1     -11.539  11.535  67.837  1.00  0.00    -0.282 A  
HETATM   11  O   UNL     1     -11.713  12.023  66.575  1.00  0.00    -0.523 OA 
HETATM   12  C   UNL     1     -12.099  12.253  68.884  1.00  0.00    -0.177 A  
HETATM   13  H   UNL     1     -12.197  12.825  66.417  1.00  0.00     0.000 HD 
HETATM   14  C   UNL     1     -11.981  11.772  70.185  1.00  0.00    -0.421 A  
HETATM   15  C   UNL     1     -11.306  10.573  70.423  1.00  0.00    -0.411 A  
ENDBRANCH   5   8
ENDBRANCH   4   5
ENDBRANCH   2   4
TORSDOF 3
ENDMDL
MODEL      195
REMARK 921   NORMALIZED FREE ENERGY PREDICTED BY IDOCK:   -2.74 KCAL/MOL
REMARK 922        TOTAL FREE ENERGY PREDICTED BY IDOCK:   -3.42 KCAL/MOL
REMARK 923 INTER-LIGAND FREE ENERGY PREDICTED BY IDOCK:   -3.23 KCAL/MOL
REMARK 924 INTRA-LIGAND FREE ENERGY PREDICTED BY IDOCK:   -0.19 KCAL/MOL
REMARK 927      BINDING AFFINITY PREDICTED BY RF-SCORE:    0.00 PKD
ROOT
HETATM    1  C   UNL     1      -8.729   9.224  69.778  1.00  0.00    -0.162 C  
HETATM    2  N   UNL     1      -9.786   9.324  70.775  1.00  0.00    -0.266 NA 
HETATM    3  H   UNL     1      -9.831  10.258  71.183  1.00  0.00     0.000 HD 
ENDROOT
BRANCH   2   4
HETATM    4  C   UNL     1     -11.087   8.913  70.216  1.00  0.00    -0.228 C  
BRANCH   4   5
HETATM    5  C   UNL     1     -11.858   7.866  71.067  1.00  0.00    -0.268 C  
HETATM    6  H   UNL     1     -12.555   7.808  72.881  1.00  0.00     0.000 HD 
HETATM    7  O   UNL     1     -12.084   8.448  72.360  1.00  0.00    -0.371 OA 
BRANCH   5   8
HETATM    8  C   UNL     1     -11.165   6.517  71.204  1.00  0.00    -0.353 A  
HETATM    9  C   UNL     1     -11.080   5.835  72.433  1.00  0.00    -0.332 A  
HETATM   10  C   UNL     1     -10.426   4.605  72.509  1.00  0.00    -0.195 A  
HETATM   11  O   UNL     1     -10.354   3.910  73.680  1.00  0.00    -0.139 OA 
HETATM   12  C   UNL     1      -9.826   4.042  71.391  1.00  0.00    -0.249 A  
HETATM   13  H   UNL     1      -9.909   3.072  73.732  1.00  0.00     0.000 HD 
HETATM   14  C   UNL     1      -9.908   4.697  70.167  1.00  0.00    -0.306 A  
HETATM   15  C   UNL     1     -10.595   5.909  70.072  1.00  0.00    -0.364 A  
ENDBRANCH   5   8
ENDBRANCH   4   5
ENDBRANCH   2   4
TORSDOF 3
ENDMDL
MODEL      196
REMARK 921   NORMALIZED FREE ENERGY PREDICTED BY IDOCK:   -2.74 KCAL/MOL
REMARK 922        TOTAL FREE ENERGY PREDICTED BY IDOCK:   -3.42 KCAL/MOL
REMARK 923 INTER-LIGAND FREE ENERGY PREDICTED BY IDOCK:   -3.49 KCAL/MOL
REMARK 924 INTRA-LIGAND FREE ENERGY PREDICTED BY IDOCK:    0.07 KCAL/MOL
REMARK 927      BINDING AFFINITY PREDICTED BY RF-SCORE:    0.00 PKD
ROOT
HETATM    1  C   UNL     1      -9.633  18.856  67.401  1.00  0.00    -0.306 C  
HETATM    2  N   UNL     1      -9.955  17.679  66.605  1.00  0.00    -0.313 NA 
HETATM    3  H   UNL     1     -10.435  17.930  65.740  1.00  0.00     0.000 HD 
ENDROOT
BRANCH   2   4
HETATM    4  C   UNL     1      -8.751  16.869  66.342  1.00  0.00    -0.286 C  
BRANCH   4   5
HETATM    5  C   UNL     1      -8.724  15.493  67.065  1.00  0.00    -0.231 C  
HETATM    6  H   UNL     1      -7.374  14.133  67.390  1.00  0.00     0.000 HD 
HETATM    7  O   UNL     1      -7.391  14.974  66.948  1.00  0.00    -0.098 OA 
BRANCH   5   8
HETATM    8  C   UNL     1      -9.738  14.480  66.551  1.00  0.00    -0.301 A  
HETATM    9  C   UNL     1     -10.019  13.283  67.235  1.00  0.00    -0.231 A  
HETATM   10  C   UNL     1     -10.950  12.381  66.718  1.00  0.00    -0.263 A  
HETATM   11  O   UNL     1     -11.262  11.227  67.374  1.00  0.00    -0.284 OA 
HETATM   12  C   UNL     1     -11.596  12.629  65.515  1.00  0.00    -0.409 A  
HETATM   13  H   UNL     1     -11.896  10.613  67.022  1.00  0.00     0.000 HD 
HETATM   14  C   UNL     1     -11.338  13.811  64.829  1.00  0.00    -0.367 A  
HETATM   15  C   UNL     1     -10.438  14.739  65.359  1.00  0.00    -0.401 A  
ENDBRANCH   5   8
ENDBRANCH   4   5
ENDBRANCH   2   4
TORSDOF 3
ENDMDL
MODEL      197
REMARK 921   NORMALIZED FREE ENERGY PREDICTED BY IDOCK:   -2.73 KCAL/MOL
REMARK 922        TOTAL FREE ENERGY PREDICTED BY IDOCK:   -3.41 KCAL/MOL
REMARK 923 INTER-LIGAND FREE ENERGY PREDICTED BY IDOCK:   -3.25 KCAL/MOL
REMARK 924 INTRA-LIGAND FREE ENERGY PREDICTED BY IDOCK:   -0.16 KCAL/MOL
REMARK 927      BINDING AFFINITY PREDICTED BY RF-SCORE:    0.00 PKD
ROOT
HETATM    1  C   UNL     1     -10.770   6.404  67.500  1.00  0.00    -0.319 C  
HETATM    2  N   UNL     1     -10.831   7.858  67.579  1.00  0.00    -0.517 NA 
HETATM    3  H   UNL     1     -11.776   8.204  67.411  1.00  0.00     0.000 HD 
ENDROOT
BRANCH   2   4
HETATM    4  C   UNL     1     -10.295   8.345  68.864  1.00  0.00    -0.215 C  
BRANCH   4   5
HETATM    5  C   UNL     1     -11.226   8.107  70.086  1.00  0.00    -0.134 C  
HETATM    6  H   UNL     1     -12.307   9.242  71.237  1.00  0.00     0.000 HD 
HETATM    7  O   UNL     1     -11.738   9.386  70.490  1.00  0.00    -0.262 OA 
BRANCH   5   8
HETATM    8  C   UNL     1     -10.567   7.402  71.264  1.00  0.00    -0.231 A  
HETATM    9  C   UNL     1     -10.048   8.104  72.368  1.00  0.00    -0.355 A  
HETATM   10  C   UNL     1      -9.446   7.413  73.419  1.00  0.00    -0.227 A  
HETATM   11  O   UNL     1      -8.960   8.066  74.514  1.00  0.00    -0.361 OA 
HETATM   12  C   UNL     1      -9.321   6.031  73.391  1.00  0.00    -0.134 A  
HETATM   13  H   UNL     1      -8.549   7.595  75.230  1.00  0.00     0.000 HD 
HETATM   14  C   UNL     1      -9.836   5.319  72.312  1.00  0.00    -0.209 A  
HETATM   15  C   UNL     1     -10.477   5.998  71.274  1.00  0.00    -0.283 A  
ENDBRANCH   5   8
ENDBRANCH   4   5
ENDBRANCH   2   4
TORSDOF 3
ENDMDL
MODEL      198
REMARK 921   NORMALIZED FREE ENERGY PREDICTED BY IDOCK:   -2.73 KCAL/MOL
REMARK 922        TOTAL FREE ENERGY PREDICTED BY IDOCK:   -3.41 KCAL/MOL
REMARK 923 INTER-LIGAND FREE ENERGY PREDICTED BY IDOCK:   -3.37 KCAL/MOL
REMARK 924 INTRA-LIGAND FREE ENERGY PREDICTED BY IDOCK:   -0.04 KCAL/MOL
REMARK 927      BINDING AFFINITY PREDICTED BY RF-SCORE:    0.00 PKD
ROOT
HETATM    1  C   UNL     1     -11.994  14.569  69.783  1.00  0.00    -0.332 C  
HETATM    2  N   UNL     1     -12.101  14.609  68.331  1.00  0.00    -0.581 NA 
HETATM    3  H   UNL     1     -11.606  15.411  67.940  1.00  0.00     0.000 HD 
ENDROOT
BRANCH   2   4
HETATM    4  C   UNL     1     -11.644  13.343  67.728  1.00  0.00    -0.340 C  
BRANCH   4   5
HETATM    5  C   UNL     1     -10.142  13.319  67.330  1.00  0.00    -0.234 C  
HETATM    6  H   UNL     1      -8.549  12.438  68.011  1.00  0.00     0.000 HD 
HETATM    7  O   UNL     1      -9.467  12.453  68.255  1.00  0.00    -0.209 OA 
BRANCH   5   8
HETATM    8  C   UNL     1      -9.469  14.685  67.291  1.00  0.00    -0.221 A  
HETATM    9  C   UNL     1      -8.716  15.184  68.370  1.00  0.00    -0.169 A  
HETATM   10  C   UNL     1      -8.126  16.446  68.290  1.00  0.00    -0.171 A  
HETATM   11  O   UNL     1      -7.367  16.942  69.309  1.00  0.00    -0.238 OA 
HETATM   12  C   UNL     1      -8.287  17.242  67.165  1.00  0.00    -0.220 A  
HETATM   13  H   UNL     1      -6.966  17.801  69.255  1.00  0.00     0.000 HD 
HETATM   14  C   UNL     1      -9.020  16.762  66.085  1.00  0.00    -0.295 A  
HETATM   15  C   UNL     1      -9.581  15.484  66.139  1.00  0.00    -0.362 A  
ENDBRANCH   5   8
ENDBRANCH   4   5
ENDBRANCH   2   4
TORSDOF 3
ENDMDL
MODEL      199
REMARK 921   NORMALIZED FREE ENERGY PREDICTED BY IDOCK:   -2.71 KCAL/MOL
REMARK 922        TOTAL FREE ENERGY PREDICTED BY IDOCK:   -3.39 KCAL/MOL
REMARK 923 INTER-LIGAND FREE ENERGY PREDICTED BY IDOCK:   -3.26 KCAL/MOL
REMARK 924 INTRA-LIGAND FREE ENERGY PREDICTED BY IDOCK:   -0.13 KCAL/MOL
REMARK 927      BINDING AFFINITY PREDICTED BY RF-SCORE:    0.00 PKD
ROOT
HETATM    1  C   UNL     1      -6.043  19.919  70.863  1.00  0.00    -0.223 C  
HETATM    2  N   UNL     1      -5.291  19.918  69.615  1.00  0.00    -0.202 NA 
HETATM    3  H   UNL     1      -4.886  19.002  69.422  1.00  0.00     0.000 HD 
ENDROOT
BRANCH   2   4
HETATM    4  C   UNL     1      -6.121  20.392  68.492  1.00  0.00    -0.307 C  
BRANCH   4   5
HETATM    5  C   UNL     1      -6.176  19.427  67.274  1.00  0.00    -0.186 C  
HETATM    6  H   UNL     1      -5.859  19.600  65.364  1.00  0.00     0.000 HD 
HETATM    7  O   UNL     1      -5.825  20.189  66.109  1.00  0.00    -0.165 OA 
BRANCH   5   8
HETATM    8  C   UNL     1      -7.514  18.729  67.071  1.00  0.00    -0.229 A  
HETATM    9  C   UNL     1      -8.725  19.271  67.541  1.00  0.00    -0.335 A  
HETATM   10  C   UNL     1      -9.925  18.589  67.338  1.00  0.00    -0.330 A  
HETATM   11  O   UNL     1     -11.116  19.105  67.759  1.00  0.00    -0.301 OA 
HETATM   12  C   UNL     1      -9.951  17.359  66.697  1.00  0.00    -0.308 A  
HETATM   13  H   UNL     1     -11.933  18.640  67.621  1.00  0.00     0.000 HD 
HETATM   14  C   UNL     1      -8.765  16.812  66.216  1.00  0.00    -0.342 A  
HETATM   15  C   UNL     1      -7.564  17.506  66.379  1.00  0.00    -0.329 A  
ENDBRANCH   5   8
ENDBRANCH   4   5
ENDBRANCH   2   4
TORSDOF 3
ENDMDL
MODEL      200
REMARK 921   NORMALIZED FREE ENERGY PREDICTED BY IDOCK:   -2.69 KCAL/MOL
REMARK 922        TOTAL FREE ENERGY PREDICTED BY IDOCK:   -3.36 KCAL/MOL
REMARK 923 INTER-LIGAND FREE ENERGY PREDICTED BY IDOCK:   -3.20 KCAL/MOL
REMARK 924 INTRA-LIGAND FREE ENERGY PREDICTED BY IDOCK:   -0.16 KCAL/MOL
REMARK 927      BINDING AFFINITY PREDICTED BY RF-SCORE:    0.00 PKD
ROOT
HETATM    1  C   UNL     1     -11.877  13.952  68.558  1.00  0.00    -0.366 C  
HETATM    2  N   UNL     1     -10.603  13.709  69.221  1.00  0.00    -0.436 NA 
HETATM    3  H   UNL     1     -10.564  12.773  69.627  1.00  0.00     0.000 HD 
ENDROOT
BRANCH   2   4
HETATM    4  C   UNL     1      -9.472  13.952  68.308  1.00  0.00    -0.217 C  
BRANCH   4   5
HETATM    5  C   UNL     1      -8.508  12.746  68.133  1.00  0.00    -0.177 C  
HETATM    6  H   UNL     1      -6.751  12.488  67.342  1.00  0.00     0.000 HD 
HETATM    7  O   UNL     1      -7.340  13.226  67.449  1.00  0.00    -0.160 OA 
BRANCH   5   8
HETATM    8  C   UNL     1      -9.103  11.553  67.397  1.00  0.00    -0.166 A  
HETATM    9  C   UNL     1      -9.682  10.463  68.074  1.00  0.00    -0.166 A  
HETATM   10  C   UNL     1     -10.206   9.388  67.354  1.00  0.00    -0.239 A  
HETATM   11  O   UNL     1     -10.798   8.333  67.984  1.00  0.00    -0.452 OA 
HETATM   12  C   UNL     1     -10.147   9.356  65.968  1.00  0.00    -0.302 A  
HETATM   13  H   UNL     1     -11.155   7.601  67.494  1.00  0.00     0.000 HD 
HETATM   14  C   UNL     1      -9.587  10.429  65.282  1.00  0.00    -0.316 A  
HETATM   15  C   UNL     1      -9.096  11.527  65.991  1.00  0.00    -0.206 A  
ENDBRANCH   5   8
ENDBRANCH   4   5
ENDBRANCH   2   4
TORSDOF 3
ENDMDL
MODEL      201
REMARK 921   NORMALIZED FREE ENERGY PREDICTED BY IDOCK:   -2.69 KCAL/MOL
REMARK 922        TOTAL FREE ENERGY PREDICTED BY IDOCK:   -3.36 KCAL/MOL
REMARK 923 INTER-LIGAND FREE ENERGY PREDICTED BY IDOCK:   -3.16 KCAL/MOL
REMARK 924 INTRA-LIGAND FREE ENERGY PREDICTED BY IDOCK:   -0.19 KCAL/MOL
REMARK 927      BINDING AFFINITY PREDICTED BY RF-SCORE:    0.00 PKD
ROOT
HETATM    1  C   UNL     1     -12.034  13.220  69.271  1.00  0.00    -0.303 C  
HETATM    2  N   UNL     1     -12.181  14.347  68.359  1.00  0.00    -0.605 NA 
HETATM    3  H   UNL     1     -11.556  15.115  68.608  1.00  0.00     0.000 HD 
ENDROOT
BRANCH   2   4
HETATM    4  C   UNL     1     -11.993  13.928  66.959  1.00  0.00    -0.424 C  
BRANCH   4   5
HETATM    5  C   UNL     1     -10.744  14.537  66.261  1.00  0.00    -0.309 C  
HETATM    6  H   UNL     1     -10.025  14.512  64.455  1.00  0.00     0.000 HD 
HETATM    7  O   UNL     1     -10.788  14.140  64.882  1.00  0.00    -0.366 OA 
BRANCH   5   8
HETATM    8  C   UNL     1      -9.410  14.149  66.885  1.00  0.00    -0.274 A  
HETATM    9  C   UNL     1      -8.620  15.066  67.604  1.00  0.00    -0.179 A  
HETATM   10  C   UNL     1      -7.400  14.665  68.149  1.00  0.00    -0.125 A  
HETATM   11  O   UNL     1      -6.629  15.525  68.874  1.00  0.00    -0.106 OA 
HETATM   12  C   UNL     1      -6.928  13.371  67.975  1.00  0.00    -0.127 A  
HETATM   13  H   UNL     1      -5.798  15.252  69.245  1.00  0.00     0.000 HD 
HETATM   14  C   UNL     1      -7.699  12.449  67.276  1.00  0.00    -0.158 A  
HETATM   15  C   UNL     1      -8.940  12.829  66.761  1.00  0.00    -0.188 A  
ENDBRANCH   5   8
ENDBRANCH   4   5
ENDBRANCH   2   4
TORSDOF 3
ENDMDL
MODEL      202
REMARK 921   NORMALIZED FREE ENERGY PREDICTED BY IDOCK:   -2.68 KCAL/MOL
REMARK 922        TOTAL FREE ENERGY PREDICTED BY IDOCK:   -3.35 KCAL/MOL
REMARK 923 INTER-LIGAND FREE ENERGY PREDICTED BY IDOCK:   -3.29 KCAL/MOL
REMARK 924 INTRA-LIGAND FREE ENERGY PREDICTED BY IDOCK:   -0.06 KCAL/MOL
REMARK 927      BINDING AFFINITY PREDICTED BY RF-SCORE:    0.00 PKD
ROOT
HETATM    1  C   UNL     1      -9.047   3.874  70.502  1.00  0.00    -0.116 C  
HETATM    2  N   UNL     1      -8.856   4.903  71.515  1.00  0.00    -0.132 NA 
HETATM    3  H   UNL     1      -9.373   5.753  71.289  1.00  0.00     0.000 HD 
ENDROOT
BRANCH   2   4
HETATM    4  C   UNL     1      -9.202   4.399  72.857  1.00  0.00    -0.119 C  
BRANCH   4   5
HETATM    5  C   UNL     1     -10.202   5.291  73.647  1.00  0.00    -0.210 C  
HETATM    6  H   UNL     1     -11.820   4.970  74.675  1.00  0.00     0.000 HD 
HETATM    7  O   UNL     1     -11.209   4.425  74.192  1.00  0.00    -0.225 OA 
BRANCH   5   8
HETATM    8  C   UNL     1     -10.842   6.408  72.834  1.00  0.00    -0.286 A  
HETATM    9  C   UNL     1     -12.031   6.221  72.103  1.00  0.00    -0.338 A  
HETATM   10  C   UNL     1     -12.574   7.274  71.366  1.00  0.00    -0.388 A  
HETATM   11  O   UNL     1     -13.739   7.128  70.672  1.00  0.00    -0.395 OA 
HETATM   12  C   UNL     1     -11.948   8.511  71.315  1.00  0.00    -0.334 A  
HETATM   13  H   UNL     1     -14.109   7.845  70.170  1.00  0.00     0.000 HD 
HETATM   14  C   UNL     1     -10.778   8.717  72.039  1.00  0.00    -0.417 A  
HETATM   15  C   UNL     1     -10.248   7.682  72.812  1.00  0.00    -0.336 A  
ENDBRANCH   5   8
ENDBRANCH   4   5
ENDBRANCH   2   4
TORSDOF 3
ENDMDL
MODEL      203
REMARK 921   NORMALIZED FREE ENERGY PREDICTED BY IDOCK:   -2.66 KCAL/MOL
REMARK 922        TOTAL FREE ENERGY PREDICTED BY IDOCK:   -3.33 KCAL/MOL
REMARK 923 INTER-LIGAND FREE ENERGY PREDICTED BY IDOCK:   -3.13 KCAL/MOL
REMARK 924 INTRA-LIGAND FREE ENERGY PREDICTED BY IDOCK:   -0.20 KCAL/MOL
REMARK 927      BINDING AFFINITY PREDICTED BY RF-SCORE:    0.00 PKD
ROOT
HETATM    1  C   UNL     1     -11.536   7.344  71.222  1.00  0.00    -0.272 C  
HETATM    2  N   UNL     1     -10.082   7.245  71.221  1.00  0.00    -0.189 NA 
HETATM    3  H   UNL     1      -9.758   6.479  71.812  1.00  0.00     0.000 HD 
ENDROOT
BRANCH   2   4
HETATM    4  C   UNL     1      -9.557   7.130  69.848  1.00  0.00    -0.163 C  
BRANCH   4   5
HETATM    5  C   UNL     1     -10.637   7.210  68.732  1.00  0.00    -0.196 C  
HETATM    6  H   UNL     1     -11.268   6.013  67.337  1.00  0.00     0.000 HD 
HETATM    7  O   UNL     1     -10.608   5.965  68.019  1.00  0.00    -0.220 OA 
BRANCH   5   8
HETATM    8  C   UNL     1     -10.477   8.379  67.770  1.00  0.00    -0.284 A  
HETATM    9  C   UNL     1      -9.815   8.251  66.534  1.00  0.00    -0.323 A  
HETATM   10  C   UNL     1      -9.686   9.355  65.690  1.00  0.00    -0.266 A  
HETATM   11  O   UNL     1      -9.074   9.253  64.475  1.00  0.00    -0.377 OA 
HETATM   12  C   UNL     1     -10.179  10.600  66.056  1.00  0.00    -0.309 A  
HETATM   13  H   UNL     1      -8.986  10.004  63.901  1.00  0.00     0.000 HD 
HETATM   14  C   UNL     1     -10.844  10.742  67.270  1.00  0.00    -0.344 A  
HETATM   15  C   UNL     1     -11.014   9.635  68.104  1.00  0.00    -0.185 A  
ENDBRANCH   5   8
ENDBRANCH   4   5
ENDBRANCH   2   4
TORSDOF 3
ENDMDL
MODEL      204
REMARK 921   NORMALIZED FREE ENERGY PREDICTED BY IDOCK:   -2.66 KCAL/MOL
REMARK 922        TOTAL FREE ENERGY PREDICTED BY IDOCK:   -3.33 KCAL/MOL
REMARK 923 INTER-LIGAND FREE ENERGY PREDICTED BY IDOCK:   -3.19 KCAL/MOL
REMARK 924 INTRA-LIGAND FREE ENERGY PREDICTED BY IDOCK:   -0.14 KCAL/MOL
REMARK 927      BINDING AFFINITY PREDICTED BY RF-SCORE:    0.00 PKD
ROOT
HETATM    1  C   UNL     1     -12.110  11.292  69.640  1.00  0.00    -0.322 C  
HETATM    2  N   UNL     1     -10.773  10.873  70.042  1.00  0.00    -0.463 NA 
HETATM    3  H   UNL     1     -10.425  11.429  70.823  1.00  0.00     0.000 HD 
ENDROOT
BRANCH   2   4
HETATM    4  C   UNL     1     -10.735   9.430  70.343  1.00  0.00    -0.263 C  
BRANCH   4   5
HETATM    5  C   UNL     1      -9.371   8.743  70.053  1.00  0.00    -0.168 C  
HETATM    6  H   UNL     1      -7.527   9.343  69.916  1.00  0.00     0.000 HD 
HETATM    7  O   UNL     1      -8.361   9.762  70.092  1.00  0.00    -0.181 OA 
BRANCH   5   8
HETATM    8  C   UNL     1      -9.306   7.980  68.737  1.00  0.00    -0.147 A  
HETATM    9  C   UNL     1     -10.431   7.345  68.179  1.00  0.00    -0.241 A  
HETATM   10  C   UNL     1     -10.319   6.649  66.974  1.00  0.00    -0.262 A  
HETATM   11  O   UNL     1     -11.399   6.049  66.397  1.00  0.00    -0.732 OA 
HETATM   12  C   UNL     1      -9.101   6.545  66.317  1.00  0.00    -0.168 A  
HETATM   13  H   UNL     1     -11.322   5.575  65.577  1.00  0.00     0.000 HD 
HETATM   14  C   UNL     1      -7.980   7.174  66.849  1.00  0.00    -0.115 A  
HETATM   15  C   UNL     1      -8.091   7.907  68.033  1.00  0.00    -0.126 A  
ENDBRANCH   5   8
ENDBRANCH   4   5
ENDBRANCH   2   4
TORSDOF 3
ENDMDL
MODEL      205
REMARK 921   NORMALIZED FREE ENERGY PREDICTED BY IDOCK:   -2.66 KCAL/MOL
REMARK 922        TOTAL FREE ENERGY PREDICTED BY IDOCK:   -3.32 KCAL/MOL
REMARK 923 INTER-LIGAND FREE ENERGY PREDICTED BY IDOCK:   -3.15 KCAL/MOL
REMARK 924 INTRA-LIGAND FREE ENERGY PREDICTED BY IDOCK:   -0.17 KCAL/MOL
REMARK 927      BINDING AFFINITY PREDICTED BY RF-SCORE:    0.00 PKD
ROOT
HETATM    1  C   UNL     1     -12.206  13.401  70.426  1.00  0.00    -0.345 C  
HETATM    2  N   UNL     1     -12.208  13.379  68.969  1.00  0.00    -0.239 NA 
HETATM    3  H   UNL     1     -11.631  14.126  68.582  1.00  0.00     0.000 HD 
ENDROOT
BRANCH   2   4
HETATM    4  C   UNL     1     -11.802  12.059  68.456  1.00  0.00    -0.311 C  
BRANCH   4   5
HETATM    5  C   UNL     1     -10.451  11.531  69.017  1.00  0.00    -0.145 C  
HETATM    6  H   UNL     1      -8.649  11.338  68.315  1.00  0.00     0.000 HD 
HETATM    7  O   UNL     1      -9.475  11.660  67.972  1.00  0.00    -0.172 OA 
BRANCH   5   8
HETATM    8  C   UNL     1     -10.490  10.101  69.537  1.00  0.00    -0.263 A  
HETATM    9  C   UNL     1     -10.799   9.795  70.876  1.00  0.00    -0.399 A  
HETATM   10  C   UNL     1     -10.813   8.468  71.307  1.00  0.00    -0.251 A  
HETATM   11  O   UNL     1     -11.137   8.141  72.591  1.00  0.00    -0.365 OA 
HETATM   12  C   UNL     1     -10.498   7.429  70.441  1.00  0.00    -0.230 A  
HETATM   13  H   UNL     1     -11.146   7.237  72.884  1.00  0.00     0.000 HD 
HETATM   14  C   UNL     1     -10.199   7.712  69.112  1.00  0.00    -0.204 A  
HETATM   15  C   UNL     1     -10.222   9.033  68.661  1.00  0.00    -0.226 A  
ENDBRANCH   5   8
ENDBRANCH   4   5
ENDBRANCH   2   4
TORSDOF 3
ENDMDL
MODEL      206
REMARK 921   NORMALIZED FREE ENERGY PREDICTED BY IDOCK:   -2.66 KCAL/MOL
REMARK 922        TOTAL FREE ENERGY PREDICTED BY IDOCK:   -3.32 KCAL/MOL
REMARK 923 INTER-LIGAND FREE ENERGY PREDICTED BY IDOCK:   -3.21 KCAL/MOL
REMARK 924 INTRA-LIGAND FREE ENERGY PREDICTED BY IDOCK:   -0.12 KCAL/MOL
REMARK 927      BINDING AFFINITY PREDICTED BY RF-SCORE:    0.00 PKD
ROOT
HETATM    1  C   UNL     1     -11.021   6.203  67.910  1.00  0.00    -0.304 C  
HETATM    2  N   UNL     1     -11.156   7.636  68.137  1.00  0.00    -0.427 NA 
HETATM    3  H   UNL     1     -12.130   7.902  68.283  1.00  0.00     0.000 HD 
ENDROOT
BRANCH   2   4
HETATM    4  C   UNL     1     -10.298   8.082  69.249  1.00  0.00    -0.220 C  
BRANCH   4   5
HETATM    5  C   UNL     1      -9.613   9.460  69.028  1.00  0.00    -0.164 C  
HETATM    6  H   UNL     1      -7.971  10.298  69.643  1.00  0.00     0.000 HD 
HETATM    7  O   UNL     1      -8.389   9.456  69.778  1.00  0.00    -0.126 OA 
BRANCH   5   8
HETATM    8  C   UNL     1     -10.465  10.665  69.406  1.00  0.00    -0.252 A  
HETATM    9  C   UNL     1     -10.245  11.943  68.858  1.00  0.00    -0.095 A  
HETATM   10  C   UNL     1     -11.046  13.019  69.243  1.00  0.00    -0.136 A  
HETATM   11  O   UNL     1     -10.873  14.261  68.708  1.00  0.00    -0.239 OA 
HETATM   12  C   UNL     1     -12.053  12.861  70.185  1.00  0.00    -0.373 A  
HETATM   13  H   UNL     1     -11.419  14.993  68.970  1.00  0.00     0.000 HD 
HETATM   14  C   UNL     1     -12.291  11.603  70.730  1.00  0.00    -0.454 A  
HETATM   15  C   UNL     1     -11.521  10.512  70.321  1.00  0.00    -0.416 A  
ENDBRANCH   5   8
ENDBRANCH   4   5
ENDBRANCH   2   4
TORSDOF 3
ENDMDL
MODEL      207
REMARK 921   NORMALIZED FREE ENERGY PREDICTED BY IDOCK:   -2.65 KCAL/MOL
REMARK 922        TOTAL FREE ENERGY PREDICTED BY IDOCK:   -3.31 KCAL/MOL
REMARK 923 INTER-LIGAND FREE ENERGY PREDICTED BY IDOCK:   -3.21 KCAL/MOL
REMARK 924 INTRA-LIGAND FREE ENERGY PREDICTED BY IDOCK:   -0.11 KCAL/MOL
REMARK 927      BINDING AFFINITY PREDICTED BY RF-SCORE:    0.00 PKD
ROOT
HETATM    1  C   UNL     1      -8.636   9.523  69.171  1.00  0.00    -0.140 C  
HETATM    2  N   UNL     1     -10.017   9.945  69.370  1.00  0.00    -0.199 NA 
HETATM    3  H   UNL     1     -10.641   9.523  68.682  1.00  0.00     0.000 HD 
ENDROOT
BRANCH   2   4
HETATM    4  C   UNL     1     -10.463   9.672  70.748  1.00  0.00    -0.305 C  
BRANCH   4   5
HETATM    5  C   UNL     1     -11.483   8.506  70.881  1.00  0.00    -0.267 C  
HETATM    6  H   UNL     1     -13.348   8.360  71.408  1.00  0.00     0.000 HD 
HETATM    7  O   UNL     1     -12.725   9.072  71.327  1.00  0.00    -0.316 OA 
BRANCH   5   8
HETATM    8  C   UNL     1     -11.049   7.378  71.808  1.00  0.00    -0.269 A  
HETATM    9  C   UNL     1     -10.908   6.051  71.362  1.00  0.00    -0.328 A  
HETATM   10  C   UNL     1     -10.516   5.050  72.253  1.00  0.00    -0.214 A  
HETATM   11  O   UNL     1     -10.345   3.761  71.842  1.00  0.00    -0.110 OA 
HETATM   12  C   UNL     1     -10.282   5.333  73.591  1.00  0.00    -0.237 A  
HETATM   13  H   UNL     1     -10.078   3.080  72.448  1.00  0.00     0.000 HD 
HETATM   14  C   UNL     1     -10.407   6.641  74.047  1.00  0.00    -0.377 A  
HETATM   15  C   UNL     1     -10.760   7.657  73.155  1.00  0.00    -0.445 A  
ENDBRANCH   5   8
ENDBRANCH   4   5
ENDBRANCH   2   4
TORSDOF 3
ENDMDL
MODEL      208
REMARK 921   NORMALIZED FREE ENERGY PREDICTED BY IDOCK:   -2.63 KCAL/MOL
REMARK 922        TOTAL FREE ENERGY PREDICTED BY IDOCK:   -3.29 KCAL/MOL
REMARK 923 INTER-LIGAND FREE ENERGY PREDICTED BY IDOCK:   -3.20 KCAL/MOL
REMARK 924 INTRA-LIGAND FREE ENERGY PREDICTED BY IDOCK:   -0.09 KCAL/MOL
REMARK 927      BINDING AFFINITY PREDICTED BY RF-SCORE:    0.00 PKD
ROOT
HETATM    1  C   UNL     1      -8.860   7.838  67.412  1.00  0.00    -0.127 C  
HETATM    2  N   UNL     1      -9.876   8.688  66.805  1.00  0.00    -0.228 NA 
HETATM    3  H   UNL     1     -10.786   8.226  66.783  1.00  0.00     0.000 HD 
ENDROOT
BRANCH   2   4
HETATM    4  C   UNL     1      -9.948   9.997  67.480  1.00  0.00    -0.190 C  
BRANCH   4   5
HETATM    5  C   UNL     1     -10.897  11.025  66.801  1.00  0.00    -0.251 C  
HETATM    6  H   UNL     1     -10.950  11.923  65.078  1.00  0.00     0.000 HD 
HETATM    7  O   UNL     1     -10.370  11.295  65.493  1.00  0.00    -0.249 OA 
BRANCH   5   8
HETATM    8  C   UNL     1     -11.093  12.322  67.575  1.00  0.00    -0.326 A  
HETATM    9  C   UNL     1     -10.527  13.541  67.155  1.00  0.00    -0.256 A  
HETATM   10  C   UNL     1     -10.728  14.701  67.904  1.00  0.00    -0.250 A  
HETATM   11  O   UNL     1     -10.215  15.901  67.506  1.00  0.00    -0.257 OA 
HETATM   12  C   UNL     1     -11.461  14.677  69.082  1.00  0.00    -0.320 A  
HETATM   13  H   UNL     1     -10.352  16.691  68.016  1.00  0.00     0.000 HD 
HETATM   14  C   UNL     1     -12.035  13.483  69.507  1.00  0.00    -0.390 A  
HETATM   15  C   UNL     1     -11.874  12.325  68.744  1.00  0.00    -0.356 A  
ENDBRANCH   5   8
ENDBRANCH   4   5
ENDBRANCH   2   4
TORSDOF 3
ENDMDL
MODEL      209
REMARK 921   NORMALIZED FREE ENERGY PREDICTED BY IDOCK:   -2.62 KCAL/MOL
REMARK 922        TOTAL FREE ENERGY PREDICTED BY IDOCK:   -3.28 KCAL/MOL
REMARK 923 INTER-LIGAND FREE ENERGY PREDICTED BY IDOCK:   -3.22 KCAL/MOL
REMARK 924 INTRA-LIGAND FREE ENERGY PREDICTED BY IDOCK:   -0.06 KCAL/MOL
REMARK 927      BINDING AFFINITY PREDICTED BY RF-SCORE:    0.00 PKD
ROOT
HETATM    1  C   UNL     1     -10.514  12.956  64.974  1.00  0.00    -0.318 C  
HETATM    2  N   UNL     1     -11.737  12.483  65.609  1.00  0.00    -0.403 NA 
HETATM    3  H   UNL     1     -11.573  11.639  66.158  1.00  0.00     0.000 HD 
ENDROOT
BRANCH   2   4
HETATM    4  C   UNL     1     -12.362  13.545  66.418  1.00  0.00    -0.357 C  
BRANCH   4   5
HETATM    5  C   UNL     1     -11.584  13.918  67.711  1.00  0.00    -0.347 C  
HETATM    6  H   UNL     1     -11.966  13.857  69.616  1.00  0.00     0.000 HD 
HETATM    7  O   UNL     1     -12.441  13.629  68.826  1.00  0.00    -0.129 OA 
BRANCH   5   8
HETATM    8  C   UNL     1     -11.100  15.361  67.772  1.00  0.00    -0.320 A  
HETATM    9  C   UNL     1     -11.101  16.105  68.967  1.00  0.00    -0.336 A  
HETATM   10  C   UNL     1     -10.656  17.428  68.969  1.00  0.00    -0.207 A  
HETATM   11  O   UNL     1     -10.620  18.163  70.118  1.00  0.00     0.197 OA 
HETATM   12  C   UNL     1     -10.229  18.043  67.801  1.00  0.00    -0.385 A  
HETATM   13  H   UNL     1     -10.317  19.063  70.119  1.00  0.00     0.000 HD 
HETATM   14  C   UNL     1     -10.212  17.320  66.613  1.00  0.00    -0.319 A  
HETATM   15  C   UNL     1     -10.617  15.983  66.607  1.00  0.00    -0.297 A  
ENDBRANCH   5   8
ENDBRANCH   4   5
ENDBRANCH   2   4
TORSDOF 3
ENDMDL
MODEL      210
REMARK 921   NORMALIZED FREE ENERGY PREDICTED BY IDOCK:   -2.62 KCAL/MOL
REMARK 922        TOTAL FREE ENERGY PREDICTED BY IDOCK:   -3.28 KCAL/MOL
REMARK 923 INTER-LIGAND FREE ENERGY PREDICTED BY IDOCK:   -3.15 KCAL/MOL
REMARK 924 INTRA-LIGAND FREE ENERGY PREDICTED BY IDOCK:   -0.13 KCAL/MOL
REMARK 927      BINDING AFFINITY PREDICTED BY RF-SCORE:    0.00 PKD
ROOT
HETATM    1  C   UNL     1      -7.159  10.547  65.521  1.00  0.00    -0.099 C  
HETATM    2  N   UNL     1      -8.523  10.596  66.032  1.00  0.00    -0.160 NA 
HETATM    3  H   UNL     1      -9.083   9.818  65.682  1.00  0.00     0.000 HD 
ENDROOT
BRANCH   2   4
HETATM    4  C   UNL     1      -8.538  10.656  67.505  1.00  0.00    -0.122 C  
BRANCH   4   5
HETATM    5  C   UNL     1      -9.886  10.235  68.157  1.00  0.00    -0.148 C  
HETATM    6  H   UNL     1     -11.425   9.191  67.591  1.00  0.00     0.000 HD 
HETATM    7  O   UNL     1     -10.601   9.449  67.193  1.00  0.00    -0.260 OA 
BRANCH   5   8
HETATM    8  C   UNL     1     -10.748  11.391  68.647  1.00  0.00    -0.241 A  
HETATM    9  C   UNL     1     -11.012  12.523  67.852  1.00  0.00    -0.262 A  
HETATM   10  C   UNL     1     -11.800  13.561  68.349  1.00  0.00    -0.373 A  
HETATM   11  O   UNL     1     -12.095  14.655  67.591  1.00  0.00    -0.558 OA 
HETATM   12  C   UNL     1     -12.318  13.515  69.636  1.00  0.00    -0.220 A  
HETATM   13  H   UNL     1     -12.632  15.362  67.929  1.00  0.00     0.000 HD 
HETATM   14  C   UNL     1     -12.075  12.401  70.433  1.00  0.00    -0.381 A  
HETATM   15  C   UNL     1     -11.320  11.339  69.930  1.00  0.00    -0.329 A  
ENDBRANCH   5   8
ENDBRANCH   4   5
ENDBRANCH   2   4
TORSDOF 3
ENDMDL
MODEL      211
REMARK 921   NORMALIZED FREE ENERGY PREDICTED BY IDOCK:   -2.61 KCAL/MOL
REMARK 922        TOTAL FREE ENERGY PREDICTED BY IDOCK:   -3.27 KCAL/MOL
REMARK 923 INTER-LIGAND FREE ENERGY PREDICTED BY IDOCK:   -3.07 KCAL/MOL
REMARK 924 INTRA-LIGAND FREE ENERGY PREDICTED BY IDOCK:   -0.20 KCAL/MOL
REMARK 927      BINDING AFFINITY PREDICTED BY RF-SCORE:    0.00 PKD
ROOT
HETATM    1  C   UNL     1      -6.490  11.590  68.533  1.00  0.00    -0.054 C  
HETATM    2  N   UNL     1      -6.564  10.429  67.655  1.00  0.00    -0.065 NA 
HETATM    3  H   UNL     1      -5.635  10.077  67.419  1.00  0.00     0.000 HD 
ENDROOT
BRANCH   2   4
HETATM    4  C   UNL     1      -7.412   9.373  68.239  1.00  0.00    -0.078 C  
BRANCH   4   5
HETATM    5  C   UNL     1      -7.789   9.595  69.731  1.00  0.00    -0.142 C  
HETATM    6  H   UNL     1      -7.455   8.646  71.393  1.00  0.00     0.000 HD 
HETATM    7  O   UNL     1      -7.224   8.510  70.482  1.00  0.00    -0.040 OA 
BRANCH   5   8
HETATM    8  C   UNL     1      -9.284   9.709  70.002  1.00  0.00    -0.275 A  
HETATM    9  C   UNL     1     -10.162  10.361  69.116  1.00  0.00    -0.239 A  
HETATM   10  C   UNL     1     -11.522  10.447  69.414  1.00  0.00    -0.227 A  
HETATM   11  O   UNL     1     -12.400  11.049  68.560  1.00  0.00    -0.762 OA 
HETATM   12  C   UNL     1     -12.034   9.920  70.592  1.00  0.00    -0.361 A  
HETATM   13  H   UNL     1     -13.326  11.108  68.763  1.00  0.00     0.000 HD 
HETATM   14  C   UNL     1     -11.182   9.263  71.474  1.00  0.00    -0.457 A  
HETATM   15  C   UNL     1      -9.826   9.137  71.166  1.00  0.00    -0.371 A  
ENDBRANCH   5   8
ENDBRANCH   4   5
ENDBRANCH   2   4
TORSDOF 3
ENDMDL
MODEL      212
REMARK 921   NORMALIZED FREE ENERGY PREDICTED BY IDOCK:   -2.61 KCAL/MOL
REMARK 922        TOTAL FREE ENERGY PREDICTED BY IDOCK:   -3.26 KCAL/MOL
REMARK 923 INTER-LIGAND FREE ENERGY PREDICTED BY IDOCK:   -3.06 KCAL/MOL
REMARK 924 INTRA-LIGAND FREE ENERGY PREDICTED BY IDOCK:   -0.21 KCAL/MOL
REMARK 927      BINDING AFFINITY PREDICTED BY RF-SCORE:    0.00 PKD
ROOT
HETATM    1  C   UNL     1      -6.601  10.442  66.831  1.00  0.00    -0.078 C  
HETATM    2  N   UNL     1      -7.387  11.290  65.944  1.00  0.00    -0.365 NA 
HETATM    3  H   UNL     1      -6.995  11.313  65.002  1.00  0.00     0.000 HD 
ENDROOT
BRANCH   2   4
HETATM    4  C   UNL     1      -8.803  10.881  65.932  1.00  0.00    -0.186 C  
BRANCH   4   5
HETATM    5  C   UNL     1      -9.755  11.815  66.731  1.00  0.00    -0.197 C  
HETATM    6  H   UNL     1      -9.595  13.568  67.555  1.00  0.00     0.000 HD 
HETATM    7  O   UNL     1      -9.013  12.997  67.066  1.00  0.00    -0.214 OA 
BRANCH   5   8
HETATM    8  C   UNL     1     -10.360  11.193  67.982  1.00  0.00    -0.208 A  
HETATM    9  C   UNL     1     -11.143  11.933  68.888  1.00  0.00    -0.299 A  
HETATM   10  C   UNL     1     -11.668  11.319  70.026  1.00  0.00    -0.346 A  
HETATM   11  O   UNL     1     -12.453  12.006  70.905  1.00  0.00    -0.369 OA 
HETATM   12  C   UNL     1     -11.412   9.984  70.303  1.00  0.00    -0.372 A  
HETATM   13  H   UNL     1     -12.810  11.588  71.680  1.00  0.00     0.000 HD 
HETATM   14  C   UNL     1     -10.649   9.234  69.414  1.00  0.00    -0.234 A  
HETATM   15  C   UNL     1     -10.152   9.828  68.252  1.00  0.00    -0.189 A  
ENDBRANCH   5   8
ENDBRANCH   4   5
ENDBRANCH   2   4
TORSDOF 3
ENDMDL
MODEL      213
REMARK 921   NORMALIZED FREE ENERGY PREDICTED BY IDOCK:   -2.61 KCAL/MOL
REMARK 922        TOTAL FREE ENERGY PREDICTED BY IDOCK:   -3.26 KCAL/MOL
REMARK 923 INTER-LIGAND FREE ENERGY PREDICTED BY IDOCK:   -3.20 KCAL/MOL
REMARK 924 INTRA-LIGAND FREE ENERGY PREDICTED BY IDOCK:   -0.06 KCAL/MOL
REMARK 927      BINDING AFFINITY PREDICTED BY RF-SCORE:    0.00 PKD
ROOT
HETATM    1  C   UNL     1      -6.158  13.642  69.835  1.00  0.00    -0.135 C  
HETATM    2  N   UNL     1      -7.414  13.948  69.162  1.00  0.00    -0.300 NA 
HETATM    3  H   UNL     1      -7.347  14.804  68.612  1.00  0.00     0.000 HD 
ENDROOT
BRANCH   2   4
HETATM    4  C   UNL     1      -7.869  12.811  68.341  1.00  0.00    -0.132 C  
BRANCH   4   5
HETATM    5  C   UNL     1      -9.348  12.900  67.871  1.00  0.00    -0.208 C  
HETATM    6  H   UNL     1     -10.343  12.271  66.324  1.00  0.00     0.000 HD 
HETATM    7  O   UNL     1      -9.439  12.216  66.612  1.00  0.00    -0.211 OA 
BRANCH   5   8
HETATM    8  C   UNL     1      -9.896  14.316  67.749  1.00  0.00    -0.223 A  
HETATM    9  C   UNL     1      -9.660  15.119  66.617  1.00  0.00    -0.272 A  
HETATM   10  C   UNL     1     -10.176  16.414  66.556  1.00  0.00    -0.304 A  
HETATM   11  O   UNL     1      -9.988  17.204  65.460  1.00  0.00    -0.565 OA 
HETATM   12  C   UNL     1     -10.905  16.946  67.611  1.00  0.00    -0.244 A  
HETATM   13  H   UNL     1     -10.339  18.085  65.419  1.00  0.00     0.000 HD 
HETATM   14  C   UNL     1     -11.155  16.163  68.734  1.00  0.00    -0.354 A  
HETATM   15  C   UNL     1     -10.678  14.852  68.787  1.00  0.00    -0.252 A  
ENDBRANCH   5   8
ENDBRANCH   4   5
ENDBRANCH   2   4
TORSDOF 3
ENDMDL
MODEL      214
REMARK 921   NORMALIZED FREE ENERGY PREDICTED BY IDOCK:   -2.60 KCAL/MOL
REMARK 922        TOTAL FREE ENERGY PREDICTED BY IDOCK:   -3.25 KCAL/MOL
REMARK 923 INTER-LIGAND FREE ENERGY PREDICTED BY IDOCK:   -3.06 KCAL/MOL
REMARK 924 INTRA-LIGAND FREE ENERGY PREDICTED BY IDOCK:   -0.19 KCAL/MOL
REMARK 927      BINDING AFFINITY PREDICTED BY RF-SCORE:    0.00 PKD
ROOT
HETATM    1  C   UNL     1      -8.471  10.295  69.679  1.00  0.00    -0.115 C  
HETATM    2  N   UNL     1      -9.910  10.322  69.908  1.00  0.00    -0.409 NA 
HETATM    3  H   UNL     1     -10.168  11.037  70.589  1.00  0.00     0.000 HD 
ENDROOT
BRANCH   2   4
HETATM    4  C   UNL     1     -10.647  10.487  68.642  1.00  0.00    -0.200 C  
BRANCH   4   5
HETATM    5  C   UNL     1     -10.111  11.620  67.722  1.00  0.00    -0.187 C  
HETATM    6  H   UNL     1     -10.708  13.407  67.245  1.00  0.00     0.000 HD 
HETATM    7  O   UNL     1     -11.036  12.715  67.807  1.00  0.00    -0.220 OA 
BRANCH   5   8
HETATM    8  C   UNL     1      -9.896  11.216  66.269  1.00  0.00    -0.253 A  
HETATM    9  C   UNL     1      -9.133  10.091  65.906  1.00  0.00    -0.195 A  
HETATM   10  C   UNL     1      -8.957   9.767  64.560  1.00  0.00    -0.238 A  
HETATM   11  O   UNL     1      -8.247   8.666  64.180  1.00  0.00    -0.160 OA 
HETATM   12  C   UNL     1      -9.504  10.554  63.556  1.00  0.00    -0.352 A  
HETATM   13  H   UNL     1      -8.127   8.446  63.264  1.00  0.00     0.000 HD 
HETATM   14  C   UNL     1     -10.269  11.665  63.896  1.00  0.00    -0.409 A  
HETATM   15  C   UNL     1     -10.484  11.975  65.241  1.00  0.00    -0.323 A  
ENDBRANCH   5   8
ENDBRANCH   4   5
ENDBRANCH   2   4
TORSDOF 3
ENDMDL
MODEL      215
REMARK 921   NORMALIZED FREE ENERGY PREDICTED BY IDOCK:   -2.59 KCAL/MOL
REMARK 922        TOTAL FREE ENERGY PREDICTED BY IDOCK:   -3.25 KCAL/MOL
REMARK 923 INTER-LIGAND FREE ENERGY PREDICTED BY IDOCK:   -3.10 KCAL/MOL
REMARK 924 INTRA-LIGAND FREE ENERGY PREDICTED BY IDOCK:   -0.15 KCAL/MOL
REMARK 927      BINDING AFFINITY PREDICTED BY RF-SCORE:    0.00 PKD
ROOT
HETATM    1  C   UNL     1      -6.239  10.379  65.618  1.00  0.00    -0.126 C  
HETATM    2  N   UNL     1      -7.453  10.995  65.099  1.00  0.00    -0.315 NA 
HETATM    3  H   UNL     1      -7.353  11.251  64.116  1.00  0.00     0.000 HD 
ENDROOT
BRANCH   2   4
HETATM    4  C   UNL     1      -8.626  10.128  65.316  1.00  0.00    -0.158 C  
BRANCH   4   5
HETATM    5  C   UNL     1      -9.998  10.823  65.089  1.00  0.00    -0.291 C  
HETATM    6  H   UNL     1     -10.825  11.794  63.622  1.00  0.00     0.000 HD 
HETATM    7  O   UNL     1      -9.986  11.369  63.761  1.00  0.00    -0.275 OA 
BRANCH   5   8
HETATM    8  C   UNL     1     -10.344  11.902  66.106  1.00  0.00    -0.261 A  
HETATM    9  C   UNL     1     -10.425  13.264  65.760  1.00  0.00    -0.289 A  
HETATM   10  C   UNL     1     -10.738  14.217  66.731  1.00  0.00    -0.286 A  
HETATM   11  O   UNL     1     -10.851  15.540  66.417  1.00  0.00    -0.308 OA 
HETATM   12  C   UNL     1     -10.948  13.852  68.053  1.00  0.00    -0.267 A  
HETATM   13  H   UNL     1     -11.063  16.189  67.078  1.00  0.00     0.000 HD 
HETATM   14  C   UNL     1     -10.881  12.509  68.411  1.00  0.00    -0.266 A  
HETATM   15  C   UNL     1     -10.609  11.543  67.440  1.00  0.00    -0.252 A  
ENDBRANCH   5   8
ENDBRANCH   4   5
ENDBRANCH   2   4
TORSDOF 3
ENDMDL
MODEL      216
REMARK 921   NORMALIZED FREE ENERGY PREDICTED BY IDOCK:   -2.58 KCAL/MOL
REMARK 922        TOTAL FREE ENERGY PREDICTED BY IDOCK:   -3.24 KCAL/MOL
REMARK 923 INTER-LIGAND FREE ENERGY PREDICTED BY IDOCK:   -3.10 KCAL/MOL
REMARK 924 INTRA-LIGAND FREE ENERGY PREDICTED BY IDOCK:   -0.14 KCAL/MOL
REMARK 927      BINDING AFFINITY PREDICTED BY RF-SCORE:    0.00 PKD
ROOT
HETATM    1  C   UNL     1      -7.682  14.872  68.229  1.00  0.00    -0.113 C  
HETATM    2  N   UNL     1      -6.672  14.826  67.180  1.00  0.00    -0.341 NA 
HETATM    3  H   UNL     1      -7.047  14.438  66.314  1.00  0.00     0.000 HD 
ENDROOT
BRANCH   2   4
HETATM    4  C   UNL     1      -6.070  16.154  66.962  1.00  0.00     0.033 C  
BRANCH   4   5
HETATM    5  C   UNL     1      -7.007  17.352  67.284  1.00  0.00    -0.168 C  
HETATM    6  H   UNL     1      -7.779  18.812  66.259  1.00  0.00     0.000 HD 
HETATM    7  O   UNL     1      -7.206  18.080  66.063  1.00  0.00    -0.290 OA 
BRANCH   5   8
HETATM    8  C   UNL     1      -6.504  18.281  68.381  1.00  0.00    -0.208 A  
HETATM    9  C   UNL     1      -6.103  17.806  69.644  1.00  0.00    -0.240 A  
HETATM   10  C   UNL     1      -5.658  18.698  70.620  1.00  0.00    -0.178 A  
HETATM   11  O   UNL     1      -5.237  18.263  71.842  1.00  0.00    -0.613 OA 
HETATM   12  C   UNL     1      -5.625  20.065  70.381  1.00  0.00    -0.318 A  
HETATM   13  H   UNL     1      -4.934  18.870  72.507  1.00  0.00     0.000 HD 
HETATM   14  C   UNL     1      -6.009  20.552  69.136  1.00  0.00    -0.382 A  
HETATM   15  C   UNL     1      -6.417  19.663  68.139  1.00  0.00    -0.280 A  
ENDBRANCH   5   8
ENDBRANCH   4   5
ENDBRANCH   2   4
TORSDOF 3
ENDMDL
MODEL      217
REMARK 921   NORMALIZED FREE ENERGY PREDICTED BY IDOCK:   -2.57 KCAL/MOL
REMARK 922        TOTAL FREE ENERGY PREDICTED BY IDOCK:   -3.22 KCAL/MOL
REMARK 923 INTER-LIGAND FREE ENERGY PREDICTED BY IDOCK:   -3.06 KCAL/MOL
REMARK 924 INTRA-LIGAND FREE ENERGY PREDICTED BY IDOCK:   -0.16 KCAL/MOL
REMARK 927      BINDING AFFINITY PREDICTED BY RF-SCORE:    0.00 PKD
ROOT
HETATM    1  C   UNL     1     -12.371  14.595  70.292  1.00  0.00    -0.349 C  
HETATM    2  N   UNL     1     -12.704  13.214  70.617  1.00  0.00    -0.188 NA 
HETATM    3  H   UNL     1     -13.661  12.986  70.348  1.00  0.00     0.000 HD 
ENDROOT
BRANCH   2   4
HETATM    4  C   UNL     1     -11.735  12.278  70.019  1.00  0.00    -0.242 C  
BRANCH   4   5
HETATM    5  C   UNL     1     -11.330  12.610  68.555  1.00  0.00    -0.296 C  
HETATM    6  H   UNL     1     -11.870  11.976  66.798  1.00  0.00     0.000 HD 
HETATM    7  O   UNL     1     -12.117  11.773  67.693  1.00  0.00    -0.598 OA 
BRANCH   5   8
HETATM    8  C   UNL     1      -9.848  12.445  68.248  1.00  0.00    -0.224 A  
HETATM    9  C   UNL     1      -9.060  13.502  67.754  1.00  0.00    -0.207 A  
HETATM   10  C   UNL     1      -7.707  13.299  67.479  1.00  0.00    -0.171 A  
HETATM   11  O   UNL     1      -6.913  14.312  67.027  1.00  0.00    -0.374 OA 
HETATM   12  C   UNL     1      -7.117  12.055  67.659  1.00  0.00    -0.118 A  
HETATM   13  H   UNL     1      -5.992  14.174  66.840  1.00  0.00     0.000 HD 
HETATM   14  C   UNL     1      -7.878  11.002  68.155  1.00  0.00    -0.116 A  
HETATM   15  C   UNL     1      -9.223  11.205  68.472  1.00  0.00    -0.183 A  
ENDBRANCH   5   8
ENDBRANCH   4   5
ENDBRANCH   2   4
TORSDOF 3
ENDMDL
MODEL      218
REMARK 921   NORMALIZED FREE ENERGY PREDICTED BY IDOCK:   -2.55 KCAL/MOL
REMARK 922        TOTAL FREE ENERGY PREDICTED BY IDOCK:   -3.20 KCAL/MOL
REMARK 923 INTER-LIGAND FREE ENERGY PREDICTED BY IDOCK:   -3.07 KCAL/MOL
REMARK 924 INTRA-LIGAND FREE ENERGY PREDICTED BY IDOCK:   -0.13 KCAL/MOL
REMARK 927      BINDING AFFINITY PREDICTED BY RF-SCORE:    0.00 PKD
ROOT
HETATM    1  C   UNL     1     -11.239   6.101  72.025  1.00  0.00    -0.286 C  
HETATM    2  N   UNL     1     -11.518   7.018  70.927  1.00  0.00    -0.292 NA 
HETATM    3  H   UNL     1     -11.848   7.921  71.267  1.00  0.00     0.000 HD 
ENDROOT
BRANCH   2   4
HETATM    4  C   UNL     1     -10.345   7.165  70.046  1.00  0.00    -0.208 C  
BRANCH   4   5
HETATM    5  C   UNL     1     -10.659   7.067  68.526  1.00  0.00    -0.202 C  
HETATM    6  H   UNL     1      -9.975   6.013  67.043  1.00  0.00     0.000 HD 
HETATM    7  O   UNL     1      -9.783   6.073  67.972  1.00  0.00    -0.115 OA 
BRANCH   5   8
HETATM    8  C   UNL     1     -10.531   8.377  67.760  1.00  0.00    -0.284 A  
HETATM    9  C   UNL     1     -10.993   9.600  68.280  1.00  0.00    -0.172 A  
HETATM   10  C   UNL     1     -10.861  10.773  67.535  1.00  0.00    -0.288 A  
HETATM   11  O   UNL     1     -11.275  11.977  68.026  1.00  0.00    -0.222 OA 
HETATM   12  C   UNL     1     -10.300  10.757  66.266  1.00  0.00    -0.303 A  
HETATM   13  H   UNL     1     -11.185  12.775  67.518  1.00  0.00     0.000 HD 
HETATM   14  C   UNL     1      -9.828   9.558  65.740  1.00  0.00    -0.363 A  
HETATM   15  C   UNL     1      -9.919   8.386  66.494  1.00  0.00    -0.335 A  
ENDBRANCH   5   8
ENDBRANCH   4   5
ENDBRANCH   2   4
TORSDOF 3
ENDMDL
MODEL      219
REMARK 921   NORMALIZED FREE ENERGY PREDICTED BY IDOCK:   -2.55 KCAL/MOL
REMARK 922        TOTAL FREE ENERGY PREDICTED BY IDOCK:   -3.19 KCAL/MOL
REMARK 923 INTER-LIGAND FREE ENERGY PREDICTED BY IDOCK:   -3.06 KCAL/MOL
REMARK 924 INTRA-LIGAND FREE ENERGY PREDICTED BY IDOCK:   -0.13 KCAL/MOL
REMARK 927      BINDING AFFINITY PREDICTED BY RF-SCORE:    0.00 PKD
ROOT
HETATM    1  C   UNL     1      -7.115  11.003  69.016  1.00  0.00    -0.106 C  
HETATM    2  N   UNL     1      -7.550   9.644  69.312  1.00  0.00    -0.085 NA 
HETATM    3  H   UNL     1      -6.941   9.197  69.998  1.00  0.00     0.000 HD 
ENDROOT
BRANCH   2   4
HETATM    4  C   UNL     1      -8.960   9.618  69.739  1.00  0.00    -0.211 C  
BRANCH   4   5
HETATM    5  C   UNL     1      -9.177   9.290  71.243  1.00  0.00    -0.091 C  
HETATM    6  H   UNL     1      -8.041   8.685  72.700  1.00  0.00     0.000 HD 
HETATM    7  O   UNL     1      -7.909   8.885  71.780  1.00  0.00    -0.299 OA 
BRANCH   5   8
HETATM    8  C   UNL     1     -10.235   8.230  71.520  1.00  0.00    -0.277 A  
HETATM    9  C   UNL     1     -11.531   8.299  70.974  1.00  0.00    -0.303 A  
HETATM   10  C   UNL     1     -12.468   7.307  71.266  1.00  0.00    -0.366 A  
HETATM   11  O   UNL     1     -13.722   7.334  70.728  1.00  0.00    -0.553 OA 
HETATM   12  C   UNL     1     -12.158   6.253  72.114  1.00  0.00    -0.304 A  
HETATM   13  H   UNL     1     -14.360   6.659  70.926  1.00  0.00     0.000 HD 
HETATM   14  C   UNL     1     -10.879   6.164  72.655  1.00  0.00    -0.279 A  
HETATM   15  C   UNL     1      -9.922   7.129  72.337  1.00  0.00    -0.190 A  
ENDBRANCH   5   8
ENDBRANCH   4   5
ENDBRANCH   2   4
TORSDOF 3
ENDMDL
MODEL      220
REMARK 921   NORMALIZED FREE ENERGY PREDICTED BY IDOCK:   -2.53 KCAL/MOL
REMARK 922        TOTAL FREE ENERGY PREDICTED BY IDOCK:   -3.18 KCAL/MOL
REMARK 923 INTER-LIGAND FREE ENERGY PREDICTED BY IDOCK:   -3.11 KCAL/MOL
REMARK 924 INTRA-LIGAND FREE ENERGY PREDICTED BY IDOCK:   -0.07 KCAL/MOL
REMARK 927      BINDING AFFINITY PREDICTED BY RF-SCORE:    0.00 PKD
ROOT
HETATM    1  C   UNL     1      -9.674  20.082  66.046  1.00  0.00    -0.362 C  
HETATM    2  N   UNL     1      -8.288  20.303  65.652  1.00  0.00    -0.460 NA 
HETATM    3  H   UNL     1      -8.018  21.280  65.763  1.00  0.00     0.000 HD 
ENDROOT
BRANCH   2   4
HETATM    4  C   UNL     1      -7.377  19.402  66.381  1.00  0.00    -0.252 C  
BRANCH   4   5
HETATM    5  C   UNL     1      -7.887  18.958  67.781  1.00  0.00    -0.243 C  
HETATM    6  H   UNL     1      -7.157  18.973  69.582  1.00  0.00     0.000 HD 
HETATM    7  O   UNL     1      -6.845  19.245  68.727  1.00  0.00    -0.285 OA 
BRANCH   5   8
HETATM    8  C   UNL     1      -8.304  17.496  67.876  1.00  0.00    -0.229 A  
HETATM    9  C   UNL     1      -9.545  17.100  68.408  1.00  0.00    -0.281 A  
HETATM   10  C   UNL     1      -9.878  15.747  68.482  1.00  0.00    -0.209 A  
HETATM   11  O   UNL     1     -11.085  15.338  68.967  1.00  0.00    -0.234 OA 
HETATM   12  C   UNL     1      -8.991  14.767  68.060  1.00  0.00    -0.174 A  
HETATM   13  H   UNL     1     -11.312  14.416  69.017  1.00  0.00     0.000 HD 
HETATM   14  C   UNL     1      -7.763  15.139  67.522  1.00  0.00    -0.205 A  
HETATM   15  C   UNL     1      -7.437  16.492  67.407  1.00  0.00    -0.177 A  
ENDBRANCH   5   8
ENDBRANCH   4   5
ENDBRANCH   2   4
TORSDOF 3
ENDMDL
MODEL      221
REMARK 921   NORMALIZED FREE ENERGY PREDICTED BY IDOCK:   -2.52 KCAL/MOL
REMARK 922        TOTAL FREE ENERGY PREDICTED BY IDOCK:   -3.16 KCAL/MOL
REMARK 923 INTER-LIGAND FREE ENERGY PREDICTED BY IDOCK:   -3.00 KCAL/MOL
REMARK 924 INTRA-LIGAND FREE ENERGY PREDICTED BY IDOCK:   -0.16 KCAL/MOL
REMARK 927      BINDING AFFINITY PREDICTED BY RF-SCORE:    0.00 PKD
ROOT
HETATM    1  C   UNL     1      -9.497  10.210  69.554  1.00  0.00    -0.214 C  
HETATM    2  N   UNL     1     -10.862  10.584  69.901  1.00  0.00    -0.330 NA 
HETATM    3  H   UNL     1     -11.527  10.280  69.190  1.00  0.00     0.000 HD 
ENDROOT
BRANCH   2   4
HETATM    4  C   UNL     1     -11.228  10.082  71.238  1.00  0.00    -0.200 C  
BRANCH   4   5
HETATM    5  C   UNL     1     -11.852   8.658  71.248  1.00  0.00    -0.295 C  
HETATM    6  H   UNL     1     -13.491   7.876  71.941  1.00  0.00     0.000 HD 
HETATM    7  O   UNL     1     -13.109   8.746  71.935  1.00  0.00    -0.333 OA 
BRANCH   5   8
HETATM    8  C   UNL     1     -10.977   7.581  71.874  1.00  0.00    -0.272 A  
HETATM    9  C   UNL     1      -9.932   7.885  72.767  1.00  0.00    -0.348 A  
HETATM   10  C   UNL     1      -9.152   6.862  73.308  1.00  0.00    -0.135 A  
HETATM   11  O   UNL     1      -8.151   7.126  74.197  1.00  0.00    -0.117 OA 
HETATM   12  C   UNL     1      -9.368   5.536  72.962  1.00  0.00    -0.140 A  
HETATM   13  H   UNL     1      -7.620   6.430  74.565  1.00  0.00     0.000 HD 
HETATM   14  C   UNL     1     -10.402   5.216  72.088  1.00  0.00    -0.272 A  
HETATM   15  C   UNL     1     -11.214   6.228  71.573  1.00  0.00    -0.344 A  
ENDBRANCH   5   8
ENDBRANCH   4   5
ENDBRANCH   2   4
TORSDOF 3
ENDMDL
MODEL      222
REMARK 921   NORMALIZED FREE ENERGY PREDICTED BY IDOCK:   -2.52 KCAL/MOL
REMARK 922        TOTAL FREE ENERGY PREDICTED BY IDOCK:   -3.16 KCAL/MOL
REMARK 923 INTER-LIGAND FREE ENERGY PREDICTED BY IDOCK:   -3.16 KCAL/MOL
REMARK 924 INTRA-LIGAND FREE ENERGY PREDICTED BY IDOCK:    0.00 KCAL/MOL
REMARK 927      BINDING AFFINITY PREDICTED BY RF-SCORE:    0.00 PKD
ROOT
HETATM    1  C   UNL     1      -9.904   4.044  65.809  1.00  0.00    -0.176 C  
HETATM    2  N   UNL     1      -9.681   3.169  66.952  1.00  0.00    -0.394 NA 
HETATM    3  H   UNL     1      -9.033   2.414  66.726  1.00  0.00     0.000 HD 
ENDROOT
BRANCH   2   4
HETATM    4  C   UNL     1      -9.234   3.934  68.129  1.00  0.00    -0.156 C  
BRANCH   4   5
HETATM    5  C   UNL     1      -9.937   5.308  68.316  1.00  0.00    -0.156 C  
HETATM    6  H   UNL     1      -9.448   7.162  67.994  1.00  0.00     0.000 HD 
HETATM    7  O   UNL     1      -9.018   6.322  67.881  1.00  0.00    -0.116 OA 
BRANCH   5   8
HETATM    8  C   UNL     1     -10.415   5.596  69.733  1.00  0.00    -0.377 A  
HETATM    9  C   UNL     1     -10.011   4.820  70.835  1.00  0.00    -0.283 A  
HETATM   10  C   UNL     1     -10.484   5.117  72.114  1.00  0.00    -0.220 A  
HETATM   11  O   UNL     1     -10.086   4.399  73.204  1.00  0.00    -0.139 OA 
HETATM   12  C   UNL     1     -11.376   6.159  72.324  1.00  0.00    -0.346 A  
HETATM   13  H   UNL     1     -10.408   4.602  74.074  1.00  0.00     0.000 HD 
HETATM   14  C   UNL     1     -11.779   6.943  71.247  1.00  0.00    -0.371 A  
HETATM   15  C   UNL     1     -11.281   6.678  69.970  1.00  0.00    -0.425 A  
ENDBRANCH   5   8
ENDBRANCH   4   5
ENDBRANCH   2   4
TORSDOF 3
ENDMDL
MODEL      223
REMARK 921   NORMALIZED FREE ENERGY PREDICTED BY IDOCK:   -2.50 KCAL/MOL
REMARK 922        TOTAL FREE ENERGY PREDICTED BY IDOCK:   -3.14 KCAL/MOL
REMARK 923 INTER-LIGAND FREE ENERGY PREDICTED BY IDOCK:   -2.96 KCAL/MOL
REMARK 924 INTRA-LIGAND FREE ENERGY PREDICTED BY IDOCK:   -0.18 KCAL/MOL
REMARK 927      BINDING AFFINITY PREDICTED BY RF-SCORE:    0.00 PKD
ROOT
HETATM    1  C   UNL     1      -6.590   3.596  70.755  1.00  0.00    -0.032 C  
HETATM    2  N   UNL     1      -7.351   3.404  69.527  1.00  0.00    -0.045 NA 
HETATM    3  H   UNL     1      -7.003   2.609  68.990  1.00  0.00     0.000 HD 
ENDROOT
BRANCH   2   4
HETATM    4  C   UNL     1      -8.793   3.279  69.808  1.00  0.00    -0.094 C  
BRANCH   4   5
HETATM    5  C   UNL     1      -9.671   4.415  69.211  1.00  0.00    -0.182 C  
HETATM    6  H   UNL     1      -9.345   5.954  68.070  1.00  0.00     0.000 HD 
HETATM    7  O   UNL     1      -8.809   5.260  68.435  1.00  0.00    -0.101 OA 
BRANCH   5   8
HETATM    8  C   UNL     1     -10.439   5.237  70.238  1.00  0.00    -0.332 A  
HETATM    9  C   UNL     1     -10.353   4.985  71.620  1.00  0.00    -0.262 A  
HETATM   10  C   UNL     1     -11.084   5.761  72.521  1.00  0.00    -0.279 A  
HETATM   11  O   UNL     1     -10.998   5.557  73.867  1.00  0.00    -0.386 OA 
HETATM   12  C   UNL     1     -11.925   6.773  72.079  1.00  0.00    -0.355 A  
HETATM   13  H   UNL     1     -11.496   6.085  74.480  1.00  0.00     0.000 HD 
HETATM   14  C   UNL     1     -12.015   7.042  70.717  1.00  0.00    -0.392 A  
HETATM   15  C   UNL     1     -11.257   6.298  69.810  1.00  0.00    -0.499 A  
ENDBRANCH   5   8
ENDBRANCH   4   5
ENDBRANCH   2   4
TORSDOF 3
ENDMDL
MODEL      224
REMARK 921   NORMALIZED FREE ENERGY PREDICTED BY IDOCK:   -2.50 KCAL/MOL
REMARK 922        TOTAL FREE ENERGY PREDICTED BY IDOCK:   -3.14 KCAL/MOL
REMARK 923 INTER-LIGAND FREE ENERGY PREDICTED BY IDOCK:   -2.95 KCAL/MOL
REMARK 924 INTRA-LIGAND FREE ENERGY PREDICTED BY IDOCK:   -0.19 KCAL/MOL
REMARK 927      BINDING AFFINITY PREDICTED BY RF-SCORE:    0.00 PKD
ROOT
HETATM    1  C   UNL     1      -8.744  10.230  66.120  1.00  0.00    -0.152 C  
HETATM    2  N   UNL     1      -8.614  10.118  67.567  1.00  0.00    -0.119 NA 
HETATM    3  H   UNL     1      -7.876   9.463  67.827  1.00  0.00     0.000 HD 
ENDROOT
BRANCH   2   4
HETATM    4  C   UNL     1      -8.410  11.439  68.187  1.00  0.00    -0.149 C  
BRANCH   4   5
HETATM    5  C   UNL     1      -8.218  12.607  67.178  1.00  0.00    -0.159 C  
HETATM    6  H   UNL     1      -6.756  13.801  66.714  1.00  0.00     0.000 HD 
HETATM    7  O   UNL     1      -6.874  13.088  67.331  1.00  0.00    -0.164 OA 
BRANCH   5   8
HETATM    8  C   UNL     1      -9.213  13.750  67.326  1.00  0.00    -0.239 A  
HETATM    9  C   UNL     1     -10.392  13.628  68.084  1.00  0.00    -0.245 A  
HETATM   10  C   UNL     1     -11.278  14.702  68.181  1.00  0.00    -0.289 A  
HETATM   11  O   UNL     1     -12.414  14.621  68.932  1.00  0.00    -0.576 OA 
HETATM   12  C   UNL     1     -11.032  15.896  67.518  1.00  0.00    -0.280 A  
HETATM   13  H   UNL     1     -13.017  15.352  68.998  1.00  0.00     0.000 HD 
HETATM   14  C   UNL     1      -9.867  16.038  66.772  1.00  0.00    -0.260 A  
HETATM   15  C   UNL     1      -8.955  14.983  66.701  1.00  0.00    -0.313 A  
ENDBRANCH   5   8
ENDBRANCH   4   5
ENDBRANCH   2   4
TORSDOF 3
ENDMDL
MODEL      225
REMARK 921   NORMALIZED FREE ENERGY PREDICTED BY IDOCK:   -2.47 KCAL/MOL
REMARK 922        TOTAL FREE ENERGY PREDICTED BY IDOCK:   -3.11 KCAL/MOL
REMARK 923 INTER-LIGAND FREE ENERGY PREDICTED BY IDOCK:   -2.91 KCAL/MOL
REMARK 924 INTRA-LIGAND FREE ENERGY PREDICTED BY IDOCK:   -0.19 KCAL/MOL
REMARK 927      BINDING AFFINITY PREDICTED BY RF-SCORE:    0.00 PKD
ROOT
HETATM    1  C   UNL     1     -13.286   7.718  71.553  1.00  0.00    -0.320 C  
HETATM    2  N   UNL     1     -12.936   8.885  70.755  1.00  0.00    -0.435 NA 
HETATM    3  H   UNL     1     -13.765   9.413  70.479  1.00  0.00     0.000 HD 
ENDROOT
BRANCH   2   4
HETATM    4  C   UNL     1     -11.958   9.737  71.456  1.00  0.00    -0.407 C  
BRANCH   4   5
HETATM    5  C   UNL     1     -10.504   9.632  70.918  1.00  0.00    -0.289 C  
HETATM    6  H   UNL     1      -9.685   9.585  69.156  1.00  0.00     0.000 HD 
HETATM    7  O   UNL     1     -10.574   9.649  69.484  1.00  0.00    -0.208 OA 
BRANCH   5   8
HETATM    8  C   UNL     1      -9.731   8.410  71.399  1.00  0.00    -0.260 A  
HETATM    9  C   UNL     1      -9.162   7.481  70.507  1.00  0.00    -0.157 A  
HETATM   10  C   UNL     1      -8.470   6.373  70.997  1.00  0.00    -0.127 A  
HETATM   11  O   UNL     1      -7.885   5.472  70.156  1.00  0.00    -0.085 OA 
HETATM   12  C   UNL     1      -8.350   6.147  72.361  1.00  0.00    -0.115 A  
HETATM   13  H   UNL     1      -7.415   4.717  70.489  1.00  0.00     0.000 HD 
HETATM   14  C   UNL     1      -8.898   7.060  73.257  1.00  0.00    -0.155 A  
HETATM   15  C   UNL     1      -9.557   8.194  72.777  1.00  0.00    -0.353 A  
ENDBRANCH   5   8
ENDBRANCH   4   5
ENDBRANCH   2   4
TORSDOF 3
ENDMDL
MODEL      226
REMARK 921   NORMALIZED FREE ENERGY PREDICTED BY IDOCK:   -2.46 KCAL/MOL
REMARK 922        TOTAL FREE ENERGY PREDICTED BY IDOCK:   -3.09 KCAL/MOL
REMARK 923 INTER-LIGAND FREE ENERGY PREDICTED BY IDOCK:   -2.97 KCAL/MOL
REMARK 924 INTRA-LIGAND FREE ENERGY PREDICTED BY IDOCK:   -0.12 KCAL/MOL
REMARK 927      BINDING AFFINITY PREDICTED BY RF-SCORE:    0.00 PKD
ROOT
HETATM    1  C   UNL     1     -10.702   7.459  73.234  1.00  0.00    -0.391 C  
HETATM    2  N   UNL     1     -10.973   7.633  71.813  1.00  0.00    -0.235 NA 
HETATM    3  H   UNL     1     -11.960   7.485  71.599  1.00  0.00     0.000 HD 
ENDROOT
BRANCH   2   4
HETATM    4  C   UNL     1     -10.505   8.947  71.337  1.00  0.00    -0.305 C  
BRANCH   4   5
HETATM    5  C   UNL     1      -9.301   8.891  70.355  1.00  0.00    -0.193 C  
HETATM    6  H   UNL     1      -7.453   9.489  70.405  1.00  0.00     0.000 HD 
HETATM    7  O   UNL     1      -8.188   9.523  71.005  1.00  0.00    -0.301 OA 
BRANCH   5   8
HETATM    8  C   UNL     1      -9.555   9.526  68.995  1.00  0.00    -0.166 A  
HETATM    9  C   UNL     1      -9.277  10.881  68.733  1.00  0.00    -0.187 A  
HETATM   10  C   UNL     1      -9.535  11.419  67.472  1.00  0.00    -0.167 A  
HETATM   11  O   UNL     1      -9.249  12.721  67.183  1.00  0.00    -0.204 OA 
HETATM   12  C   UNL     1     -10.093  10.646  66.463  1.00  0.00    -0.275 A  
HETATM   13  H   UNL     1      -9.425  13.088  66.324  1.00  0.00     0.000 HD 
HETATM   14  C   UNL     1     -10.366   9.303  66.701  1.00  0.00    -0.292 A  
HETATM   15  C   UNL     1     -10.073   8.745  67.947  1.00  0.00    -0.257 A  
ENDBRANCH   5   8
ENDBRANCH   4   5
ENDBRANCH   2   4
TORSDOF 3
ENDMDL
MODEL      227
REMARK 921   NORMALIZED FREE ENERGY PREDICTED BY IDOCK:   -2.44 KCAL/MOL
REMARK 922        TOTAL FREE ENERGY PREDICTED BY IDOCK:   -3.06 KCAL/MOL
REMARK 923 INTER-LIGAND FREE ENERGY PREDICTED BY IDOCK:   -2.93 KCAL/MOL
REMARK 924 INTRA-LIGAND FREE ENERGY PREDICTED BY IDOCK:   -0.13 KCAL/MOL
REMARK 927      BINDING AFFINITY PREDICTED BY RF-SCORE:    0.00 PKD
ROOT
HETATM    1  C   UNL     1     -10.437   3.970  64.483  1.00  0.00    -0.197 C  
HETATM    2  N   UNL     1     -10.408   4.153  65.928  1.00  0.00    -0.455 NA 
HETATM    3  H   UNL     1     -10.034   3.332  66.403  1.00  0.00     0.000 HD 
ENDROOT
BRANCH   2   4
HETATM    4  C   UNL     1      -9.670   5.375  66.295  1.00  0.00    -0.162 C  
BRANCH   4   5
HETATM    5  C   UNL     1      -9.144   5.401  67.758  1.00  0.00    -0.108 C  
HETATM    6  H   UNL     1      -8.882   4.072  69.152  1.00  0.00     0.000 HD 
HETATM    7  O   UNL     1      -9.203   4.056  68.258  1.00  0.00    -0.127 OA 
BRANCH   5   8
HETATM    8  C   UNL     1      -9.889   6.348  68.689  1.00  0.00    -0.152 A  
HETATM    9  C   UNL     1      -9.591   7.722  68.761  1.00  0.00    -0.154 A  
HETATM   10  C   UNL     1     -10.296   8.548  69.637  1.00  0.00    -0.218 A  
HETATM   11  O   UNL     1     -10.047   9.888  69.706  1.00  0.00    -0.214 OA 
HETATM   12  C   UNL     1     -11.281   8.036  70.469  1.00  0.00    -0.252 A  
HETATM   13  H   UNL     1     -10.527  10.450  70.303  1.00  0.00     0.000 HD 
HETATM   14  C   UNL     1     -11.596   6.682  70.405  1.00  0.00    -0.457 A  
HETATM   15  C   UNL     1     -10.924   5.854  69.503  1.00  0.00    -0.438 A  
ENDBRANCH   5   8
ENDBRANCH   4   5
ENDBRANCH   2   4
TORSDOF 3
ENDMDL
MODEL      228
REMARK 921   NORMALIZED FREE ENERGY PREDICTED BY IDOCK:   -2.44 KCAL/MOL
REMARK 922        TOTAL FREE ENERGY PREDICTED BY IDOCK:   -3.06 KCAL/MOL
REMARK 923 INTER-LIGAND FREE ENERGY PREDICTED BY IDOCK:   -3.04 KCAL/MOL
REMARK 924 INTRA-LIGAND FREE ENERGY PREDICTED BY IDOCK:   -0.02 KCAL/MOL
REMARK 927      BINDING AFFINITY PREDICTED BY RF-SCORE:    0.00 PKD
ROOT
HETATM    1  C   UNL     1      -8.571   6.522  69.033  1.00  0.00    -0.125 C  
HETATM    2  N   UNL     1      -9.304   7.771  68.875  1.00  0.00    -0.147 NA 
HETATM    3  H   UNL     1     -10.276   7.676  69.171  1.00  0.00     0.000 HD 
ENDROOT
BRANCH   2   4
HETATM    4  C   UNL     1      -8.629   8.878  69.575  1.00  0.00    -0.134 C  
BRANCH   4   5
HETATM    5  C   UNL     1      -9.311   9.320  70.900  1.00  0.00    -0.245 C  
HETATM    6  H   UNL     1      -8.764   9.433  72.762  1.00  0.00     0.000 HD 
HETATM    7  O   UNL     1      -8.347   9.163  71.952  1.00  0.00    -0.333 OA 
BRANCH   5   8
HETATM    8  C   UNL     1     -10.595   8.573  71.238  1.00  0.00    -0.296 A  
HETATM    9  C   UNL     1     -10.593   7.354  71.941  1.00  0.00    -0.233 A  
HETATM   10  C   UNL     1     -11.796   6.703  72.219  1.00  0.00    -0.252 A  
HETATM   11  O   UNL     1     -11.826   5.534  72.923  1.00  0.00    -0.513 OA 
HETATM   12  C   UNL     1     -13.009   7.223  71.791  1.00  0.00    -0.368 A  
HETATM   13  H   UNL     1     -12.644   5.091  73.112  1.00  0.00     0.000 HD 
HETATM   14  C   UNL     1     -13.031   8.433  71.104  1.00  0.00    -0.065 A  
HETATM   15  C   UNL     1     -11.836   9.112  70.855  1.00  0.00    -0.327 A  
ENDBRANCH   5   8
ENDBRANCH   4   5
ENDBRANCH   2   4
TORSDOF 3
ENDMDL
MODEL      229
REMARK 921   NORMALIZED FREE ENERGY PREDICTED BY IDOCK:   -2.42 KCAL/MOL
REMARK 922        TOTAL FREE ENERGY PREDICTED BY IDOCK:   -3.04 KCAL/MOL
REMARK 923 INTER-LIGAND FREE ENERGY PREDICTED BY IDOCK:   -2.95 KCAL/MOL
REMARK 924 INTRA-LIGAND FREE ENERGY PREDICTED BY IDOCK:   -0.09 KCAL/MOL
REMARK 927      BINDING AFFINITY PREDICTED BY RF-SCORE:    0.00 PKD
ROOT
HETATM    1  C   UNL     1      -8.486   6.183  66.274  1.00  0.00    -0.132 C  
HETATM    2  N   UNL     1      -9.459   7.215  65.942  1.00  0.00    -0.393 NA 
HETATM    3  H   UNL     1     -10.414   6.900  66.115  1.00  0.00     0.000 HD 
ENDROOT
BRANCH   2   4
HETATM    4  C   UNL     1      -9.165   8.473  66.653  1.00  0.00    -0.177 C  
BRANCH   4   5
HETATM    5  C   UNL     1      -9.818   9.739  66.030  1.00  0.00    -0.274 C  
HETATM    6  H   UNL     1      -9.304  11.025  64.666  1.00  0.00     0.000 HD 
HETATM    7  O   UNL     1      -8.906  10.251  65.047  1.00  0.00    -0.166 OA 
BRANCH   5   8
HETATM    8  C   UNL     1     -10.189  10.825  67.030  1.00  0.00    -0.261 A  
HETATM    9  C   UNL     1      -9.319  11.885  67.347  1.00  0.00    -0.176 A  
HETATM   10  C   UNL     1      -9.702  12.852  68.278  1.00  0.00    -0.217 A  
HETATM   11  O   UNL     1      -8.891  13.905  68.583  1.00  0.00    -0.280 OA 
HETATM   12  C   UNL     1     -10.927  12.779  68.926  1.00  0.00    -0.275 A  
HETATM   13  H   UNL     1      -9.151  14.564  69.217  1.00  0.00     0.000 HD 
HETATM   14  C   UNL     1     -11.804  11.743  68.618  1.00  0.00    -0.369 A  
HETATM   15  C   UNL     1     -11.447  10.793  67.659  1.00  0.00    -0.234 A  
ENDBRANCH   5   8
ENDBRANCH   4   5
ENDBRANCH   2   4
TORSDOF 3
ENDMDL
MODEL      230
REMARK 921   NORMALIZED FREE ENERGY PREDICTED BY IDOCK:   -2.42 KCAL/MOL
REMARK 922        TOTAL FREE ENERGY PREDICTED BY IDOCK:   -3.04 KCAL/MOL
REMARK 923 INTER-LIGAND FREE ENERGY PREDICTED BY IDOCK:   -2.91 KCAL/MOL
REMARK 924 INTRA-LIGAND FREE ENERGY PREDICTED BY IDOCK:   -0.13 KCAL/MOL
REMARK 927      BINDING AFFINITY PREDICTED BY RF-SCORE:    0.00 PKD
ROOT
HETATM    1  C   UNL     1      -8.928  10.281  68.445  1.00  0.00    -0.132 C  
HETATM    2  N   UNL     1      -8.834   8.843  68.665  1.00  0.00    -0.137 NA 
HETATM    3  H   UNL     1      -8.591   8.627  69.631  1.00  0.00     0.000 HD 
ENDROOT
BRANCH   2   4
HETATM    4  C   UNL     1     -10.073   8.159  68.250  1.00  0.00    -0.197 C  
BRANCH   4   5
HETATM    5  C   UNL     1     -10.241   6.721  68.817  1.00  0.00    -0.175 C  
HETATM    6  H   UNL     1     -11.299   5.164  68.334  1.00  0.00     0.000 HD 
HETATM    7  O   UNL     1     -11.196   6.043  67.988  1.00  0.00    -0.253 OA 
BRANCH   5   8
HETATM    8  C   UNL     1     -10.662   6.656  70.279  1.00  0.00    -0.294 A  
HETATM    9  C   UNL     1     -11.667   7.485  70.810  1.00  0.00    -0.281 A  
HETATM   10  C   UNL     1     -12.012   7.393  72.160  1.00  0.00    -0.270 A  
HETATM   11  O   UNL     1     -13.001   8.165  72.694  1.00  0.00    -0.576 OA 
HETATM   12  C   UNL     1     -11.360   6.509  73.008  1.00  0.00    -0.097 A  
HETATM   13  H   UNL     1     -13.236   8.102  73.613  1.00  0.00     0.000 HD 
HETATM   14  C   UNL     1     -10.370   5.675  72.498  1.00  0.00    -0.240 A  
HETATM   15  C   UNL     1     -10.046   5.731  71.141  1.00  0.00    -0.257 A  
ENDBRANCH   5   8
ENDBRANCH   4   5
ENDBRANCH   2   4
TORSDOF 3
ENDMDL
MODEL      231
REMARK 921   NORMALIZED FREE ENERGY PREDICTED BY IDOCK:   -2.41 KCAL/MOL
REMARK 922        TOTAL FREE ENERGY PREDICTED BY IDOCK:   -3.04 KCAL/MOL
REMARK 923 INTER-LIGAND FREE ENERGY PREDICTED BY IDOCK:   -2.91 KCAL/MOL
REMARK 924 INTRA-LIGAND FREE ENERGY PREDICTED BY IDOCK:   -0.13 KCAL/MOL
REMARK 927      BINDING AFFINITY PREDICTED BY RF-SCORE:    0.00 PKD
ROOT
HETATM    1  C   UNL     1      -8.453   5.140  72.471  1.00  0.00    -0.121 C  
HETATM    2  N   UNL     1      -9.495   5.571  71.548  1.00  0.00    -0.147 NA 
HETATM    3  H   UNL     1     -10.041   4.782  71.203  1.00  0.00     0.000 HD 
ENDROOT
BRANCH   2   4
HETATM    4  C   UNL     1     -10.356   6.600  72.160  1.00  0.00    -0.200 C  
BRANCH   4   5
HETATM    5  C   UNL     1      -9.767   8.039  72.131  1.00  0.00    -0.221 C  
HETATM    6  H   UNL     1      -9.214   9.329  73.475  1.00  0.00     0.000 HD 
HETATM    7  O   UNL     1      -9.573   8.450  73.493  1.00  0.00    -0.049 OA 
BRANCH   5   8
HETATM    8  C   UNL     1     -10.613   9.061  71.382  1.00  0.00    -0.393 A  
HETATM    9  C   UNL     1     -11.820   9.564  71.901  1.00  0.00    -0.349 A  
HETATM   10  C   UNL     1     -12.564  10.492  71.171  1.00  0.00    -0.417 A  
HETATM   11  O   UNL     1     -13.724  11.017  71.663  1.00  0.00     0.001 OA 
HETATM   12  C   UNL     1     -12.149  10.919  69.918  1.00  0.00    -0.428 A  
HETATM   13  H   UNL     1     -14.230  11.649  71.166  1.00  0.00     0.000 HD 
HETATM   14  C   UNL     1     -10.953  10.439  69.393  1.00  0.00    -0.296 A  
HETATM   15  C   UNL     1     -10.181   9.541  70.132  1.00  0.00    -0.291 A  
ENDBRANCH   5   8
ENDBRANCH   4   5
ENDBRANCH   2   4
TORSDOF 3
ENDMDL
MODEL      232
REMARK 921   NORMALIZED FREE ENERGY PREDICTED BY IDOCK:   -2.40 KCAL/MOL
REMARK 922        TOTAL FREE ENERGY PREDICTED BY IDOCK:   -3.03 KCAL/MOL
REMARK 923 INTER-LIGAND FREE ENERGY PREDICTED BY IDOCK:   -2.92 KCAL/MOL
REMARK 924 INTRA-LIGAND FREE ENERGY PREDICTED BY IDOCK:   -0.10 KCAL/MOL
REMARK 927      BINDING AFFINITY PREDICTED BY RF-SCORE:    0.00 PKD
ROOT
HETATM    1  C   UNL     1     -10.256  16.664  67.021  1.00  0.00    -0.290 C  
HETATM    2  N   UNL     1     -10.305  15.434  67.801  1.00  0.00    -0.249 NA 
HETATM    3  H   UNL     1     -11.190  15.342  68.301  1.00  0.00     0.000 HD 
ENDROOT
BRANCH   2   4
HETATM    4  C   UNL     1     -10.034  14.257  66.956  1.00  0.00    -0.258 C  
BRANCH   4   5
HETATM    5  C   UNL     1     -10.750  12.953  67.412  1.00  0.00    -0.237 C  
HETATM    6  H   UNL     1     -11.148  12.126  69.125  1.00  0.00     0.000 HD 
HETATM    7  O   UNL     1     -10.711  12.922  68.846  1.00  0.00    -0.228 OA 
BRANCH   5   8
HETATM    8  C   UNL     1     -10.168  11.670  66.835  1.00  0.00    -0.244 A  
HETATM    9  C   UNL     1     -10.746  10.408  67.071  1.00  0.00    -0.298 A  
HETATM   10  C   UNL     1     -10.170   9.260  66.528  1.00  0.00    -0.246 A  
HETATM   11  O   UNL     1     -10.726   8.028  66.717  1.00  0.00    -0.351 OA 
HETATM   12  C   UNL     1      -9.009   9.329  65.771  1.00  0.00    -0.234 A  
HETATM   13  H   UNL     1     -10.333   7.246  66.348  1.00  0.00     0.000 HD 
HETATM   14  C   UNL     1      -8.428  10.568  65.519  1.00  0.00    -0.177 A  
HETATM   15  C   UNL     1      -9.020  11.728  66.025  1.00  0.00    -0.108 A  
ENDBRANCH   5   8
ENDBRANCH   4   5
ENDBRANCH   2   4
TORSDOF 3
ENDMDL
MODEL      233
REMARK 921   NORMALIZED FREE ENERGY PREDICTED BY IDOCK:   -2.39 KCAL/MOL
REMARK 922        TOTAL FREE ENERGY PREDICTED BY IDOCK:   -3.01 KCAL/MOL
REMARK 923 INTER-LIGAND FREE ENERGY PREDICTED BY IDOCK:   -2.90 KCAL/MOL
REMARK 924 INTRA-LIGAND FREE ENERGY PREDICTED BY IDOCK:   -0.11 KCAL/MOL
REMARK 927      BINDING AFFINITY PREDICTED BY RF-SCORE:    0.00 PKD
ROOT
HETATM    1  C   UNL     1     -13.844   9.064  72.510  1.00  0.00    -0.424 C  
HETATM    2  N   UNL     1     -12.527   8.716  73.029  1.00  0.00    -0.458 NA 
HETATM    3  H   UNL     1     -12.567   7.893  73.630  1.00  0.00     0.000 HD 
ENDROOT
BRANCH   2   4
HETATM    4  C   UNL     1     -11.552   8.545  71.936  1.00  0.00    -0.341 C  
BRANCH   4   5
HETATM    5  C   UNL     1     -11.475   7.105  71.355  1.00  0.00    -0.272 C  
HETATM    6  H   UNL     1     -11.149   5.337  72.093  1.00  0.00     0.000 HD 
HETATM    7  O   UNL     1     -11.197   6.217  72.448  1.00  0.00    -0.257 OA 
BRANCH   5   8
HETATM    8  C   UNL     1     -10.451   6.919  70.243  1.00  0.00    -0.227 A  
HETATM    9  C   UNL     1      -9.065   6.933  70.486  1.00  0.00    -0.156 A  
HETATM   10  C   UNL     1      -8.167   6.767  69.431  1.00  0.00    -0.128 A  
HETATM   11  O   UNL     1      -6.819   6.748  69.642  1.00  0.00    -0.051 OA 
HETATM   12  C   UNL     1      -8.613   6.610  68.126  1.00  0.00    -0.115 A  
HETATM   13  H   UNL     1      -6.207   6.635  68.924  1.00  0.00     0.000 HD 
HETATM   14  C   UNL     1      -9.980   6.584  67.869  1.00  0.00    -0.148 A  
HETATM   15  C   UNL     1     -10.888   6.709  68.923  1.00  0.00    -0.326 A  
ENDBRANCH   5   8
ENDBRANCH   4   5
ENDBRANCH   2   4
TORSDOF 3
ENDMDL
MODEL      234
REMARK 921   NORMALIZED FREE ENERGY PREDICTED BY IDOCK:   -2.39 KCAL/MOL
REMARK 922        TOTAL FREE ENERGY PREDICTED BY IDOCK:   -3.01 KCAL/MOL
REMARK 923 INTER-LIGAND FREE ENERGY PREDICTED BY IDOCK:   -2.88 KCAL/MOL
REMARK 924 INTRA-LIGAND FREE ENERGY PREDICTED BY IDOCK:   -0.13 KCAL/MOL
REMARK 927      BINDING AFFINITY PREDICTED BY RF-SCORE:    0.00 PKD
ROOT
HETATM    1  C   UNL     1      -7.776   4.592  67.521  1.00  0.00    -0.089 C  
HETATM    2  N   UNL     1      -8.609   5.756  67.247  1.00  0.00    -0.110 NA 
HETATM    3  H   UNL     1      -8.504   6.073  66.283  1.00  0.00     0.000 HD 
ENDROOT
BRANCH   2   4
HETATM    4  C   UNL     1     -10.020   5.491  67.581  1.00  0.00    -0.156 C  
BRANCH   4   5
HETATM    5  C   UNL     1     -10.849   6.756  67.942  1.00  0.00    -0.247 C  
HETATM    6  H   UNL     1     -10.926   8.586  67.293  1.00  0.00     0.000 HD 
HETATM    7  O   UNL     1     -10.419   7.813  67.072  1.00  0.00    -0.309 OA 
BRANCH   5   8
HETATM    8  C   UNL     1     -10.750   7.191  69.399  1.00  0.00    -0.246 A  
HETATM    9  C   UNL     1      -9.704   8.004  69.871  1.00  0.00    -0.180 A  
HETATM   10  C   UNL     1      -9.652   8.368  71.218  1.00  0.00    -0.185 A  
HETATM   11  O   UNL     1      -8.665   9.179  71.697  1.00  0.00    -0.343 OA 
HETATM   12  C   UNL     1     -10.607   7.920  72.119  1.00  0.00    -0.312 A  
HETATM   13  H   UNL     1      -8.629   9.426  72.613  1.00  0.00     0.000 HD 
HETATM   14  C   UNL     1     -11.654   7.123  71.667  1.00  0.00    -0.309 A  
HETATM   15  C   UNL     1     -11.737   6.786  70.315  1.00  0.00    -0.397 A  
ENDBRANCH   5   8
ENDBRANCH   4   5
ENDBRANCH   2   4
TORSDOF 3
ENDMDL
MODEL      235
REMARK 921   NORMALIZED FREE ENERGY PREDICTED BY IDOCK:   -2.38 KCAL/MOL
REMARK 922        TOTAL FREE ENERGY PREDICTED BY IDOCK:   -3.00 KCAL/MOL
REMARK 923 INTER-LIGAND FREE ENERGY PREDICTED BY IDOCK:   -2.87 KCAL/MOL
REMARK 924 INTRA-LIGAND FREE ENERGY PREDICTED BY IDOCK:   -0.13 KCAL/MOL
REMARK 927      BINDING AFFINITY PREDICTED BY RF-SCORE:    0.00 PKD
ROOT
HETATM    1  C   UNL     1      -7.109  10.995  69.019  1.00  0.00    -0.106 C  
HETATM    2  N   UNL     1      -7.447   9.613  69.331  1.00  0.00    -0.085 NA 
HETATM    3  H   UNL     1      -6.787   9.206  69.995  1.00  0.00     0.000 HD 
ENDROOT
BRANCH   2   4
HETATM    4  C   UNL     1      -8.837   9.498  69.809  1.00  0.00    -0.199 C  
BRANCH   4   5
HETATM    5  C   UNL     1      -8.978   9.178  71.324  1.00  0.00    -0.136 C  
HETATM    6  H   UNL     1      -7.747   8.721  72.757  1.00  0.00     0.000 HD 
HETATM    7  O   UNL     1      -7.661   8.917  71.831  1.00  0.00    -0.303 OA 
BRANCH   5   8
HETATM    8  C   UNL     1      -9.913   8.019  71.648  1.00  0.00    -0.237 A  
HETATM    9  C   UNL     1      -9.860   7.330  72.874  1.00  0.00    -0.240 A  
HETATM   10  C   UNL     1     -10.732   6.269  73.120  1.00  0.00    -0.261 A  
HETATM   11  O   UNL     1     -10.721   5.602  74.310  1.00  0.00    -0.322 OA 
HETATM   12  C   UNL     1     -11.645   5.854  72.162  1.00  0.00    -0.314 A  
HETATM   13  H   UNL     1     -11.315   4.880  74.478  1.00  0.00     0.000 HD 
HETATM   14  C   UNL     1     -11.718   6.530  70.947  1.00  0.00    -0.416 A  
HETATM   15  C   UNL     1     -10.878   7.619  70.707  1.00  0.00    -0.246 A  
ENDBRANCH   5   8
ENDBRANCH   4   5
ENDBRANCH   2   4
TORSDOF 3
ENDMDL
MODEL      236
REMARK 921   NORMALIZED FREE ENERGY PREDICTED BY IDOCK:   -2.36 KCAL/MOL
REMARK 922        TOTAL FREE ENERGY PREDICTED BY IDOCK:   -2.98 KCAL/MOL
REMARK 923 INTER-LIGAND FREE ENERGY PREDICTED BY IDOCK:   -2.78 KCAL/MOL
REMARK 924 INTRA-LIGAND FREE ENERGY PREDICTED BY IDOCK:   -0.20 KCAL/MOL
REMARK 927      BINDING AFFINITY PREDICTED BY RF-SCORE:    0.00 PKD
ROOT
HETATM    1  C   UNL     1     -11.795   6.325  71.689  1.00  0.00    -0.256 C  
HETATM    2  N   UNL     1     -11.961   7.591  72.391  1.00  0.00    -0.474 NA 
HETATM    3  H   UNL     1     -12.288   7.449  73.347  1.00  0.00     0.000 HD 
ENDROOT
BRANCH   2   4
HETATM    4  C   UNL     1     -10.721   8.387  72.354  1.00  0.00    -0.335 C  
BRANCH   4   5
HETATM    5  C   UNL     1     -10.748   9.582  71.359  1.00  0.00    -0.278 C  
HETATM    6  H   UNL     1     -12.108  10.433  70.262  1.00  0.00     0.000 HD 
HETATM    7  O   UNL     1     -12.092   9.703  70.870  1.00  0.00    -0.293 OA 
BRANCH   5   8
HETATM    8  C   UNL     1      -9.767   9.470  70.199  1.00  0.00    -0.289 A  
HETATM    9  C   UNL     1      -9.665  10.458  69.202  1.00  0.00    -0.234 A  
HETATM   10  C   UNL     1      -8.756  10.305  68.154  1.00  0.00    -0.123 A  
HETATM   11  O   UNL     1      -8.616  11.260  67.190  1.00  0.00    -0.139 OA 
HETATM   12  C   UNL     1      -7.958   9.174  68.056  1.00  0.00    -0.101 A  
HETATM   13  H   UNL     1      -7.998  11.155  66.476  1.00  0.00     0.000 HD 
HETATM   14  C   UNL     1      -8.039   8.191  69.037  1.00  0.00    -0.115 A  
HETATM   15  C   UNL     1      -8.916   8.353  70.112  1.00  0.00    -0.142 A  
ENDBRANCH   5   8
ENDBRANCH   4   5
ENDBRANCH   2   4
TORSDOF 3
ENDMDL
MODEL      237
REMARK 921   NORMALIZED FREE ENERGY PREDICTED BY IDOCK:   -2.36 KCAL/MOL
REMARK 922        TOTAL FREE ENERGY PREDICTED BY IDOCK:   -2.97 KCAL/MOL
REMARK 923 INTER-LIGAND FREE ENERGY PREDICTED BY IDOCK:   -2.80 KCAL/MOL
REMARK 924 INTRA-LIGAND FREE ENERGY PREDICTED BY IDOCK:   -0.17 KCAL/MOL
REMARK 927      BINDING AFFINITY PREDICTED BY RF-SCORE:    0.00 PKD
ROOT
HETATM    1  C   UNL     1      -8.189  12.444  67.980  1.00  0.00    -0.168 C  
HETATM    2  N   UNL     1      -8.760  11.237  68.563  1.00  0.00    -0.155 NA 
HETATM    3  H   UNL     1      -8.832  11.309  69.578  1.00  0.00     0.000 HD 
ENDROOT
BRANCH   2   4
HETATM    4  C   UNL     1     -10.059  10.911  67.948  1.00  0.00    -0.177 C  
BRANCH   4   5
HETATM    5  C   UNL     1      -9.978   9.941  66.735  1.00  0.00    -0.214 C  
HETATM    6  H   UNL     1      -8.839   8.446  66.240  1.00  0.00     0.000 HD 
HETATM    7  O   UNL     1      -8.889   9.038  66.981  1.00  0.00    -0.118 OA 
BRANCH   5   8
HETATM    8  C   UNL     1      -9.810  10.621  65.383  1.00  0.00    -0.325 A  
HETATM    9  C   UNL     1     -10.655  11.662  64.954  1.00  0.00    -0.349 A  
HETATM   10  C   UNL     1     -10.466  12.247  63.701  1.00  0.00    -0.450 A  
HETATM   11  O   UNL     1     -11.252  13.276  63.272  1.00  0.00    -0.495 OA 
HETATM   12  C   UNL     1      -9.468  11.804  62.845  1.00  0.00    -0.036 A  
HETATM   13  H   UNL     1     -11.124  13.674  62.419  1.00  0.00     0.000 HD 
HETATM   14  C   UNL     1      -8.617  10.782  63.256  1.00  0.00    -0.107 A  
HETATM   15  C   UNL     1      -8.772  10.217  64.524  1.00  0.00    -0.205 A  
ENDBRANCH   5   8
ENDBRANCH   4   5
ENDBRANCH   2   4
TORSDOF 3
ENDMDL
MODEL      238
REMARK 921   NORMALIZED FREE ENERGY PREDICTED BY IDOCK:   -2.35 KCAL/MOL
REMARK 922        TOTAL FREE ENERGY PREDICTED BY IDOCK:   -2.96 KCAL/MOL
REMARK 923 INTER-LIGAND FREE ENERGY PREDICTED BY IDOCK:   -2.83 KCAL/MOL
REMARK 924 INTRA-LIGAND FREE ENERGY PREDICTED BY IDOCK:   -0.13 KCAL/MOL
REMARK 927      BINDING AFFINITY PREDICTED BY RF-SCORE:    0.00 PKD
ROOT
HETATM    1  C   UNL     1      -5.385  15.974  68.381  1.00  0.00    -0.104 C  
HETATM    2  N   UNL     1      -6.613  16.552  68.911  1.00  0.00    -0.162 NA 
HETATM    3  H   UNL     1      -6.557  17.570  68.961  1.00  0.00     0.000 HD 
ENDROOT
BRANCH   2   4
HETATM    4  C   UNL     1      -7.787  16.111  68.137  1.00  0.00    -0.146 C  
BRANCH   4   5
HETATM    5  C   UNL     1      -8.213  14.637  68.390  1.00  0.00    -0.154 C  
HETATM    6  H   UNL     1      -8.139  12.986  67.366  1.00  0.00     0.000 HD 
HETATM    7  O   UNL     1      -7.879  13.887  67.212  1.00  0.00    -0.175 OA 
BRANCH   5   8
HETATM    8  C   UNL     1      -9.683  14.448  68.742  1.00  0.00    -0.190 A  
HETATM    9  C   UNL     1     -10.354  15.289  69.649  1.00  0.00    -0.271 A  
HETATM   10  C   UNL     1     -11.700  15.069  69.946  1.00  0.00    -0.307 A  
HETATM   11  O   UNL     1     -12.382  15.886  70.799  1.00  0.00    -0.435 OA 
HETATM   12  C   UNL     1     -12.395  14.010  69.380  1.00  0.00    -0.247 A  
HETATM   13  H   UNL     1     -13.298  15.736  71.002  1.00  0.00     0.000 HD 
HETATM   14  C   UNL     1     -11.751  13.173  68.474  1.00  0.00    -0.387 A  
HETATM   15  C   UNL     1     -10.416  13.409  68.139  1.00  0.00    -0.250 A  
ENDBRANCH   5   8
ENDBRANCH   4   5
ENDBRANCH   2   4
TORSDOF 3
ENDMDL
MODEL      239
REMARK 921   NORMALIZED FREE ENERGY PREDICTED BY IDOCK:   -2.33 KCAL/MOL
REMARK 922        TOTAL FREE ENERGY PREDICTED BY IDOCK:   -2.94 KCAL/MOL
REMARK 923 INTER-LIGAND FREE ENERGY PREDICTED BY IDOCK:   -2.78 KCAL/MOL
REMARK 924 INTRA-LIGAND FREE ENERGY PREDICTED BY IDOCK:   -0.16 KCAL/MOL
REMARK 927      BINDING AFFINITY PREDICTED BY RF-SCORE:    0.00 PKD
ROOT
HETATM    1  C   UNL     1      -8.717  19.967  66.014  1.00  0.00    -0.199 C  
HETATM    2  N   UNL     1      -7.314  20.322  66.179  1.00  0.00    -0.404 NA 
HETATM    3  H   UNL     1      -7.198  21.318  66.369  1.00  0.00     0.000 HD 
ENDROOT
BRANCH   2   4
HETATM    4  C   UNL     1      -6.673  19.494  67.217  1.00  0.00    -0.196 C  
BRANCH   4   5
HETATM    5  C   UNL     1      -7.623  19.039  68.361  1.00  0.00    -0.308 C  
HETATM    6  H   UNL     1      -7.775  19.421  70.260  1.00  0.00     0.000 HD 
HETATM    7  O   UNL     1      -7.195  19.699  69.561  1.00  0.00    -0.328 OA 
BRANCH   5   8
HETATM    8  C   UNL     1      -7.688  17.532  68.576  1.00  0.00    -0.272 A  
HETATM    9  C   UNL     1      -6.758  16.846  69.380  1.00  0.00    -0.220 A  
HETATM   10  C   UNL     1      -6.855  15.463  69.539  1.00  0.00    -0.181 A  
HETATM   11  O   UNL     1      -5.985  14.777  70.334  1.00  0.00    -0.143 OA 
HETATM   12  C   UNL     1      -7.844  14.734  68.894  1.00  0.00    -0.152 A  
HETATM   13  H   UNL     1      -6.050  13.835  70.442  1.00  0.00     0.000 HD 
HETATM   14  C   UNL     1      -8.777  15.397  68.103  1.00  0.00    -0.161 A  
HETATM   15  C   UNL     1      -8.714  16.786  67.969  1.00  0.00    -0.212 A  
ENDBRANCH   5   8
ENDBRANCH   4   5
ENDBRANCH   2   4
TORSDOF 3
ENDMDL
MODEL      240
REMARK 921   NORMALIZED FREE ENERGY PREDICTED BY IDOCK:   -2.33 KCAL/MOL
REMARK 922        TOTAL FREE ENERGY PREDICTED BY IDOCK:   -2.94 KCAL/MOL
REMARK 923 INTER-LIGAND FREE ENERGY PREDICTED BY IDOCK:   -2.81 KCAL/MOL
REMARK 924 INTRA-LIGAND FREE ENERGY PREDICTED BY IDOCK:   -0.13 KCAL/MOL
REMARK 927      BINDING AFFINITY PREDICTED BY RF-SCORE:    0.00 PKD
ROOT
HETATM    1  C   UNL     1      -6.673   5.070  70.101  1.00  0.00    -0.037 C  
HETATM    2  N   UNL     1      -7.819   5.745  69.505  1.00  0.00    -0.091 NA 
HETATM    3  H   UNL     1      -8.280   5.157  68.810  1.00  0.00     0.000 HD 
ENDROOT
BRANCH   2   4
HETATM    4  C   UNL     1      -8.763   6.206  70.538  1.00  0.00    -0.142 C  
BRANCH   4   5
HETATM    5  C   UNL     1     -10.208   6.467  70.027  1.00  0.00    -0.180 C  
HETATM    6  H   UNL     1     -11.150   6.183  68.351  1.00  0.00     0.000 HD 
HETATM    7  O   UNL     1     -10.267   6.023  68.663  1.00  0.00    -0.157 OA 
BRANCH   5   8
HETATM    8  C   UNL     1     -10.674   7.913  70.137  1.00  0.00    -0.244 A  
HETATM    9  C   UNL     1     -11.641   8.322  71.074  1.00  0.00    -0.301 A  
HETATM   10  C   UNL     1     -12.042   9.658  71.130  1.00  0.00    -0.362 A  
HETATM   11  O   UNL     1     -12.956  10.087  72.047  1.00  0.00    -0.419 OA 
HETATM   12  C   UNL     1     -11.522  10.600  70.254  1.00  0.00    -0.422 A  
HETATM   13  H   UNL     1     -13.230  10.997  72.085  1.00  0.00     0.000 HD 
HETATM   14  C   UNL     1     -10.558  10.215  69.328  1.00  0.00    -0.254 A  
HETATM   15  C   UNL     1     -10.120   8.889  69.291  1.00  0.00    -0.205 A  
ENDBRANCH   5   8
ENDBRANCH   4   5
ENDBRANCH   2   4
TORSDOF 3
ENDMDL
MODEL      241
REMARK 921   NORMALIZED FREE ENERGY PREDICTED BY IDOCK:   -2.33 KCAL/MOL
REMARK 922        TOTAL FREE ENERGY PREDICTED BY IDOCK:   -2.93 KCAL/MOL
REMARK 923 INTER-LIGAND FREE ENERGY PREDICTED BY IDOCK:   -2.76 KCAL/MOL
REMARK 924 INTRA-LIGAND FREE ENERGY PREDICTED BY IDOCK:   -0.17 KCAL/MOL
REMARK 927      BINDING AFFINITY PREDICTED BY RF-SCORE:    0.00 PKD
ROOT
HETATM    1  C   UNL     1     -10.192  18.183  66.965  1.00  0.00    -0.365 C  
HETATM    2  N   UNL     1     -10.197  17.295  68.120  1.00  0.00    -0.323 NA 
HETATM    3  H   UNL     1     -10.644  17.731  68.927  1.00  0.00     0.000 HD 
ENDROOT
BRANCH   2   4
HETATM    4  C   UNL     1     -10.814  15.997  67.792  1.00  0.00    -0.324 C  
BRANCH   4   5
HETATM    5  C   UNL     1     -10.136  15.234  66.619  1.00  0.00    -0.261 C  
HETATM    6  H   UNL     1     -10.767  14.261  65.060  1.00  0.00     0.000 HD 
HETATM    7  O   UNL     1     -11.181  14.727  65.776  1.00  0.00    -0.330 OA 
BRANCH   5   8
HETATM    8  C   UNL     1      -9.201  14.109  67.044  1.00  0.00    -0.249 A  
HETATM    9  C   UNL     1      -7.949  14.354  67.638  1.00  0.00    -0.191 A  
HETATM   10  C   UNL     1      -7.125  13.288  68.002  1.00  0.00    -0.122 A  
HETATM   11  O   UNL     1      -5.919  13.497  68.605  1.00  0.00    -0.078 OA 
HETATM   12  C   UNL     1      -7.504  11.975  67.765  1.00  0.00    -0.121 A  
HETATM   13  H   UNL     1      -5.358  12.771  68.852  1.00  0.00     0.000 HD 
HETATM   14  C   UNL     1      -8.742  11.713  67.187  1.00  0.00    -0.164 A  
HETATM   15  C   UNL     1      -9.592  12.771  66.856  1.00  0.00    -0.235 A  
ENDBRANCH   5   8
ENDBRANCH   4   5
ENDBRANCH   2   4
TORSDOF 3
ENDMDL
MODEL      242
REMARK 921   NORMALIZED FREE ENERGY PREDICTED BY IDOCK:   -2.31 KCAL/MOL
REMARK 922        TOTAL FREE ENERGY PREDICTED BY IDOCK:   -2.92 KCAL/MOL
REMARK 923 INTER-LIGAND FREE ENERGY PREDICTED BY IDOCK:   -2.81 KCAL/MOL
REMARK 924 INTRA-LIGAND FREE ENERGY PREDICTED BY IDOCK:   -0.11 KCAL/MOL
REMARK 927      BINDING AFFINITY PREDICTED BY RF-SCORE:    0.00 PKD
ROOT
HETATM    1  C   UNL     1     -10.596   3.568  63.519  1.00  0.00    -0.261 C  
HETATM    2  N   UNL     1     -10.273   3.371  64.927  1.00  0.00    -0.398 NA 
HETATM    3  H   UNL     1     -10.005   2.405  65.118  1.00  0.00     0.000 HD 
ENDROOT
BRANCH   2   4
HETATM    4  C   UNL     1      -9.239   4.321  65.374  1.00  0.00    -0.152 C  
BRANCH   4   5
HETATM    5  C   UNL     1      -8.933   4.278  66.898  1.00  0.00    -0.122 C  
HETATM    6  H   UNL     1      -9.326   3.044  68.348  1.00  0.00     0.000 HD 
HETATM    7  O   UNL     1      -9.513   3.071  67.417  1.00  0.00    -0.198 OA 
BRANCH   5   8
HETATM    8  C   UNL     1      -9.426   5.486  67.683  1.00  0.00    -0.125 A  
HETATM    9  C   UNL     1     -10.510   5.410  68.578  1.00  0.00    -0.192 A  
HETATM   10  C   UNL     1     -10.930   6.548  69.268  1.00  0.00    -0.331 A  
HETATM   11  O   UNL     1     -11.960   6.497  70.162  1.00  0.00    -0.553 OA 
HETATM   12  C   UNL     1     -10.313   7.775  69.072  1.00  0.00    -0.219 A  
HETATM   13  H   UNL     1     -12.246   7.272  70.632  1.00  0.00     0.000 HD 
HETATM   14  C   UNL     1      -9.234   7.866  68.198  1.00  0.00    -0.136 A  
HETATM   15  C   UNL     1      -8.780   6.725  67.533  1.00  0.00    -0.119 A  
ENDBRANCH   5   8
ENDBRANCH   4   5
ENDBRANCH   2   4
TORSDOF 3
ENDMDL
MODEL      243
REMARK 921   NORMALIZED FREE ENERGY PREDICTED BY IDOCK:   -2.30 KCAL/MOL
REMARK 922        TOTAL FREE ENERGY PREDICTED BY IDOCK:   -2.91 KCAL/MOL
REMARK 923 INTER-LIGAND FREE ENERGY PREDICTED BY IDOCK:   -2.73 KCAL/MOL
REMARK 924 INTRA-LIGAND FREE ENERGY PREDICTED BY IDOCK:   -0.17 KCAL/MOL
REMARK 927      BINDING AFFINITY PREDICTED BY RF-SCORE:    0.00 PKD
ROOT
HETATM    1  C   UNL     1     -10.499   5.442  69.777  1.00  0.00    -0.307 C  
HETATM    2  N   UNL     1      -9.753   5.279  68.536  1.00  0.00    -0.135 NA 
HETATM    3  H   UNL     1      -9.456   4.312  68.402  1.00  0.00     0.000 HD 
ENDROOT
BRANCH   2   4
HETATM    4  C   UNL     1     -10.525   5.775  67.382  1.00  0.00    -0.254 C  
BRANCH   4   5
HETATM    5  C   UNL     1      -9.690   6.565  66.335  1.00  0.00    -0.079 C  
HETATM    6  H   UNL     1      -7.851   6.508  65.711  1.00  0.00     0.000 HD 
HETATM    7  O   UNL     1      -8.361   6.025  66.351  1.00  0.00    -0.113 OA 
BRANCH   5   8
HETATM    8  C   UNL     1      -9.655   8.073  66.551  1.00  0.00    -0.295 A  
HETATM    9  C   UNL     1      -8.808   8.919  65.812  1.00  0.00    -0.223 A  
HETATM   10  C   UNL     1      -8.805  10.294  66.054  1.00  0.00    -0.149 A  
HETATM   11  O   UNL     1      -8.015  11.140  65.333  1.00  0.00    -0.366 OA 
HETATM   12  C   UNL     1      -9.611  10.851  67.037  1.00  0.00    -0.197 A  
HETATM   13  H   UNL     1      -8.013  12.076  65.498  1.00  0.00     0.000 HD 
HETATM   14  C   UNL     1     -10.462  10.030  67.770  1.00  0.00    -0.282 A  
HETATM   15  C   UNL     1     -10.502   8.659  67.509  1.00  0.00    -0.335 A  
ENDBRANCH   5   8
ENDBRANCH   4   5
ENDBRANCH   2   4
TORSDOF 3
ENDMDL
MODEL      244
REMARK 921   NORMALIZED FREE ENERGY PREDICTED BY IDOCK:   -2.28 KCAL/MOL
REMARK 922        TOTAL FREE ENERGY PREDICTED BY IDOCK:   -2.88 KCAL/MOL
REMARK 923 INTER-LIGAND FREE ENERGY PREDICTED BY IDOCK:   -3.13 KCAL/MOL
REMARK 924 INTRA-LIGAND FREE ENERGY PREDICTED BY IDOCK:    0.24 KCAL/MOL
REMARK 927      BINDING AFFINITY PREDICTED BY RF-SCORE:    0.00 PKD
ROOT
HETATM    1  C   UNL     1      -9.024  18.649  68.419  1.00  0.00    -0.328 C  
HETATM    2  N   UNL     1      -8.681  18.116  67.107  1.00  0.00    -0.244 NA 
HETATM    3  H   UNL     1      -7.976  17.381  67.173  1.00  0.00     0.000 HD 
ENDROOT
BRANCH   2   4
HETATM    4  C   UNL     1      -9.882  17.652  66.390  1.00  0.00    -0.309 C  
BRANCH   4   5
HETATM    5  C   UNL     1      -9.791  16.201  65.842  1.00  0.00    -0.353 C  
HETATM    6  H   UNL     1     -11.069  14.894  65.179  1.00  0.00     0.000 HD 
HETATM    7  O   UNL     1     -11.124  15.782  65.514  1.00  0.00    -0.283 OA 
BRANCH   5   8
HETATM    8  C   UNL     1      -9.135  15.201  66.785  1.00  0.00    -0.282 A  
HETATM    9  C   UNL     1      -9.864  14.183  67.428  1.00  0.00    -0.239 A  
HETATM   10  C   UNL     1      -9.219  13.296  68.291  1.00  0.00    -0.197 A  
HETATM   11  O   UNL     1      -9.895  12.283  68.905  1.00  0.00    -0.414 OA 
HETATM   12  C   UNL     1      -7.861  13.411  68.554  1.00  0.00    -0.115 A  
HETATM   13  H   UNL     1      -9.456  11.680  69.493  1.00  0.00     0.000 HD 
HETATM   14  C   UNL     1      -7.122  14.405  67.919  1.00  0.00    -0.169 A  
HETATM   15  C   UNL     1      -7.751  15.273  67.023  1.00  0.00    -0.192 A  
ENDBRANCH   5   8
ENDBRANCH   4   5
ENDBRANCH   2   4
TORSDOF 3
ENDMDL
MODEL      245
REMARK 921   NORMALIZED FREE ENERGY PREDICTED BY IDOCK:   -2.27 KCAL/MOL
REMARK 922        TOTAL FREE ENERGY PREDICTED BY IDOCK:   -2.87 KCAL/MOL
REMARK 923 INTER-LIGAND FREE ENERGY PREDICTED BY IDOCK:   -2.77 KCAL/MOL
REMARK 924 INTRA-LIGAND FREE ENERGY PREDICTED BY IDOCK:   -0.10 KCAL/MOL
REMARK 927      BINDING AFFINITY PREDICTED BY RF-SCORE:    0.00 PKD
ROOT
HETATM    1  C   UNL     1     -10.884   7.937  72.737  1.00  0.00    -0.386 C  
HETATM    2  N   UNL     1     -11.109   8.922  71.687  1.00  0.00    -0.324 NA 
HETATM    3  H   UNL     1     -11.620   9.733  72.036  1.00  0.00     0.000 HD 
ENDROOT
BRANCH   2   4
HETATM    4  C   UNL     1      -9.841   9.314  71.045  1.00  0.00    -0.285 C  
BRANCH   4   5
HETATM    5  C   UNL     1     -10.004  10.085  69.705  1.00  0.00    -0.236 C  
HETATM    6  H   UNL     1     -11.404  11.164  68.896  1.00  0.00     0.000 HD 
HETATM    7  O   UNL     1     -11.304  10.693  69.715  1.00  0.00    -0.255 OA 
BRANCH   5   8
HETATM    8  C   UNL     1      -9.822   9.237  68.453  1.00  0.00    -0.173 A  
HETATM    9  C   UNL     1      -9.183   9.726  67.299  1.00  0.00    -0.153 A  
HETATM   10  C   UNL     1      -9.049   8.912  66.173  1.00  0.00    -0.203 A  
HETATM   11  O   UNL     1      -8.409   9.351  65.051  1.00  0.00    -0.133 OA 
HETATM   12  C   UNL     1      -9.562   7.622  66.155  1.00  0.00    -0.077 A  
HETATM   13  H   UNL     1      -8.319   8.797  64.284  1.00  0.00     0.000 HD 
HETATM   14  C   UNL     1     -10.189   7.119  67.291  1.00  0.00    -0.315 A  
HETATM   15  C   UNL     1     -10.292   7.911  68.436  1.00  0.00    -0.235 A  
ENDBRANCH   5   8
ENDBRANCH   4   5
ENDBRANCH   2   4
TORSDOF 3
ENDMDL
MODEL      246
REMARK 921   NORMALIZED FREE ENERGY PREDICTED BY IDOCK:   -2.25 KCAL/MOL
REMARK 922        TOTAL FREE ENERGY PREDICTED BY IDOCK:   -2.84 KCAL/MOL
REMARK 923 INTER-LIGAND FREE ENERGY PREDICTED BY IDOCK:   -2.81 KCAL/MOL
REMARK 924 INTRA-LIGAND FREE ENERGY PREDICTED BY IDOCK:   -0.04 KCAL/MOL
REMARK 927      BINDING AFFINITY PREDICTED BY RF-SCORE:    0.00 PKD
ROOT
HETATM    1  C   UNL     1      -8.701   5.834  73.808  1.00  0.00    -0.121 C  
HETATM    2  N   UNL     1      -9.745   6.033  72.812  1.00  0.00    -0.156 NA 
HETATM    3  H   UNL     1     -10.013   5.155  72.368  1.00  0.00     0.000 HD 
ENDROOT
BRANCH   2   4
HETATM    4  C   UNL     1     -10.910   6.725  73.393  1.00  0.00    -0.253 C  
BRANCH   4   5
HETATM    5  C   UNL     1     -11.480   7.880  72.522  1.00  0.00    -0.398 C  
HETATM    6  H   UNL     1     -13.240   8.364  71.854  1.00  0.00     0.000 HD 
HETATM    7  O   UNL     1     -12.892   7.658  72.386  1.00  0.00    -0.099 OA 
BRANCH   5   8
HETATM    8  C   UNL     1     -10.830   8.029  71.152  1.00  0.00    -0.267 A  
HETATM    9  C   UNL     1     -11.265   7.300  70.030  1.00  0.00    -0.234 A  
HETATM   10  C   UNL     1     -10.631   7.464  68.798  1.00  0.00    -0.168 A  
HETATM   11  O   UNL     1     -11.050   6.792  67.687  1.00  0.00    -0.477 OA 
HETATM   12  C   UNL     1      -9.550   8.323  68.657  1.00  0.00    -0.152 A  
HETATM   13  H   UNL     1     -10.618   6.904  66.849  1.00  0.00     0.000 HD 
HETATM   14  C   UNL     1      -9.112   9.058  69.753  1.00  0.00    -0.163 A  
HETATM   15  C   UNL     1      -9.765   8.931  70.981  1.00  0.00    -0.320 A  
ENDBRANCH   5   8
ENDBRANCH   4   5
ENDBRANCH   2   4
TORSDOF 3
ENDMDL
MODEL      247
REMARK 921   NORMALIZED FREE ENERGY PREDICTED BY IDOCK:   -2.25 KCAL/MOL
REMARK 922        TOTAL FREE ENERGY PREDICTED BY IDOCK:   -2.84 KCAL/MOL
REMARK 923 INTER-LIGAND FREE ENERGY PREDICTED BY IDOCK:   -2.69 KCAL/MOL
REMARK 924 INTRA-LIGAND FREE ENERGY PREDICTED BY IDOCK:   -0.15 KCAL/MOL
REMARK 927      BINDING AFFINITY PREDICTED BY RF-SCORE:    0.00 PKD
ROOT
HETATM    1  C   UNL     1      -7.660   6.860  66.128  1.00  0.00    -0.092 C  
HETATM    2  N   UNL     1      -8.791   7.331  66.917  1.00  0.00    -0.128 NA 
HETATM    3  H   UNL     1      -9.486   6.596  67.051  1.00  0.00     0.000 HD 
ENDROOT
BRANCH   2   4
HETATM    4  C   UNL     1      -8.344   7.895  68.204  1.00  0.00    -0.124 C  
BRANCH   4   5
HETATM    5  C   UNL     1      -9.010   7.261  69.457  1.00  0.00    -0.144 C  
HETATM    6  H   UNL     1      -9.934   5.592  69.832  1.00  0.00     0.000 HD 
HETATM    7  O   UNL     1      -9.526   5.980  69.066  1.00  0.00    -0.126 OA 
BRANCH   5   8
HETATM    8  C   UNL     1     -10.106   8.105  70.095  1.00  0.00    -0.194 A  
HETATM    9  C   UNL     1     -10.702   9.192  69.429  1.00  0.00    -0.210 A  
HETATM   10  C   UNL     1     -11.697   9.941  70.060  1.00  0.00    -0.124 A  
HETATM   11  O   UNL     1     -12.310  10.982  69.427  1.00  0.00    -0.404 OA 
HETATM   12  C   UNL     1     -12.100   9.651  71.355  1.00  0.00    -0.472 A  
HETATM   13  H   UNL     1     -12.987  11.492  69.857  1.00  0.00     0.000 HD 
HETATM   14  C   UNL     1     -11.529   8.573  72.025  1.00  0.00    -0.431 A  
HETATM   15  C   UNL     1     -10.562   7.793  71.388  1.00  0.00    -0.242 A  
ENDBRANCH   5   8
ENDBRANCH   4   5
ENDBRANCH   2   4
TORSDOF 3
ENDMDL
MODEL      248
REMARK 921   NORMALIZED FREE ENERGY PREDICTED BY IDOCK:   -2.23 KCAL/MOL
REMARK 922        TOTAL FREE ENERGY PREDICTED BY IDOCK:   -2.82 KCAL/MOL
REMARK 923 INTER-LIGAND FREE ENERGY PREDICTED BY IDOCK:   -2.69 KCAL/MOL
REMARK 924 INTRA-LIGAND FREE ENERGY PREDICTED BY IDOCK:   -0.13 KCAL/MOL
REMARK 927      BINDING AFFINITY PREDICTED BY RF-SCORE:    0.00 PKD
ROOT
HETATM    1  C   UNL     1     -12.460   9.029  71.805  1.00  0.00    -0.368 C  
HETATM    2  N   UNL     1     -11.044   8.829  72.084  1.00  0.00    -0.363 NA 
HETATM    3  H   UNL     1     -10.891   8.021  72.687  1.00  0.00     0.000 HD 
ENDROOT
BRANCH   2   4
HETATM    4  C   UNL     1     -10.264   8.732  70.837  1.00  0.00    -0.226 C  
BRANCH   4   5
HETATM    5  C   UNL     1     -10.564   7.470  69.981  1.00  0.00    -0.237 C  
HETATM    6  H   UNL     1     -10.272   5.560  70.192  1.00  0.00     0.000 HD 
HETATM    7  O   UNL     1     -10.088   6.331  70.715  1.00  0.00    -0.184 OA 
BRANCH   5   8
HETATM    8  C   UNL     1      -9.966   7.489  68.581  1.00  0.00    -0.178 A  
HETATM    9  C   UNL     1      -9.118   6.468  68.110  1.00  0.00    -0.114 A  
HETATM   10  C   UNL     1      -8.587   6.536  66.822  1.00  0.00    -0.117 A  
HETATM   11  O   UNL     1      -7.786   5.547  66.330  1.00  0.00    -0.098 OA 
HETATM   12  C   UNL     1      -8.857   7.614  65.990  1.00  0.00    -0.186 A  
HETATM   13  H   UNL     1      -7.424   5.593  65.453  1.00  0.00     0.000 HD 
HETATM   14  C   UNL     1      -9.700   8.628  66.435  1.00  0.00    -0.333 A  
HETATM   15  C   UNL     1     -10.269   8.549  67.708  1.00  0.00    -0.283 A  
ENDBRANCH   5   8
ENDBRANCH   4   5
ENDBRANCH   2   4
TORSDOF 3
ENDMDL
MODEL      249
REMARK 921   NORMALIZED FREE ENERGY PREDICTED BY IDOCK:   -2.21 KCAL/MOL
REMARK 922        TOTAL FREE ENERGY PREDICTED BY IDOCK:   -2.80 KCAL/MOL
REMARK 923 INTER-LIGAND FREE ENERGY PREDICTED BY IDOCK:   -2.63 KCAL/MOL
REMARK 924 INTRA-LIGAND FREE ENERGY PREDICTED BY IDOCK:   -0.17 KCAL/MOL
REMARK 927      BINDING AFFINITY PREDICTED BY RF-SCORE:    0.00 PKD
ROOT
HETATM    1  C   UNL     1      -9.451   9.779  70.009  1.00  0.00    -0.238 C  
HETATM    2  N   UNL     1      -9.749  11.032  69.327  1.00  0.00    -0.419 NA 
HETATM    3  H   UNL     1      -9.649  11.832  69.952  1.00  0.00     0.000 HD 
ENDROOT
BRANCH   2   4
HETATM    4  C   UNL     1      -8.928  11.186  68.113  1.00  0.00    -0.159 C  
BRANCH   4   5
HETATM    5  C   UNL     1      -8.127  12.517  68.036  1.00  0.00    -0.164 C  
HETATM    6  H   UNL     1      -7.014  13.529  69.266  1.00  0.00     0.000 HD 
HETATM    7  O   UNL     1      -7.503  12.716  69.313  1.00  0.00     0.109 OA 
BRANCH   5   8
HETATM    8  C   UNL     1      -8.952  13.738  67.649  1.00  0.00    -0.194 A  
HETATM    9  C   UNL     1      -8.818  14.975  68.307  1.00  0.00    -0.172 A  
HETATM   10  C   UNL     1      -9.603  16.062  67.922  1.00  0.00    -0.219 A  
HETATM   11  O   UNL     1      -9.474  17.280  68.523  1.00  0.00    -0.268 OA 
HETATM   12  C   UNL     1     -10.544  15.945  66.909  1.00  0.00    -0.309 A  
HETATM   13  H   UNL     1     -10.009  18.020  68.261  1.00  0.00     0.000 HD 
HETATM   14  C   UNL     1     -10.683  14.732  66.241  1.00  0.00    -0.313 A  
HETATM   15  C   UNL     1      -9.874  13.649  66.592  1.00  0.00    -0.284 A  
ENDBRANCH   5   8
ENDBRANCH   4   5
ENDBRANCH   2   4
TORSDOF 3
ENDMDL
MODEL      250
REMARK 921   NORMALIZED FREE ENERGY PREDICTED BY IDOCK:   -2.21 KCAL/MOL
REMARK 922        TOTAL FREE ENERGY PREDICTED BY IDOCK:   -2.79 KCAL/MOL
REMARK 923 INTER-LIGAND FREE ENERGY PREDICTED BY IDOCK:   -2.63 KCAL/MOL
REMARK 924 INTRA-LIGAND FREE ENERGY PREDICTED BY IDOCK:   -0.16 KCAL/MOL
REMARK 927      BINDING AFFINITY PREDICTED BY RF-SCORE:    0.00 PKD
ROOT
HETATM    1  C   UNL     1      -7.567  15.782  68.125  1.00  0.00    -0.124 C  
HETATM    2  N   UNL     1      -8.812  16.302  68.677  1.00  0.00    -0.215 NA 
HETATM    3  H   UNL     1      -9.075  17.186  68.241  1.00  0.00     0.000 HD 
ENDROOT
BRANCH   2   4
HETATM    4  C   UNL     1      -9.894  15.306  68.582  1.00  0.00    -0.211 C  
BRANCH   4   5
HETATM    5  C   UNL     1      -9.710  14.254  67.453  1.00  0.00    -0.235 C  
HETATM    6  H   UNL     1     -10.458  13.991  65.678  1.00  0.00     0.000 HD 
HETATM    7  O   UNL     1     -10.570  14.634  66.368  1.00  0.00    -0.290 OA 
BRANCH   5   8
HETATM    8  C   UNL     1      -9.982  12.814  67.869  1.00  0.00    -0.229 A  
HETATM    9  C   UNL     1      -9.171  11.743  67.450  1.00  0.00    -0.174 A  
HETATM   10  C   UNL     1      -9.467  10.440  67.851  1.00  0.00    -0.138 A  
HETATM   11  O   UNL     1      -8.681   9.387  67.483  1.00  0.00    -0.122 OA 
HETATM   12  C   UNL     1     -10.573  10.167  68.643  1.00  0.00    -0.236 A  
HETATM   13  H   UNL     1      -8.884   8.500  67.756  1.00  0.00     0.000 HD 
HETATM   14  C   UNL     1     -11.381  11.215  69.074  1.00  0.00    -0.343 A  
HETATM   15  C   UNL     1     -11.070  12.527  68.712  1.00  0.00    -0.314 A  
ENDBRANCH   5   8
ENDBRANCH   4   5
ENDBRANCH   2   4
TORSDOF 3
ENDMDL
MODEL      251
REMARK 921   NORMALIZED FREE ENERGY PREDICTED BY IDOCK:   -2.16 KCAL/MOL
REMARK 922        TOTAL FREE ENERGY PREDICTED BY IDOCK:   -2.74 KCAL/MOL
REMARK 923 INTER-LIGAND FREE ENERGY PREDICTED BY IDOCK:   -3.14 KCAL/MOL
REMARK 924 INTRA-LIGAND FREE ENERGY PREDICTED BY IDOCK:    0.40 KCAL/MOL
REMARK 927      BINDING AFFINITY PREDICTED BY RF-SCORE:    0.00 PKD
ROOT
HETATM    1  C   UNL     1     -10.574  19.870  65.702  1.00  0.00    -0.327 C  
HETATM    2  N   UNL     1      -9.950  18.702  66.311  1.00  0.00    -0.403 NA 
HETATM    3  H   UNL     1      -9.804  17.957  65.630  1.00  0.00     0.000 HD 
ENDROOT
BRANCH   2   4
HETATM    4  C   UNL     1      -8.697  19.065  66.997  1.00  0.00    -0.294 C  
BRANCH   4   5
HETATM    5  C   UNL     1      -7.461  18.220  66.579  1.00  0.00    -0.236 C  
HETATM    6  H   UNL     1      -6.473  17.944  64.928  1.00  0.00     0.000 HD 
HETATM    7  O   UNL     1      -7.229  18.461  65.183  1.00  0.00    -0.388 OA 
BRANCH   5   8
HETATM    8  C   UNL     1      -7.587  16.726  66.848  1.00  0.00    -0.252 A  
HETATM    9  C   UNL     1      -6.544  15.973  67.420  1.00  0.00    -0.224 A  
HETATM   10  C   UNL     1      -6.705  14.604  67.638  1.00  0.00    -0.174 A  
HETATM   11  O   UNL     1      -5.721  13.857  68.216  1.00  0.00    -0.092 OA 
HETATM   12  C   UNL     1      -7.876  13.953  67.276  1.00  0.00    -0.134 A  
HETATM   13  H   UNL     1      -5.831  12.925  68.365  1.00  0.00     0.000 HD 
HETATM   14  C   UNL     1      -8.921  14.683  66.719  1.00  0.00    -0.283 A  
HETATM   15  C   UNL     1      -8.785  16.060  66.533  1.00  0.00    -0.338 A  
ENDBRANCH   5   8
ENDBRANCH   4   5
ENDBRANCH   2   4
TORSDOF 3
ENDMDL
MODEL      252
REMARK 921   NORMALIZED FREE ENERGY PREDICTED BY IDOCK:   -2.13 KCAL/MOL
REMARK 922        TOTAL FREE ENERGY PREDICTED BY IDOCK:   -2.70 KCAL/MOL
REMARK 923 INTER-LIGAND FREE ENERGY PREDICTED BY IDOCK:   -3.05 KCAL/MOL
REMARK 924 INTRA-LIGAND FREE ENERGY PREDICTED BY IDOCK:    0.35 KCAL/MOL
REMARK 927      BINDING AFFINITY PREDICTED BY RF-SCORE:    0.00 PKD
ROOT
HETATM    1  C   UNL     1      -9.045   8.322  73.245  1.00  0.00    -0.207 C  
HETATM    2  N   UNL     1      -9.288   8.549  71.826  1.00  0.00    -0.228 NA 
HETATM    3  H   UNL     1      -9.072   7.720  71.272  1.00  0.00     0.000 HD 
ENDROOT
BRANCH   2   4
HETATM    4  C   UNL     1     -10.665   9.017  71.589  1.00  0.00    -0.371 C  
BRANCH   4   5
HETATM    5  C   UNL     1     -11.703   7.885  71.346  1.00  0.00    -0.281 C  
HETATM    6  H   UNL     1     -13.521   7.532  71.935  1.00  0.00     0.000 HD 
HETATM    7  O   UNL     1     -12.887   8.224  72.083  1.00  0.00    -0.331 OA 
BRANCH   5   8
HETATM    8  C   UNL     1     -11.224   6.488  71.720  1.00  0.00    -0.312 A  
HETATM    9  C   UNL     1     -10.386   5.730  70.881  1.00  0.00    -0.299 A  
HETATM   10  C   UNL     1      -9.982   4.451  71.264  1.00  0.00    -0.175 A  
HETATM   11  O   UNL     1      -9.147   3.706  70.484  1.00  0.00    -0.092 OA 
HETATM   12  C   UNL     1     -10.414   3.889  72.458  1.00  0.00    -0.176 A  
HETATM   13  H   UNL     1      -8.872   2.834  70.744  1.00  0.00     0.000 HD 
HETATM   14  C   UNL     1     -11.235   4.627  73.304  1.00  0.00    -0.411 A  
HETATM   15  C   UNL     1     -11.613   5.924  72.948  1.00  0.00    -0.164 A  
ENDBRANCH   5   8
ENDBRANCH   4   5
ENDBRANCH   2   4
TORSDOF 3
ENDMDL
MODEL      253
REMARK 921   NORMALIZED FREE ENERGY PREDICTED BY IDOCK:   -2.12 KCAL/MOL
REMARK 922        TOTAL FREE ENERGY PREDICTED BY IDOCK:   -2.69 KCAL/MOL
REMARK 923 INTER-LIGAND FREE ENERGY PREDICTED BY IDOCK:   -2.56 KCAL/MOL
REMARK 924 INTRA-LIGAND FREE ENERGY PREDICTED BY IDOCK:   -0.13 KCAL/MOL
REMARK 927      BINDING AFFINITY PREDICTED BY RF-SCORE:    0.00 PKD
ROOT
HETATM    1  C   UNL     1      -6.891   2.295  68.978  1.00  0.00    -0.033 C  
HETATM    2  N   UNL     1      -7.298   3.522  68.306  1.00  0.00    -0.051 NA 
HETATM    3  H   UNL     1      -7.872   3.327  67.485  1.00  0.00     0.000 HD 
ENDROOT
BRANCH   2   4
HETATM    4  C   UNL     1      -7.977   4.439  69.238  1.00  0.00    -0.061 C  
BRANCH   4   5
HETATM    5  C   UNL     1      -9.485   4.136  69.464  1.00  0.00    -0.184 C  
HETATM    6  H   UNL     1     -11.153   4.824  68.743  1.00  0.00     0.000 HD 
HETATM    7  O   UNL     1     -10.232   5.010  68.605  1.00  0.00    -0.155 OA 
BRANCH   5   8
HETATM    8  C   UNL     1      -9.957   4.276  70.906  1.00  0.00    -0.225 A  
HETATM    9  C   UNL     1     -10.508   5.471  71.405  1.00  0.00    -0.305 A  
HETATM   10  C   UNL     1     -10.917   5.552  72.736  1.00  0.00    -0.278 A  
HETATM   11  O   UNL     1     -11.480   6.689  73.238  1.00  0.00    -0.469 OA 
HETATM   12  C   UNL     1     -10.768   4.476  73.600  1.00  0.00    -0.344 A  
HETATM   13  H   UNL     1     -11.759   6.745  74.145  1.00  0.00     0.000 HD 
HETATM   14  C   UNL     1     -10.234   3.284  73.121  1.00  0.00    -0.229 A  
HETATM   15  C   UNL     1      -9.859   3.179  71.781  1.00  0.00    -0.229 A  
ENDBRANCH   5   8
ENDBRANCH   4   5
ENDBRANCH   2   4
TORSDOF 3
ENDMDL
MODEL      254
REMARK 921   NORMALIZED FREE ENERGY PREDICTED BY IDOCK:   -2.12 KCAL/MOL
REMARK 922        TOTAL FREE ENERGY PREDICTED BY IDOCK:   -2.69 KCAL/MOL
REMARK 923 INTER-LIGAND FREE ENERGY PREDICTED BY IDOCK:   -2.60 KCAL/MOL
REMARK 924 INTRA-LIGAND FREE ENERGY PREDICTED BY IDOCK:   -0.09 KCAL/MOL
REMARK 927      BINDING AFFINITY PREDICTED BY RF-SCORE:    0.00 PKD
ROOT
HETATM    1  C   UNL     1     -11.386  12.416  63.544  1.00  0.00    -0.476 C  
HETATM    2  N   UNL     1     -11.090  12.144  64.945  1.00  0.00    -0.311 NA 
HETATM    3  H   UNL     1     -11.931  12.184  65.521  1.00  0.00     0.000 HD 
ENDROOT
BRANCH   2   4
HETATM    4  C   UNL     1     -10.387  10.857  65.101  1.00  0.00    -0.278 C  
BRANCH   4   5
HETATM    5  C   UNL     1     -10.742  10.077  66.398  1.00  0.00     0.007 C  
HETATM    6  H   UNL     1     -10.770  10.497  68.295  1.00  0.00     0.000 HD 
HETATM    7  O   UNL     1     -10.553  10.974  67.503  1.00  0.00    -0.200 OA 
BRANCH   5   8
HETATM    8  C   UNL     1      -9.948   8.795  66.611  1.00  0.00    -0.355 A  
HETATM    9  C   UNL     1     -10.567   7.538  66.740  1.00  0.00    -0.269 A  
HETATM   10  C   UNL     1      -9.796   6.393  66.944  1.00  0.00    -0.158 A  
HETATM   11  O   UNL     1     -10.369   5.159  67.044  1.00  0.00    -0.218 OA 
HETATM   12  C   UNL     1      -8.414   6.469  67.048  1.00  0.00    -0.113 A  
HETATM   13  H   UNL     1      -9.843   4.380  67.183  1.00  0.00     0.000 HD 
HETATM   14  C   UNL     1      -7.784   7.701  66.912  1.00  0.00    -0.103 A  
HETATM   15  C   UNL     1      -8.543   8.847  66.669  1.00  0.00    -0.130 A  
ENDBRANCH   5   8
ENDBRANCH   4   5
ENDBRANCH   2   4
TORSDOF 3
ENDMDL
MODEL      255
REMARK 921   NORMALIZED FREE ENERGY PREDICTED BY IDOCK:   -2.12 KCAL/MOL
REMARK 922        TOTAL FREE ENERGY PREDICTED BY IDOCK:   -2.69 KCAL/MOL
REMARK 923 INTER-LIGAND FREE ENERGY PREDICTED BY IDOCK:   -2.57 KCAL/MOL
REMARK 924 INTRA-LIGAND FREE ENERGY PREDICTED BY IDOCK:   -0.12 KCAL/MOL
REMARK 927      BINDING AFFINITY PREDICTED BY RF-SCORE:    0.00 PKD
ROOT
HETATM    1  C   UNL     1      -6.635   6.012  73.748  1.00  0.00    -0.075 C  
HETATM    2  N   UNL     1      -7.123   5.490  72.478  1.00  0.00    -0.082 NA 
HETATM    3  H   UNL     1      -6.482   4.800  72.085  1.00  0.00     0.000 HD 
ENDROOT
BRANCH   2   4
HETATM    4  C   UNL     1      -8.487   4.949  72.613  1.00  0.00    -0.119 C  
BRANCH   4   5
HETATM    5  C   UNL     1      -9.455   5.333  71.458  1.00  0.00    -0.150 C  
HETATM    6  H   UNL     1      -9.366   5.301  69.517  1.00  0.00     0.000 HD 
HETATM    7  O   UNL     1      -8.775   5.066  70.223  1.00  0.00    -0.103 OA 
BRANCH   5   8
HETATM    8  C   UNL     1      -9.952   6.772  71.493  1.00  0.00    -0.189 A  
HETATM    9  C   UNL     1      -9.214   7.837  70.941  1.00  0.00    -0.155 A  
HETATM   10  C   UNL     1      -9.708   9.140  71.006  1.00  0.00    -0.289 A  
HETATM   11  O   UNL     1      -9.027  10.186  70.455  1.00  0.00    -0.295 OA 
HETATM   12  C   UNL     1     -10.915   9.420  71.632  1.00  0.00    -0.382 A  
HETATM   13  H   UNL     1      -9.364  11.073  70.499  1.00  0.00     0.000 HD 
HETATM   14  C   UNL     1     -11.662   8.379  72.174  1.00  0.00    -0.442 A  
HETATM   15  C   UNL     1     -11.196   7.066  72.079  1.00  0.00    -0.288 A  
ENDBRANCH   5   8
ENDBRANCH   4   5
ENDBRANCH   2   4
TORSDOF 3
ENDMDL
MODEL      256
REMARK 921   NORMALIZED FREE ENERGY PREDICTED BY IDOCK:   -2.11 KCAL/MOL
REMARK 922        TOTAL FREE ENERGY PREDICTED BY IDOCK:   -2.68 KCAL/MOL
REMARK 923 INTER-LIGAND FREE ENERGY PREDICTED BY IDOCK:   -2.57 KCAL/MOL
REMARK 924 INTRA-LIGAND FREE ENERGY PREDICTED BY IDOCK:   -0.11 KCAL/MOL
REMARK 927      BINDING AFFINITY PREDICTED BY RF-SCORE:    0.00 PKD
ROOT
HETATM    1  C   UNL     1     -10.784   5.143  73.839  1.00  0.00    -0.290 C  
HETATM    2  N   UNL     1     -10.913   6.303  72.968  1.00  0.00    -0.319 NA 
HETATM    3  H   UNL     1     -11.147   7.144  73.496  1.00  0.00     0.000 HD 
ENDROOT
BRANCH   2   4
HETATM    4  C   UNL     1      -9.700   6.494  72.152  1.00  0.00    -0.151 C  
BRANCH   4   5
HETATM    5  C   UNL     1      -9.965   6.696  70.634  1.00  0.00    -0.184 C  
HETATM    6  H   UNL     1      -9.523   5.715  69.015  1.00  0.00     0.000 HD 
HETATM    7  O   UNL     1      -9.362   5.591  69.943  1.00  0.00    -0.140 OA 
BRANCH   5   8
HETATM    8  C   UNL     1      -9.461   8.017  70.067  1.00  0.00    -0.160 A  
HETATM    9  C   UNL     1      -8.428   8.753  70.677  1.00  0.00    -0.193 A  
HETATM   10  C   UNL     1      -8.008   9.963  70.125  1.00  0.00    -0.162 A  
HETATM   11  O   UNL     1      -6.989  10.682  70.679  1.00  0.00    -0.464 OA 
HETATM   12  C   UNL     1      -8.610  10.479  68.986  1.00  0.00    -0.160 A  
HETATM   13  H   UNL     1      -6.704  11.506  70.303  1.00  0.00     0.000 HD 
HETATM   14  C   UNL     1      -9.626   9.761  68.364  1.00  0.00    -0.157 A  
HETATM   15  C   UNL     1     -10.027   8.529  68.886  1.00  0.00    -0.197 A  
ENDBRANCH   5   8
ENDBRANCH   4   5
ENDBRANCH   2   4
TORSDOF 3
ENDMDL
MODEL      257
REMARK 921   NORMALIZED FREE ENERGY PREDICTED BY IDOCK:   -2.10 KCAL/MOL
REMARK 922        TOTAL FREE ENERGY PREDICTED BY IDOCK:   -2.67 KCAL/MOL
REMARK 923 INTER-LIGAND FREE ENERGY PREDICTED BY IDOCK:   -2.50 KCAL/MOL
REMARK 924 INTRA-LIGAND FREE ENERGY PREDICTED BY IDOCK:   -0.17 KCAL/MOL
REMARK 927      BINDING AFFINITY PREDICTED BY RF-SCORE:    0.00 PKD
ROOT
HETATM    1  C   UNL     1     -10.207   4.244  65.194  1.00  0.00    -0.211 C  
HETATM    2  N   UNL     1      -9.674   4.230  66.550  1.00  0.00    -0.206 NA 
HETATM    3  H   UNL     1      -9.212   3.346  66.762  1.00  0.00     0.000 HD 
ENDROOT
BRANCH   2   4
HETATM    4  C   UNL     1      -8.781   5.379  66.784  1.00  0.00    -0.113 C  
BRANCH   4   5
HETATM    5  C   UNL     1      -8.950   6.061  68.171  1.00  0.00    -0.112 C  
HETATM    6  H   UNL     1      -9.823   5.589  69.842  1.00  0.00     0.000 HD 
HETATM    7  O   UNL     1      -9.720   5.172  68.994  1.00  0.00    -0.136 OA 
BRANCH   5   8
HETATM    8  C   UNL     1      -9.593   7.441  68.131  1.00  0.00    -0.148 A  
HETATM    9  C   UNL     1      -9.761   8.227  69.287  1.00  0.00    -0.177 A  
HETATM   10  C   UNL     1     -10.364   9.482  69.200  1.00  0.00    -0.207 A  
HETATM   11  O   UNL     1     -10.514  10.276  70.299  1.00  0.00    -0.388 OA 
HETATM   12  C   UNL     1     -10.833   9.970  67.988  1.00  0.00    -0.311 A  
HETATM   13  H   UNL     1     -10.925  11.130  70.240  1.00  0.00     0.000 HD 
HETATM   14  C   UNL     1     -10.667   9.212  66.834  1.00  0.00    -0.149 A  
HETATM   15  C   UNL     1     -10.028   7.972  66.903  1.00  0.00    -0.338 A  
ENDBRANCH   5   8
ENDBRANCH   4   5
ENDBRANCH   2   4
TORSDOF 3
ENDMDL
MODEL      258
REMARK 921   NORMALIZED FREE ENERGY PREDICTED BY IDOCK:   -2.09 KCAL/MOL
REMARK 922        TOTAL FREE ENERGY PREDICTED BY IDOCK:   -2.66 KCAL/MOL
REMARK 923 INTER-LIGAND FREE ENERGY PREDICTED BY IDOCK:   -2.55 KCAL/MOL
REMARK 924 INTRA-LIGAND FREE ENERGY PREDICTED BY IDOCK:   -0.11 KCAL/MOL
REMARK 927      BINDING AFFINITY PREDICTED BY RF-SCORE:    0.00 PKD
ROOT
HETATM    1  C   UNL     1     -10.431  16.632  65.557  1.00  0.00    -0.267 C  
HETATM    2  N   UNL     1     -11.041  15.309  65.522  1.00  0.00    -0.340 NA 
HETATM    3  H   UNL     1     -11.611  15.181  64.685  1.00  0.00     0.000 HD 
ENDROOT
BRANCH   2   4
HETATM    4  C   UNL     1     -10.025  14.250  65.655  1.00  0.00    -0.320 C  
BRANCH   4   5
HETATM    5  C   UNL     1      -9.963  13.582  67.058  1.00  0.00    -0.247 C  
HETATM    6  H   UNL     1     -11.199  13.383  68.545  1.00  0.00     0.000 HD 
HETATM    7  O   UNL     1     -11.237  13.791  67.687  1.00  0.00    -0.275 OA 
BRANCH   5   8
HETATM    8  C   UNL     1      -8.838  14.080  67.955  1.00  0.00    -0.185 A  
HETATM    9  C   UNL     1      -7.775  13.251  68.360  1.00  0.00    -0.138 A  
HETATM   10  C   UNL     1      -6.772  13.752  69.190  1.00  0.00    -0.112 A  
HETATM   11  O   UNL     1      -5.716  12.978  69.575  1.00  0.00    -0.083 OA 
HETATM   12  C   UNL     1      -6.810  15.059  69.654  1.00  0.00    -0.183 A  
HETATM   13  H   UNL     1      -5.033  13.319  70.140  1.00  0.00     0.000 HD 
HETATM   14  C   UNL     1      -7.848  15.896  69.256  1.00  0.00    -0.226 A  
HETATM   15  C   UNL     1      -8.836  15.417  68.393  1.00  0.00    -0.177 A  
ENDBRANCH   5   8
ENDBRANCH   4   5
ENDBRANCH   2   4
TORSDOF 3
ENDMDL
MODEL      259
REMARK 921   NORMALIZED FREE ENERGY PREDICTED BY IDOCK:   -2.09 KCAL/MOL
REMARK 922        TOTAL FREE ENERGY PREDICTED BY IDOCK:   -2.65 KCAL/MOL
REMARK 923 INTER-LIGAND FREE ENERGY PREDICTED BY IDOCK:   -2.62 KCAL/MOL
REMARK 924 INTRA-LIGAND FREE ENERGY PREDICTED BY IDOCK:   -0.04 KCAL/MOL
REMARK 927      BINDING AFFINITY PREDICTED BY RF-SCORE:    0.00 PKD
ROOT
HETATM    1  C   UNL     1     -10.776   2.896  63.439  1.00  0.00    -0.242 C  
HETATM    2  N   UNL     1     -10.009   3.173  64.647  1.00  0.00    -0.333 NA 
HETATM    3  H   UNL     1      -9.704   2.313  65.103  1.00  0.00     0.000 HD 
ENDROOT
BRANCH   2   4
HETATM    4  C   UNL     1      -8.873   4.068  64.362  1.00  0.00    -0.129 C  
BRANCH   4   5
HETATM    5  C   UNL     1      -8.267   4.765  65.613  1.00  0.00    -0.113 C  
HETATM    6  H   UNL     1      -7.856   4.218  67.432  1.00  0.00     0.000 HD 
HETATM    7  O   UNL     1      -8.226   3.792  66.668  1.00  0.00    -0.096 OA 
BRANCH   5   8
HETATM    8  C   UNL     1      -9.007   6.015  66.070  1.00  0.00    -0.157 A  
HETATM    9  C   UNL     1      -8.456   7.304  65.946  1.00  0.00    -0.148 A  
HETATM   10  C   UNL     1      -9.170   8.418  66.388  1.00  0.00    -0.201 A  
HETATM   11  O   UNL     1      -8.672   9.681  66.254  1.00  0.00    -0.137 OA 
HETATM   12  C   UNL     1     -10.418   8.281  66.980  1.00  0.00    -0.384 A  
HETATM   13  H   UNL     1      -9.158  10.439  66.556  1.00  0.00     0.000 HD 
HETATM   14  C   UNL     1     -10.983   7.016  67.103  1.00  0.00    -0.393 A  
HETATM   15  C   UNL     1     -10.294   5.899  66.627  1.00  0.00    -0.283 A  
ENDBRANCH   5   8
ENDBRANCH   4   5
ENDBRANCH   2   4
TORSDOF 3
ENDMDL
MODEL      260
REMARK 921   NORMALIZED FREE ENERGY PREDICTED BY IDOCK:   -2.09 KCAL/MOL
REMARK 922        TOTAL FREE ENERGY PREDICTED BY IDOCK:   -2.65 KCAL/MOL
REMARK 923 INTER-LIGAND FREE ENERGY PREDICTED BY IDOCK:   -2.53 KCAL/MOL
REMARK 924 INTRA-LIGAND FREE ENERGY PREDICTED BY IDOCK:   -0.12 KCAL/MOL
REMARK 927      BINDING AFFINITY PREDICTED BY RF-SCORE:    0.00 PKD
ROOT
HETATM    1  C   UNL     1      -8.712  19.369  66.227  1.00  0.00    -0.346 C  
HETATM    2  N   UNL     1      -8.311  18.650  67.429  1.00  0.00    -0.258 NA 
HETATM    3  H   UNL     1      -8.197  17.652  67.249  1.00  0.00     0.000 HD 
ENDROOT
BRANCH   2   4
HETATM    4  C   UNL     1      -7.094  19.237  68.019  1.00  0.00    -0.255 C  
BRANCH   4   5
HETATM    5  C   UNL     1      -5.812  18.373  67.857  1.00  0.00    -0.168 C  
HETATM    6  H   UNL     1      -4.678  17.855  66.366  1.00  0.00     0.000 HD 
HETATM    7  O   UNL     1      -5.462  18.383  66.465  1.00  0.00    -0.135 OA 
BRANCH   5   8
HETATM    8  C   UNL     1      -5.937  16.942  68.364  1.00  0.00    -0.134 A  
HETATM    9  C   UNL     1      -6.170  15.855  67.501  1.00  0.00    -0.188 A  
HETATM   10  C   UNL     1      -6.286  14.563  68.016  1.00  0.00    -0.154 A  
HETATM   11  O   UNL     1      -6.484  13.488  67.199  1.00  0.00    -0.455 OA 
HETATM   12  C   UNL     1      -6.200  14.324  69.380  1.00  0.00    -0.111 A  
HETATM   13  H   UNL     1      -6.563  12.609  67.550  1.00  0.00     0.000 HD 
HETATM   14  C   UNL     1      -5.960  15.385  70.247  1.00  0.00    -0.120 A  
HETATM   15  C   UNL     1      -5.803  16.676  69.739  1.00  0.00    -0.206 A  
ENDBRANCH   5   8
ENDBRANCH   4   5
ENDBRANCH   2   4
TORSDOF 3
ENDMDL
MODEL      261
REMARK 921   NORMALIZED FREE ENERGY PREDICTED BY IDOCK:   -2.07 KCAL/MOL
REMARK 922        TOTAL FREE ENERGY PREDICTED BY IDOCK:   -2.64 KCAL/MOL
REMARK 923 INTER-LIGAND FREE ENERGY PREDICTED BY IDOCK:   -2.51 KCAL/MOL
REMARK 924 INTRA-LIGAND FREE ENERGY PREDICTED BY IDOCK:   -0.13 KCAL/MOL
REMARK 927      BINDING AFFINITY PREDICTED BY RF-SCORE:    0.00 PKD
ROOT
HETATM    1  C   UNL     1     -11.187   7.451  70.817  1.00  0.00    -0.271 C  
HETATM    2  N   UNL     1      -9.852   7.884  70.426  1.00  0.00    -0.183 NA 
HETATM    3  H   UNL     1      -9.130   7.292  70.838  1.00  0.00     0.000 HD 
ENDROOT
BRANCH   2   4
HETATM    4  C   UNL     1      -9.723   7.955  68.959  1.00  0.00    -0.162 C  
BRANCH   4   5
HETATM    5  C   UNL     1      -9.119   9.284  68.425  1.00  0.00    -0.128 C  
HETATM    6  H   UNL     1      -9.418  11.173  68.774  1.00  0.00     0.000 HD 
HETATM    7  O   UNL     1      -9.787  10.361  69.100  1.00  0.00    -0.203 OA 
BRANCH   5   8
HETATM    8  C   UNL     1      -9.208   9.466  66.915  1.00  0.00    -0.173 A  
HETATM    9  C   UNL     1      -8.433   8.708  66.019  1.00  0.00    -0.151 A  
HETATM   10  C   UNL     1      -8.544   8.918  64.644  1.00  0.00    -0.143 A  
HETATM   11  O   UNL     1      -7.825   8.178  63.751  1.00  0.00    -0.135 OA 
HETATM   12  C   UNL     1      -9.394   9.889  64.133  1.00  0.00    -0.295 A  
HETATM   13  H   UNL     1      -7.900   8.321  62.815  1.00  0.00     0.000 HD 
HETATM   14  C   UNL     1     -10.175  10.641  65.003  1.00  0.00    -0.380 A  
HETATM   15  C   UNL     1     -10.102  10.411  66.379  1.00  0.00    -0.287 A  
ENDBRANCH   5   8
ENDBRANCH   4   5
ENDBRANCH   2   4
TORSDOF 3
ENDMDL
MODEL      262
REMARK 921   NORMALIZED FREE ENERGY PREDICTED BY IDOCK:   -2.05 KCAL/MOL
REMARK 922        TOTAL FREE ENERGY PREDICTED BY IDOCK:   -2.60 KCAL/MOL
REMARK 923 INTER-LIGAND FREE ENERGY PREDICTED BY IDOCK:   -2.40 KCAL/MOL
REMARK 924 INTRA-LIGAND FREE ENERGY PREDICTED BY IDOCK:   -0.20 KCAL/MOL
REMARK 927      BINDING AFFINITY PREDICTED BY RF-SCORE:    0.00 PKD
ROOT
HETATM    1  C   UNL     1      -7.797  10.522  67.512  1.00  0.00    -0.106 C  
HETATM    2  N   UNL     1      -7.454  10.362  68.919  1.00  0.00    -0.090 NA 
HETATM    3  H   UNL     1      -6.892  11.143  69.259  1.00  0.00     0.000 HD 
ENDROOT
BRANCH   2   4
HETATM    4  C   UNL     1      -8.661  10.162  69.741  1.00  0.00    -0.128 C  
BRANCH   4   5
HETATM    5  C   UNL     1      -8.685   8.833  70.547  1.00  0.00    -0.174 C  
HETATM    6  H   UNL     1      -7.370   7.796  71.535  1.00  0.00     0.000 HD 
HETATM    7  O   UNL     1      -7.356   8.608  71.042  1.00  0.00    -0.065 OA 
BRANCH   5   8
HETATM    8  C   UNL     1      -9.174   7.620  69.766  1.00  0.00    -0.147 A  
HETATM    9  C   UNL     1     -10.217   7.702  68.825  1.00  0.00    -0.210 A  
HETATM   10  C   UNL     1     -10.636   6.560  68.141  1.00  0.00    -0.251 A  
HETATM   11  O   UNL     1     -11.626   6.616  67.204  1.00  0.00    -0.749 OA 
HETATM   12  C   UNL     1     -10.057   5.323  68.388  1.00  0.00    -0.224 A  
HETATM   13  H   UNL     1     -11.911   5.839  66.738  1.00  0.00     0.000 HD 
HETATM   14  C   UNL     1      -9.018   5.225  69.308  1.00  0.00    -0.126 A  
HETATM   15  C   UNL     1      -8.565   6.369  69.969  1.00  0.00    -0.135 A  
ENDBRANCH   5   8
ENDBRANCH   4   5
ENDBRANCH   2   4
TORSDOF 3
ENDMDL
MODEL      263
REMARK 921   NORMALIZED FREE ENERGY PREDICTED BY IDOCK:   -2.03 KCAL/MOL
REMARK 922        TOTAL FREE ENERGY PREDICTED BY IDOCK:   -2.59 KCAL/MOL
REMARK 923 INTER-LIGAND FREE ENERGY PREDICTED BY IDOCK:   -2.49 KCAL/MOL
REMARK 924 INTRA-LIGAND FREE ENERGY PREDICTED BY IDOCK:   -0.09 KCAL/MOL
REMARK 927      BINDING AFFINITY PREDICTED BY RF-SCORE:    0.00 PKD
ROOT
HETATM    1  C   UNL     1      -7.078   6.498  73.059  1.00  0.00    -0.081 C  
HETATM    2  N   UNL     1      -7.481   7.155  71.822  1.00  0.00    -0.085 NA 
HETATM    3  H   UNL     1      -6.775   7.819  71.503  1.00  0.00     0.000 HD 
ENDROOT
BRANCH   2   4
HETATM    4  C   UNL     1      -7.811   6.169  70.778  1.00  0.00    -0.103 C  
BRANCH   4   5
HETATM    5  C   UNL     1      -9.321   5.816  70.672  1.00  0.00    -0.159 C  
HETATM    6  H   UNL     1     -10.481   4.467  71.455  1.00  0.00     0.000 HD 
HETATM    7  O   UNL     1      -9.558   4.683  71.520  1.00  0.00    -0.147 OA 
BRANCH   5   8
HETATM    8  C   UNL     1      -9.815   5.536  69.258  1.00  0.00    -0.233 A  
HETATM    9  C   UNL     1      -9.427   4.389  68.539  1.00  0.00    -0.217 A  
HETATM   10  C   UNL     1      -9.900   4.182  67.243  1.00  0.00    -0.123 A  
HETATM   11  O   UNL     1      -9.562   3.066  66.534  1.00  0.00    -0.393 OA 
HETATM   12  C   UNL     1     -10.734   5.103  66.627  1.00  0.00    -0.225 A  
HETATM   13  H   UNL     1      -9.884   2.924  65.652  1.00  0.00     0.000 HD 
HETATM   14  C   UNL     1     -11.136   6.237  67.326  1.00  0.00    -0.387 A  
HETATM   15  C   UNL     1     -10.701   6.435  68.638  1.00  0.00    -0.341 A  
ENDBRANCH   5   8
ENDBRANCH   4   5
ENDBRANCH   2   4
TORSDOF 3
ENDMDL
MODEL      264
REMARK 921   NORMALIZED FREE ENERGY PREDICTED BY IDOCK:   -2.03 KCAL/MOL
REMARK 922        TOTAL FREE ENERGY PREDICTED BY IDOCK:   -2.59 KCAL/MOL
REMARK 923 INTER-LIGAND FREE ENERGY PREDICTED BY IDOCK:   -2.44 KCAL/MOL
REMARK 924 INTRA-LIGAND FREE ENERGY PREDICTED BY IDOCK:   -0.14 KCAL/MOL
REMARK 927      BINDING AFFINITY PREDICTED BY RF-SCORE:    0.00 PKD
ROOT
HETATM    1  C   UNL     1     -10.162   7.675  68.071  1.00  0.00    -0.202 C  
HETATM    2  N   UNL     1      -9.361   6.968  69.062  1.00  0.00    -0.137 NA 
HETATM    3  H   UNL     1      -8.496   6.610  68.659  1.00  0.00     0.000 HD 
ENDROOT
BRANCH   2   4
HETATM    4  C   UNL     1      -9.101   7.816  70.240  1.00  0.00    -0.152 C  
BRANCH   4   5
HETATM    5  C   UNL     1     -10.212   7.775  71.326  1.00  0.00    -0.193 C  
HETATM    6  H   UNL     1     -10.689   8.881  72.852  1.00  0.00     0.000 HD 
HETATM    7  O   UNL     1     -10.010   8.906  72.188  1.00  0.00    -0.322 OA 
BRANCH   5   8
HETATM    8  C   UNL     1     -10.265   6.488  72.140  1.00  0.00    -0.203 A  
HETATM    9  C   UNL     1      -9.102   5.820  72.567  1.00  0.00    -0.136 A  
HETATM   10  C   UNL     1      -9.203   4.639  73.303  1.00  0.00    -0.114 A  
HETATM   11  O   UNL     1      -8.093   3.986  73.754  1.00  0.00    -0.086 OA 
HETATM   12  C   UNL     1     -10.439   4.085  73.605  1.00  0.00    -0.261 A  
HETATM   13  H   UNL     1      -8.162   3.181  74.254  1.00  0.00     0.000 HD 
HETATM   14  C   UNL     1     -11.599   4.737  73.198  1.00  0.00    -0.288 A  
HETATM   15  C   UNL     1     -11.510   5.941  72.497  1.00  0.00    -0.347 A  
ENDBRANCH   5   8
ENDBRANCH   4   5
ENDBRANCH   2   4
TORSDOF 3
ENDMDL
MODEL      265
REMARK 921   NORMALIZED FREE ENERGY PREDICTED BY IDOCK:   -2.01 KCAL/MOL
REMARK 922        TOTAL FREE ENERGY PREDICTED BY IDOCK:   -2.57 KCAL/MOL
REMARK 923 INTER-LIGAND FREE ENERGY PREDICTED BY IDOCK:   -2.41 KCAL/MOL
REMARK 924 INTRA-LIGAND FREE ENERGY PREDICTED BY IDOCK:   -0.15 KCAL/MOL
REMARK 927      BINDING AFFINITY PREDICTED BY RF-SCORE:    0.00 PKD
ROOT
HETATM    1  C   UNL     1     -11.558  12.383  67.496  1.00  0.00    -0.365 C  
HETATM    2  N   UNL     1     -11.437  11.049  68.070  1.00  0.00    -0.443 NA 
HETATM    3  H   UNL     1     -12.316  10.535  68.015  1.00  0.00     0.000 HD 
ENDROOT
BRANCH   2   4
HETATM    4  C   UNL     1     -10.330  10.300  67.448  1.00  0.00    -0.233 C  
BRANCH   4   5
HETATM    5  C   UNL     1      -9.744  10.955  66.165  1.00  0.00    -0.210 C  
HETATM    6  H   UNL     1      -9.995  10.710  64.254  1.00  0.00     0.000 HD 
HETATM    7  O   UNL     1     -10.353  10.310  65.037  1.00  0.00    -0.288 OA 
BRANCH   5   8
HETATM    8  C   UNL     1      -8.226  10.898  66.055  1.00  0.00    -0.155 A  
HETATM    9  C   UNL     1      -7.572  10.298  64.962  1.00  0.00    -0.124 A  
HETATM   10  C   UNL     1      -6.178  10.263  64.912  1.00  0.00    -0.125 A  
HETATM   11  O   UNL     1      -5.520   9.713  63.851  1.00  0.00    -0.068 OA 
HETATM   12  C   UNL     1      -5.410  10.790  65.940  1.00  0.00    -0.130 A  
HETATM   13  H   UNL     1      -4.570   9.689  63.817  1.00  0.00     0.000 HD 
HETATM   14  C   UNL     1      -6.038  11.395  67.024  1.00  0.00    -0.120 A  
HETATM   15  C   UNL     1      -7.432  11.471  67.065  1.00  0.00    -0.151 A  
ENDBRANCH   5   8
ENDBRANCH   4   5
ENDBRANCH   2   4
TORSDOF 3
ENDMDL
MODEL      266
REMARK 921   NORMALIZED FREE ENERGY PREDICTED BY IDOCK:   -2.00 KCAL/MOL
REMARK 922        TOTAL FREE ENERGY PREDICTED BY IDOCK:   -2.55 KCAL/MOL
REMARK 923 INTER-LIGAND FREE ENERGY PREDICTED BY IDOCK:   -2.42 KCAL/MOL
REMARK 924 INTRA-LIGAND FREE ENERGY PREDICTED BY IDOCK:   -0.13 KCAL/MOL
REMARK 927      BINDING AFFINITY PREDICTED BY RF-SCORE:    0.00 PKD
ROOT
HETATM    1  C   UNL     1      -6.697   5.141  70.075  1.00  0.00    -0.044 C  
HETATM    2  N   UNL     1      -7.663   5.660  69.115  1.00  0.00    -0.087 NA 
HETATM    3  H   UNL     1      -8.129   4.907  68.608  1.00  0.00     0.000 HD 
ENDROOT
BRANCH   2   4
HETATM    4  C   UNL     1      -8.634   6.556  69.769  1.00  0.00    -0.136 C  
BRANCH   4   5
HETATM    5  C   UNL     1      -9.974   6.731  69.001  1.00  0.00    -0.155 C  
HETATM    6  H   UNL     1     -10.872   5.783  67.560  1.00  0.00     0.000 HD 
HETATM    7  O   UNL     1     -10.052   5.677  68.030  1.00  0.00    -0.147 OA 
BRANCH   5   8
HETATM    8  C   UNL     1     -10.156   8.087  68.331  1.00  0.00    -0.221 A  
HETATM    9  C   UNL     1     -10.312   9.275  69.068  1.00  0.00    -0.228 A  
HETATM   10  C   UNL     1     -10.485  10.492  68.408  1.00  0.00    -0.186 A  
HETATM   11  O   UNL     1     -10.611  11.663  69.097  1.00  0.00    -0.339 OA 
HETATM   12  C   UNL     1     -10.532  10.557  67.023  1.00  0.00    -0.304 A  
HETATM   13  H   UNL     1     -10.728  12.492  68.648  1.00  0.00     0.000 HD 
HETATM   14  C   UNL     1     -10.369   9.393  66.277  1.00  0.00    -0.211 A  
HETATM   15  C   UNL     1     -10.156   8.176  66.928  1.00  0.00    -0.367 A  
ENDBRANCH   5   8
ENDBRANCH   4   5
ENDBRANCH   2   4
TORSDOF 3
ENDMDL
MODEL      267
REMARK 921   NORMALIZED FREE ENERGY PREDICTED BY IDOCK:   -1.98 KCAL/MOL
REMARK 922        TOTAL FREE ENERGY PREDICTED BY IDOCK:   -2.53 KCAL/MOL
REMARK 923 INTER-LIGAND FREE ENERGY PREDICTED BY IDOCK:   -2.33 KCAL/MOL
REMARK 924 INTRA-LIGAND FREE ENERGY PREDICTED BY IDOCK:   -0.19 KCAL/MOL
REMARK 927      BINDING AFFINITY PREDICTED BY RF-SCORE:    0.00 PKD
ROOT
HETATM    1  C   UNL     1      -6.584   6.158  73.857  1.00  0.00    -0.071 C  
HETATM    2  N   UNL     1      -6.245   5.895  72.464  1.00  0.00    -0.047 NA 
HETATM    3  H   UNL     1      -5.235   5.855  72.325  1.00  0.00     0.000 HD 
ENDROOT
BRANCH   2   4
HETATM    4  C   UNL     1      -6.909   4.673  71.976  1.00  0.00    -0.054 C  
BRANCH   4   5
HETATM    5  C   UNL     1      -7.726   4.857  70.666  1.00  0.00    -0.066 C  
HETATM    6  H   UNL     1      -7.481   5.857  69.018  1.00  0.00     0.000 HD 
HETATM    7  O   UNL     1      -6.982   5.744  69.818  1.00  0.00    -0.061 OA 
BRANCH   5   8
HETATM    8  C   UNL     1      -9.145   5.376  70.865  1.00  0.00    -0.164 A  
HETATM    9  C   UNL     1      -9.874   5.140  72.045  1.00  0.00    -0.221 A  
HETATM   10  C   UNL     1     -11.174   5.629  72.176  1.00  0.00    -0.227 A  
HETATM   11  O   UNL     1     -11.893   5.440  73.320  1.00  0.00    -0.515 OA 
HETATM   12  C   UNL     1     -11.784   6.331  71.145  1.00  0.00    -0.292 A  
HETATM   13  H   UNL     1     -12.779   5.773  73.408  1.00  0.00     0.000 HD 
HETATM   14  C   UNL     1     -11.075   6.581  69.975  1.00  0.00    -0.422 A  
HETATM   15  C   UNL     1      -9.759   6.131  69.850  1.00  0.00    -0.193 A  
ENDBRANCH   5   8
ENDBRANCH   4   5
ENDBRANCH   2   4
TORSDOF 3
ENDMDL
MODEL      268
REMARK 921   NORMALIZED FREE ENERGY PREDICTED BY IDOCK:   -1.95 KCAL/MOL
REMARK 922        TOTAL FREE ENERGY PREDICTED BY IDOCK:   -2.49 KCAL/MOL
REMARK 923 INTER-LIGAND FREE ENERGY PREDICTED BY IDOCK:   -2.36 KCAL/MOL
REMARK 924 INTRA-LIGAND FREE ENERGY PREDICTED BY IDOCK:   -0.13 KCAL/MOL
REMARK 927      BINDING AFFINITY PREDICTED BY RF-SCORE:    0.00 PKD
ROOT
HETATM    1  C   UNL     1      -9.944  17.949  66.536  1.00  0.00    -0.357 C  
HETATM    2  N   UNL     1     -10.262  17.246  67.773  1.00  0.00    -0.317 NA 
HETATM    3  H   UNL     1     -11.227  17.410  68.060  1.00  0.00     0.000 HD 
ENDROOT
BRANCH   2   4
HETATM    4  C   UNL     1      -9.966  15.807  67.658  1.00  0.00    -0.239 C  
BRANCH   4   5
HETATM    5  C   UNL     1      -8.962  15.265  68.714  1.00  0.00    -0.200 C  
HETATM    6  H   UNL     1      -7.532  16.037  69.781  1.00  0.00     0.000 HD 
HETATM    7  O   UNL     1      -8.146  16.368  69.136  1.00  0.00    -0.242 OA 
BRANCH   5   8
HETATM    8  C   UNL     1      -8.091  14.111  68.235  1.00  0.00    -0.146 A  
HETATM    9  C   UNL     1      -8.627  12.980  67.591  1.00  0.00    -0.190 A  
HETATM   10  C   UNL     1      -7.788  11.944  67.179  1.00  0.00    -0.168 A  
HETATM   11  O   UNL     1      -8.278  10.849  66.528  1.00  0.00    -0.145 OA 
HETATM   12  C   UNL     1      -6.421  11.991  67.415  1.00  0.00    -0.137 A  
HETATM   13  H   UNL     1      -7.706  10.144  66.247  1.00  0.00     0.000 HD 
HETATM   14  C   UNL     1      -5.873  13.105  68.041  1.00  0.00    -0.116 A  
HETATM   15  C   UNL     1      -6.698  14.165  68.422  1.00  0.00    -0.105 A  
ENDBRANCH   5   8
ENDBRANCH   4   5
ENDBRANCH   2   4
TORSDOF 3
ENDMDL
MODEL      269
REMARK 921   NORMALIZED FREE ENERGY PREDICTED BY IDOCK:   -1.92 KCAL/MOL
REMARK 922        TOTAL FREE ENERGY PREDICTED BY IDOCK:   -2.46 KCAL/MOL
REMARK 923 INTER-LIGAND FREE ENERGY PREDICTED BY IDOCK:   -2.34 KCAL/MOL
REMARK 924 INTRA-LIGAND FREE ENERGY PREDICTED BY IDOCK:   -0.12 KCAL/MOL
REMARK 927      BINDING AFFINITY PREDICTED BY RF-SCORE:    0.00 PKD
ROOT
HETATM    1  C   UNL     1      -6.738  10.946  68.485  1.00  0.00    -0.057 C  
HETATM    2  N   UNL     1      -6.779   9.558  68.043  1.00  0.00    -0.062 NA 
HETATM    3  H   UNL     1      -5.846   9.208  67.822  1.00  0.00     0.000 HD 
ENDROOT
BRANCH   2   4
HETATM    4  C   UNL     1      -7.458   8.703  69.033  1.00  0.00    -0.089 C  
BRANCH   4   5
HETATM    5  C   UNL     1      -8.673   7.907  68.478  1.00  0.00    -0.131 C  
HETATM    6  H   UNL     1     -10.025   8.225  67.119  1.00  0.00     0.000 HD 
HETATM    7  O   UNL     1      -9.283   8.712  67.458  1.00  0.00    -0.132 OA 
BRANCH   5   8
HETATM    8  C   UNL     1      -9.703   7.501  69.524  1.00  0.00    -0.164 A  
HETATM    9  C   UNL     1     -10.235   8.416  70.451  1.00  0.00    -0.212 A  
HETATM   10  C   UNL     1     -11.171   7.993  71.396  1.00  0.00    -0.252 A  
HETATM   11  O   UNL     1     -11.724   8.865  72.288  1.00  0.00    -0.354 OA 
HETATM   12  C   UNL     1     -11.576   6.668  71.461  1.00  0.00    -0.357 A  
HETATM   13  H   UNL     1     -12.360   8.577  72.932  1.00  0.00     0.000 HD 
HETATM   14  C   UNL     1     -11.068   5.751  70.546  1.00  0.00    -0.280 A  
HETATM   15  C   UNL     1     -10.162   6.172  69.571  1.00  0.00    -0.250 A  
ENDBRANCH   5   8
ENDBRANCH   4   5
ENDBRANCH   2   4
TORSDOF 3
ENDMDL
MODEL      270
REMARK 921   NORMALIZED FREE ENERGY PREDICTED BY IDOCK:   -1.91 KCAL/MOL
REMARK 922        TOTAL FREE ENERGY PREDICTED BY IDOCK:   -2.44 KCAL/MOL
REMARK 923 INTER-LIGAND FREE ENERGY PREDICTED BY IDOCK:   -2.40 KCAL/MOL
REMARK 924 INTRA-LIGAND FREE ENERGY PREDICTED BY IDOCK:   -0.04 KCAL/MOL
REMARK 927      BINDING AFFINITY PREDICTED BY RF-SCORE:    0.00 PKD
ROOT
HETATM    1  C   UNL     1      -9.799   9.009  71.106  1.00  0.00    -0.300 C  
HETATM    2  N   UNL     1      -9.625   9.203  69.673  1.00  0.00    -0.169 NA 
HETATM    3  H   UNL     1      -9.016   9.996  69.472  1.00  0.00     0.000 HD 
ENDROOT
BRANCH   2   4
HETATM    4  C   UNL     1      -9.142   7.970  69.024  1.00  0.00    -0.144 C  
BRANCH   4   5
HETATM    5  C   UNL     1     -10.225   7.187  68.230  1.00  0.00    -0.184 C  
HETATM    6  H   UNL     1     -11.851   6.228  68.694  1.00  0.00     0.000 HD 
HETATM    7  O   UNL     1     -11.189   6.707  69.179  1.00  0.00    -0.278 OA 
BRANCH   5   8
HETATM    8  C   UNL     1      -9.693   6.039  67.384  1.00  0.00    -0.124 A  
HETATM    9  C   UNL     1      -9.876   4.690  67.744  1.00  0.00    -0.183 A  
HETATM   10  C   UNL     1      -9.361   3.673  66.939  1.00  0.00    -0.194 A  
HETATM   11  O   UNL     1      -9.548   2.358  67.250  1.00  0.00    -0.406 OA 
HETATM   12  C   UNL     1      -8.640   3.964  65.790  1.00  0.00    -0.111 A  
HETATM   13  H   UNL     1      -9.197   1.666  66.703  1.00  0.00     0.000 HD 
HETATM   14  C   UNL     1      -8.457   5.290  65.413  1.00  0.00    -0.145 A  
HETATM   15  C   UNL     1      -9.003   6.315  66.190  1.00  0.00    -0.164 A  
ENDBRANCH   5   8
ENDBRANCH   4   5
ENDBRANCH   2   4
TORSDOF 3
ENDMDL
MODEL      271
REMARK 921   NORMALIZED FREE ENERGY PREDICTED BY IDOCK:   -1.90 KCAL/MOL
REMARK 922        TOTAL FREE ENERGY PREDICTED BY IDOCK:   -2.43 KCAL/MOL
REMARK 923 INTER-LIGAND FREE ENERGY PREDICTED BY IDOCK:   -2.28 KCAL/MOL
REMARK 924 INTRA-LIGAND FREE ENERGY PREDICTED BY IDOCK:   -0.15 KCAL/MOL
REMARK 927      BINDING AFFINITY PREDICTED BY RF-SCORE:    0.00 PKD
ROOT
HETATM    1  C   UNL     1      -9.516  16.294  66.040  1.00  0.00    -0.334 C  
HETATM    2  N   UNL     1     -10.102  16.379  67.372  1.00  0.00    -0.257 NA 
HETATM    3  H   UNL     1     -11.116  16.477  67.330  1.00  0.00     0.000 HD 
ENDROOT
BRANCH   2   4
HETATM    4  C   UNL     1      -9.702  15.229  68.203  1.00  0.00    -0.212 C  
BRANCH   4   5
HETATM    5  C   UNL     1     -10.135  13.844  67.646  1.00  0.00    -0.241 C  
HETATM    6  H   UNL     1     -11.723  12.733  67.796  1.00  0.00     0.000 HD 
HETATM    7  O   UNL     1     -11.458  13.579  68.136  1.00  0.00    -0.266 OA 
BRANCH   5   8
HETATM    8  C   UNL     1      -9.199  12.693  67.993  1.00  0.00    -0.208 A  
HETATM    9  C   UNL     1      -9.611  11.597  68.773  1.00  0.00    -0.083 A  
HETATM   10  C   UNL     1      -8.713  10.571  69.072  1.00  0.00    -0.156 A  
HETATM   11  O   UNL     1      -9.094   9.483  69.801  1.00  0.00    -0.172 OA 
HETATM   12  C   UNL     1      -7.397  10.620  68.634  1.00  0.00    -0.094 A  
HETATM   13  H   UNL     1      -8.482   8.785  70.005  1.00  0.00     0.000 HD 
HETATM   14  C   UNL     1      -6.974  11.692  67.854  1.00  0.00    -0.080 A  
HETATM   15  C   UNL     1      -7.876  12.704  67.516  1.00  0.00    -0.175 A  
ENDBRANCH   5   8
ENDBRANCH   4   5
ENDBRANCH   2   4
TORSDOF 3
ENDMDL
MODEL      272
REMARK 921   NORMALIZED FREE ENERGY PREDICTED BY IDOCK:   -1.90 KCAL/MOL
REMARK 922        TOTAL FREE ENERGY PREDICTED BY IDOCK:   -2.43 KCAL/MOL
REMARK 923 INTER-LIGAND FREE ENERGY PREDICTED BY IDOCK:   -2.34 KCAL/MOL
REMARK 924 INTRA-LIGAND FREE ENERGY PREDICTED BY IDOCK:   -0.09 KCAL/MOL
REMARK 927      BINDING AFFINITY PREDICTED BY RF-SCORE:    0.00 PKD
ROOT
HETATM    1  C   UNL     1      -8.057   2.789  68.344  1.00  0.00    -0.060 C  
HETATM    2  N   UNL     1      -8.319   3.996  67.573  1.00  0.00    -0.097 NA 
HETATM    3  H   UNL     1      -9.112   3.874  66.942  1.00  0.00     0.000 HD 
ENDROOT
BRANCH   2   4
HETATM    4  C   UNL     1      -8.503   5.163  68.455  1.00  0.00    -0.088 C  
BRANCH   4   5
HETATM    5  C   UNL     1      -8.508   6.535  67.724  1.00  0.00    -0.118 C  
HETATM    6  H   UNL     1      -7.165   7.640  66.857  1.00  0.00     0.000 HD 
HETATM    7  O   UNL     1      -7.162   6.802  67.304  1.00  0.00    -0.081 OA 
BRANCH   5   8
HETATM    8  C   UNL     1      -9.049   7.696  68.548  1.00  0.00    -0.131 A  
HETATM    9  C   UNL     1     -10.208   8.405  68.180  1.00  0.00    -0.253 A  
HETATM   10  C   UNL     1     -10.659   9.468  68.963  1.00  0.00    -0.219 A  
HETATM   11  O   UNL     1     -11.795  10.153  68.645  1.00  0.00    -0.616 OA 
HETATM   12  C   UNL     1      -9.967   9.866  70.098  1.00  0.00    -0.291 A  
HETATM   13  H   UNL     1     -12.101  10.877  69.178  1.00  0.00     0.000 HD 
HETATM   14  C   UNL     1      -8.825   9.171  70.483  1.00  0.00    -0.263 A  
HETATM   15  C   UNL     1      -8.388   8.080  69.728  1.00  0.00    -0.122 A  
ENDBRANCH   5   8
ENDBRANCH   4   5
ENDBRANCH   2   4
TORSDOF 3
ENDMDL
MODEL      273
REMARK 921   NORMALIZED FREE ENERGY PREDICTED BY IDOCK:   -1.88 KCAL/MOL
REMARK 922        TOTAL FREE ENERGY PREDICTED BY IDOCK:   -2.41 KCAL/MOL
REMARK 923 INTER-LIGAND FREE ENERGY PREDICTED BY IDOCK:   -2.32 KCAL/MOL
REMARK 924 INTRA-LIGAND FREE ENERGY PREDICTED BY IDOCK:   -0.10 KCAL/MOL
REMARK 927      BINDING AFFINITY PREDICTED BY RF-SCORE:    0.00 PKD
ROOT
HETATM    1  C   UNL     1      -7.240   4.965  70.451  1.00  0.00    -0.054 C  
HETATM    2  N   UNL     1      -7.113   5.934  69.370  1.00  0.00    -0.063 NA 
HETATM    3  H   UNL     1      -7.161   5.485  68.455  1.00  0.00     0.000 HD 
ENDROOT
BRANCH   2   4
HETATM    4  C   UNL     1      -8.112   7.010  69.499  1.00  0.00    -0.130 C  
BRANCH   4   5
HETATM    5  C   UNL     1      -8.550   7.654  68.154  1.00  0.00    -0.123 C  
HETATM    6  H   UNL     1      -7.675   8.042  66.462  1.00  0.00     0.000 HD 
HETATM    7  O   UNL     1      -7.408   7.648  67.284  1.00  0.00    -0.087 OA 
BRANCH   5   8
HETATM    8  C   UNL     1      -9.121   9.061  68.274  1.00  0.00    -0.133 A  
HETATM    9  C   UNL     1     -10.500   9.324  68.179  1.00  0.00    -0.263 A  
HETATM   10  C   UNL     1     -10.974  10.633  68.287  1.00  0.00    -0.263 A  
HETATM   11  O   UNL     1     -12.308  10.913  68.227  1.00  0.00    -0.730 OA 
HETATM   12  C   UNL     1     -10.103  11.698  68.462  1.00  0.00    -0.210 A  
HETATM   13  H   UNL     1     -12.630  11.804  68.300  1.00  0.00     0.000 HD 
HETATM   14  C   UNL     1      -8.737  11.456  68.567  1.00  0.00    -0.149 A  
HETATM   15  C   UNL     1      -8.256  10.147  68.501  1.00  0.00    -0.111 A  
ENDBRANCH   5   8
ENDBRANCH   4   5
ENDBRANCH   2   4
TORSDOF 3
ENDMDL
MODEL      274
REMARK 921   NORMALIZED FREE ENERGY PREDICTED BY IDOCK:   -1.85 KCAL/MOL
REMARK 922        TOTAL FREE ENERGY PREDICTED BY IDOCK:   -2.38 KCAL/MOL
REMARK 923 INTER-LIGAND FREE ENERGY PREDICTED BY IDOCK:   -2.31 KCAL/MOL
REMARK 924 INTRA-LIGAND FREE ENERGY PREDICTED BY IDOCK:   -0.07 KCAL/MOL
REMARK 927      BINDING AFFINITY PREDICTED BY RF-SCORE:    0.00 PKD
ROOT
HETATM    1  C   UNL     1      -8.453   5.064  72.203  1.00  0.00    -0.125 C  
HETATM    2  N   UNL     1      -9.450   5.377  71.189  1.00  0.00    -0.153 NA 
HETATM    3  H   UNL     1     -10.241   4.734  71.229  1.00  0.00     0.000 HD 
ENDROOT
BRANCH   2   4
HETATM    4  C   UNL     1      -9.887   6.782  71.288  1.00  0.00    -0.176 C  
BRANCH   4   5
HETATM    5  C   UNL     1      -8.924   7.809  70.629  1.00  0.00    -0.145 C  
HETATM    6  H   UNL     1      -8.388   9.638  71.011  1.00  0.00     0.000 HD 
HETATM    7  O   UNL     1      -8.977   9.010  71.413  1.00  0.00    -0.227 OA 
BRANCH   5   8
HETATM    8  C   UNL     1      -9.217   8.114  69.166  1.00  0.00    -0.151 A  
HETATM    9  C   UNL     1      -8.579   9.160  68.473  1.00  0.00    -0.129 A  
HETATM   10  C   UNL     1      -8.889   9.406  67.135  1.00  0.00    -0.127 A  
HETATM   11  O   UNL     1      -8.265  10.395  66.432  1.00  0.00    -0.132 OA 
HETATM   12  C   UNL     1      -9.843   8.651  66.469  1.00  0.00    -0.348 A  
HETATM   13  H   UNL     1      -8.476  10.563  65.521  1.00  0.00     0.000 HD 
HETATM   14  C   UNL     1     -10.477   7.607  67.135  1.00  0.00    -0.412 A  
HETATM   15  C   UNL     1     -10.145   7.326  68.463  1.00  0.00    -0.182 A  
ENDBRANCH   5   8
ENDBRANCH   4   5
ENDBRANCH   2   4
TORSDOF 3
ENDMDL
MODEL      275
REMARK 921   NORMALIZED FREE ENERGY PREDICTED BY IDOCK:   -1.82 KCAL/MOL
REMARK 922        TOTAL FREE ENERGY PREDICTED BY IDOCK:   -2.34 KCAL/MOL
REMARK 923 INTER-LIGAND FREE ENERGY PREDICTED BY IDOCK:   -2.23 KCAL/MOL
REMARK 924 INTRA-LIGAND FREE ENERGY PREDICTED BY IDOCK:   -0.11 KCAL/MOL
REMARK 927      BINDING AFFINITY PREDICTED BY RF-SCORE:    0.00 PKD
ROOT
HETATM    1  C   UNL     1      -9.571   7.757  71.625  1.00  0.00    -0.155 C  
HETATM    2  N   UNL     1      -9.127   7.680  70.239  1.00  0.00    -0.149 NA 
HETATM    3  H   UNL     1      -9.861   7.319  69.629  1.00  0.00     0.000 HD 
ENDROOT
BRANCH   2   4
HETATM    4  C   UNL     1      -8.622   8.982  69.768  1.00  0.00    -0.138 C  
BRANCH   4   5
HETATM    5  C   UNL     1      -9.726  10.032  69.458  1.00  0.00    -0.233 C  
HETATM    6  H   UNL     1     -11.490   9.979  68.643  1.00  0.00     0.000 HD 
HETATM    7  O   UNL     1     -10.815   9.337  68.832  1.00  0.00    -0.194 OA 
BRANCH   5   8
HETATM    8  C   UNL     1      -9.273  11.201  68.593  1.00  0.00    -0.173 A  
HETATM    9  C   UNL     1      -8.051  11.190  67.894  1.00  0.00    -0.119 A  
HETATM   10  C   UNL     1      -7.676  12.289  67.121  1.00  0.00    -0.134 A  
HETATM   11  O   UNL     1      -6.511  12.294  66.410  1.00  0.00    -0.390 OA 
HETATM   12  C   UNL     1      -8.477  13.420  67.045  1.00  0.00    -0.137 A  
HETATM   13  H   UNL     1      -6.255  13.042  65.884  1.00  0.00     0.000 HD 
HETATM   14  C   UNL     1      -9.692  13.445  67.722  1.00  0.00    -0.216 A  
HETATM   15  C   UNL     1     -10.096  12.334  68.465  1.00  0.00    -0.192 A  
ENDBRANCH   5   8
ENDBRANCH   4   5
ENDBRANCH   2   4
TORSDOF 3
ENDMDL
MODEL      276
REMARK 921   NORMALIZED FREE ENERGY PREDICTED BY IDOCK:   -1.81 KCAL/MOL
REMARK 922        TOTAL FREE ENERGY PREDICTED BY IDOCK:   -2.32 KCAL/MOL
REMARK 923 INTER-LIGAND FREE ENERGY PREDICTED BY IDOCK:   -2.17 KCAL/MOL
REMARK 924 INTRA-LIGAND FREE ENERGY PREDICTED BY IDOCK:   -0.15 KCAL/MOL
REMARK 927      BINDING AFFINITY PREDICTED BY RF-SCORE:    0.00 PKD
ROOT
HETATM    1  C   UNL     1      -9.856   5.193  65.550  1.00  0.00     0.029 C  
HETATM    2  N   UNL     1      -8.940   4.988  66.665  1.00  0.00    -0.114 NA 
HETATM    3  H   UNL     1      -8.234   4.284  66.446  1.00  0.00     0.000 HD 
ENDROOT
BRANCH   2   4
HETATM    4  C   UNL     1      -8.326   6.258  67.091  1.00  0.00    -0.109 C  
BRANCH   4   5
HETATM    5  C   UNL     1      -9.240   7.506  66.934  1.00  0.00    -0.149 C  
HETATM    6  H   UNL     1      -8.977   9.344  66.362  1.00  0.00     0.000 HD 
HETATM    7  O   UNL     1      -8.419   8.582  66.458  1.00  0.00    -0.109 OA 
BRANCH   5   8
HETATM    8  C   UNL     1      -9.979   7.920  68.200  1.00  0.00    -0.210 A  
HETATM    9  C   UNL     1     -10.284   9.263  68.488  1.00  0.00    -0.225 A  
HETATM   10  C   UNL     1     -10.955   9.593  69.666  1.00  0.00    -0.229 A  
HETATM   11  O   UNL     1     -11.288  10.884  69.957  1.00  0.00    -0.288 OA 
HETATM   12  C   UNL     1     -11.312   8.617  70.585  1.00  0.00    -0.277 A  
HETATM   13  H   UNL     1     -11.744  11.109  70.759  1.00  0.00     0.000 HD 
HETATM   14  C   UNL     1     -11.028   7.283  70.313  1.00  0.00    -0.281 A  
HETATM   15  C   UNL     1     -10.392   6.938  69.118  1.00  0.00    -0.207 A  
ENDBRANCH   5   8
ENDBRANCH   4   5
ENDBRANCH   2   4
TORSDOF 3
ENDMDL
MODEL      277
REMARK 921   NORMALIZED FREE ENERGY PREDICTED BY IDOCK:   -1.77 KCAL/MOL
REMARK 922        TOTAL FREE ENERGY PREDICTED BY IDOCK:   -2.28 KCAL/MOL
REMARK 923 INTER-LIGAND FREE ENERGY PREDICTED BY IDOCK:   -2.18 KCAL/MOL
REMARK 924 INTRA-LIGAND FREE ENERGY PREDICTED BY IDOCK:   -0.09 KCAL/MOL
REMARK 927      BINDING AFFINITY PREDICTED BY RF-SCORE:    0.00 PKD
ROOT
HETATM    1  C   UNL     1     -10.331   4.559  65.516  1.00  0.00    -0.229 C  
HETATM    2  N   UNL     1      -9.875   4.312  66.878  1.00  0.00    -0.213 NA 
HETATM    3  H   UNL     1      -8.921   3.953  66.894  1.00  0.00     0.000 HD 
ENDROOT
BRANCH   2   4
HETATM    4  C   UNL     1     -10.015   5.518  67.714  1.00  0.00    -0.155 C  
BRANCH   4   5
HETATM    5  C   UNL     1      -9.424   5.388  69.146  1.00  0.00    -0.133 C  
HETATM    6  H   UNL     1     -10.047   4.650  70.832  1.00  0.00     0.000 HD 
HETATM    7  O   UNL     1     -10.408   4.729  69.957  1.00  0.00    -0.249 OA 
BRANCH   5   8
HETATM    8  C   UNL     1      -9.000   6.704  69.785  1.00  0.00    -0.143 A  
HETATM    9  C   UNL     1      -9.595   7.933  69.443  1.00  0.00    -0.160 A  
HETATM   10  C   UNL     1      -9.166   9.113  70.051  1.00  0.00    -0.192 A  
HETATM   11  O   UNL     1      -9.744  10.314  69.759  1.00  0.00    -0.336 OA 
HETATM   12  C   UNL     1      -8.134   9.108  70.979  1.00  0.00    -0.179 A  
HETATM   13  H   UNL     1      -9.451  11.117  70.172  1.00  0.00     0.000 HD 
HETATM   14  C   UNL     1      -7.540   7.901  71.336  1.00  0.00    -0.083 A  
HETATM   15  C   UNL     1      -7.990   6.709  70.763  1.00  0.00    -0.111 A  
ENDBRANCH   5   8
ENDBRANCH   4   5
ENDBRANCH   2   4
TORSDOF 3
ENDMDL
MODEL      278
REMARK 921   NORMALIZED FREE ENERGY PREDICTED BY IDOCK:   -1.73 KCAL/MOL
REMARK 922        TOTAL FREE ENERGY PREDICTED BY IDOCK:   -2.23 KCAL/MOL
REMARK 923 INTER-LIGAND FREE ENERGY PREDICTED BY IDOCK:   -2.41 KCAL/MOL
REMARK 924 INTRA-LIGAND FREE ENERGY PREDICTED BY IDOCK:    0.18 KCAL/MOL
REMARK 927      BINDING AFFINITY PREDICTED BY RF-SCORE:    0.00 PKD
ROOT
HETATM    1  C   UNL     1      -7.015   6.545  72.882  1.00  0.00    -0.073 C  
HETATM    2  N   UNL     1      -7.756   7.269  71.857  1.00  0.00    -0.089 NA 
HETATM    3  H   UNL     1      -7.468   8.246  71.805  1.00  0.00     0.000 HD 
ENDROOT
BRANCH   2   4
HETATM    4  C   UNL     1      -7.646   6.600  70.548  1.00  0.00    -0.099 C  
BRANCH   4   5
HETATM    5  C   UNL     1      -8.426   5.260  70.436  1.00  0.00    -0.115 C  
HETATM    6  H   UNL     1      -9.316   4.299  69.000  1.00  0.00     0.000 HD 
HETATM    7  O   UNL     1      -8.839   5.118  69.068  1.00  0.00    -0.092 OA 
BRANCH   5   8
HETATM    8  C   UNL     1      -9.624   5.137  71.369  1.00  0.00    -0.215 A  
HETATM    9  C   UNL     1     -10.708   6.033  71.323  1.00  0.00    -0.320 A  
HETATM   10  C   UNL     1     -11.779   5.884  72.206  1.00  0.00    -0.252 A  
HETATM   11  O   UNL     1     -12.856   6.721  72.165  1.00  0.00    -0.540 OA 
HETATM   12  C   UNL     1     -11.788   4.875  73.159  1.00  0.00    -0.113 A  
HETATM   13  H   UNL     1     -13.584   6.619  72.766  1.00  0.00     0.000 HD 
HETATM   14  C   UNL     1     -10.728   3.975  73.212  1.00  0.00    -0.286 A  
HETATM   15  C   UNL     1      -9.672   4.091  72.307  1.00  0.00    -0.217 A  
ENDBRANCH   5   8
ENDBRANCH   4   5
ENDBRANCH   2   4
TORSDOF 3
ENDMDL
MODEL      279
REMARK 921   NORMALIZED FREE ENERGY PREDICTED BY IDOCK:   -1.71 KCAL/MOL
REMARK 922        TOTAL FREE ENERGY PREDICTED BY IDOCK:   -2.21 KCAL/MOL
REMARK 923 INTER-LIGAND FREE ENERGY PREDICTED BY IDOCK:   -2.11 KCAL/MOL
REMARK 924 INTRA-LIGAND FREE ENERGY PREDICTED BY IDOCK:   -0.09 KCAL/MOL
REMARK 927      BINDING AFFINITY PREDICTED BY RF-SCORE:    0.00 PKD
ROOT
HETATM    1  C   UNL     1      -8.039  10.086  67.356  1.00  0.00    -0.114 C  
HETATM    2  N   UNL     1      -8.412  10.227  68.757  1.00  0.00    -0.122 NA 
HETATM    3  H   UNL     1      -7.798  10.879  69.245  1.00  0.00     0.000 HD 
ENDROOT
BRANCH   2   4
HETATM    4  C   UNL     1      -9.829  10.608  68.896  1.00  0.00    -0.201 C  
BRANCH   4   5
HETATM    5  C   UNL     1     -10.757   9.477  69.422  1.00  0.00    -0.225 C  
HETATM    6  H   UNL     1     -12.307   9.398  70.591  1.00  0.00     0.000 HD 
HETATM    7  O   UNL     1     -11.740  10.089  70.270  1.00  0.00    -0.258 OA 
BRANCH   5   8
HETATM    8  C   UNL     1     -10.040   8.354  70.162  1.00  0.00    -0.193 A  
HETATM    9  C   UNL     1      -9.725   7.129  69.546  1.00  0.00    -0.157 A  
HETATM   10  C   UNL     1      -9.076   6.127  70.269  1.00  0.00    -0.153 A  
HETATM   11  O   UNL     1      -8.733   4.941  69.689  1.00  0.00    -0.085 OA 
HETATM   12  C   UNL     1      -8.752   6.303  71.607  1.00  0.00    -0.134 A  
HETATM   13  H   UNL     1      -8.292   4.259  70.181  1.00  0.00     0.000 HD 
HETATM   14  C   UNL     1      -9.048   7.512  72.229  1.00  0.00    -0.173 A  
HETATM   15  C   UNL     1      -9.661   8.535  71.504  1.00  0.00    -0.297 A  
ENDBRANCH   5   8
ENDBRANCH   4   5
ENDBRANCH   2   4
TORSDOF 3
ENDMDL
MODEL      280
REMARK 921   NORMALIZED FREE ENERGY PREDICTED BY IDOCK:   -1.71 KCAL/MOL
REMARK 922        TOTAL FREE ENERGY PREDICTED BY IDOCK:   -2.20 KCAL/MOL
REMARK 923 INTER-LIGAND FREE ENERGY PREDICTED BY IDOCK:   -2.01 KCAL/MOL
REMARK 924 INTRA-LIGAND FREE ENERGY PREDICTED BY IDOCK:   -0.19 KCAL/MOL
REMARK 927      BINDING AFFINITY PREDICTED BY RF-SCORE:    0.00 PKD
ROOT
HETATM    1  C   UNL     1     -10.571   7.295  72.938  1.00  0.00    -0.301 C  
HETATM    2  N   UNL     1     -11.183   6.941  71.664  1.00  0.00    -0.240 NA 
HETATM    3  H   UNL     1     -12.043   6.408  71.796  1.00  0.00     0.000 HD 
ENDROOT
BRANCH   2   4
HETATM    4  C   UNL     1     -11.407   8.135  70.830  1.00  0.00    -0.268 C  
BRANCH   4   5
HETATM    5  C   UNL     1     -10.577   8.174  69.516  1.00  0.00    -0.213 C  
HETATM    6  H   UNL     1     -10.227   6.924  68.070  1.00  0.00     0.000 HD 
HETATM    7  O   UNL     1     -10.734   6.901  68.873  1.00  0.00    -0.216 OA 
BRANCH   5   8
HETATM    8  C   UNL     1      -9.100   8.499  69.701  1.00  0.00    -0.149 A  
HETATM    9  C   UNL     1      -8.098   7.514  69.624  1.00  0.00    -0.127 A  
HETATM   10  C   UNL     1      -6.759   7.860  69.811  1.00  0.00    -0.038 A  
HETATM   11  O   UNL     1      -5.765   6.930  69.714  1.00  0.00    -0.018 OA 
HETATM   12  C   UNL     1      -6.389   9.166  70.099  1.00  0.00    -0.044 A  
HETATM   13  H   UNL     1      -4.853   7.166  69.841  1.00  0.00     0.000 HD 
HETATM   14  C   UNL     1      -7.365  10.154  70.170  1.00  0.00    -0.157 A  
HETATM   15  C   UNL     1      -8.704   9.826  69.945  1.00  0.00    -0.238 A  
ENDBRANCH   5   8
ENDBRANCH   4   5
ENDBRANCH   2   4
TORSDOF 3
ENDMDL
MODEL      281
REMARK 921   NORMALIZED FREE ENERGY PREDICTED BY IDOCK:   -1.68 KCAL/MOL
REMARK 922        TOTAL FREE ENERGY PREDICTED BY IDOCK:   -2.17 KCAL/MOL
REMARK 923 INTER-LIGAND FREE ENERGY PREDICTED BY IDOCK:   -2.02 KCAL/MOL
REMARK 924 INTRA-LIGAND FREE ENERGY PREDICTED BY IDOCK:   -0.14 KCAL/MOL
REMARK 927      BINDING AFFINITY PREDICTED BY RF-SCORE:    0.00 PKD
ROOT
HETATM    1  C   UNL     1      -8.168   6.923  73.198  1.00  0.00    -0.106 C  
HETATM    2  N   UNL     1      -7.883   7.547  71.912  1.00  0.00    -0.088 NA 
HETATM    3  H   UNL     1      -7.340   8.404  72.022  1.00  0.00     0.000 HD 
ENDROOT
BRANCH   2   4
HETATM    4  C   UNL     1      -7.220   6.600  70.996  1.00  0.00    -0.078 C  
BRANCH   4   5
HETATM    5  C   UNL     1      -8.185   5.631  70.256  1.00  0.00    -0.104 C  
HETATM    6  H   UNL     1      -8.127   3.759  69.735  1.00  0.00     0.000 HD 
HETATM    7  O   UNL     1      -7.538   4.351  70.188  1.00  0.00    -0.049 OA 
BRANCH   5   8
HETATM    8  C   UNL     1      -8.608   6.089  68.866  1.00  0.00    -0.116 A  
HETATM    9  C   UNL     1      -9.745   5.572  68.217  1.00  0.00    -0.167 A  
HETATM   10  C   UNL     1     -10.086   6.017  66.939  1.00  0.00    -0.185 A  
HETATM   11  O   UNL     1     -11.199   5.554  66.299  1.00  0.00    -0.746 OA 
HETATM   12  C   UNL     1      -9.306   6.951  66.273  1.00  0.00    -0.144 A  
HETATM   13  H   UNL     1     -11.431   5.857  65.429  1.00  0.00     0.000 HD 
HETATM   14  C   UNL     1      -8.183   7.479  66.902  1.00  0.00    -0.124 A  
HETATM   15  C   UNL     1      -7.856   7.071  68.197  1.00  0.00    -0.118 A  
ENDBRANCH   5   8
ENDBRANCH   4   5
ENDBRANCH   2   4
TORSDOF 3
ENDMDL
MODEL      282
REMARK 921   NORMALIZED FREE ENERGY PREDICTED BY IDOCK:   -1.67 KCAL/MOL
REMARK 922        TOTAL FREE ENERGY PREDICTED BY IDOCK:   -2.16 KCAL/MOL
REMARK 923 INTER-LIGAND FREE ENERGY PREDICTED BY IDOCK:   -2.06 KCAL/MOL
REMARK 924 INTRA-LIGAND FREE ENERGY PREDICTED BY IDOCK:   -0.10 KCAL/MOL
REMARK 927      BINDING AFFINITY PREDICTED BY RF-SCORE:    0.00 PKD
ROOT
HETATM    1  C   UNL     1      -8.121  12.409  68.090  1.00  0.00    -0.163 C  
HETATM    2  N   UNL     1      -8.709  11.488  69.055  1.00  0.00    -0.375 NA 
HETATM    3  H   UNL     1      -8.884  11.945  69.951  1.00  0.00     0.000 HD 
ENDROOT
BRANCH   2   4
HETATM    4  C   UNL     1      -9.930  10.862  68.518  1.00  0.00    -0.182 C  
BRANCH   4   5
HETATM    5  C   UNL     1      -9.734   9.416  67.979  1.00  0.00    -0.145 C  
HETATM    6  H   UNL     1      -8.985   7.770  68.691  1.00  0.00     0.000 HD 
HETATM    7  O   UNL     1      -9.105   8.653  69.020  1.00  0.00    -0.144 OA 
BRANCH   5   8
HETATM    8  C   UNL     1      -8.932   9.318  66.688  1.00  0.00    -0.165 A  
HETATM    9  C   UNL     1      -9.223  10.107  65.559  1.00  0.00    -0.237 A  
HETATM   10  C   UNL     1      -8.465   9.974  64.396  1.00  0.00    -0.173 A  
HETATM   11  O   UNL     1      -8.707  10.746  63.297  1.00  0.00    -0.212 OA 
HETATM   12  C   UNL     1      -7.432   9.051  64.315  1.00  0.00    -0.106 A  
HETATM   13  H   UNL     1      -8.191  10.655  62.505  1.00  0.00     0.000 HD 
HETATM   14  C   UNL     1      -7.124   8.269  65.423  1.00  0.00    -0.067 A  
HETATM   15  C   UNL     1      -7.851   8.423  66.606  1.00  0.00    -0.093 A  
ENDBRANCH   5   8
ENDBRANCH   4   5
ENDBRANCH   2   4
TORSDOF 3
ENDMDL
MODEL      283
REMARK 921   NORMALIZED FREE ENERGY PREDICTED BY IDOCK:   -1.66 KCAL/MOL
REMARK 922        TOTAL FREE ENERGY PREDICTED BY IDOCK:   -2.16 KCAL/MOL
REMARK 923 INTER-LIGAND FREE ENERGY PREDICTED BY IDOCK:   -1.98 KCAL/MOL
REMARK 924 INTRA-LIGAND FREE ENERGY PREDICTED BY IDOCK:   -0.18 KCAL/MOL
REMARK 927      BINDING AFFINITY PREDICTED BY RF-SCORE:    0.00 PKD
ROOT
HETATM    1  C   UNL     1      -8.992   9.959  65.980  1.00  0.00    -0.149 C  
HETATM    2  N   UNL     1      -7.865   9.439  66.744  1.00  0.00    -0.104 NA 
HETATM    3  H   UNL     1      -7.127  10.136  66.846  1.00  0.00     0.000 HD 
ENDROOT
BRANCH   2   4
HETATM    4  C   UNL     1      -8.304   8.917  68.052  1.00  0.00    -0.121 C  
BRANCH   4   5
HETATM    5  C   UNL     1      -9.725   8.288  68.056  1.00  0.00    -0.161 C  
HETATM    6  H   UNL     1     -11.368   8.600  69.047  1.00  0.00     0.000 HD 
HETATM    7  O   UNL     1     -10.499   8.985  69.044  1.00  0.00    -0.219 OA 
BRANCH   5   8
HETATM    8  C   UNL     1      -9.760   6.787  68.313  1.00  0.00    -0.126 A  
HETATM    9  C   UNL     1      -9.937   6.248  69.600  1.00  0.00    -0.201 A  
HETATM   10  C   UNL     1      -9.953   4.865  69.786  1.00  0.00    -0.244 A  
HETATM   11  O   UNL     1     -10.151   4.316  71.018  1.00  0.00    -0.178 OA 
HETATM   12  C   UNL     1      -9.769   3.997  68.719  1.00  0.00    -0.143 A  
HETATM   13  H   UNL     1     -10.161   3.374  71.144  1.00  0.00     0.000 HD 
HETATM   14  C   UNL     1      -9.602   4.512  67.437  1.00  0.00    -0.209 A  
HETATM   15  C   UNL     1      -9.625   5.893  67.236  1.00  0.00    -0.122 A  
ENDBRANCH   5   8
ENDBRANCH   4   5
ENDBRANCH   2   4
TORSDOF 3
ENDMDL
MODEL      284
REMARK 921   NORMALIZED FREE ENERGY PREDICTED BY IDOCK:   -1.62 KCAL/MOL
REMARK 922        TOTAL FREE ENERGY PREDICTED BY IDOCK:   -2.10 KCAL/MOL
REMARK 923 INTER-LIGAND FREE ENERGY PREDICTED BY IDOCK:   -2.05 KCAL/MOL
REMARK 924 INTRA-LIGAND FREE ENERGY PREDICTED BY IDOCK:   -0.06 KCAL/MOL
REMARK 927      BINDING AFFINITY PREDICTED BY RF-SCORE:    0.00 PKD
ROOT
HETATM    1  C   UNL     1     -10.702   7.459  73.234  1.00  0.00    -0.391 C  
HETATM    2  N   UNL     1     -10.973   7.633  71.813  1.00  0.00    -0.235 NA 
HETATM    3  H   UNL     1     -11.960   7.485  71.599  1.00  0.00     0.000 HD 
ENDROOT
BRANCH   2   4
HETATM    4  C   UNL     1     -10.505   8.947  71.337  1.00  0.00    -0.305 C  
BRANCH   4   5
HETATM    5  C   UNL     1      -9.301   8.891  70.355  1.00  0.00    -0.193 C  
HETATM    6  H   UNL     1      -8.940   9.583  68.575  1.00  0.00     0.000 HD 
HETATM    7  O   UNL     1      -9.676   9.618  69.176  1.00  0.00    -0.165 OA 
BRANCH   5   8
HETATM    8  C   UNL     1      -8.838   7.486  69.991  1.00  0.00    -0.144 A  
HETATM    9  C   UNL     1      -9.349   6.790  68.879  1.00  0.00    -0.129 A  
HETATM   10  C   UNL     1      -8.899   5.501  68.592  1.00  0.00    -0.107 A  
HETATM   11  O   UNL     1      -9.356   4.815  67.505  1.00  0.00    -0.125 OA 
HETATM   12  C   UNL     1      -7.966   4.869  69.402  1.00  0.00    -0.074 A  
HETATM   13  H   UNL     1      -9.050   3.937  67.310  1.00  0.00     0.000 HD 
HETATM   14  C   UNL     1      -7.443   5.546  70.500  1.00  0.00    -0.080 A  
HETATM   15  C   UNL     1      -7.857   6.851  70.773  1.00  0.00    -0.097 A  
ENDBRANCH   5   8
ENDBRANCH   4   5
ENDBRANCH   2   4
TORSDOF 3
ENDMDL
MODEL      285
REMARK 921   NORMALIZED FREE ENERGY PREDICTED BY IDOCK:   -1.62 KCAL/MOL
REMARK 922        TOTAL FREE ENERGY PREDICTED BY IDOCK:   -2.10 KCAL/MOL
REMARK 923 INTER-LIGAND FREE ENERGY PREDICTED BY IDOCK:   -1.98 KCAL/MOL
REMARK 924 INTRA-LIGAND FREE ENERGY PREDICTED BY IDOCK:   -0.12 KCAL/MOL
REMARK 927      BINDING AFFINITY PREDICTED BY RF-SCORE:    0.00 PKD
ROOT
HETATM    1  C   UNL     1     -10.508   8.273  67.967  1.00  0.00    -0.181 C  
HETATM    2  N   UNL     1      -9.706   7.548  68.944  1.00  0.00    -0.150 NA 
HETATM    3  H   UNL     1      -8.847   7.186  68.530  1.00  0.00     0.000 HD 
ENDROOT
BRANCH   2   4
HETATM    4  C   UNL     1      -9.429   8.382  70.128  1.00  0.00    -0.164 C  
BRANCH   4   5
HETATM    5  C   UNL     1     -10.027   7.841  71.457  1.00  0.00    -0.171 C  
HETATM    6  H   UNL     1     -11.120   8.586  72.881  1.00  0.00     0.000 HD 
HETATM    7  O   UNL     1     -10.754   8.917  72.069  1.00  0.00    -0.339 OA 
BRANCH   5   8
HETATM    8  C   UNL     1      -9.006   7.267  72.431  1.00  0.00    -0.149 A  
HETATM    9  C   UNL     1      -8.669   5.901  72.450  1.00  0.00    -0.127 A  
HETATM   10  C   UNL     1      -7.734   5.421  73.368  1.00  0.00    -0.096 A  
HETATM   11  O   UNL     1      -7.368   4.107  73.389  1.00  0.00    -0.070 OA 
HETATM   12  C   UNL     1      -7.138   6.267  74.293  1.00  0.00    -0.086 A  
HETATM   13  H   UNL     1      -6.731   3.781  74.014  1.00  0.00     0.000 HD 
HETATM   14  C   UNL     1      -7.452   7.623  74.283  1.00  0.00    -0.168 A  
HETATM   15  C   UNL     1      -8.356   8.119  73.342  1.00  0.00    -0.282 A  
ENDBRANCH   5   8
ENDBRANCH   4   5
ENDBRANCH   2   4
TORSDOF 3
ENDMDL
MODEL      286
REMARK 921   NORMALIZED FREE ENERGY PREDICTED BY IDOCK:   -1.61 KCAL/MOL
REMARK 922        TOTAL FREE ENERGY PREDICTED BY IDOCK:   -2.09 KCAL/MOL
REMARK 923 INTER-LIGAND FREE ENERGY PREDICTED BY IDOCK:   -1.96 KCAL/MOL
REMARK 924 INTRA-LIGAND FREE ENERGY PREDICTED BY IDOCK:   -0.12 KCAL/MOL
REMARK 927      BINDING AFFINITY PREDICTED BY RF-SCORE:    0.00 PKD
ROOT
HETATM    1  C   UNL     1      -8.536   6.790  69.051  1.00  0.00    -0.131 C  
HETATM    2  N   UNL     1      -9.526   7.825  68.778  1.00  0.00    -0.149 NA 
HETATM    3  H   UNL     1     -10.430   7.597  69.192  1.00  0.00     0.000 HD 
ENDROOT
BRANCH   2   4
HETATM    4  C   UNL     1      -9.047   9.149  69.215  1.00  0.00    -0.146 C  
BRANCH   4   5
HETATM    5  C   UNL     1      -7.941   9.768  68.314  1.00  0.00    -0.096 C  
HETATM    6  H   UNL     1      -7.215  11.551  68.052  1.00  0.00     0.000 HD 
HETATM    7  O   UNL     1      -7.890  11.173  68.602  1.00  0.00    -0.123 OA 
BRANCH   5   8
HETATM    8  C   UNL     1      -8.128   9.537  66.820  1.00  0.00    -0.109 A  
HETATM    9  C   UNL     1      -9.158  10.156  66.087  1.00  0.00    -0.184 A  
HETATM   10  C   UNL     1      -9.294   9.905  64.721  1.00  0.00    -0.278 A  
HETATM   11  O   UNL     1     -10.265  10.513  63.980  1.00  0.00    -0.391 OA 
HETATM   12  C   UNL     1      -8.443   9.027  64.064  1.00  0.00    -0.175 A  
HETATM   13  H   UNL     1     -10.358  10.342  63.050  1.00  0.00     0.000 HD 
HETATM   14  C   UNL     1      -7.414   8.414  64.771  1.00  0.00    -0.096 A  
HETATM   15  C   UNL     1      -7.244   8.689  66.130  1.00  0.00    -0.085 A  
ENDBRANCH   5   8
ENDBRANCH   4   5
ENDBRANCH   2   4
TORSDOF 3
ENDMDL
MODEL      287
REMARK 921   NORMALIZED FREE ENERGY PREDICTED BY IDOCK:   -1.57 KCAL/MOL
REMARK 922        TOTAL FREE ENERGY PREDICTED BY IDOCK:   -2.04 KCAL/MOL
REMARK 923 INTER-LIGAND FREE ENERGY PREDICTED BY IDOCK:   -2.67 KCAL/MOL
REMARK 924 INTRA-LIGAND FREE ENERGY PREDICTED BY IDOCK:    0.63 KCAL/MOL
REMARK 927      BINDING AFFINITY PREDICTED BY RF-SCORE:    0.00 PKD
ROOT
HETATM    1  C   UNL     1      -8.672   5.921  73.877  1.00  0.00    -0.123 C  
HETATM    2  N   UNL     1      -9.319   6.256  72.615  1.00  0.00    -0.146 NA 
HETATM    3  H   UNL     1      -9.292   5.473  71.961  1.00  0.00     0.000 HD 
ENDROOT
BRANCH   2   4
HETATM    4  C   UNL     1     -10.696   6.734  72.833  1.00  0.00    -0.261 C  
BRANCH   4   5
HETATM    5  C   UNL     1     -11.588   6.747  71.559  1.00  0.00    -0.300 C  
HETATM    6  H   UNL     1     -13.375   6.121  71.121  1.00  0.00     0.000 HD 
HETATM    7  O   UNL     1     -12.830   6.113  71.900  1.00  0.00    -0.029 OA 
BRANCH   5   8
HETATM    8  C   UNL     1     -10.967   6.082  70.338  1.00  0.00    -0.399 A  
HETATM    9  C   UNL     1     -10.211   4.899  70.428  1.00  0.00    -0.292 A  
HETATM   10  C   UNL     1      -9.655   4.332  69.280  1.00  0.00    -0.190 A  
HETATM   11  O   UNL     1      -8.942   3.171  69.334  1.00  0.00    -0.090 OA 
HETATM   12  C   UNL     1      -9.811   4.931  68.037  1.00  0.00    -0.197 A  
HETATM   13  H   UNL     1      -8.564   2.785  68.553  1.00  0.00     0.000 HD 
HETATM   14  C   UNL     1     -10.563   6.096  67.928  1.00  0.00    -0.331 A  
HETATM   15  C   UNL     1     -11.157   6.649  69.065  1.00  0.00    -0.318 A  
ENDBRANCH   5   8
ENDBRANCH   4   5
ENDBRANCH   2   4
TORSDOF 3
ENDMDL
MODEL      288
REMARK 921   NORMALIZED FREE ENERGY PREDICTED BY IDOCK:   -1.56 KCAL/MOL
REMARK 922        TOTAL FREE ENERGY PREDICTED BY IDOCK:   -2.03 KCAL/MOL
REMARK 923 INTER-LIGAND FREE ENERGY PREDICTED BY IDOCK:   -1.85 KCAL/MOL
REMARK 924 INTRA-LIGAND FREE ENERGY PREDICTED BY IDOCK:   -0.18 KCAL/MOL
REMARK 927      BINDING AFFINITY PREDICTED BY RF-SCORE:    0.00 PKD
ROOT
HETATM    1  C   UNL     1     -10.150   5.336  72.328  1.00  0.00    -0.189 C  
HETATM    2  N   UNL     1      -8.814   5.011  71.846  1.00  0.00    -0.128 NA 
HETATM    3  H   UNL     1      -8.425   4.205  72.335  1.00  0.00     0.000 HD 
ENDROOT
BRANCH   2   4
HETATM    4  C   UNL     1      -8.807   4.816  70.385  1.00  0.00    -0.103 C  
BRANCH   4   5
HETATM    5  C   UNL     1      -7.836   5.751  69.610  1.00  0.00    -0.096 C  
HETATM    6  H   UNL     1      -6.585   7.154  70.104  1.00  0.00     0.000 HD 
HETATM    7  O   UNL     1      -7.178   6.582  70.578  1.00  0.00    -0.070 OA 
BRANCH   5   8
HETATM    8  C   UNL     1      -8.493   6.605  68.534  1.00  0.00    -0.122 A  
HETATM    9  C   UNL     1      -7.954   6.731  67.240  1.00  0.00    -0.114 A  
HETATM   10  C   UNL     1      -8.589   7.533  66.291  1.00  0.00    -0.145 A  
HETATM   11  O   UNL     1      -8.103   7.651  65.021  1.00  0.00    -0.129 OA 
HETATM   12  C   UNL     1      -9.741   8.239  66.604  1.00  0.00    -0.321 A  
HETATM   13  H   UNL     1      -8.535   8.198  64.375  1.00  0.00     0.000 HD 
HETATM   14  C   UNL     1     -10.294   8.119  67.875  1.00  0.00    -0.280 A  
HETATM   15  C   UNL     1      -9.689   7.287  68.819  1.00  0.00    -0.151 A  
ENDBRANCH   5   8
ENDBRANCH   4   5
ENDBRANCH   2   4
TORSDOF 3
ENDMDL
MODEL      289
REMARK 921   NORMALIZED FREE ENERGY PREDICTED BY IDOCK:   -1.52 KCAL/MOL
REMARK 922        TOTAL FREE ENERGY PREDICTED BY IDOCK:   -1.99 KCAL/MOL
REMARK 923 INTER-LIGAND FREE ENERGY PREDICTED BY IDOCK:   -1.80 KCAL/MOL
REMARK 924 INTRA-LIGAND FREE ENERGY PREDICTED BY IDOCK:   -0.19 KCAL/MOL
REMARK 927      BINDING AFFINITY PREDICTED BY RF-SCORE:    0.00 PKD
ROOT
HETATM    1  C   UNL     1      -9.195   6.403  70.683  1.00  0.00    -0.158 C  
HETATM    2  N   UNL     1      -7.793   6.067  70.471  1.00  0.00    -0.100 NA 
HETATM    3  H   UNL     1      -7.521   5.241  71.004  1.00  0.00     0.000 HD 
ENDROOT
BRANCH   2   4
HETATM    4  C   UNL     1      -7.495   5.909  69.036  1.00  0.00    -0.085 C  
BRANCH   4   5
HETATM    5  C   UNL     1      -6.723   7.098  68.399  1.00  0.00    -0.057 C  
HETATM    6  H   UNL     1      -5.665   8.579  69.082  1.00  0.00     0.000 HD 
HETATM    7  O   UNL     1      -6.137   7.852  69.471  1.00  0.00    -0.032 OA 
BRANCH   5   8
HETATM    8  C   UNL     1      -7.564   8.004  67.508  1.00  0.00    -0.101 A  
HETATM    9  C   UNL     1      -7.022   9.123  66.848  1.00  0.00    -0.081 A  
HETATM   10  C   UNL     1      -7.836   9.928  66.050  1.00  0.00    -0.111 A  
HETATM   11  O   UNL     1      -7.332  11.001  65.376  1.00  0.00    -0.359 OA 
HETATM   12  C   UNL     1      -9.191   9.662  65.910  1.00  0.00    -0.246 A  
HETATM   13  H   UNL     1      -7.886  11.550  64.833  1.00  0.00     0.000 HD 
HETATM   14  C   UNL     1      -9.742   8.555  66.548  1.00  0.00    -0.330 A  
HETATM   15  C   UNL     1      -8.928   7.720  67.316  1.00  0.00    -0.136 A  
ENDBRANCH   5   8
ENDBRANCH   4   5
ENDBRANCH   2   4
TORSDOF 3
ENDMDL
MODEL      290
REMARK 921   NORMALIZED FREE ENERGY PREDICTED BY IDOCK:   -1.51 KCAL/MOL
REMARK 922        TOTAL FREE ENERGY PREDICTED BY IDOCK:   -1.97 KCAL/MOL
REMARK 923 INTER-LIGAND FREE ENERGY PREDICTED BY IDOCK:   -1.87 KCAL/MOL
REMARK 924 INTRA-LIGAND FREE ENERGY PREDICTED BY IDOCK:   -0.10 KCAL/MOL
REMARK 927      BINDING AFFINITY PREDICTED BY RF-SCORE:    0.00 PKD
ROOT
HETATM    1  C   UNL     1     -11.331  12.242  63.462  1.00  0.00    -0.470 C  
HETATM    2  N   UNL     1     -10.814  12.073  64.814  1.00  0.00    -0.295 NA 
HETATM    3  H   UNL     1     -11.562  11.874  65.479  1.00  0.00     0.000 HD 
ENDROOT
BRANCH   2   4
HETATM    4  C   UNL     1      -9.761  11.043  64.857  1.00  0.00    -0.254 C  
BRANCH   4   5
HETATM    5  C   UNL     1      -9.575  10.362  66.242  1.00  0.00    -0.182 C  
HETATM    6  H   UNL     1      -9.742  10.933  68.093  1.00  0.00     0.000 HD 
HETATM    7  O   UNL     1      -9.856  11.349  67.246  1.00  0.00    -0.187 OA 
BRANCH   5   8
HETATM    8  C   UNL     1      -8.203   9.743  66.472  1.00  0.00    -0.120 A  
HETATM    9  C   UNL     1      -7.832   8.506  65.914  1.00  0.00    -0.099 A  
HETATM   10  C   UNL     1      -6.564   7.976  66.162  1.00  0.00    -0.047 A  
HETATM   11  O   UNL     1      -6.169   6.793  65.610  1.00  0.00    -0.037 OA 
HETATM   12  C   UNL     1      -5.658   8.638  66.978  1.00  0.00    -0.038 A  
HETATM   13  H   UNL     1      -5.306   6.432  65.779  1.00  0.00     0.000 HD 
HETATM   14  C   UNL     1      -6.004   9.867  67.530  1.00  0.00    -0.054 A  
HETATM   15  C   UNL     1      -7.254  10.424  67.256  1.00  0.00    -0.089 A  
ENDBRANCH   5   8
ENDBRANCH   4   5
ENDBRANCH   2   4
TORSDOF 3
ENDMDL
MODEL      291
REMARK 921   NORMALIZED FREE ENERGY PREDICTED BY IDOCK:   -1.44 KCAL/MOL
REMARK 922        TOTAL FREE ENERGY PREDICTED BY IDOCK:   -1.90 KCAL/MOL
REMARK 923 INTER-LIGAND FREE ENERGY PREDICTED BY IDOCK:   -1.73 KCAL/MOL
REMARK 924 INTRA-LIGAND FREE ENERGY PREDICTED BY IDOCK:   -0.16 KCAL/MOL
REMARK 927      BINDING AFFINITY PREDICTED BY RF-SCORE:    0.00 PKD
ROOT
HETATM    1  C   UNL     1      -6.686  10.272  67.553  1.00  0.00    -0.071 C  
HETATM    2  N   UNL     1      -6.048   9.279  66.699  1.00  0.00    -0.063 NA 
HETATM    3  H   UNL     1      -5.078   9.524  66.499  1.00  0.00     0.000 HD 
ENDROOT
BRANCH   2   4
HETATM    4  C   UNL     1      -6.157   7.928  67.279  1.00  0.00    -0.053 C  
BRANCH   4   5
HETATM    5  C   UNL     1      -6.628   6.831  66.283  1.00  0.00    -0.048 C  
HETATM    6  H   UNL     1      -6.919   6.745  64.363  1.00  0.00     0.000 HD 
HETATM    7  O   UNL     1      -6.632   7.416  64.972  1.00  0.00    -0.043 OA 
BRANCH   5   8
HETATM    8  C   UNL     1      -7.987   6.221  66.598  1.00  0.00    -0.108 A  
HETATM    9  C   UNL     1      -9.155   6.999  66.703  1.00  0.00    -0.175 A  
HETATM   10  C   UNL     1     -10.376   6.394  67.003  1.00  0.00    -0.244 A  
HETATM   11  O   UNL     1     -11.528   7.120  67.083  1.00  0.00    -0.484 OA 
HETATM   12  C   UNL     1     -10.463   5.027  67.229  1.00  0.00    -0.151 A  
HETATM   13  H   UNL     1     -12.360   6.708  67.288  1.00  0.00     0.000 HD 
HETATM   14  C   UNL     1      -9.321   4.241  67.120  1.00  0.00    -0.187 A  
HETATM   15  C   UNL     1      -8.101   4.831  66.781  1.00  0.00    -0.107 A  
ENDBRANCH   5   8
ENDBRANCH   4   5
ENDBRANCH   2   4
TORSDOF 3
ENDMDL
MODEL      292
REMARK 921   NORMALIZED FREE ENERGY PREDICTED BY IDOCK:   -1.43 KCAL/MOL
REMARK 922        TOTAL FREE ENERGY PREDICTED BY IDOCK:   -1.88 KCAL/MOL
REMARK 923 INTER-LIGAND FREE ENERGY PREDICTED BY IDOCK:   -1.75 KCAL/MOL
REMARK 924 INTRA-LIGAND FREE ENERGY PREDICTED BY IDOCK:   -0.13 KCAL/MOL
REMARK 927      BINDING AFFINITY PREDICTED BY RF-SCORE:    0.00 PKD
ROOT
HETATM    1  C   UNL     1      -6.691   5.063  70.100  1.00  0.00    -0.037 C  
HETATM    2  N   UNL     1      -7.501   5.914  69.239  1.00  0.00    -0.082 NA 
HETATM    3  H   UNL     1      -8.115   5.364  68.637  1.00  0.00     0.000 HD 
ENDROOT
BRANCH   2   4
HETATM    4  C   UNL     1      -8.259   6.903  70.028  1.00  0.00    -0.134 C  
BRANCH   4   5
HETATM    5  C   UNL     1      -9.276   7.745  69.208  1.00  0.00    -0.145 C  
HETATM    6  H   UNL     1     -10.151   7.554  67.483  1.00  0.00     0.000 HD 
HETATM    7  O   UNL     1      -9.529   7.039  67.984  1.00  0.00    -0.127 OA 
BRANCH   5   8
HETATM    8  C   UNL     1      -8.836   9.174  68.917  1.00  0.00    -0.139 A  
HETATM    9  C   UNL     1      -7.935   9.868  69.747  1.00  0.00    -0.181 A  
HETATM   10  C   UNL     1      -7.569  11.180  69.443  1.00  0.00    -0.008 A  
HETATM   11  O   UNL     1      -6.677  11.865  70.214  1.00  0.00    -0.463 OA 
HETATM   12  C   UNL     1      -8.099  11.835  68.341  1.00  0.00    -0.150 A  
HETATM   13  H   UNL     1      -6.428  12.759  70.008  1.00  0.00     0.000 HD 
HETATM   14  C   UNL     1      -8.983  11.161  67.504  1.00  0.00    -0.139 A  
HETATM   15  C   UNL     1      -9.325   9.835  67.777  1.00  0.00    -0.148 A  
ENDBRANCH   5   8
ENDBRANCH   4   5
ENDBRANCH   2   4
TORSDOF 3
ENDMDL
MODEL      293
REMARK 921   NORMALIZED FREE ENERGY PREDICTED BY IDOCK:   -1.43 KCAL/MOL
REMARK 922        TOTAL FREE ENERGY PREDICTED BY IDOCK:   -1.87 KCAL/MOL
REMARK 923 INTER-LIGAND FREE ENERGY PREDICTED BY IDOCK:   -1.79 KCAL/MOL
REMARK 924 INTRA-LIGAND FREE ENERGY PREDICTED BY IDOCK:   -0.09 KCAL/MOL
REMARK 927      BINDING AFFINITY PREDICTED BY RF-SCORE:    0.00 PKD
ROOT
HETATM    1  C   UNL     1     -10.489   4.726  66.327  1.00  0.00    -0.269 C  
HETATM    2  N   UNL     1     -10.979   5.437  67.500  1.00  0.00    -0.128 NA 
HETATM    3  H   UNL     1     -11.648   4.875  68.027  1.00  0.00     0.000 HD 
ENDROOT
BRANCH   2   4
HETATM    4  C   UNL     1      -9.865   5.893  68.351  1.00  0.00    -0.134 C  
BRANCH   4   5
HETATM    5  C   UNL     1     -10.133   5.794  69.879  1.00  0.00    -0.209 C  
HETATM    6  H   UNL     1     -11.460   6.524  71.097  1.00  0.00     0.000 HD 
HETATM    7  O   UNL     1     -11.296   6.585  70.163  1.00  0.00    -0.341 OA 
BRANCH   5   8
HETATM    8  C   UNL     1      -8.968   6.224  70.762  1.00  0.00    -0.144 A  
HETATM    9  C   UNL     1      -8.484   5.421  71.812  1.00  0.00    -0.127 A  
HETATM   10  C   UNL     1      -7.420   5.864  72.599  1.00  0.00    -0.096 A  
HETATM   11  O   UNL     1      -6.912   5.094  73.605  1.00  0.00    -0.077 OA 
HETATM   12  C   UNL     1      -6.836   7.104  72.384  1.00  0.00    -0.064 A  
HETATM   13  H   UNL     1      -6.188   5.396  74.141  1.00  0.00     0.000 HD 
HETATM   14  C   UNL     1      -7.296   7.906  71.345  1.00  0.00    -0.066 A  
HETATM   15  C   UNL     1      -8.333   7.456  70.526  1.00  0.00    -0.132 A  
ENDBRANCH   5   8
ENDBRANCH   4   5
ENDBRANCH   2   4
TORSDOF 3
ENDMDL
MODEL      294
REMARK 921   NORMALIZED FREE ENERGY PREDICTED BY IDOCK:   -1.34 KCAL/MOL
REMARK 922        TOTAL FREE ENERGY PREDICTED BY IDOCK:   -1.77 KCAL/MOL
REMARK 923 INTER-LIGAND FREE ENERGY PREDICTED BY IDOCK:   -1.68 KCAL/MOL
REMARK 924 INTRA-LIGAND FREE ENERGY PREDICTED BY IDOCK:   -0.10 KCAL/MOL
REMARK 927      BINDING AFFINITY PREDICTED BY RF-SCORE:    0.00 PKD
ROOT
HETATM    1  C   UNL     1      -9.582   8.933  71.669  1.00  0.00    -0.293 C  
HETATM    2  N   UNL     1      -9.850   9.184  70.259  1.00  0.00    -0.193 NA 
HETATM    3  H   UNL     1      -9.147   9.797  69.846  1.00  0.00     0.000 HD 
ENDROOT
BRANCH   2   4
HETATM    4  C   UNL     1      -9.978   7.921  69.508  1.00  0.00    -0.189 C  
BRANCH   4   5
HETATM    5  C   UNL     1      -8.747   7.564  68.627  1.00  0.00    -0.128 C  
HETATM    6  H   UNL     1      -8.167   8.005  66.825  1.00  0.00     0.000 HD 
HETATM    7  O   UNL     1      -8.919   8.223  67.364  1.00  0.00    -0.132 OA 
BRANCH   5   8
HETATM    8  C   UNL     1      -8.520   6.072  68.422  1.00  0.00    -0.112 A  
HETATM    9  C   UNL     1      -7.246   5.483  68.533  1.00  0.00    -0.074 A  
HETATM   10  C   UNL     1      -7.087   4.112  68.327  1.00  0.00    -0.055 A  
HETATM   11  O   UNL     1      -5.869   3.510  68.456  1.00  0.00    -0.021 OA 
HETATM   12  C   UNL     1      -8.166   3.308  67.986  1.00  0.00    -0.088 A  
HETATM   13  H   UNL     1      -5.761   2.577  68.315  1.00  0.00     0.000 HD 
HETATM   14  C   UNL     1      -9.433   3.871  67.881  1.00  0.00    -0.227 A  
HETATM   15  C   UNL     1      -9.610   5.235  68.125  1.00  0.00    -0.164 A  
ENDBRANCH   5   8
ENDBRANCH   4   5
ENDBRANCH   2   4
TORSDOF 3
ENDMDL
MODEL      295
REMARK 921   NORMALIZED FREE ENERGY PREDICTED BY IDOCK:   -1.34 KCAL/MOL
REMARK 922        TOTAL FREE ENERGY PREDICTED BY IDOCK:   -1.77 KCAL/MOL
REMARK 923 INTER-LIGAND FREE ENERGY PREDICTED BY IDOCK:   -1.76 KCAL/MOL
REMARK 924 INTRA-LIGAND FREE ENERGY PREDICTED BY IDOCK:   -0.01 KCAL/MOL
REMARK 927      BINDING AFFINITY PREDICTED BY RF-SCORE:    0.00 PKD
ROOT
HETATM    1  C   UNL     1      -6.658   9.495  67.415  1.00  0.00    -0.070 C  
HETATM    2  N   UNL     1      -5.950   8.465  66.666  1.00  0.00    -0.048 NA 
HETATM    3  H   UNL     1      -4.988   8.740  66.467  1.00  0.00     0.000 HD 
ENDROOT
BRANCH   2   4
HETATM    4  C   UNL     1      -6.011   7.165  67.359  1.00  0.00    -0.029 C  
BRANCH   4   5
HETATM    5  C   UNL     1      -7.274   6.317  67.039  1.00  0.00    -0.075 C  
HETATM    6  H   UNL     1      -8.750   6.464  65.783  1.00  0.00     0.000 HD 
HETATM    7  O   UNL     1      -7.978   6.982  65.979  1.00  0.00    -0.099 OA 
BRANCH   5   8
HETATM    8  C   UNL     1      -8.200   6.076  68.224  1.00  0.00    -0.110 A  
HETATM    9  C   UNL     1      -9.587   6.301  68.153  1.00  0.00    -0.115 A  
HETATM   10  C   UNL     1     -10.393   6.073  69.269  1.00  0.00    -0.233 A  
HETATM   11  O   UNL     1     -11.744   6.256  69.220  1.00  0.00    -0.526 OA 
HETATM   12  C   UNL     1      -9.847   5.649  70.473  1.00  0.00    -0.249 A  
HETATM   13  H   UNL     1     -12.292   6.101  69.980  1.00  0.00     0.000 HD 
HETATM   14  C   UNL     1      -8.479   5.413  70.559  1.00  0.00    -0.122 A  
HETATM   15  C   UNL     1      -7.670   5.599  69.436  1.00  0.00    -0.088 A  
ENDBRANCH   5   8
ENDBRANCH   4   5
ENDBRANCH   2   4
TORSDOF 3
ENDMDL
MODEL      296
REMARK 921   NORMALIZED FREE ENERGY PREDICTED BY IDOCK:   -1.22 KCAL/MOL
REMARK 922        TOTAL FREE ENERGY PREDICTED BY IDOCK:   -1.63 KCAL/MOL
REMARK 923 INTER-LIGAND FREE ENERGY PREDICTED BY IDOCK:   -1.52 KCAL/MOL
REMARK 924 INTRA-LIGAND FREE ENERGY PREDICTED BY IDOCK:   -0.11 KCAL/MOL
REMARK 927      BINDING AFFINITY PREDICTED BY RF-SCORE:    0.00 PKD
ROOT
HETATM    1  C   UNL     1      -9.433   9.832  67.118  1.00  0.00    -0.154 C  
HETATM    2  N   UNL     1      -8.579   9.097  68.042  1.00  0.00    -0.125 NA 
HETATM    3  H   UNL     1      -9.023   8.985  68.954  1.00  0.00     0.000 HD 
ENDROOT
BRANCH   2   4
HETATM    4  C   UNL     1      -8.171   7.800  67.473  1.00  0.00    -0.124 C  
BRANCH   4   5
HETATM    5  C   UNL     1      -6.878   7.847  66.612  1.00  0.00    -0.071 C  
HETATM    6  H   UNL     1      -5.175   8.777  66.732  1.00  0.00     0.000 HD 
HETATM    7  O   UNL     1      -5.965   8.748  67.258  1.00  0.00    -0.045 OA 
BRANCH   5   8
HETATM    8  C   UNL     1      -7.090   8.255  65.160  1.00  0.00    -0.075 A  
HETATM    9  C   UNL     1      -6.622   9.479  64.646  1.00  0.00    -0.093 A  
HETATM   10  C   UNL     1      -6.851   9.812  63.310  1.00  0.00    -0.117 A  
HETATM   11  O   UNL     1      -6.384  10.979  62.779  1.00  0.00    -0.362 OA 
HETATM   12  C   UNL     1      -7.560   8.965  62.471  1.00  0.00    -0.110 A  
HETATM   13  H   UNL     1      -6.539  11.206  61.870  1.00  0.00     0.000 HD 
HETATM   14  C   UNL     1      -8.022   7.747  62.959  1.00  0.00    -0.123 A  
HETATM   15  C   UNL     1      -7.764   7.386  64.284  1.00  0.00    -0.121 A  
ENDBRANCH   5   8
ENDBRANCH   4   5
ENDBRANCH   2   4
TORSDOF 3
ENDMDL
MODEL      297
REMARK 921   NORMALIZED FREE ENERGY PREDICTED BY IDOCK:   -1.21 KCAL/MOL
REMARK 922        TOTAL FREE ENERGY PREDICTED BY IDOCK:   -1.63 KCAL/MOL
REMARK 923 INTER-LIGAND FREE ENERGY PREDICTED BY IDOCK:   -1.60 KCAL/MOL
REMARK 924 INTRA-LIGAND FREE ENERGY PREDICTED BY IDOCK:   -0.03 KCAL/MOL
REMARK 927      BINDING AFFINITY PREDICTED BY RF-SCORE:    0.00 PKD
ROOT
HETATM    1  C   UNL     1      -8.736   9.905  66.034  1.00  0.00    -0.137 C  
HETATM    2  N   UNL     1      -7.400   9.804  66.607  1.00  0.00    -0.093 NA 
HETATM    3  H   UNL     1      -6.911  10.700  66.579  1.00  0.00     0.000 HD 
ENDROOT
BRANCH   2   4
HETATM    4  C   UNL     1      -7.447   9.254  67.974  1.00  0.00    -0.083 C  
BRANCH   4   5
HETATM    5  C   UNL     1      -8.658   8.322  68.257  1.00  0.00    -0.133 C  
HETATM    6  H   UNL     1      -9.542   7.655  69.855  1.00  0.00     0.000 HD 
HETATM    7  O   UNL     1      -8.801   8.225  69.682  1.00  0.00    -0.137 OA 
BRANCH   5   8
HETATM    8  C   UNL     1      -8.555   6.934  67.637  1.00  0.00    -0.121 A  
HETATM    9  C   UNL     1      -9.690   6.198  67.247  1.00  0.00    -0.146 A  
HETATM   10  C   UNL     1      -9.544   4.926  66.692  1.00  0.00    -0.163 A  
HETATM   11  O   UNL     1     -10.624   4.203  66.279  1.00  0.00    -0.317 OA 
HETATM   12  C   UNL     1      -8.291   4.351  66.536  1.00  0.00    -0.105 A  
HETATM   13  H   UNL     1     -10.525   3.337  65.901  1.00  0.00     0.000 HD 
HETATM   14  C   UNL     1      -7.157   5.068  66.908  1.00  0.00    -0.072 A  
HETATM   15  C   UNL     1      -7.290   6.357  67.427  1.00  0.00    -0.087 A  
ENDBRANCH   5   8
ENDBRANCH   4   5
ENDBRANCH   2   4
TORSDOF 3
ENDMDL
MODEL      298
REMARK 921   NORMALIZED FREE ENERGY PREDICTED BY IDOCK:   -1.11 KCAL/MOL
REMARK 922        TOTAL FREE ENERGY PREDICTED BY IDOCK:   -1.51 KCAL/MOL
REMARK 923 INTER-LIGAND FREE ENERGY PREDICTED BY IDOCK:   -1.39 KCAL/MOL
REMARK 924 INTRA-LIGAND FREE ENERGY PREDICTED BY IDOCK:   -0.11 KCAL/MOL
REMARK 927      BINDING AFFINITY PREDICTED BY RF-SCORE:    0.00 PKD
ROOT
HETATM    1  C   UNL     1      -5.370  15.937  68.434  1.00  0.00    -0.103 C  
HETATM    2  N   UNL     1      -6.747  16.366  68.647  1.00  0.00    -0.139 NA 
HETATM    3  H   UNL     1      -6.911  17.300  68.270  1.00  0.00     0.000 HD 
ENDROOT
BRANCH   2   4
HETATM    4  C   UNL     1      -7.701  15.384  68.100  1.00  0.00    -0.124 C  
BRANCH   4   5
HETATM    5  C   UNL     1      -8.441  14.533  69.169  1.00  0.00     0.017 C  
HETATM    6  H   UNL     1      -8.453  12.655  69.669  1.00  0.00     0.000 HD 
HETATM    7  O   UNL     1      -8.001  13.175  69.015  1.00  0.00     0.086 OA 
BRANCH   5   8
HETATM    8  C   UNL     1      -9.961  14.610  69.109  1.00  0.00    -0.149 A  
HETATM    9  C   UNL     1     -10.695  14.138  68.006  1.00  0.00    -0.248 A  
HETATM   10  C   UNL     1     -12.087  14.240  67.994  1.00  0.00    -0.254 A  
HETATM   11  O   UNL     1     -12.826  13.765  66.950  1.00  0.00    -0.251 OA 
HETATM   12  C   UNL     1     -12.772  14.827  69.049  1.00  0.00     0.410 A  
HETATM   13  H   UNL     1     -13.773  13.835  66.942  1.00  0.00     0.000 HD 
HETATM   14  C   UNL     1     -12.063  15.291  70.152  1.00  0.00    -0.394 A  
HETATM   15  C   UNL     1     -10.673  15.157  70.191  1.00  0.00    -0.245 A  
ENDBRANCH   5   8
ENDBRANCH   4   5
ENDBRANCH   2   4
TORSDOF 3
ENDMDL
MODEL      299
REMARK 921   NORMALIZED FREE ENERGY PREDICTED BY IDOCK:   -1.10 KCAL/MOL
REMARK 922        TOTAL FREE ENERGY PREDICTED BY IDOCK:   -1.49 KCAL/MOL
REMARK 923 INTER-LIGAND FREE ENERGY PREDICTED BY IDOCK:   -1.43 KCAL/MOL
REMARK 924 INTRA-LIGAND FREE ENERGY PREDICTED BY IDOCK:   -0.07 KCAL/MOL
REMARK 927      BINDING AFFINITY PREDICTED BY RF-SCORE:    0.00 PKD
ROOT
HETATM    1  C   UNL     1      -8.297   4.977  72.381  1.00  0.00    -0.120 C  
HETATM    2  N   UNL     1      -8.567   5.512  71.052  1.00  0.00    -0.124 NA 
HETATM    3  H   UNL     1      -9.247   4.942  70.550  1.00  0.00     0.000 HD 
ENDROOT
BRANCH   2   4
HETATM    4  C   UNL     1      -8.986   6.923  71.121  1.00  0.00    -0.143 C  
BRANCH   4   5
HETATM    5  C   UNL     1      -7.854   7.951  70.836  1.00  0.00    -0.088 C  
HETATM    6  H   UNL     1      -7.574   9.835  71.221  1.00  0.00     0.000 HD 
HETATM    7  O   UNL     1      -8.265   9.207  71.395  1.00  0.00    -0.316 OA 
BRANCH   5   8
HETATM    8  C   UNL     1      -7.495   8.115  69.365  1.00  0.00    -0.091 A  
HETATM    9  C   UNL     1      -8.311   7.619  68.331  1.00  0.00    -0.125 A  
HETATM   10  C   UNL     1      -7.934   7.786  66.998  1.00  0.00    -0.116 A  
HETATM   11  O   UNL     1      -8.720   7.341  65.976  1.00  0.00    -0.149 OA 
HETATM   12  C   UNL     1      -6.744   8.416  66.663  1.00  0.00    -0.061 A  
HETATM   13  H   UNL     1      -8.463   7.455  65.068  1.00  0.00     0.000 HD 
HETATM   14  C   UNL     1      -5.929   8.921  67.671  1.00  0.00    -0.047 A  
HETATM   15  C   UNL     1      -6.317   8.794  69.007  1.00  0.00    -0.044 A  
ENDBRANCH   5   8
ENDBRANCH   4   5
ENDBRANCH   2   4
TORSDOF 3
ENDMDL
MODEL      300
REMARK 921   NORMALIZED FREE ENERGY PREDICTED BY IDOCK:   -1.07 KCAL/MOL
REMARK 922        TOTAL FREE ENERGY PREDICTED BY IDOCK:   -1.46 KCAL/MOL
REMARK 923 INTER-LIGAND FREE ENERGY PREDICTED BY IDOCK:   -1.31 KCAL/MOL
REMARK 924 INTRA-LIGAND FREE ENERGY PREDICTED BY IDOCK:   -0.15 KCAL/MOL
REMARK 927      BINDING AFFINITY PREDICTED BY RF-SCORE:    0.00 PKD
ROOT
HETATM    1  C   UNL     1      -7.589   9.511  67.332  1.00  0.00    -0.095 C  
HETATM    2  N   UNL     1      -7.774   8.127  66.913  1.00  0.00    -0.095 NA 
HETATM    3  H   UNL     1      -6.896   7.709  66.604  1.00  0.00     0.000 HD 
ENDROOT
BRANCH   2   4
HETATM    4  C   UNL     1      -8.410   7.329  67.977  1.00  0.00    -0.123 C  
BRANCH   4   5
HETATM    5  C   UNL     1      -7.605   6.073  68.415  1.00  0.00    -0.091 C  
HETATM    6  H   UNL     1      -5.756   5.496  68.256  1.00  0.00     0.000 HD 
HETATM    7  O   UNL     1      -6.248   6.263  67.988  1.00  0.00    -0.029 OA 
BRANCH   5   8
HETATM    8  C   UNL     1      -8.148   4.750  67.890  1.00  0.00    -0.092 A  
HETATM    9  C   UNL     1      -8.069   4.390  66.532  1.00  0.00    -0.102 A  
HETATM   10  C   UNL     1      -8.589   3.170  66.098  1.00  0.00    -0.119 A  
HETATM   11  O   UNL     1      -8.501   2.784  64.793  1.00  0.00    -0.087 OA 
HETATM   12  C   UNL     1      -9.216   2.303  66.982  1.00  0.00    -0.087 A  
HETATM   13  H   UNL     1      -8.856   1.953  64.498  1.00  0.00     0.000 HD 
HETATM   14  C   UNL     1      -9.295   2.638  68.330  1.00  0.00    -0.256 A  
HETATM   15  C   UNL     1      -8.741   3.838  68.781  1.00  0.00    -0.138 A  
ENDBRANCH   5   8
ENDBRANCH   4   5
ENDBRANCH   2   4
TORSDOF 3
ENDMDL
MODEL      301
REMARK 921   NORMALIZED FREE ENERGY PREDICTED BY IDOCK:   -0.66 KCAL/MOL
REMARK 922        TOTAL FREE ENERGY PREDICTED BY IDOCK:   -0.97 KCAL/MOL
REMARK 923 INTER-LIGAND FREE ENERGY PREDICTED BY IDOCK:   -1.02 KCAL/MOL
REMARK 924 INTRA-LIGAND FREE ENERGY PREDICTED BY IDOCK:    0.05 KCAL/MOL
REMARK 927      BINDING AFFINITY PREDICTED BY RF-SCORE:    0.00 PKD
ROOT
HETATM    1  C   UNL     1      -6.079  11.911  68.353  1.00  0.00    -0.050 C  
HETATM    2  N   UNL     1      -5.843  10.862  67.370  1.00  0.00    -0.045 NA 
HETATM    3  H   UNL     1      -4.849  10.750  67.171  1.00  0.00     0.000 HD 
ENDROOT
BRANCH   2   4
HETATM    4  C   UNL     1      -6.459   9.590  67.790  1.00  0.00    -0.058 C  
BRANCH   4   5
HETATM    5  C   UNL     1      -7.712   9.173  66.970  1.00  0.00    -0.098 C  
HETATM    6  H   UNL     1      -9.183   7.931  67.236  1.00  0.00     0.000 HD 
HETATM    7  O   UNL     1      -8.417   8.186  67.738  1.00  0.00    -0.129 OA 
BRANCH   5   8
HETATM    8  C   UNL     1      -7.415   8.647  65.572  1.00  0.00    -0.085 A  
HETATM    9  C   UNL     1      -6.774   9.431  64.594  1.00  0.00    -0.088 A  
HETATM   10  C   UNL     1      -6.532   8.907  63.323  1.00  0.00    -0.090 A  
HETATM   11  O   UNL     1      -5.887   9.634  62.366  1.00  0.00    -0.089 OA 
HETATM   12  C   UNL     1      -6.937   7.623  62.988  1.00  0.00    -0.072 A  
HETATM   13  H   UNL     1      -5.723   9.278  61.501  1.00  0.00     0.000 HD 
HETATM   14  C   UNL     1      -7.564   6.831  63.945  1.00  0.00    -0.105 A  
HETATM   15  C   UNL     1      -7.774   7.331  65.231  1.00  0.00    -0.114 A  
ENDBRANCH   5   8
ENDBRANCH   4   5
ENDBRANCH   2   4
TORSDOF 3
ENDMDL
MODEL      302
REMARK 921   NORMALIZED FREE ENERGY PREDICTED BY IDOCK:   -0.52 KCAL/MOL
REMARK 922        TOTAL FREE ENERGY PREDICTED BY IDOCK:   -0.81 KCAL/MOL
REMARK 923 INTER-LIGAND FREE ENERGY PREDICTED BY IDOCK:   -0.93 KCAL/MOL
REMARK 924 INTRA-LIGAND FREE ENERGY PREDICTED BY IDOCK:    0.11 KCAL/MOL
REMARK 927      BINDING AFFINITY PREDICTED BY RF-SCORE:    0.00 PKD
ROOT
HETATM    1  C   UNL     1      -7.983   8.543  73.126  1.00  0.00    -0.002 C  
HETATM    2  N   UNL     1      -6.797   8.622  72.282  1.00  0.00    -0.214 NA 
HETATM    3  H   UNL     1      -6.139   7.871  72.488  1.00  0.00     0.000 HD 
ENDROOT
BRANCH   2   4
HETATM    4  C   UNL     1      -7.162   8.649  70.854  1.00  0.00    -0.073 C  
BRANCH   4   5
HETATM    5  C   UNL     1      -6.598   7.465  70.018  1.00  0.00    -0.046 C  
HETATM    6  H   UNL     1      -6.491   7.041  68.124  1.00  0.00     0.000 HD 
HETATM    7  O   UNL     1      -6.836   7.764  68.635  1.00  0.00    -0.059 OA 
BRANCH   5   8
HETATM    8  C   UNL     1      -7.172   6.100  70.374  1.00  0.00    -0.086 A  
HETATM    9  C   UNL     1      -6.960   5.498  71.629  1.00  0.00    -0.068 A  
HETATM   10  C   UNL     1      -7.501   4.241  71.904  1.00  0.00    -0.070 A  
HETATM   11  O   UNL     1      -7.335   3.647  73.121  1.00  0.00    -0.053 OA 
HETATM   12  C   UNL     1      -8.231   3.549  70.948  1.00  0.00    -0.080 A  
HETATM   13  H   UNL     1      -7.703   2.791  73.308  1.00  0.00     0.000 HD 
HETATM   14  C   UNL     1      -8.459   4.133  69.705  1.00  0.00    -0.087 A  
HETATM   15  C   UNL     1      -7.956   5.408  69.434  1.00  0.00    -0.089 A  
ENDBRANCH   5   8
ENDBRANCH   4   5
ENDBRANCH   2   4
TORSDOF 3
ENDMDL
MODEL      303
REMARK 921   NORMALIZED FREE ENERGY PREDICTED BY IDOCK:    5.13 KCAL/MOL
REMARK 922        TOTAL FREE ENERGY PREDICTED BY IDOCK:    5.83 KCAL/MOL
REMARK 923 INTER-LIGAND FREE ENERGY PREDICTED BY IDOCK:    5.60 KCAL/MOL
REMARK 924 INTRA-LIGAND FREE ENERGY PREDICTED BY IDOCK:    0.24 KCAL/MOL
REMARK 927      BINDING AFFINITY PREDICTED BY RF-SCORE:    0.00 PKD
ROOT
HETATM    1  C   UNL     1      -9.886  17.508  65.583  1.00  0.00     0.177 C  
HETATM    2  N   UNL     1     -10.378  18.199  66.768  1.00  0.00    -0.359 NA 
HETATM    3  H   UNL     1     -10.465  19.203  66.608  1.00  0.00     0.000 HD 
ENDROOT
BRANCH   2   4
HETATM    4  C   UNL     1     -11.646  17.613  67.238  1.00  0.00     1.304 C  
BRANCH   4   5
HETATM    5  C   UNL     1     -11.660  17.217  68.741  1.00  0.00     1.002 C  
HETATM    6  H   UNL     1     -11.221  18.117  70.407  1.00  0.00     0.000 HD 
HETATM    7  O   UNL     1     -11.212  18.358  69.489  1.00  0.00     1.801 OA 
BRANCH   5   8
HETATM    8  C   UNL     1     -10.825  15.992  69.089  1.00  0.00    -0.281 A  
HETATM    9  C   UNL     1      -9.539  15.783  68.557  1.00  0.00    -0.204 A  
HETATM   10  C   UNL     1      -8.816  14.639  68.899  1.00  0.00    -0.136 A  
HETATM   11  O   UNL     1      -7.557  14.425  68.421  1.00  0.00    -0.107 OA 
HETATM   12  C   UNL     1      -9.354  13.676  69.742  1.00  0.00     1.693 A  
HETATM   13  H   UNL     1      -7.065  13.646  68.654  1.00  0.00     0.000 HD 
HETATM   14  C   UNL     1     -10.620  13.871  70.284  1.00  0.00     1.013 A  
HETATM   15  C   UNL     1     -11.335  15.031  69.980  1.00  0.00    -0.305 A  
ENDBRANCH   5   8
ENDBRANCH   4   5
ENDBRANCH   2   4
TORSDOF 3
ENDMDL
MODEL      304
REMARK 921   NORMALIZED FREE ENERGY PREDICTED BY IDOCK:   11.38 KCAL/MOL
REMARK 922        TOTAL FREE ENERGY PREDICTED BY IDOCK:   13.17 KCAL/MOL
REMARK 923 INTER-LIGAND FREE ENERGY PREDICTED BY IDOCK:   12.94 KCAL/MOL
REMARK 924 INTRA-LIGAND FREE ENERGY PREDICTED BY IDOCK:    0.23 KCAL/MOL
REMARK 927      BINDING AFFINITY PREDICTED BY RF-SCORE:    0.00 PKD
ROOT
HETATM    1  C   UNL     1      -5.266  14.276  71.307  1.00  0.00    -0.154 C  
HETATM    2  N   UNL     1      -6.304  14.472  72.311  1.00  0.00     0.255 NA 
HETATM    3  H   UNL     1      -6.882  15.285  72.099  1.00  0.00     0.000 HD 
ENDROOT
BRANCH   2   4
HETATM    4  C   UNL     1      -7.119  13.255  72.478  1.00  0.00     6.720 C  
BRANCH   4   5
HETATM    5  C   UNL     1      -6.407  12.094  73.227  1.00  0.00     4.685 C  
HETATM    6  H   UNL     1      -4.803  11.934  74.314  1.00  0.00     0.000 HD 
HETATM    7  O   UNL     1      -5.239  12.643  73.856  1.00  0.00    -0.372 OA 
BRANCH   5   8
HETATM    8  C   UNL     1      -6.031  10.905  72.353  1.00  0.00     1.620 A  
HETATM    9  C   UNL     1      -6.135  10.939  70.950  1.00  0.00     0.099 A  
HETATM   10  C   UNL     1      -5.787   9.819  70.193  1.00  0.00    -0.047 A  
HETATM   11  O   UNL     1      -5.852   9.835  68.830  1.00  0.00    -0.036 OA 
HETATM   12  C   UNL     1      -5.359   8.648  70.801  1.00  0.00    -0.028 A  
HETATM   13  H   UNL     1      -5.615   9.072  68.315  1.00  0.00     0.000 HD 
HETATM   14  C   UNL     1      -5.240   8.599  72.186  1.00  0.00    -0.042 A  
HETATM   15  C   UNL     1      -5.548   9.727  72.950  1.00  0.00     0.243 A  
ENDBRANCH   5   8
ENDBRANCH   4   5
ENDBRANCH   2   4
TORSDOF 3
ENDMDL
MODEL      305
REMARK 921   NORMALIZED FREE ENERGY PREDICTED BY IDOCK:   15.20 KCAL/MOL
REMARK 922        TOTAL FREE ENERGY PREDICTED BY IDOCK:   17.66 KCAL/MOL
REMARK 923 INTER-LIGAND FREE ENERGY PREDICTED BY IDOCK:   17.21 KCAL/MOL
REMARK 924 INTRA-LIGAND FREE ENERGY PREDICTED BY IDOCK:    0.45 KCAL/MOL
REMARK 927      BINDING AFFINITY PREDICTED BY RF-SCORE:    0.00 PKD
ROOT
HETATM    1  C   UNL     1      -5.182  14.108  72.189  1.00  0.00    -0.203 C  
HETATM    2  N   UNL     1      -6.260  14.398  73.125  1.00  0.00     0.172 NA 
HETATM    3  H   UNL     1      -6.740  15.266  72.887  1.00  0.00     0.000 HD 
ENDROOT
BRANCH   2   4
HETATM    4  C   UNL     1      -7.200  13.267  73.222  1.00  0.00     7.339 C  
BRANCH   4   5
HETATM    5  C   UNL     1      -6.602  11.980  73.858  1.00  0.00     5.244 C  
HETATM    6  H   UNL     1      -4.996  11.559  74.868  1.00  0.00     0.000 HD 
HETATM    7  O   UNL     1      -5.361  12.345  74.480  1.00  0.00    -0.390 OA 
BRANCH   5   8
HETATM    8  C   UNL     1      -6.391  10.826  72.886  1.00  0.00     3.018 A  
HETATM    9  C   UNL     1      -6.155   9.509  73.322  1.00  0.00     0.452 A  
HETATM   10  C   UNL     1      -5.958   8.487  72.393  1.00  0.00    -0.069 A  
HETATM   11  O   UNL     1      -5.755   7.197  72.787  1.00  0.00    -0.041 OA 
HETATM   12  C   UNL     1      -5.965   8.746  71.029  1.00  0.00    -0.041 A  
HETATM   13  H   UNL     1      -5.621   6.501  72.154  1.00  0.00     0.000 HD 
HETATM   14  C   UNL     1      -6.207  10.040  70.580  1.00  0.00    -0.109 A  
HETATM   15  C   UNL     1      -6.445  11.063  71.501  1.00  0.00     1.838 A  
ENDBRANCH   5   8
ENDBRANCH   4   5
ENDBRANCH   2   4
TORSDOF 3
ENDMDL
