MODEL        1
REMARK 921   NORMALIZED FREE ENERGY PREDICTED BY IDOCK:   -5.75 KCAL/MOL
REMARK 922        TOTAL FREE ENERGY PREDICTED BY IDOCK:   -8.61 KCAL/MOL
REMARK 923 INTER-LIGAND FREE ENERGY PREDICTED BY IDOCK:   -7.77 KCAL/MOL
REMARK 924 INTRA-LIGAND FREE ENERGY PREDICTED BY IDOCK:   -0.84 KCAL/MOL
REMARK 927      BINDING AFFINITY PREDICTED BY RF-SCORE:    0.00 PKD
ROOT
HETATM    1  C   UNL     1     -14.291  14.761  71.647  1.00  0.00    -0.557 C  
HETATM    2  N   UNL     1     -13.142  15.650  71.549  1.00  0.00    -0.490 NA 
HETATM    3  C   UNL     1     -12.672  16.070  72.862  1.00  0.00    -0.467 C  
ENDROOT
BRANCH   2   4
HETATM    4  C   UNL     1     -12.093  15.195  70.617  1.00  0.00    -0.329 C  
BRANCH   4   5
HETATM    5  C   UNL     1     -11.809  15.915  69.268  1.00  0.00    -0.318 C  
BRANCH   5   6
HETATM    6  O   UNL     1     -10.995  15.031  68.470  1.00  0.00    -0.239 OA 
BRANCH   6   7
HETATM    7  C   UNL     1     -11.196  14.886  67.120  1.00  0.00    -0.343 A  
HETATM    8  C   UNL     1     -12.136  13.891  66.810  1.00  0.00    -0.476 A  
HETATM    9  C   UNL     1     -12.386  13.486  65.490  1.00  0.00    -0.524 A  
HETATM   10  C   UNL     1     -11.724  14.109  64.440  1.00  0.00    -0.409 A  
HETATM   11  C   UNL     1     -10.783  15.092  64.727  1.00  0.00    -0.354 A  
HETATM   12  C   UNL     1     -10.460  15.450  66.063  1.00  0.00    -0.333 A  
BRANCH  12  13
HETATM   13  C   UNL     1      -9.191  16.254  66.225  1.00  0.00    -0.363 C  
BRANCH  13  14
HETATM   14  C   UNL     1      -9.405  17.648  66.799  1.00  0.00    -0.286 A  
HETATM   15  C   UNL     1     -10.162  18.584  66.081  1.00  0.00    -0.424 A  
HETATM   16  C   UNL     1     -10.500  19.814  66.653  1.00  0.00    -0.615 A  
HETATM   17  C   UNL     1     -10.075  20.127  67.943  1.00  0.00    -0.533 A  
HETATM   18  C   UNL     1      -9.276  19.231  68.645  1.00  0.00    -0.436 A  
HETATM   19  C   UNL     1      -8.944  17.999  68.079  1.00  0.00    -0.274 A  
ENDBRANCH  13  14
ENDBRANCH  12  13
ENDBRANCH   6   7
ENDBRANCH   5   6
ENDBRANCH   4   5
ENDBRANCH   2   4
TORSDOF 6
ENDMDL
MODEL        2
REMARK 921   NORMALIZED FREE ENERGY PREDICTED BY IDOCK:   -5.64 KCAL/MOL
REMARK 922        TOTAL FREE ENERGY PREDICTED BY IDOCK:   -8.45 KCAL/MOL
REMARK 923 INTER-LIGAND FREE ENERGY PREDICTED BY IDOCK:   -7.73 KCAL/MOL
REMARK 924 INTRA-LIGAND FREE ENERGY PREDICTED BY IDOCK:   -0.72 KCAL/MOL
REMARK 927      BINDING AFFINITY PREDICTED BY RF-SCORE:    0.00 PKD
ROOT
HETATM    1  C   UNL     1     -11.899  12.522  63.677  1.00  0.00    -0.530 C  
HETATM    2  N   UNL     1     -12.170  12.613  65.106  1.00  0.00    -0.466 NA 
HETATM    3  C   UNL     1     -11.259  11.782  65.880  1.00  0.00    -0.290 C  
ENDROOT
BRANCH   2   4
HETATM    4  C   UNL     1     -12.354  13.988  65.607  1.00  0.00    -0.479 C  
BRANCH   4   5
HETATM    5  C   UNL     1     -11.199  15.028  65.629  1.00  0.00    -0.327 C  
BRANCH   5   6
HETATM    6  O   UNL     1     -10.777  15.177  67.001  1.00  0.00    -0.295 OA 
BRANCH   6   7
HETATM    7  C   UNL     1     -10.619  16.412  67.578  1.00  0.00    -0.309 A  
HETATM    8  C   UNL     1     -10.307  17.415  66.647  1.00  0.00    -0.306 A  
HETATM    9  C   UNL     1      -9.969  18.718  67.041  1.00  0.00    -0.379 A  
HETATM   10  C   UNL     1      -9.980  19.057  68.388  1.00  0.00    -0.473 A  
HETATM   11  C   UNL     1     -10.277  18.075  69.326  1.00  0.00    -0.043 A  
HETATM   12  C   UNL     1     -10.538  16.732  68.944  1.00  0.00    -0.350 A  
BRANCH  12  13
HETATM   13  C   UNL     1     -10.490  15.723  70.068  1.00  0.00    -0.313 C  
BRANCH  13  14
HETATM   14  C   UNL     1     -11.726  15.720  70.958  1.00  0.00    -0.462 A  
HETATM   15  C   UNL     1     -12.918  15.153  70.486  1.00  0.00    -0.366 A  
HETATM   16  C   UNL     1     -14.017  15.001  71.336  1.00  0.00    -0.565 A  
HETATM   17  C   UNL     1     -13.943  15.424  72.661  1.00  0.00    -0.590 A  
HETATM   18  C   UNL     1     -12.786  16.039  73.127  1.00  0.00    -0.619 A  
HETATM   19  C   UNL     1     -11.684  16.185  72.283  1.00  0.00    -0.564 A  
ENDBRANCH  13  14
ENDBRANCH  12  13
ENDBRANCH   6   7
ENDBRANCH   5   6
ENDBRANCH   4   5
ENDBRANCH   2   4
TORSDOF 6
ENDMDL
MODEL        3
REMARK 921   NORMALIZED FREE ENERGY PREDICTED BY IDOCK:   -5.53 KCAL/MOL
REMARK 922        TOTAL FREE ENERGY PREDICTED BY IDOCK:   -8.31 KCAL/MOL
REMARK 923 INTER-LIGAND FREE ENERGY PREDICTED BY IDOCK:   -7.82 KCAL/MOL
REMARK 924 INTRA-LIGAND FREE ENERGY PREDICTED BY IDOCK:   -0.49 KCAL/MOL
REMARK 927      BINDING AFFINITY PREDICTED BY RF-SCORE:    0.00 PKD
ROOT
HETATM    1  C   UNL     1     -13.585  13.257  72.350  1.00  0.00    -0.594 C  
HETATM    2  N   UNL     1     -13.549  14.703  72.523  1.00  0.00    -0.442 NA 
HETATM    3  C   UNL     1     -12.660  15.092  73.609  1.00  0.00    -0.569 C  
ENDROOT
BRANCH   2   4
HETATM    4  C   UNL     1     -13.392  15.467  71.271  1.00  0.00    -0.520 C  
BRANCH   4   5
HETATM    5  C   UNL     1     -12.016  15.641  70.569  1.00  0.00    -0.385 C  
BRANCH   5   6
HETATM    6  O   UNL     1     -12.274  15.956  69.185  1.00  0.00    -0.264 OA 
BRANCH   6   7
HETATM    7  C   UNL     1     -11.291  15.877  68.230  1.00  0.00    -0.342 A  
HETATM    8  C   UNL     1     -10.700  17.119  67.949  1.00  0.00    -0.355 A  
HETATM    9  C   UNL     1      -9.773  17.285  66.909  1.00  0.00    -0.275 A  
HETATM   10  C   UNL     1      -9.383  16.189  66.150  1.00  0.00    -0.372 A  
HETATM   11  C   UNL     1      -9.964  14.952  66.407  1.00  0.00    -0.290 A  
HETATM   12  C   UNL     1     -10.965  14.789  67.402  1.00  0.00    -0.313 A  
BRANCH  12  13
HETATM   13  C   UNL     1     -11.744  13.497  67.324  1.00  0.00    -0.423 C  
BRANCH  13  14
HETATM   14  C   UNL     1     -11.691  12.817  65.963  1.00  0.00    -0.470 A  
HETATM   15  C   UNL     1     -12.425  13.348  64.893  1.00  0.00    -0.447 A  
HETATM   16  C   UNL     1     -12.273  12.835  63.602  1.00  0.00    -0.597 A  
HETATM   17  C   UNL     1     -11.396  11.778  63.367  1.00  0.00    -0.437 A  
HETATM   18  C   UNL     1     -10.703  11.205  64.428  1.00  0.00    -0.388 A  
HETATM   19  C   UNL     1     -10.847  11.720  65.717  1.00  0.00    -0.341 A  
ENDBRANCH  13  14
ENDBRANCH  12  13
ENDBRANCH   6   7
ENDBRANCH   5   6
ENDBRANCH   4   5
ENDBRANCH   2   4
TORSDOF 6
ENDMDL
MODEL        4
REMARK 921   NORMALIZED FREE ENERGY PREDICTED BY IDOCK:   -5.52 KCAL/MOL
REMARK 922        TOTAL FREE ENERGY PREDICTED BY IDOCK:   -8.29 KCAL/MOL
REMARK 923 INTER-LIGAND FREE ENERGY PREDICTED BY IDOCK:   -7.49 KCAL/MOL
REMARK 924 INTRA-LIGAND FREE ENERGY PREDICTED BY IDOCK:   -0.79 KCAL/MOL
REMARK 927      BINDING AFFINITY PREDICTED BY RF-SCORE:    0.00 PKD
ROOT
HETATM    1  C   UNL     1     -13.550   9.313  72.215  1.00  0.00    -0.480 C  
HETATM    2  N   UNL     1     -12.270   8.948  71.622  1.00  0.00    -0.322 NA 
HETATM    3  C   UNL     1     -12.147   7.508  71.451  1.00  0.00    -0.327 C  
ENDROOT
BRANCH   2   4
HETATM    4  C   UNL     1     -11.883   9.761  70.453  1.00  0.00    -0.193 C  
BRANCH   4   5
HETATM    5  C   UNL     1     -12.042  11.307  70.425  1.00  0.00    -0.384 C  
BRANCH   5   6
HETATM    6  O   UNL     1     -11.125  11.818  69.435  1.00  0.00    -0.235 OA 
BRANCH   6   7
HETATM    7  C   UNL     1     -11.545  12.637  68.417  1.00  0.00    -0.328 A  
HETATM    8  C   UNL     1     -11.736  11.952  67.206  1.00  0.00    -0.319 A  
HETATM    9  C   UNL     1     -12.027  12.622  66.009  1.00  0.00    -0.478 A  
HETATM   10  C   UNL     1     -12.178  14.003  66.009  1.00  0.00    -0.484 A  
HETATM   11  C   UNL     1     -11.984  14.700  67.196  1.00  0.00    -0.310 A  
HETATM   12  C   UNL     1     -11.605  14.041  68.396  1.00  0.00    -0.366 A  
BRANCH  12  13
HETATM   13  C   UNL     1     -11.090  14.946  69.491  1.00  0.00    -0.301 C  
BRANCH  13  14
HETATM   14  C   UNL     1     -12.004  15.040  70.705  1.00  0.00    -0.371 A  
HETATM   15  C   UNL     1     -11.452  15.281  71.971  1.00  0.00    -0.500 A  
HETATM   16  C   UNL     1     -12.278  15.523  73.072  1.00  0.00    -0.564 A  
HETATM   17  C   UNL     1     -13.664  15.516  72.925  1.00  0.00    -0.599 A  
HETATM   18  C   UNL     1     -14.226  15.224  71.686  1.00  0.00    -0.654 A  
HETATM   19  C   UNL     1     -13.403  14.989  70.583  1.00  0.00    -0.279 A  
ENDBRANCH  13  14
ENDBRANCH  12  13
ENDBRANCH   6   7
ENDBRANCH   5   6
ENDBRANCH   4   5
ENDBRANCH   2   4
TORSDOF 6
ENDMDL
MODEL        5
REMARK 921   NORMALIZED FREE ENERGY PREDICTED BY IDOCK:   -5.45 KCAL/MOL
REMARK 922        TOTAL FREE ENERGY PREDICTED BY IDOCK:   -8.19 KCAL/MOL
REMARK 923 INTER-LIGAND FREE ENERGY PREDICTED BY IDOCK:   -7.51 KCAL/MOL
REMARK 924 INTRA-LIGAND FREE ENERGY PREDICTED BY IDOCK:   -0.69 KCAL/MOL
REMARK 927      BINDING AFFINITY PREDICTED BY RF-SCORE:    0.00 PKD
ROOT
HETATM    1  C   UNL     1     -10.873  12.280  64.001  1.00  0.00    -0.389 C  
HETATM    2  N   UNL     1     -11.471  13.537  64.430  1.00  0.00    -0.381 NA 
HETATM    3  C   UNL     1     -12.518  13.324  65.419  1.00  0.00    -0.489 C  
ENDROOT
BRANCH   2   4
HETATM    4  C   UNL     1     -10.500  14.599  64.753  1.00  0.00    -0.313 C  
BRANCH   4   5
HETATM    5  C   UNL     1     -10.927  16.077  64.976  1.00  0.00    -0.380 C  
BRANCH   5   6
HETATM    6  O   UNL     1      -9.816  16.760  65.595  1.00  0.00    -0.544 OA 
BRANCH   6   7
HETATM    7  C   UNL     1     -10.004  17.732  66.545  1.00  0.00    -0.346 A  
HETATM    8  C   UNL     1     -10.064  19.025  66.000  1.00  0.00    -0.401 A  
HETATM    9  C   UNL     1     -10.112  20.172  66.806  1.00  0.00    -0.591 A  
HETATM   10  C   UNL     1     -10.145  20.043  68.189  1.00  0.00    -0.547 A  
HETATM   11  C   UNL     1     -10.077  18.771  68.748  1.00  0.00    -0.407 A  
HETATM   12  C   UNL     1      -9.943  17.608  67.943  1.00  0.00    -0.323 A  
BRANCH  12  13
HETATM   13  C   UNL     1      -9.527  16.358  68.684  1.00  0.00    -0.239 C  
BRANCH  13  14
HETATM   14  C   UNL     1     -10.683  15.590  69.311  1.00  0.00    -0.245 A  
HETATM   15  C   UNL     1     -11.057  14.347  68.781  1.00  0.00    -0.275 A  
HETATM   16  C   UNL     1     -12.009  13.556  69.430  1.00  0.00    -0.383 A  
HETATM   17  C   UNL     1     -12.607  14.001  70.606  1.00  0.00    -0.414 A  
HETATM   18  C   UNL     1     -12.287  15.257  71.113  1.00  0.00    -0.421 A  
HETATM   19  C   UNL     1     -11.331  16.046  70.472  1.00  0.00    -0.420 A  
ENDBRANCH  13  14
ENDBRANCH  12  13
ENDBRANCH   6   7
ENDBRANCH   5   6
ENDBRANCH   4   5
ENDBRANCH   2   4
TORSDOF 6
ENDMDL
MODEL        6
REMARK 921   NORMALIZED FREE ENERGY PREDICTED BY IDOCK:   -5.44 KCAL/MOL
REMARK 922        TOTAL FREE ENERGY PREDICTED BY IDOCK:   -8.18 KCAL/MOL
REMARK 923 INTER-LIGAND FREE ENERGY PREDICTED BY IDOCK:   -7.66 KCAL/MOL
REMARK 924 INTRA-LIGAND FREE ENERGY PREDICTED BY IDOCK:   -0.53 KCAL/MOL
REMARK 927      BINDING AFFINITY PREDICTED BY RF-SCORE:    0.00 PKD
ROOT
HETATM    1  C   UNL     1     -12.183  14.773  64.389  1.00  0.00    -0.428 C  
HETATM    2  N   UNL     1     -12.448  13.372  64.688  1.00  0.00    -0.591 NA 
HETATM    3  C   UNL     1     -11.850  12.488  63.698  1.00  0.00    -0.530 C  
ENDROOT
BRANCH   2   4
HETATM    4  C   UNL     1     -12.222  12.993  66.096  1.00  0.00    -0.360 C  
BRANCH   4   5
HETATM    5  C   UNL     1     -11.366  11.758  66.498  1.00  0.00    -0.305 C  
BRANCH   5   6
HETATM    6  O   UNL     1     -11.948  11.201  67.695  1.00  0.00    -0.613 OA 
BRANCH   6   7
HETATM    7  C   UNL     1     -11.176  10.618  68.669  1.00  0.00    -0.278 A  
HETATM    8  C   UNL     1     -10.103   9.878  68.147  1.00  0.00    -0.193 A  
HETATM    9  C   UNL     1      -9.276   9.090  68.961  1.00  0.00    -0.140 A  
HETATM   10  C   UNL     1      -9.482   9.063  70.334  1.00  0.00    -0.247 A  
HETATM   11  C   UNL     1     -10.545   9.783  70.869  1.00  0.00    -0.344 A  
HETATM   12  C   UNL     1     -11.440  10.515  70.045  1.00  0.00    -0.393 A  
BRANCH  12  13
HETATM   13  C   UNL     1     -12.727  10.940  70.713  1.00  0.00    -0.431 C  
BRANCH  13  14
HETATM   14  C   UNL     1     -12.771  12.411  71.106  1.00  0.00    -0.336 A  
HETATM   15  C   UNL     1     -12.064  13.352  70.344  1.00  0.00    -0.405 A  
HETATM   16  C   UNL     1     -12.211  14.720  70.591  1.00  0.00    -0.385 A  
HETATM   17  C   UNL     1     -13.055  15.163  71.607  1.00  0.00    -0.471 A  
HETATM   18  C   UNL     1     -13.720  14.238  72.406  1.00  0.00    -0.616 A  
HETATM   19  C   UNL     1     -13.581  12.872  72.158  1.00  0.00    -0.589 A  
ENDBRANCH  13  14
ENDBRANCH  12  13
ENDBRANCH   6   7
ENDBRANCH   5   6
ENDBRANCH   4   5
ENDBRANCH   2   4
TORSDOF 6
ENDMDL
MODEL        7
REMARK 921   NORMALIZED FREE ENERGY PREDICTED BY IDOCK:   -5.43 KCAL/MOL
REMARK 922        TOTAL FREE ENERGY PREDICTED BY IDOCK:   -8.17 KCAL/MOL
REMARK 923 INTER-LIGAND FREE ENERGY PREDICTED BY IDOCK:   -7.68 KCAL/MOL
REMARK 924 INTRA-LIGAND FREE ENERGY PREDICTED BY IDOCK:   -0.50 KCAL/MOL
REMARK 927      BINDING AFFINITY PREDICTED BY RF-SCORE:    0.00 PKD
ROOT
HETATM    1  C   UNL     1      -9.966  11.401  63.533  1.00  0.00    -0.388 C  
HETATM    2  N   UNL     1     -10.547  12.648  64.012  1.00  0.00    -0.408 NA 
HETATM    3  C   UNL     1     -11.879  12.866  63.466  1.00  0.00    -0.536 C  
ENDROOT
BRANCH   2   4
HETATM    4  C   UNL     1     -10.414  12.868  65.465  1.00  0.00    -0.289 C  
BRANCH   4   5
HETATM    5  C   UNL     1     -10.844  11.800  66.511  1.00  0.00    -0.282 C  
BRANCH   5   6
HETATM    6  O   UNL     1     -10.360  12.237  67.798  1.00  0.00    -0.201 OA 
BRANCH   6   7
HETATM    7  C   UNL     1     -10.951  11.831  68.968  1.00  0.00    -0.227 A  
HETATM    8  C   UNL     1     -10.846  10.447  69.181  1.00  0.00    -0.274 A  
HETATM    9  C   UNL     1     -11.500   9.805  70.243  1.00  0.00    -0.317 A  
HETATM   10  C   UNL     1     -12.244  10.551  71.148  1.00  0.00    -0.496 A  
HETATM   11  C   UNL     1     -12.367  11.922  70.949  1.00  0.00    -0.400 A  
HETATM   12  C   UNL     1     -11.779  12.570  69.829  1.00  0.00    -0.355 A  
BRANCH  12  13
HETATM   13  C   UNL     1     -12.287  13.966  69.555  1.00  0.00    -0.275 C  
BRANCH  13  14
HETATM   14  C   UNL     1     -12.574  14.784  70.807  1.00  0.00    -0.412 A  
HETATM   15  C   UNL     1     -13.874  14.815  71.331  1.00  0.00    -0.509 A  
HETATM   16  C   UNL     1     -14.129  15.431  72.560  1.00  0.00    -0.593 A  
HETATM   17  C   UNL     1     -13.094  16.031  73.272  1.00  0.00    -0.658 A  
HETATM   18  C   UNL     1     -11.810  16.056  72.738  1.00  0.00    -0.584 A  
HETATM   19  C   UNL     1     -11.550  15.436  71.515  1.00  0.00    -0.475 A  
ENDBRANCH  13  14
ENDBRANCH  12  13
ENDBRANCH   6   7
ENDBRANCH   5   6
ENDBRANCH   4   5
ENDBRANCH   2   4
TORSDOF 6
ENDMDL
MODEL        8
REMARK 921   NORMALIZED FREE ENERGY PREDICTED BY IDOCK:   -5.43 KCAL/MOL
REMARK 922        TOTAL FREE ENERGY PREDICTED BY IDOCK:   -8.17 KCAL/MOL
REMARK 923 INTER-LIGAND FREE ENERGY PREDICTED BY IDOCK:   -7.36 KCAL/MOL
REMARK 924 INTRA-LIGAND FREE ENERGY PREDICTED BY IDOCK:   -0.81 KCAL/MOL
REMARK 927      BINDING AFFINITY PREDICTED BY RF-SCORE:    0.00 PKD
ROOT
HETATM    1  C   UNL     1      -8.486  20.357  67.354  1.00  0.00    -0.321 C  
HETATM    2  N   UNL     1      -9.861  19.921  67.555  1.00  0.00    -0.380 NA 
HETATM    3  C   UNL     1     -10.533  19.660  66.290  1.00  0.00    -0.519 C  
ENDROOT
BRANCH   2   4
HETATM    4  C   UNL     1     -10.029  18.882  68.589  1.00  0.00    -0.412 C  
BRANCH   4   5
HETATM    5  C   UNL     1     -10.594  17.470  68.265  1.00  0.00    -0.354 C  
BRANCH   5   6
HETATM    6  O   UNL     1     -10.221  16.595  69.350  1.00  0.00    -0.279 OA 
BRANCH   6   7
HETATM    7  C   UNL     1     -11.114  15.716  69.910  1.00  0.00    -0.319 A  
HETATM    8  C   UNL     1     -11.684  16.199  71.099  1.00  0.00    -0.454 A  
HETATM    9  C   UNL     1     -12.514  15.404  71.903  1.00  0.00    -0.452 A  
HETATM   10  C   UNL     1     -12.828  14.111  71.505  1.00  0.00    -0.430 A  
HETATM   11  C   UNL     1     -12.266  13.612  70.335  1.00  0.00    -0.434 A  
HETATM   12  C   UNL     1     -11.357  14.378  69.557  1.00  0.00    -0.318 A  
BRANCH  12  13
HETATM   13  C   UNL     1     -10.567  13.595  68.535  1.00  0.00    -0.259 C  
BRANCH  13  14
HETATM   14  C   UNL     1     -10.979  13.857  67.093  1.00  0.00    -0.298 A  
HETATM   15  C   UNL     1     -12.270  13.515  66.668  1.00  0.00    -0.411 A  
HETATM   16  C   UNL     1     -12.721  13.884  65.398  1.00  0.00    -0.525 A  
HETATM   17  C   UNL     1     -11.885  14.587  64.534  1.00  0.00    -0.459 A  
HETATM   18  C   UNL     1     -10.582  14.885  64.921  1.00  0.00    -0.417 A  
HETATM   19  C   UNL     1     -10.132  14.524  66.192  1.00  0.00    -0.319 A  
ENDBRANCH  13  14
ENDBRANCH  12  13
ENDBRANCH   6   7
ENDBRANCH   5   6
ENDBRANCH   4   5
ENDBRANCH   2   4
TORSDOF 6
ENDMDL
MODEL        9
REMARK 921   NORMALIZED FREE ENERGY PREDICTED BY IDOCK:   -5.39 KCAL/MOL
REMARK 922        TOTAL FREE ENERGY PREDICTED BY IDOCK:   -8.11 KCAL/MOL
REMARK 923 INTER-LIGAND FREE ENERGY PREDICTED BY IDOCK:   -7.28 KCAL/MOL
REMARK 924 INTRA-LIGAND FREE ENERGY PREDICTED BY IDOCK:   -0.83 KCAL/MOL
REMARK 927      BINDING AFFINITY PREDICTED BY RF-SCORE:    0.00 PKD
ROOT
HETATM    1  C   UNL     1     -10.046  19.536  68.620  1.00  0.00    -0.442 C  
HETATM    2  N   UNL     1     -10.660  18.915  67.454  1.00  0.00    -0.445 NA 
HETATM    3  C   UNL     1     -10.392  19.671  66.239  1.00  0.00    -0.518 C  
ENDROOT
BRANCH   2   4
HETATM    4  C   UNL     1     -10.451  17.458  67.354  1.00  0.00    -0.336 C  
BRANCH   4   5
HETATM    5  C   UNL     1      -9.959  16.777  66.046  1.00  0.00    -0.313 C  
BRANCH   5   6
HETATM    6  O   UNL     1      -9.665  15.400  66.361  1.00  0.00    -0.252 OA 
BRANCH   6   7
HETATM    7  C   UNL     1     -10.448  14.371  65.901  1.00  0.00    -0.308 A  
HETATM    8  C   UNL     1     -11.297  14.756  64.851  1.00  0.00    -0.411 A  
HETATM    9  C   UNL     1     -12.276  13.897  64.331  1.00  0.00    -0.449 A  
HETATM   10  C   UNL     1     -12.397  12.605  64.828  1.00  0.00    -0.556 A  
HETATM   11  C   UNL     1     -11.571  12.208  65.875  1.00  0.00    -0.425 A  
HETATM   12  C   UNL     1     -10.634  13.097  66.466  1.00  0.00    -0.290 A  
BRANCH  12  13
HETATM   13  C   UNL     1     -10.076  12.651  67.797  1.00  0.00    -0.220 C  
BRANCH  13  14
HETATM   14  C   UNL     1     -11.085  12.672  68.936  1.00  0.00    -0.307 A  
HETATM   15  C   UNL     1     -11.497  11.465  69.520  1.00  0.00    -0.381 A  
HETATM   16  C   UNL     1     -12.302  11.467  70.662  1.00  0.00    -0.466 A  
HETATM   17  C   UNL     1     -12.714  12.671  71.228  1.00  0.00    -0.354 A  
HETATM   18  C   UNL     1     -12.359  13.875  70.628  1.00  0.00    -0.451 A  
HETATM   19  C   UNL     1     -11.549  13.877  69.491  1.00  0.00    -0.358 A  
ENDBRANCH  13  14
ENDBRANCH  12  13
ENDBRANCH   6   7
ENDBRANCH   5   6
ENDBRANCH   4   5
ENDBRANCH   2   4
TORSDOF 6
ENDMDL
MODEL       10
REMARK 921   NORMALIZED FREE ENERGY PREDICTED BY IDOCK:   -5.38 KCAL/MOL
REMARK 922        TOTAL FREE ENERGY PREDICTED BY IDOCK:   -8.10 KCAL/MOL
REMARK 923 INTER-LIGAND FREE ENERGY PREDICTED BY IDOCK:   -7.43 KCAL/MOL
REMARK 924 INTRA-LIGAND FREE ENERGY PREDICTED BY IDOCK:   -0.67 KCAL/MOL
REMARK 927      BINDING AFFINITY PREDICTED BY RF-SCORE:    0.00 PKD
ROOT
HETATM    1  C   UNL     1      -8.794  15.247  66.653  1.00  0.00    -0.293 C  
HETATM    2  N   UNL     1      -9.915  15.981  66.081  1.00  0.00    -0.302 NA 
HETATM    3  C   UNL     1      -9.615  17.398  65.939  1.00  0.00    -0.025 C  
ENDROOT
BRANCH   2   4
HETATM    4  C   UNL     1     -10.527  15.341  64.900  1.00  0.00    -0.302 C  
BRANCH   4   5
HETATM    5  C   UNL     1     -11.441  14.088  65.013  1.00  0.00    -0.344 C  
BRANCH   5   6
HETATM    6  O   UNL     1     -12.203  14.217  66.231  1.00  0.00    -0.436 OA 
BRANCH   6   7
HETATM    7  C   UNL     1     -11.900  13.489  67.354  1.00  0.00    -0.384 A  
HETATM    8  C   UNL     1     -11.909  12.103  67.126  1.00  0.00    -0.292 A  
HETATM    9  C   UNL     1     -11.763  11.176  68.168  1.00  0.00    -0.304 A  
HETATM   10  C   UNL     1     -11.558  11.624  69.467  1.00  0.00    -0.397 A  
HETATM   11  C   UNL     1     -11.555  12.992  69.714  1.00  0.00    -0.286 A  
HETATM   12  C   UNL     1     -11.786  13.938  68.680  1.00  0.00    -0.407 A  
BRANCH  12  13
HETATM   13  C   UNL     1     -12.105  15.338  69.150  1.00  0.00    -0.266 C  
BRANCH  13  14
HETATM   14  C   UNL     1     -12.541  15.424  70.606  1.00  0.00    -0.491 A  
HETATM   15  C   UNL     1     -11.642  15.899  71.572  1.00  0.00    -0.537 A  
HETATM   16  C   UNL     1     -12.065  16.131  72.884  1.00  0.00    -0.643 A  
HETATM   17  C   UNL     1     -13.386  15.881  73.249  1.00  0.00    -0.660 A  
HETATM   18  C   UNL     1     -14.275  15.358  72.316  1.00  0.00    -0.639 A  
HETATM   19  C   UNL     1     -13.857  15.132  71.003  1.00  0.00    -0.423 A  
ENDBRANCH  13  14
ENDBRANCH  12  13
ENDBRANCH   6   7
ENDBRANCH   5   6
ENDBRANCH   4   5
ENDBRANCH   2   4
TORSDOF 6
ENDMDL
MODEL       11
REMARK 921   NORMALIZED FREE ENERGY PREDICTED BY IDOCK:   -5.33 KCAL/MOL
REMARK 922        TOTAL FREE ENERGY PREDICTED BY IDOCK:   -8.04 KCAL/MOL
REMARK 923 INTER-LIGAND FREE ENERGY PREDICTED BY IDOCK:   -7.17 KCAL/MOL
REMARK 924 INTRA-LIGAND FREE ENERGY PREDICTED BY IDOCK:   -0.87 KCAL/MOL
REMARK 927      BINDING AFFINITY PREDICTED BY RF-SCORE:    0.00 PKD
ROOT
HETATM    1  C   UNL     1     -12.817  13.965  65.498  1.00  0.00    -0.431 C  
HETATM    2  N   UNL     1     -12.309  12.613  65.312  1.00  0.00    -0.576 NA 
HETATM    3  C   UNL     1     -12.340  12.214  63.912  1.00  0.00    -0.487 C  
ENDROOT
BRANCH   2   4
HETATM    4  C   UNL     1     -11.048  12.328  66.023  1.00  0.00    -0.309 C  
BRANCH   4   5
HETATM    5  C   UNL     1     -10.953  12.316  67.575  1.00  0.00    -0.254 C  
BRANCH   5   6
HETATM    6  O   UNL     1     -10.351  13.563  67.981  1.00  0.00    -0.229 OA 
BRANCH   6   7
HETATM    7  C   UNL     1     -10.822  14.277  69.054  1.00  0.00    -0.255 A  
HETATM    8  C   UNL     1     -12.093  13.856  69.475  1.00  0.00    -0.393 A  
HETATM    9  C   UNL     1     -12.815  14.541  70.464  1.00  0.00    -0.361 A  
HETATM   10  C   UNL     1     -12.254  15.648  71.087  1.00  0.00    -0.466 A  
HETATM   11  C   UNL     1     -10.999  16.086  70.677  1.00  0.00    -0.273 A  
HETATM   12  C   UNL     1     -10.295  15.451  69.619  1.00  0.00    -0.283 A  
BRANCH  12  13
HETATM   13  C   UNL     1      -9.136  16.239  69.055  1.00  0.00    -0.255 C  
BRANCH  13  14
HETATM   14  C   UNL     1      -9.547  17.451  68.229  1.00  0.00    -0.292 A  
HETATM   15  C   UNL     1      -9.978  17.274  66.907  1.00  0.00    -0.294 A  
HETATM   16  C   UNL     1     -10.504  18.347  66.182  1.00  0.00    -0.422 A  
HETATM   17  C   UNL     1     -10.594  19.610  66.764  1.00  0.00    -0.602 A  
HETATM   18  C   UNL     1     -10.119  19.812  68.056  1.00  0.00    -0.571 A  
HETATM   19  C   UNL     1      -9.600  18.740  68.785  1.00  0.00    -0.411 A  
ENDBRANCH  13  14
ENDBRANCH  12  13
ENDBRANCH   6   7
ENDBRANCH   5   6
ENDBRANCH   4   5
ENDBRANCH   2   4
TORSDOF 6
ENDMDL
MODEL       12
REMARK 921   NORMALIZED FREE ENERGY PREDICTED BY IDOCK:   -5.33 KCAL/MOL
REMARK 922        TOTAL FREE ENERGY PREDICTED BY IDOCK:   -8.03 KCAL/MOL
REMARK 923 INTER-LIGAND FREE ENERGY PREDICTED BY IDOCK:   -7.30 KCAL/MOL
REMARK 924 INTRA-LIGAND FREE ENERGY PREDICTED BY IDOCK:   -0.74 KCAL/MOL
REMARK 927      BINDING AFFINITY PREDICTED BY RF-SCORE:    0.00 PKD
ROOT
HETATM    1  C   UNL     1      -8.835  18.949  68.576  1.00  0.00    -0.352 C  
HETATM    2  N   UNL     1     -10.240  18.647  68.341  1.00  0.00    -0.382 NA 
HETATM    3  C   UNL     1     -10.778  19.417  67.228  1.00  0.00    -0.490 C  
ENDROOT
BRANCH   2   4
HETATM    4  C   UNL     1     -10.564  17.208  68.330  1.00  0.00    -0.371 C  
BRANCH   4   5
HETATM    5  C   UNL     1     -10.902  16.421  69.628  1.00  0.00    -0.346 C  
BRANCH   5   6
HETATM    6  O   UNL     1     -12.129  15.701  69.389  1.00  0.00    -0.356 OA 
BRANCH   6   7
HETATM    7  C   UNL     1     -12.321  14.425  69.857  1.00  0.00    -0.314 A  
HETATM    8  C   UNL     1     -13.077  14.384  71.040  1.00  0.00    -0.417 A  
HETATM    9  C   UNL     1     -13.271  13.195  71.759  1.00  0.00    -0.494 A  
HETATM   10  C   UNL     1     -12.742  12.003  71.279  1.00  0.00    -0.382 A  
HETATM   11  C   UNL     1     -11.983  12.025  70.114  1.00  0.00    -0.401 A  
HETATM   12  C   UNL     1     -11.710  13.236  69.424  1.00  0.00    -0.383 A  
BRANCH  12  13
HETATM   13  C   UNL     1     -10.599  13.157  68.402  1.00  0.00    -0.264 C  
BRANCH  13  14
HETATM   14  C   UNL     1     -11.059  13.345  66.963  1.00  0.00    -0.310 A  
HETATM   15  C   UNL     1     -10.375  14.241  66.129  1.00  0.00    -0.305 A  
HETATM   16  C   UNL     1     -10.681  14.318  64.767  1.00  0.00    -0.435 A  
HETATM   17  C   UNL     1     -11.679  13.511  64.226  1.00  0.00    -0.455 A  
HETATM   18  C   UNL     1     -12.404  12.658  65.053  1.00  0.00    -0.561 A  
HETATM   19  C   UNL     1     -12.096  12.574  66.411  1.00  0.00    -0.279 A  
ENDBRANCH  13  14
ENDBRANCH  12  13
ENDBRANCH   6   7
ENDBRANCH   5   6
ENDBRANCH   4   5
ENDBRANCH   2   4
TORSDOF 6
ENDMDL
MODEL       13
REMARK 921   NORMALIZED FREE ENERGY PREDICTED BY IDOCK:   -5.33 KCAL/MOL
REMARK 922        TOTAL FREE ENERGY PREDICTED BY IDOCK:   -8.03 KCAL/MOL
REMARK 923 INTER-LIGAND FREE ENERGY PREDICTED BY IDOCK:   -7.48 KCAL/MOL
REMARK 924 INTRA-LIGAND FREE ENERGY PREDICTED BY IDOCK:   -0.55 KCAL/MOL
REMARK 927      BINDING AFFINITY PREDICTED BY RF-SCORE:    0.00 PKD
ROOT
HETATM    1  C   UNL     1     -12.845  13.540  65.403  1.00  0.00    -0.363 C  
HETATM    2  N   UNL     1     -11.691  12.909  64.777  1.00  0.00    -0.329 NA 
HETATM    3  C   UNL     1     -11.892  12.716  63.348  1.00  0.00    -0.514 C  
ENDROOT
BRANCH   2   4
HETATM    4  C   UNL     1     -10.391  13.492  65.161  1.00  0.00    -0.353 C  
BRANCH   4   5
HETATM    5  C   UNL     1     -10.251  14.526  66.314  1.00  0.00    -0.297 C  
BRANCH   5   6
HETATM    6  O   UNL     1      -9.610  13.855  67.420  1.00  0.00    -0.224 OA 
BRANCH   6   7
HETATM    7  C   UNL     1     -10.295  12.986  68.232  1.00  0.00    -0.252 A  
HETATM    8  C   UNL     1     -10.020  11.639  67.946  1.00  0.00    -0.190 A  
HETATM    9  C   UNL     1     -10.717  10.589  68.563  1.00  0.00    -0.259 A  
HETATM   10  C   UNL     1     -11.684  10.871  69.521  1.00  0.00    -0.400 A  
HETATM   11  C   UNL     1     -11.976  12.199  69.810  1.00  0.00    -0.372 A  
HETATM   12  C   UNL     1     -11.337  13.270  69.131  1.00  0.00    -0.336 A  
BRANCH  12  13
HETATM   13  C   UNL     1     -12.000  14.619  69.289  1.00  0.00    -0.337 C  
BRANCH  13  14
HETATM   14  C   UNL     1     -12.415  14.947  70.717  1.00  0.00    -0.401 A  
HETATM   15  C   UNL     1     -11.453  15.399  71.631  1.00  0.00    -0.492 A  
HETATM   16  C   UNL     1     -11.835  15.851  72.898  1.00  0.00    -0.566 A  
HETATM   17  C   UNL     1     -13.177  15.845  73.270  1.00  0.00    -0.698 A  
HETATM   18  C   UNL     1     -14.136  15.346  72.394  1.00  0.00    -0.645 A  
HETATM   19  C   UNL     1     -13.759  14.901  71.126  1.00  0.00    -0.452 A  
ENDBRANCH  13  14
ENDBRANCH  12  13
ENDBRANCH   6   7
ENDBRANCH   5   6
ENDBRANCH   4   5
ENDBRANCH   2   4
TORSDOF 6
ENDMDL
MODEL       14
REMARK 921   NORMALIZED FREE ENERGY PREDICTED BY IDOCK:   -5.28 KCAL/MOL
REMARK 922        TOTAL FREE ENERGY PREDICTED BY IDOCK:   -7.97 KCAL/MOL
REMARK 923 INTER-LIGAND FREE ENERGY PREDICTED BY IDOCK:   -7.36 KCAL/MOL
REMARK 924 INTRA-LIGAND FREE ENERGY PREDICTED BY IDOCK:   -0.60 KCAL/MOL
REMARK 927      BINDING AFFINITY PREDICTED BY RF-SCORE:    0.00 PKD
ROOT
HETATM    1  C   UNL     1     -13.514   8.841  71.810  1.00  0.00    -0.393 C  
HETATM    2  N   UNL     1     -12.085   8.625  71.630  1.00  0.00    -0.307 NA 
HETATM    3  C   UNL     1     -11.815   7.394  70.900  1.00  0.00    -0.290 C  
ENDROOT
BRANCH   2   4
HETATM    4  C   UNL     1     -11.338   9.811  71.171  1.00  0.00    -0.389 C  
BRANCH   4   5
HETATM    5  C   UNL     1     -11.494  10.389  69.736  1.00  0.00    -0.280 C  
BRANCH   5   6
HETATM    6  O   UNL     1     -11.513  11.827  69.849  1.00  0.00    -0.272 OA 
BRANCH   6   7
HETATM    7  C   UNL     1     -11.657  12.636  68.749  1.00  0.00    -0.313 A  
HETATM    8  C   UNL     1     -11.813  11.913  67.555  1.00  0.00    -0.249 A  
HETATM    9  C   UNL     1     -11.836  12.542  66.302  1.00  0.00    -0.453 A  
HETATM   10  C   UNL     1     -11.747  13.926  66.221  1.00  0.00    -0.402 A  
HETATM   11  C   UNL     1     -11.584  14.658  67.392  1.00  0.00    -0.408 A  
HETATM   12  C   UNL     1     -11.474  14.026  68.660  1.00  0.00    -0.337 A  
BRANCH  12  13
HETATM   13  C   UNL     1     -10.950  14.904  69.772  1.00  0.00    -0.280 C  
BRANCH  13  14
HETATM   14  C   UNL     1     -11.981  15.239  70.841  1.00  0.00    -0.391 A  
HETATM   15  C   UNL     1     -13.325  14.892  70.641  1.00  0.00    -0.253 A  
HETATM   16  C   UNL     1     -14.260  15.050  71.667  1.00  0.00    -0.649 A  
HETATM   17  C   UNL     1     -13.868  15.567  72.900  1.00  0.00    -0.536 A  
HETATM   18  C   UNL     1     -12.550  15.967  73.095  1.00  0.00    -0.622 A  
HETATM   19  C   UNL     1     -11.612  15.803  72.074  1.00  0.00    -0.541 A  
ENDBRANCH  13  14
ENDBRANCH  12  13
ENDBRANCH   6   7
ENDBRANCH   5   6
ENDBRANCH   4   5
ENDBRANCH   2   4
TORSDOF 6
ENDMDL
MODEL       15
REMARK 921   NORMALIZED FREE ENERGY PREDICTED BY IDOCK:   -5.27 KCAL/MOL
REMARK 922        TOTAL FREE ENERGY PREDICTED BY IDOCK:   -7.96 KCAL/MOL
REMARK 923 INTER-LIGAND FREE ENERGY PREDICTED BY IDOCK:   -7.11 KCAL/MOL
REMARK 924 INTRA-LIGAND FREE ENERGY PREDICTED BY IDOCK:   -0.85 KCAL/MOL
REMARK 927      BINDING AFFINITY PREDICTED BY RF-SCORE:    0.00 PKD
ROOT
HETATM    1  C   UNL     1     -12.777  15.338  73.464  1.00  0.00    -0.559 C  
HETATM    2  N   UNL     1     -12.656  14.981  72.057  1.00  0.00    -0.316 NA 
HETATM    3  C   UNL     1     -13.919  15.141  71.351  1.00  0.00    -0.506 C  
ENDROOT
BRANCH   2   4
HETATM    4  C   UNL     1     -11.475  15.548  71.380  1.00  0.00    -0.414 C  
BRANCH   4   5
HETATM    5  C   UNL     1     -11.501  15.984  69.887  1.00  0.00    -0.326 C  
BRANCH   5   6
HETATM    6  O   UNL     1     -10.134  16.026  69.426  1.00  0.00    -0.241 OA 
BRANCH   6   7
HETATM    7  C   UNL     1      -9.693  16.998  68.563  1.00  0.00    -0.282 A  
HETATM    8  C   UNL     1     -10.129  18.284  68.918  1.00  0.00    -0.358 A  
HETATM    9  C   UNL     1      -9.908  19.399  68.096  1.00  0.00    -0.485 A  
HETATM   10  C   UNL     1      -9.200  19.253  66.910  1.00  0.00    -0.359 A  
HETATM   11  C   UNL     1      -8.768  17.986  66.537  1.00  0.00    -0.279 A  
HETATM   12  C   UNL     1      -9.059  16.836  67.319  1.00  0.00    -0.228 A  
BRANCH  12  13
HETATM   13  C   UNL     1      -8.844  15.513  66.622  1.00  0.00    -0.325 C  
BRANCH  13  14
HETATM   14  C   UNL     1     -10.128  14.826  66.176  1.00  0.00    -0.312 A  
HETATM   15  C   UNL     1     -10.641  13.760  66.929  1.00  0.00    -0.276 A  
HETATM   16  C   UNL     1     -11.893  13.216  66.628  1.00  0.00    -0.449 A  
HETATM   17  C   UNL     1     -12.641  13.722  65.567  1.00  0.00    -0.551 A  
HETATM   18  C   UNL     1     -12.120  14.742  64.778  1.00  0.00    -0.387 A  
HETATM   19  C   UNL     1     -10.874  15.292  65.080  1.00  0.00    -0.457 A  
ENDBRANCH  13  14
ENDBRANCH  12  13
ENDBRANCH   6   7
ENDBRANCH   5   6
ENDBRANCH   4   5
ENDBRANCH   2   4
TORSDOF 6
ENDMDL
MODEL       16
REMARK 921   NORMALIZED FREE ENERGY PREDICTED BY IDOCK:   -5.25 KCAL/MOL
REMARK 922        TOTAL FREE ENERGY PREDICTED BY IDOCK:   -7.93 KCAL/MOL
REMARK 923 INTER-LIGAND FREE ENERGY PREDICTED BY IDOCK:   -7.40 KCAL/MOL
REMARK 924 INTRA-LIGAND FREE ENERGY PREDICTED BY IDOCK:   -0.53 KCAL/MOL
REMARK 927      BINDING AFFINITY PREDICTED BY RF-SCORE:    0.00 PKD
ROOT
HETATM    1  C   UNL     1     -10.147  18.823  68.669  1.00  0.00    -0.380 C  
HETATM    2  N   UNL     1     -10.410  19.264  67.306  1.00  0.00    -0.405 NA 
HETATM    3  C   UNL     1      -9.689  20.487  66.987  1.00  0.00    -0.408 C  
ENDROOT
BRANCH   2   4
HETATM    4  C   UNL     1     -10.329  18.197  66.291  1.00  0.00    -0.397 C  
BRANCH   4   5
HETATM    5  C   UNL     1     -10.011  16.720  66.659  1.00  0.00    -0.293 C  
BRANCH   5   6
HETATM    6  O   UNL     1     -11.227  16.129  67.164  1.00  0.00    -0.131 OA 
BRANCH   6   7
HETATM    7  C   UNL     1     -11.274  14.826  67.591  1.00  0.00    -0.323 A  
HETATM    8  C   UNL     1     -11.879  13.967  66.659  1.00  0.00    -0.443 A  
HETATM    9  C   UNL     1     -12.153  12.623  66.953  1.00  0.00    -0.213 A  
HETATM   10  C   UNL     1     -11.783  12.096  68.183  1.00  0.00    -0.402 A  
HETATM   11  C   UNL     1     -11.190  12.933  69.123  1.00  0.00    -0.293 A  
HETATM   12  C   UNL     1     -10.985  14.315  68.868  1.00  0.00    -0.275 A  
BRANCH  12  13
HETATM   13  C   UNL     1     -10.671  15.154  70.084  1.00  0.00    -0.245 C  
BRANCH  13  14
HETATM   14  C   UNL     1     -11.804  15.231  71.099  1.00  0.00    -0.399 A  
HETATM   15  C   UNL     1     -11.544  15.706  72.392  1.00  0.00    -0.523 A  
HETATM   16  C   UNL     1     -12.592  15.930  73.290  1.00  0.00    -0.640 A  
HETATM   17  C   UNL     1     -13.908  15.671  72.911  1.00  0.00    -0.571 A  
HETATM   18  C   UNL     1     -14.174  15.147  71.651  1.00  0.00    -0.664 A  
HETATM   19  C   UNL     1     -13.131  14.929  70.749  1.00  0.00    -0.398 A  
ENDBRANCH  13  14
ENDBRANCH  12  13
ENDBRANCH   6   7
ENDBRANCH   5   6
ENDBRANCH   4   5
ENDBRANCH   2   4
TORSDOF 6
ENDMDL
MODEL       17
REMARK 921   NORMALIZED FREE ENERGY PREDICTED BY IDOCK:   -5.21 KCAL/MOL
REMARK 922        TOTAL FREE ENERGY PREDICTED BY IDOCK:   -7.87 KCAL/MOL
REMARK 923 INTER-LIGAND FREE ENERGY PREDICTED BY IDOCK:   -7.18 KCAL/MOL
REMARK 924 INTRA-LIGAND FREE ENERGY PREDICTED BY IDOCK:   -0.69 KCAL/MOL
REMARK 927      BINDING AFFINITY PREDICTED BY RF-SCORE:    0.00 PKD
ROOT
HETATM    1  C   UNL     1     -10.019  19.597  66.247  1.00  0.00    -0.466 C  
HETATM    2  N   UNL     1      -9.576  18.695  67.302  1.00  0.00    -0.293 NA 
HETATM    3  C   UNL     1      -9.572  19.350  68.602  1.00  0.00    -0.426 C  
ENDROOT
BRANCH   2   4
HETATM    4  C   UNL     1     -10.198  17.358  67.267  1.00  0.00    -0.324 C  
BRANCH   4   5
HETATM    5  C   UNL     1     -10.511  16.552  68.559  1.00  0.00    -0.302 C  
BRANCH   5   6
HETATM    6  O   UNL     1     -11.666  15.731  68.288  1.00  0.00    -0.345 OA 
BRANCH   6   7
HETATM    7  C   UNL     1     -11.808  14.481  68.836  1.00  0.00    -0.324 A  
HETATM    8  C   UNL     1     -12.388  14.507  70.114  1.00  0.00    -0.398 A  
HETATM    9  C   UNL     1     -12.496  13.355  70.907  1.00  0.00    -0.439 A  
HETATM   10  C   UNL     1     -12.060  12.132  70.412  1.00  0.00    -0.395 A  
HETATM   11  C   UNL     1     -11.474  12.088  69.152  1.00  0.00    -0.357 A  
HETATM   12  C   UNL     1     -11.283  13.261  68.375  1.00  0.00    -0.314 A  
BRANCH  12  13
HETATM   13  C   UNL     1     -10.330  13.114  67.211  1.00  0.00    -0.243 C  
BRANCH  13  14
HETATM   14  C   UNL     1     -10.983  12.617  65.929  1.00  0.00    -0.310 A  
HETATM   15  C   UNL     1     -12.305  12.981  65.639  1.00  0.00    -0.504 A  
HETATM   16  C   UNL     1     -12.874  12.665  64.401  1.00  0.00    -0.344 A  
HETATM   17  C   UNL     1     -12.133  11.974  63.445  1.00  0.00    -0.597 A  
HETATM   18  C   UNL     1     -10.839  11.558  63.740  1.00  0.00    -0.486 A  
HETATM   19  C   UNL     1     -10.266  11.878  64.972  1.00  0.00    -0.316 A  
ENDBRANCH  13  14
ENDBRANCH  12  13
ENDBRANCH   6   7
ENDBRANCH   5   6
ENDBRANCH   4   5
ENDBRANCH   2   4
TORSDOF 6
ENDMDL
MODEL       18
REMARK 921   NORMALIZED FREE ENERGY PREDICTED BY IDOCK:   -5.20 KCAL/MOL
REMARK 922        TOTAL FREE ENERGY PREDICTED BY IDOCK:   -7.86 KCAL/MOL
REMARK 923 INTER-LIGAND FREE ENERGY PREDICTED BY IDOCK:   -7.11 KCAL/MOL
REMARK 924 INTRA-LIGAND FREE ENERGY PREDICTED BY IDOCK:   -0.74 KCAL/MOL
REMARK 927      BINDING AFFINITY PREDICTED BY RF-SCORE:    0.00 PKD
ROOT
HETATM    1  C   UNL     1     -10.746   8.727  69.221  1.00  0.00    -0.151 C  
HETATM    2  N   UNL     1     -11.318   8.371  70.512  1.00  0.00    -0.249 NA 
HETATM    3  C   UNL     1     -10.711   7.163  71.055  1.00  0.00    -0.232 C  
ENDROOT
BRANCH   2   4
HETATM    4  C   UNL     1     -11.444   9.496  71.457  1.00  0.00    -0.395 C  
BRANCH   4   5
HETATM    5  C   UNL     1     -12.559  10.572  71.326  1.00  0.00    -0.426 C  
BRANCH   5   6
HETATM    6  O   UNL     1     -11.997  11.690  70.607  1.00  0.00    -0.358 OA 
BRANCH   6   7
HETATM    7  C   UNL     1     -12.393  12.981  70.856  1.00  0.00    -0.288 A  
HETATM    8  C   UNL     1     -13.536  13.056  71.668  1.00  0.00    -0.286 A  
HETATM    9  C   UNL     1     -14.187  14.271  71.928  1.00  0.00    -0.597 A  
HETATM   10  C   UNL     1     -13.674  15.453  71.410  1.00  0.00    -0.591 A  
HETATM   11  C   UNL     1     -12.549  15.399  70.596  1.00  0.00    -0.491 A  
HETATM   12  C   UNL     1     -11.931  14.165  70.257  1.00  0.00    -0.404 A  
BRANCH  12  13
HETATM   13  C   UNL     1     -10.960  14.229  69.101  1.00  0.00    -0.286 C  
BRANCH  13  14
HETATM   14  C   UNL     1     -11.482  13.609  67.812  1.00  0.00    -0.351 A  
HETATM   15  C   UNL     1     -12.252  14.384  66.933  1.00  0.00    -0.300 A  
HETATM   16  C   UNL     1     -12.613  13.887  65.677  1.00  0.00    -0.553 A  
HETATM   17  C   UNL     1     -12.219  12.608  65.290  1.00  0.00    -0.532 A  
HETATM   18  C   UNL     1     -11.502  11.807  66.174  1.00  0.00    -0.288 A  
HETATM   19  C   UNL     1     -11.135  12.303  67.425  1.00  0.00    -0.333 A  
ENDBRANCH  13  14
ENDBRANCH  12  13
ENDBRANCH   6   7
ENDBRANCH   5   6
ENDBRANCH   4   5
ENDBRANCH   2   4
TORSDOF 6
ENDMDL
MODEL       19
REMARK 921   NORMALIZED FREE ENERGY PREDICTED BY IDOCK:   -5.18 KCAL/MOL
REMARK 922        TOTAL FREE ENERGY PREDICTED BY IDOCK:   -7.83 KCAL/MOL
REMARK 923 INTER-LIGAND FREE ENERGY PREDICTED BY IDOCK:   -7.18 KCAL/MOL
REMARK 924 INTRA-LIGAND FREE ENERGY PREDICTED BY IDOCK:   -0.66 KCAL/MOL
REMARK 927      BINDING AFFINITY PREDICTED BY RF-SCORE:    0.00 PKD
ROOT
HETATM    1  C   UNL     1     -10.338  11.677  63.683  1.00  0.00    -0.419 C  
HETATM    2  N   UNL     1     -11.431  12.629  63.543  1.00  0.00    -0.490 NA 
HETATM    3  C   UNL     1     -12.720  11.959  63.445  1.00  0.00    -0.366 C  
ENDROOT
BRANCH   2   4
HETATM    4  C   UNL     1     -11.378  13.765  64.483  1.00  0.00    -0.380 C  
BRANCH   4   5
HETATM    5  C   UNL     1     -12.436  13.968  65.604  1.00  0.00    -0.504 C  
BRANCH   5   6
HETATM    6  O   UNL     1     -11.905  13.384  66.812  1.00  0.00    -0.365 OA 
BRANCH   6   7
HETATM    7  C   UNL     1     -10.779  13.880  67.419  1.00  0.00    -0.272 A  
HETATM    8  C   UNL     1      -9.644  13.083  67.203  1.00  0.00    -0.230 A  
HETATM    9  C   UNL     1      -8.423  13.333  67.847  1.00  0.00    -0.177 A  
HETATM   10  C   UNL     1      -8.302  14.425  68.697  1.00  0.00    -0.147 A  
HETATM   11  C   UNL     1      -9.418  15.221  68.932  1.00  0.00    -0.218 A  
HETATM   12  C   UNL     1     -10.681  14.928  68.351  1.00  0.00    -0.245 A  
BRANCH  12  13
HETATM   13  C   UNL     1     -11.856  15.651  68.967  1.00  0.00    -0.379 C  
BRANCH  13  14
HETATM   14  C   UNL     1     -12.167  15.231  70.397  1.00  0.00    -0.404 A  
HETATM   15  C   UNL     1     -11.836  16.085  71.458  1.00  0.00    -0.554 A  
HETATM   16  C   UNL     1     -12.248  15.793  72.761  1.00  0.00    -0.577 A  
HETATM   17  C   UNL     1     -12.984  14.639  73.021  1.00  0.00    -0.610 A  
HETATM   18  C   UNL     1     -13.272  13.754  71.987  1.00  0.00    -0.520 A  
HETATM   19  C   UNL     1     -12.869  14.047  70.684  1.00  0.00    -0.320 A  
ENDBRANCH  13  14
ENDBRANCH  12  13
ENDBRANCH   6   7
ENDBRANCH   5   6
ENDBRANCH   4   5
ENDBRANCH   2   4
TORSDOF 6
ENDMDL
MODEL       20
REMARK 921   NORMALIZED FREE ENERGY PREDICTED BY IDOCK:   -5.18 KCAL/MOL
REMARK 922        TOTAL FREE ENERGY PREDICTED BY IDOCK:   -7.83 KCAL/MOL
REMARK 923 INTER-LIGAND FREE ENERGY PREDICTED BY IDOCK:   -7.18 KCAL/MOL
REMARK 924 INTRA-LIGAND FREE ENERGY PREDICTED BY IDOCK:   -0.65 KCAL/MOL
REMARK 927      BINDING AFFINITY PREDICTED BY RF-SCORE:    0.00 PKD
ROOT
HETATM    1  C   UNL     1     -10.651  15.852  65.293  1.00  0.00    -0.419 C  
HETATM    2  N   UNL     1      -9.723  16.861  65.785  1.00  0.00    -0.548 NA 
HETATM    3  C   UNL     1     -10.420  18.051  66.252  1.00  0.00    -0.335 C  
ENDROOT
BRANCH   2   4
HETATM    4  C   UNL     1      -8.678  16.343  66.689  1.00  0.00    -0.256 C  
BRANCH   4   5
HETATM    5  C   UNL     1      -8.711  16.584  68.224  1.00  0.00    -0.209 C  
BRANCH   5   6
HETATM    6  O   UNL     1      -8.758  15.292  68.864  1.00  0.00    -0.180 OA 
BRANCH   6   7
HETATM    7  C   UNL     1      -9.684  14.343  68.507  1.00  0.00    -0.225 A  
HETATM    8  C   UNL     1      -9.148  13.338  67.686  1.00  0.00    -0.204 A  
HETATM    9  C   UNL     1      -9.952  12.351  67.097  1.00  0.00    -0.211 A  
HETATM   10  C   UNL     1     -11.317  12.325  67.356  1.00  0.00    -0.389 A  
HETATM   11  C   UNL     1     -11.867  13.318  68.160  1.00  0.00    -0.388 A  
HETATM   12  C   UNL     1     -11.076  14.371  68.693  1.00  0.00    -0.269 A  
BRANCH  12  13
HETATM   13  C   UNL     1     -11.854  15.548  69.234  1.00  0.00    -0.372 C  
BRANCH  13  14
HETATM   14  C   UNL     1     -12.311  15.384  70.677  1.00  0.00    -0.451 A  
HETATM   15  C   UNL     1     -11.376  15.490  71.717  1.00  0.00    -0.463 A  
HETATM   16  C   UNL     1     -11.795  15.496  73.050  1.00  0.00    -0.555 A  
HETATM   17  C   UNL     1     -13.148  15.384  73.362  1.00  0.00    -0.633 A  
HETATM   18  C   UNL     1     -14.081  15.222  72.343  1.00  0.00    -0.622 A  
HETATM   19  C   UNL     1     -13.667  15.223  71.010  1.00  0.00    -0.452 A  
ENDBRANCH  13  14
ENDBRANCH  12  13
ENDBRANCH   6   7
ENDBRANCH   5   6
ENDBRANCH   4   5
ENDBRANCH   2   4
TORSDOF 6
ENDMDL
MODEL       21
REMARK 921   NORMALIZED FREE ENERGY PREDICTED BY IDOCK:   -5.16 KCAL/MOL
REMARK 922        TOTAL FREE ENERGY PREDICTED BY IDOCK:   -7.81 KCAL/MOL
REMARK 923 INTER-LIGAND FREE ENERGY PREDICTED BY IDOCK:   -7.21 KCAL/MOL
REMARK 924 INTRA-LIGAND FREE ENERGY PREDICTED BY IDOCK:   -0.60 KCAL/MOL
REMARK 927      BINDING AFFINITY PREDICTED BY RF-SCORE:    0.00 PKD
ROOT
HETATM    1  C   UNL     1     -11.393  10.037  70.509  1.00  0.00    -0.335 C  
HETATM    2  N   UNL     1     -12.373  11.114  70.506  1.00  0.00    -0.352 NA 
HETATM    3  C   UNL     1     -13.156  11.133  71.734  1.00  0.00    -0.431 C  
ENDROOT
BRANCH   2   4
HETATM    4  C   UNL     1     -11.846  12.421  70.070  1.00  0.00    -0.288 C  
BRANCH   4   5
HETATM    5  C   UNL     1     -10.972  12.582  68.793  1.00  0.00    -0.253 C  
BRANCH   5   6
HETATM    6  O   UNL     1     -11.120  13.943  68.338  1.00  0.00    -0.236 OA 
BRANCH   6   7
HETATM    7  C   UNL     1     -11.378  14.241  67.024  1.00  0.00    -0.341 A  
HETATM    8  C   UNL     1     -12.241  13.317  66.413  1.00  0.00    -0.419 A  
HETATM    9  C   UNL     1     -12.523  13.356  65.039  1.00  0.00    -0.479 A  
HETATM   10  C   UNL     1     -11.976  14.360  64.250  1.00  0.00    -0.433 A  
HETATM   11  C   UNL     1     -11.112  15.279  64.835  1.00  0.00    -0.435 A  
HETATM   12  C   UNL     1     -10.752  15.198  66.207  1.00  0.00    -0.320 A  
BRANCH  12  13
HETATM   13  C   UNL     1      -9.553  16.026  66.607  1.00  0.00    -0.258 C  
BRANCH  13  14
HETATM   14  C   UNL     1      -9.896  17.430  67.085  1.00  0.00    -0.278 A  
HETATM   15  C   UNL     1      -9.774  17.748  68.446  1.00  0.00    -0.333 A  
HETATM   16  C   UNL     1      -9.934  19.065  68.885  1.00  0.00    -0.460 A  
HETATM   17  C   UNL     1     -10.229  20.077  67.974  1.00  0.00    -0.538 A  
HETATM   18  C   UNL     1     -10.408  19.767  66.629  1.00  0.00    -0.614 A  
HETATM   19  C   UNL     1     -10.241  18.454  66.187  1.00  0.00    -0.408 A  
ENDBRANCH  13  14
ENDBRANCH  12  13
ENDBRANCH   6   7
ENDBRANCH   5   6
ENDBRANCH   4   5
ENDBRANCH   2   4
TORSDOF 6
ENDMDL
MODEL       22
REMARK 921   NORMALIZED FREE ENERGY PREDICTED BY IDOCK:   -5.15 KCAL/MOL
REMARK 922        TOTAL FREE ENERGY PREDICTED BY IDOCK:   -7.80 KCAL/MOL
REMARK 923 INTER-LIGAND FREE ENERGY PREDICTED BY IDOCK:   -7.03 KCAL/MOL
REMARK 924 INTRA-LIGAND FREE ENERGY PREDICTED BY IDOCK:   -0.77 KCAL/MOL
REMARK 927      BINDING AFFINITY PREDICTED BY RF-SCORE:    0.00 PKD
ROOT
HETATM    1  C   UNL     1     -12.218  12.469  64.081  1.00  0.00    -0.467 C  
HETATM    2  N   UNL     1     -11.244  12.615  65.154  1.00  0.00    -0.293 NA 
HETATM    3  C   UNL     1     -10.451  13.826  65.001  1.00  0.00    -0.402 C  
ENDROOT
BRANCH   2   4
HETATM    4  C   UNL     1     -11.782  12.376  66.507  1.00  0.00    -0.379 C  
BRANCH   4   5
HETATM    5  C   UNL     1     -11.779  13.473  67.609  1.00  0.00    -0.363 C  
BRANCH   5   6
HETATM    6  O   UNL     1     -11.388  12.841  68.846  1.00  0.00    -0.260 OA 
BRANCH   6   7
HETATM    7  C   UNL     1     -12.096  13.028  70.007  1.00  0.00    -0.297 A  
HETATM    8  C   UNL     1     -11.863  14.283  70.593  1.00  0.00    -0.349 A  
HETATM    9  C   UNL     1     -12.376  14.623  71.854  1.00  0.00    -0.410 A  
HETATM   10  C   UNL     1     -13.178  13.720  72.540  1.00  0.00    -0.599 A  
HETATM   11  C   UNL     1     -13.413  12.469  71.980  1.00  0.00    -0.486 A  
HETATM   12  C   UNL     1     -12.829  12.082  70.744  1.00  0.00    -0.118 A  
BRANCH  12  13
HETATM   13  C   UNL     1     -12.878  10.602  70.444  1.00  0.00    -0.277 C  
BRANCH  13  14
HETATM   14  C   UNL     1     -11.801   9.787  71.146  1.00  0.00    -0.466 A  
HETATM   15  C   UNL     1     -12.162   8.893  72.164  1.00  0.00    -0.437 A  
HETATM   16  C   UNL     1     -11.215   8.025  72.716  1.00  0.00    -0.448 A  
HETATM   17  C   UNL     1      -9.897   8.048  72.267  1.00  0.00    -0.301 A  
HETATM   18  C   UNL     1      -9.512   8.968  71.298  1.00  0.00    -0.339 A  
HETATM   19  C   UNL     1     -10.457   9.831  70.739  1.00  0.00    -0.339 A  
ENDBRANCH  13  14
ENDBRANCH  12  13
ENDBRANCH   6   7
ENDBRANCH   5   6
ENDBRANCH   4   5
ENDBRANCH   2   4
TORSDOF 6
ENDMDL
MODEL       23
REMARK 921   NORMALIZED FREE ENERGY PREDICTED BY IDOCK:   -5.15 KCAL/MOL
REMARK 922        TOTAL FREE ENERGY PREDICTED BY IDOCK:   -7.79 KCAL/MOL
REMARK 923 INTER-LIGAND FREE ENERGY PREDICTED BY IDOCK:   -7.02 KCAL/MOL
REMARK 924 INTRA-LIGAND FREE ENERGY PREDICTED BY IDOCK:   -0.77 KCAL/MOL
REMARK 927      BINDING AFFINITY PREDICTED BY RF-SCORE:    0.00 PKD
ROOT
HETATM    1  C   UNL     1     -13.685   8.978  72.255  1.00  0.00    -0.492 C  
HETATM    2  N   UNL     1     -12.236   9.094  72.166  1.00  0.00    -0.360 NA 
HETATM    3  C   UNL     1     -11.569   7.898  72.661  1.00  0.00    -0.377 C  
ENDROOT
BRANCH   2   4
HETATM    4  C   UNL     1     -11.741   9.607  70.874  1.00  0.00    -0.334 C  
BRANCH   4   5
HETATM    5  C   UNL     1     -12.483  10.720  70.081  1.00  0.00    -0.285 C  
BRANCH   5   6
HETATM    6  O   UNL     1     -11.696  11.924  70.188  1.00  0.00    -0.314 OA 
BRANCH   6   7
HETATM    7  C   UNL     1     -12.228  13.094  70.669  1.00  0.00    -0.321 A  
HETATM    8  C   UNL     1     -13.002  12.909  71.825  1.00  0.00    -0.416 A  
HETATM    9  C   UNL     1     -13.749  13.950  72.397  1.00  0.00    -0.678 A  
HETATM   10  C   UNL     1     -13.698  15.222  71.842  1.00  0.00    -0.601 A  
HETATM   11  C   UNL     1     -12.944  15.423  70.691  1.00  0.00    -0.450 A  
HETATM   12  C   UNL     1     -12.253  14.358  70.055  1.00  0.00    -0.408 A  
BRANCH  12  13
HETATM   13  C   UNL     1     -11.784  14.646  68.647  1.00  0.00    -0.362 C  
BRANCH  13  14
HETATM   14  C   UNL     1     -10.558  15.546  68.569  1.00  0.00    -0.246 A  
HETATM   15  C   UNL     1     -10.679  16.837  68.036  1.00  0.00    -0.355 A  
HETATM   16  C   UNL     1      -9.608  17.733  68.094  1.00  0.00    -0.303 A  
HETATM   17  C   UNL     1      -8.402  17.347  68.674  1.00  0.00    -0.264 A  
HETATM   18  C   UNL     1      -8.249  16.051  69.157  1.00  0.00    -0.241 A  
HETATM   19  C   UNL     1      -9.319  15.156  69.107  1.00  0.00    -0.215 A  
ENDBRANCH  13  14
ENDBRANCH  12  13
ENDBRANCH   6   7
ENDBRANCH   5   6
ENDBRANCH   4   5
ENDBRANCH   2   4
TORSDOF 6
ENDMDL
MODEL       24
REMARK 921   NORMALIZED FREE ENERGY PREDICTED BY IDOCK:   -5.15 KCAL/MOL
REMARK 922        TOTAL FREE ENERGY PREDICTED BY IDOCK:   -7.79 KCAL/MOL
REMARK 923 INTER-LIGAND FREE ENERGY PREDICTED BY IDOCK:   -7.08 KCAL/MOL
REMARK 924 INTRA-LIGAND FREE ENERGY PREDICTED BY IDOCK:   -0.71 KCAL/MOL
REMARK 927      BINDING AFFINITY PREDICTED BY RF-SCORE:    0.00 PKD
ROOT
HETATM    1  C   UNL     1     -13.599  14.230  72.473  1.00  0.00    -0.520 C  
HETATM    2  N   UNL     1     -12.962  15.502  72.787  1.00  0.00    -0.411 NA 
HETATM    3  C   UNL     1     -12.312  15.471  74.089  1.00  0.00    -0.669 C  
ENDROOT
BRANCH   2   4
HETATM    4  C   UNL     1     -12.157  16.071  71.690  1.00  0.00    -0.472 C  
BRANCH   4   5
HETATM    5  C   UNL     1     -11.595  15.199  70.531  1.00  0.00    -0.300 C  
BRANCH   5   6
HETATM    6  O   UNL     1     -11.923  15.863  69.293  1.00  0.00    -0.356 OA 
BRANCH   6   7
HETATM    7  C   UNL     1     -11.140  15.731  68.173  1.00  0.00    -0.341 A  
HETATM    8  C   UNL     1     -10.728  14.408  67.947  1.00  0.00    -0.246 A  
HETATM    9  C   UNL     1      -9.811  14.075  66.939  1.00  0.00    -0.267 A  
HETATM   10  C   UNL     1      -9.316  15.066  66.101  1.00  0.00    -0.327 A  
HETATM   11  C   UNL     1      -9.705  16.384  66.315  1.00  0.00    -0.332 A  
HETATM   12  C   UNL     1     -10.567  16.744  67.385  1.00  0.00    -0.291 A  
BRANCH  12  13
HETATM   13  C   UNL     1     -10.612  18.220  67.706  1.00  0.00    -0.415 C  
BRANCH  13  14
HETATM   14  C   UNL     1      -9.248  18.896  67.725  1.00  0.00    -0.328 A  
HETATM   15  C   UNL     1      -8.999  19.976  66.866  1.00  0.00    -0.449 A  
HETATM   16  C   UNL     1      -7.813  20.709  66.972  1.00  0.00    -0.307 A  
HETATM   17  C   UNL     1      -6.859  20.365  67.926  1.00  0.00    -0.336 A  
HETATM   18  C   UNL     1      -7.068  19.261  68.748  1.00  0.00    -0.375 A  
HETATM   19  C   UNL     1      -8.255  18.532  68.649  1.00  0.00    -0.335 A  
ENDBRANCH  13  14
ENDBRANCH  12  13
ENDBRANCH   6   7
ENDBRANCH   5   6
ENDBRANCH   4   5
ENDBRANCH   2   4
TORSDOF 6
ENDMDL
MODEL       25
REMARK 921   NORMALIZED FREE ENERGY PREDICTED BY IDOCK:   -5.13 KCAL/MOL
REMARK 922        TOTAL FREE ENERGY PREDICTED BY IDOCK:   -7.76 KCAL/MOL
REMARK 923 INTER-LIGAND FREE ENERGY PREDICTED BY IDOCK:   -7.02 KCAL/MOL
REMARK 924 INTRA-LIGAND FREE ENERGY PREDICTED BY IDOCK:   -0.74 KCAL/MOL
REMARK 927      BINDING AFFINITY PREDICTED BY RF-SCORE:    0.00 PKD
ROOT
HETATM    1  C   UNL     1     -10.207   7.107  69.783  1.00  0.00    -0.208 C  
HETATM    2  N   UNL     1     -10.516   8.518  69.590  1.00  0.00    -0.219 NA 
HETATM    3  C   UNL     1      -9.692   9.369  70.437  1.00  0.00    -0.261 C  
ENDROOT
BRANCH   2   4
HETATM    4  C   UNL     1     -10.617   8.936  68.179  1.00  0.00    -0.157 C  
BRANCH   4   5
HETATM    5  C   UNL     1     -10.318  10.391  67.719  1.00  0.00    -0.206 C  
BRANCH   5   6
HETATM    6  O   UNL     1     -11.571  11.105  67.702  1.00  0.00    -0.512 OA 
BRANCH   6   7
HETATM    7  C   UNL     1     -11.685  12.350  67.135  1.00  0.00    -0.345 A  
HETATM    8  C   UNL     1     -11.791  12.307  65.736  1.00  0.00    -0.417 A  
HETATM    9  C   UNL     1     -11.777  13.470  64.952  1.00  0.00    -0.381 A  
HETATM   10  C   UNL     1     -11.700  14.715  65.563  1.00  0.00    -0.316 A  
HETATM   11  C   UNL     1     -11.585  14.777  66.947  1.00  0.00    -0.337 A  
HETATM   12  C   UNL     1     -11.513  13.604  67.745  1.00  0.00    -0.351 A  
BRANCH  12  13
HETATM   13  C   UNL     1     -11.037  13.819  69.163  1.00  0.00    -0.282 C  
BRANCH  13  14
HETATM   14  C   UNL     1     -12.157  13.927  70.188  1.00  0.00    -0.418 A  
HETATM   15  C   UNL     1     -12.514  12.802  70.945  1.00  0.00    -0.373 A  
HETATM   16  C   UNL     1     -13.431  12.914  71.995  1.00  0.00    -0.568 A  
HETATM   17  C   UNL     1     -14.009  14.145  72.293  1.00  0.00    -0.646 A  
HETATM   18  C   UNL     1     -13.706  15.258  71.515  1.00  0.00    -0.610 A  
HETATM   19  C   UNL     1     -12.786  15.152  70.471  1.00  0.00    -0.416 A  
ENDBRANCH  13  14
ENDBRANCH  12  13
ENDBRANCH   6   7
ENDBRANCH   5   6
ENDBRANCH   4   5
ENDBRANCH   2   4
TORSDOF 6
ENDMDL
MODEL       26
REMARK 921   NORMALIZED FREE ENERGY PREDICTED BY IDOCK:   -5.09 KCAL/MOL
REMARK 922        TOTAL FREE ENERGY PREDICTED BY IDOCK:   -7.72 KCAL/MOL
REMARK 923 INTER-LIGAND FREE ENERGY PREDICTED BY IDOCK:   -7.60 KCAL/MOL
REMARK 924 INTRA-LIGAND FREE ENERGY PREDICTED BY IDOCK:   -0.11 KCAL/MOL
REMARK 927      BINDING AFFINITY PREDICTED BY RF-SCORE:    0.00 PKD
ROOT
HETATM    1  C   UNL     1     -11.747  12.359  66.309  1.00  0.00    -0.395 C  
HETATM    2  N   UNL     1     -11.143  13.681  66.206  1.00  0.00    -0.299 NA 
HETATM    3  C   UNL     1     -10.764  13.994  64.835  1.00  0.00    -0.418 C  
ENDROOT
BRANCH   2   4
HETATM    4  C   UNL     1     -11.873  14.745  66.920  1.00  0.00    -0.262 C  
BRANCH   4   5
HETATM    5  C   UNL     1     -11.306  15.432  68.195  1.00  0.00    -0.348 C  
BRANCH   5   6
HETATM    6  O   UNL     1     -11.017  14.393  69.153  1.00  0.00    -0.253 OA 
BRANCH   6   7
HETATM    7  C   UNL     1     -11.879  14.096  70.179  1.00  0.00    -0.313 A  
HETATM    8  C   UNL     1     -12.078  15.175  71.055  1.00  0.00    -0.389 A  
HETATM    9  C   UNL     1     -12.810  15.043  72.244  1.00  0.00    -0.414 A  
HETATM   10  C   UNL     1     -13.400  13.826  72.561  1.00  0.00    -0.656 A  
HETATM   11  C   UNL     1     -13.207  12.743  71.710  1.00  0.00    -0.471 A  
HETATM   12  C   UNL     1     -12.397  12.843  70.547  1.00  0.00    -0.362 A  
BRANCH  12  13
HETATM   13  C   UNL     1     -11.993  11.524  69.929  1.00  0.00    -0.426 C  
BRANCH  13  14
HETATM   14  C   UNL     1     -11.938  10.365  70.915  1.00  0.00    -0.478 A  
HETATM   15  C   UNL     1     -13.117   9.926  71.535  1.00  0.00    -0.516 A  
HETATM   16  C   UNL     1     -13.117   8.771  72.322  1.00  0.00    -0.458 A  
HETATM   17  C   UNL     1     -11.941   8.048  72.509  1.00  0.00    -0.384 A  
HETATM   18  C   UNL     1     -10.753   8.503  71.945  1.00  0.00    -0.394 A  
HETATM   19  C   UNL     1     -10.751   9.652  71.152  1.00  0.00    -0.365 A  
ENDBRANCH  13  14
ENDBRANCH  12  13
ENDBRANCH   6   7
ENDBRANCH   5   6
ENDBRANCH   4   5
ENDBRANCH   2   4
TORSDOF 6
ENDMDL
MODEL       27
REMARK 921   NORMALIZED FREE ENERGY PREDICTED BY IDOCK:   -5.05 KCAL/MOL
REMARK 922        TOTAL FREE ENERGY PREDICTED BY IDOCK:   -7.66 KCAL/MOL
REMARK 923 INTER-LIGAND FREE ENERGY PREDICTED BY IDOCK:   -7.00 KCAL/MOL
REMARK 924 INTRA-LIGAND FREE ENERGY PREDICTED BY IDOCK:   -0.67 KCAL/MOL
REMARK 927      BINDING AFFINITY PREDICTED BY RF-SCORE:    0.00 PKD
ROOT
HETATM    1  C   UNL     1      -8.045  19.100  66.286  1.00  0.00    -0.297 C  
HETATM    2  N   UNL     1      -9.173  19.245  67.195  1.00  0.00    -0.295 NA 
HETATM    3  C   UNL     1      -9.585  20.635  67.326  1.00  0.00    -0.417 C  
ENDROOT
BRANCH   2   4
HETATM    4  C   UNL     1     -10.266  18.278  66.974  1.00  0.00    -0.378 C  
BRANCH   4   5
HETATM    5  C   UNL     1     -10.053  16.943  66.205  1.00  0.00    -0.324 C  
BRANCH   5   6
HETATM    6  O   UNL     1     -10.396  15.867  67.104  1.00  0.00    -0.287 OA 
BRANCH   6   7
HETATM    7  C   UNL     1     -10.937  14.691  66.649  1.00  0.00    -0.323 A  
HETATM    8  C   UNL     1     -11.618  14.838  65.430  1.00  0.00    -0.316 A  
HETATM    9  C   UNL     1     -12.361  13.793  64.860  1.00  0.00    -0.435 A  
HETATM   10  C   UNL     1     -12.401  12.554  65.486  1.00  0.00    -0.364 A  
HETATM   11  C   UNL     1     -11.740  12.391  66.699  1.00  0.00    -0.438 A  
HETATM   12  C   UNL     1     -11.055  13.466  67.326  1.00  0.00    -0.300 A  
BRANCH  12  13
HETATM   13  C   UNL     1     -10.701  13.242  68.778  1.00  0.00    -0.253 C  
BRANCH  13  14
HETATM   14  C   UNL     1     -11.774  13.695  69.759  1.00  0.00    -0.364 A  
HETATM   15  C   UNL     1     -12.375  12.756  70.609  1.00  0.00    -0.381 A  
HETATM   16  C   UNL     1     -13.248  13.170  71.620  1.00  0.00    -0.435 A  
HETATM   17  C   UNL     1     -13.539  14.522  71.786  1.00  0.00    -0.474 A  
HETATM   18  C   UNL     1     -12.992  15.459  70.914  1.00  0.00    -0.539 A  
HETATM   19  C   UNL     1     -12.115  15.050  69.909  1.00  0.00    -0.376 A  
ENDBRANCH  13  14
ENDBRANCH  12  13
ENDBRANCH   6   7
ENDBRANCH   5   6
ENDBRANCH   4   5
ENDBRANCH   2   4
TORSDOF 6
ENDMDL
MODEL       28
REMARK 921   NORMALIZED FREE ENERGY PREDICTED BY IDOCK:   -5.05 KCAL/MOL
REMARK 922        TOTAL FREE ENERGY PREDICTED BY IDOCK:   -7.66 KCAL/MOL
REMARK 923 INTER-LIGAND FREE ENERGY PREDICTED BY IDOCK:   -7.09 KCAL/MOL
REMARK 924 INTRA-LIGAND FREE ENERGY PREDICTED BY IDOCK:   -0.57 KCAL/MOL
REMARK 927      BINDING AFFINITY PREDICTED BY RF-SCORE:    0.00 PKD
ROOT
HETATM    1  C   UNL     1     -12.088  14.419  64.375  1.00  0.00    -0.470 C  
HETATM    2  N   UNL     1     -12.110  13.009  64.741  1.00  0.00    -0.390 NA 
HETATM    3  C   UNL     1     -12.244  12.152  63.571  1.00  0.00    -0.567 C  
ENDROOT
BRANCH   2   4
HETATM    4  C   UNL     1     -11.066  12.609  65.703  1.00  0.00    -0.292 C  
BRANCH   4   5
HETATM    5  C   UNL     1     -11.387  12.272  67.187  1.00  0.00    -0.335 C  
BRANCH   5   6
HETATM    6  O   UNL     1     -12.228  13.328  67.698  1.00  0.00    -0.292 OA 
BRANCH   6   7
HETATM    7  C   UNL     1     -11.841  14.112  68.756  1.00  0.00    -0.349 A  
HETATM    8  C   UNL     1     -12.382  13.685  69.979  1.00  0.00    -0.342 A  
HETATM    9  C   UNL     1     -12.227  14.425  71.161  1.00  0.00    -0.420 A  
HETATM   10  C   UNL     1     -11.480  15.596  71.149  1.00  0.00    -0.463 A  
HETATM   11  C   UNL     1     -10.944  16.040  69.946  1.00  0.00    -0.353 A  
HETATM   12  C   UNL     1     -11.166  15.344  68.727  1.00  0.00    -0.305 A  
BRANCH  12  13
HETATM   13  C   UNL     1     -10.834  16.120  67.474  1.00  0.00    -0.284 C  
BRANCH  13  14
HETATM   14  C   UNL     1     -10.003  17.373  67.717  1.00  0.00    -0.301 A  
HETATM   15  C   UNL     1     -10.621  18.631  67.681  1.00  0.00    -0.458 A  
HETATM   16  C   UNL     1      -9.915  19.779  68.051  1.00  0.00    -0.553 A  
HETATM   17  C   UNL     1      -8.583  19.686  68.448  1.00  0.00    -0.357 A  
HETATM   18  C   UNL     1      -7.942  18.452  68.435  1.00  0.00    -0.325 A  
HETATM   19  C   UNL     1      -8.646  17.302  68.074  1.00  0.00    -0.234 A  
ENDBRANCH  13  14
ENDBRANCH  12  13
ENDBRANCH   6   7
ENDBRANCH   5   6
ENDBRANCH   4   5
ENDBRANCH   2   4
TORSDOF 6
ENDMDL
MODEL       29
REMARK 921   NORMALIZED FREE ENERGY PREDICTED BY IDOCK:   -5.01 KCAL/MOL
REMARK 922        TOTAL FREE ENERGY PREDICTED BY IDOCK:   -7.61 KCAL/MOL
REMARK 923 INTER-LIGAND FREE ENERGY PREDICTED BY IDOCK:   -6.90 KCAL/MOL
REMARK 924 INTRA-LIGAND FREE ENERGY PREDICTED BY IDOCK:   -0.71 KCAL/MOL
REMARK 927      BINDING AFFINITY PREDICTED BY RF-SCORE:    0.00 PKD
ROOT
HETATM    1  C   UNL     1      -9.701  20.030  66.205  1.00  0.00    -0.433 C  
HETATM    2  N   UNL     1      -8.862  19.163  67.022  1.00  0.00    -0.287 NA 
HETATM    3  C   UNL     1      -7.750  19.893  67.615  1.00  0.00    -0.291 C  
ENDROOT
BRANCH   2   4
HETATM    4  C   UNL     1      -9.606  18.283  67.943  1.00  0.00    -0.289 C  
BRANCH   4   5
HETATM    5  C   UNL     1      -9.025  16.934  68.456  1.00  0.00    -0.254 C  
BRANCH   5   6
HETATM    6  O   UNL     1      -9.462  15.902  67.547  1.00  0.00    -0.217 OA 
BRANCH   6   7
HETATM    7  C   UNL     1      -9.918  14.689  67.998  1.00  0.00    -0.220 A  
HETATM    8  C   UNL     1      -9.202  13.604  67.468  1.00  0.00    -0.218 A  
HETATM    9  C   UNL     1      -9.591  12.275  67.688  1.00  0.00    -0.191 A  
HETATM   10  C   UNL     1     -10.693  12.002  68.490  1.00  0.00    -0.261 A  
HETATM   11  C   UNL     1     -11.421  13.063  69.016  1.00  0.00    -0.353 A  
HETATM   12  C   UNL     1     -11.085  14.413  68.730  1.00  0.00    -0.275 A  
BRANCH  12  13
HETATM   13  C   UNL     1     -12.155  15.426  69.068  1.00  0.00    -0.254 C  
BRANCH  13  14
HETATM   14  C   UNL     1     -12.538  15.462  70.541  1.00  0.00    -0.471 A  
HETATM   15  C   UNL     1     -11.611  15.924  71.487  1.00  0.00    -0.537 A  
HETATM   16  C   UNL     1     -11.990  16.110  72.819  1.00  0.00    -0.638 A  
HETATM   17  C   UNL     1     -13.292  15.827  73.225  1.00  0.00    -0.649 A  
HETATM   18  C   UNL     1     -14.206  15.316  72.309  1.00  0.00    -0.642 A  
HETATM   19  C   UNL     1     -13.833  15.136  70.976  1.00  0.00    -0.423 A  
ENDBRANCH  13  14
ENDBRANCH  12  13
ENDBRANCH   6   7
ENDBRANCH   5   6
ENDBRANCH   4   5
ENDBRANCH   2   4
TORSDOF 6
ENDMDL
MODEL       30
REMARK 921   NORMALIZED FREE ENERGY PREDICTED BY IDOCK:   -5.01 KCAL/MOL
REMARK 922        TOTAL FREE ENERGY PREDICTED BY IDOCK:   -7.60 KCAL/MOL
REMARK 923 INTER-LIGAND FREE ENERGY PREDICTED BY IDOCK:   -6.75 KCAL/MOL
REMARK 924 INTRA-LIGAND FREE ENERGY PREDICTED BY IDOCK:   -0.85 KCAL/MOL
REMARK 927      BINDING AFFINITY PREDICTED BY RF-SCORE:    0.00 PKD
ROOT
HETATM    1  C   UNL     1     -13.449   9.629  71.864  1.00  0.00    -0.413 C  
HETATM    2  N   UNL     1     -12.962  10.727  71.040  1.00  0.00    -0.360 NA 
HETATM    3  C   UNL     1     -12.961  11.988  71.768  1.00  0.00    -0.340 C  
ENDROOT
BRANCH   2   4
HETATM    4  C   UNL     1     -11.728  10.429  70.288  1.00  0.00    -0.321 C  
BRANCH   4   5
HETATM    5  C   UNL     1     -11.110  11.429  69.271  1.00  0.00    -0.254 C  
BRANCH   5   6
HETATM    6  O   UNL     1     -11.973  11.457  68.114  1.00  0.00    -0.594 OA 
BRANCH   6   7
HETATM    7  C   UNL     1     -11.479  11.316  66.842  1.00  0.00    -0.042 A  
HETATM    8  C   UNL     1     -10.533  10.283  66.734  1.00  0.00    -0.279 A  
HETATM    9  C   UNL     1      -9.804  10.060  65.556  1.00  0.00    -0.373 A  
HETATM   10  C   UNL     1     -10.043  10.848  64.437  1.00  0.00    -0.402 A  
HETATM   11  C   UNL     1     -10.969  11.881  64.527  1.00  0.00    -0.376 A  
HETATM   12  C   UNL     1     -11.651  12.170  65.739  1.00  0.00    -0.414 A  
BRANCH  12  13
HETATM   13  C   UNL     1     -12.340  13.514  65.785  1.00  0.00    -0.516 C  
BRANCH  13  14
HETATM   14  C   UNL     1     -11.505  14.622  66.412  1.00  0.00    -0.348 A  
HETATM   15  C   UNL     1     -10.625  15.364  65.611  1.00  0.00    -0.379 A  
HETATM   16  C   UNL     1      -9.964  16.482  66.129  1.00  0.00    -0.363 A  
HETATM   17  C   UNL     1     -10.165  16.864  67.453  1.00  0.00    -0.298 A  
HETATM   18  C   UNL     1     -10.993  16.106  68.274  1.00  0.00    -0.340 A  
HETATM   19  C   UNL     1     -11.660  14.993  67.759  1.00  0.00    -0.336 A  
ENDBRANCH  13  14
ENDBRANCH  12  13
ENDBRANCH   6   7
ENDBRANCH   5   6
ENDBRANCH   4   5
ENDBRANCH   2   4
TORSDOF 6
ENDMDL
MODEL       31
REMARK 921   NORMALIZED FREE ENERGY PREDICTED BY IDOCK:   -5.00 KCAL/MOL
REMARK 922        TOTAL FREE ENERGY PREDICTED BY IDOCK:   -7.59 KCAL/MOL
REMARK 923 INTER-LIGAND FREE ENERGY PREDICTED BY IDOCK:   -6.84 KCAL/MOL
REMARK 924 INTRA-LIGAND FREE ENERGY PREDICTED BY IDOCK:   -0.74 KCAL/MOL
REMARK 927      BINDING AFFINITY PREDICTED BY RF-SCORE:    0.00 PKD
ROOT
HETATM    1  C   UNL     1     -14.214   8.665  72.166  1.00  0.00    -0.439 C  
HETATM    2  N   UNL     1     -12.885   9.250  72.042  1.00  0.00    -0.391 NA 
HETATM    3  C   UNL     1     -11.961   8.349  71.368  1.00  0.00    -0.297 C  
ENDROOT
BRANCH   2   4
HETATM    4  C   UNL     1     -12.872  10.646  71.564  1.00  0.00    -0.462 C  
BRANCH   4   5
HETATM    5  C   UNL     1     -11.799  11.175  70.572  1.00  0.00    -0.351 C  
BRANCH   5   6
HETATM    6  O   UNL     1     -12.363  12.318  69.895  1.00  0.00    -0.176 OA 
BRANCH   6   7
HETATM    7  C   UNL     1     -11.891  13.589  70.108  1.00  0.00    -0.278 A  
HETATM    8  C   UNL     1     -12.662  14.312  71.031  1.00  0.00    -0.430 A  
HETATM    9  C   UNL     1     -12.437  15.673  71.288  1.00  0.00    -0.503 A  
HETATM   10  C   UNL     1     -11.394  16.332  70.649  1.00  0.00    -0.321 A  
HETATM   11  C   UNL     1     -10.624  15.635  69.724  1.00  0.00    -0.308 A  
HETATM   12  C   UNL     1     -10.897  14.281  69.394  1.00  0.00    -0.197 A  
BRANCH  12  13
HETATM   13  C   UNL     1     -10.223  13.776  68.139  1.00  0.00    -0.253 C  
BRANCH  13  14
HETATM   14  C   UNL     1     -10.979  14.089  66.855  1.00  0.00    -0.301 A  
HETATM   15  C   UNL     1     -10.474  15.052  65.971  1.00  0.00    -0.326 A  
HETATM   16  C   UNL     1     -11.065  15.247  64.719  1.00  0.00    -0.407 A  
HETATM   17  C   UNL     1     -12.172  14.491  64.342  1.00  0.00    -0.480 A  
HETATM   18  C   UNL     1     -12.718  13.571  65.231  1.00  0.00    -0.481 A  
HETATM   19  C   UNL     1     -12.126  13.369  66.478  1.00  0.00    -0.444 A  
ENDBRANCH  13  14
ENDBRANCH  12  13
ENDBRANCH   6   7
ENDBRANCH   5   6
ENDBRANCH   4   5
ENDBRANCH   2   4
TORSDOF 6
ENDMDL
MODEL       32
REMARK 921   NORMALIZED FREE ENERGY PREDICTED BY IDOCK:   -5.00 KCAL/MOL
REMARK 922        TOTAL FREE ENERGY PREDICTED BY IDOCK:   -7.59 KCAL/MOL
REMARK 923 INTER-LIGAND FREE ENERGY PREDICTED BY IDOCK:   -7.16 KCAL/MOL
REMARK 924 INTRA-LIGAND FREE ENERGY PREDICTED BY IDOCK:   -0.43 KCAL/MOL
REMARK 927      BINDING AFFINITY PREDICTED BY RF-SCORE:    0.00 PKD
ROOT
HETATM    1  C   UNL     1     -12.471  15.424  74.121  1.00  0.00    -0.642 C  
HETATM    2  N   UNL     1     -12.786  14.910  72.795  1.00  0.00    -0.387 NA 
HETATM    3  C   UNL     1     -14.071  15.402  72.319  1.00  0.00    -0.564 C  
ENDROOT
BRANCH   2   4
HETATM    4  C   UNL     1     -11.677  14.994  71.825  1.00  0.00    -0.385 C  
BRANCH   4   5
HETATM    5  C   UNL     1     -11.917  15.104  70.293  1.00  0.00    -0.319 C  
BRANCH   5   6
HETATM    6  O   UNL     1     -12.654  13.933  69.886  1.00  0.00    -0.281 OA 
BRANCH   6   7
HETATM    7  C   UNL     1     -12.040  12.718  69.708  1.00  0.00    -0.237 A  
HETATM    8  C   UNL     1     -12.355  11.794  70.717  1.00  0.00    -0.433 A  
HETATM    9  C   UNL     1     -11.727  10.542  70.802  1.00  0.00    -0.454 A  
HETATM   10  C   UNL     1     -10.792  10.171  69.844  1.00  0.00    -0.347 A  
HETATM   11  C   UNL     1     -10.460  11.077  68.843  1.00  0.00    -0.229 A  
HETATM   12  C   UNL     1     -11.027  12.379  68.795  1.00  0.00    -0.287 A  
BRANCH  12  13
HETATM   13  C   UNL     1     -10.319  13.355  67.885  1.00  0.00    -0.238 C  
BRANCH  13  14
HETATM   14  C   UNL     1     -10.852  13.379  66.459  1.00  0.00    -0.286 A  
HETATM   15  C   UNL     1     -10.234  12.594  65.476  1.00  0.00    -0.298 A  
HETATM   16  C   UNL     1     -10.796  12.480  64.200  1.00  0.00    -0.420 A  
HETATM   17  C   UNL     1     -11.972  13.158  63.890  1.00  0.00    -0.550 A  
HETATM   18  C   UNL     1     -12.566  13.985  64.838  1.00  0.00    -0.369 A  
HETATM   19  C   UNL     1     -12.012  14.094  66.114  1.00  0.00    -0.437 A  
ENDBRANCH  13  14
ENDBRANCH  12  13
ENDBRANCH   6   7
ENDBRANCH   5   6
ENDBRANCH   4   5
ENDBRANCH   2   4
TORSDOF 6
ENDMDL
MODEL       33
REMARK 921   NORMALIZED FREE ENERGY PREDICTED BY IDOCK:   -4.99 KCAL/MOL
REMARK 922        TOTAL FREE ENERGY PREDICTED BY IDOCK:   -7.58 KCAL/MOL
REMARK 923 INTER-LIGAND FREE ENERGY PREDICTED BY IDOCK:   -6.79 KCAL/MOL
REMARK 924 INTRA-LIGAND FREE ENERGY PREDICTED BY IDOCK:   -0.79 KCAL/MOL
REMARK 927      BINDING AFFINITY PREDICTED BY RF-SCORE:    0.00 PKD
ROOT
HETATM    1  C   UNL     1      -9.615  10.404  63.376  1.00  0.00    -0.312 C  
HETATM    2  N   UNL     1     -10.638  11.172  64.072  1.00  0.00    -0.367 NA 
HETATM    3  C   UNL     1     -10.421  11.179  65.511  1.00  0.00    -0.256 C  
ENDROOT
BRANCH   2   4
HETATM    4  C   UNL     1     -10.934  12.486  63.469  1.00  0.00    -0.420 C  
BRANCH   4   5
HETATM    5  C   UNL     1     -12.057  13.416  64.009  1.00  0.00    -0.449 C  
BRANCH   5   6
HETATM    6  O   UNL     1     -11.417  14.555  64.622  1.00  0.00    -0.385 OA 
BRANCH   6   7
HETATM    7  C   UNL     1     -11.143  14.592  65.967  1.00  0.00    -0.329 A  
HETATM    8  C   UNL     1     -12.176  14.054  66.751  1.00  0.00    -0.439 A  
HETATM    9  C   UNL     1     -12.159  14.121  68.152  1.00  0.00    -0.297 A  
HETATM   10  C   UNL     1     -11.075  14.695  68.804  1.00  0.00    -0.274 A  
HETATM   11  C   UNL     1     -10.047  15.241  68.044  1.00  0.00    -0.229 A  
HETATM   12  C   UNL     1     -10.093  15.255  66.624  1.00  0.00    -0.268 A  
BRANCH  12  13
HETATM   13  C   UNL     1      -9.103  16.181  65.958  1.00  0.00    -0.354 C  
BRANCH  13  14
HETATM   14  C   UNL     1      -9.223  17.637  66.388  1.00  0.00    -0.263 A  
HETATM   15  C   UNL     1     -10.482  18.252  66.407  1.00  0.00    -0.387 A  
HETATM   16  C   UNL     1     -10.639  19.534  66.941  1.00  0.00    -0.602 A  
HETATM   17  C   UNL     1      -9.539  20.220  67.451  1.00  0.00    -0.569 A  
HETATM   18  C   UNL     1      -8.274  19.645  67.388  1.00  0.00    -0.333 A  
HETATM   19  C   UNL     1      -8.116  18.362  66.862  1.00  0.00    -0.257 A  
ENDBRANCH  13  14
ENDBRANCH  12  13
ENDBRANCH   6   7
ENDBRANCH   5   6
ENDBRANCH   4   5
ENDBRANCH   2   4
TORSDOF 6
ENDMDL
MODEL       34
REMARK 921   NORMALIZED FREE ENERGY PREDICTED BY IDOCK:   -4.98 KCAL/MOL
REMARK 922        TOTAL FREE ENERGY PREDICTED BY IDOCK:   -7.56 KCAL/MOL
REMARK 923 INTER-LIGAND FREE ENERGY PREDICTED BY IDOCK:   -6.69 KCAL/MOL
REMARK 924 INTRA-LIGAND FREE ENERGY PREDICTED BY IDOCK:   -0.87 KCAL/MOL
REMARK 927      BINDING AFFINITY PREDICTED BY RF-SCORE:    0.00 PKD
ROOT
HETATM    1  C   UNL     1     -12.577  13.710  65.594  1.00  0.00    -0.484 C  
HETATM    2  N   UNL     1     -11.924  12.522  66.127  1.00  0.00    -0.569 NA 
HETATM    3  C   UNL     1     -11.229  11.777  65.087  1.00  0.00    -0.250 C  
ENDROOT
BRANCH   2   4
HETATM    4  C   UNL     1     -11.155  12.750  67.366  1.00  0.00    -0.275 C  
BRANCH   4   5
HETATM    5  C   UNL     1     -11.772  12.546  68.778  1.00  0.00    -0.327 C  
BRANCH   5   6
HETATM    6  O   UNL     1     -12.414  13.783  69.151  1.00  0.00    -0.216 OA 
BRANCH   6   7
HETATM    7  C   UNL     1     -12.288  14.311  70.412  1.00  0.00    -0.352 A  
HETATM    8  C   UNL     1     -13.061  13.633  71.368  1.00  0.00    -0.396 A  
HETATM    9  C   UNL     1     -13.185  14.093  72.688  1.00  0.00    -0.612 A  
HETATM   10  C   UNL     1     -12.495  15.229  73.091  1.00  0.00    -0.571 A  
HETATM   11  C   UNL     1     -11.732  15.919  72.156  1.00  0.00    -0.586 A  
HETATM   12  C   UNL     1     -11.666  15.511  70.797  1.00  0.00    -0.397 A  
BRANCH  12  13
HETATM   13  C   UNL     1     -11.104  16.539  69.843  1.00  0.00    -0.241 C  
BRANCH  13  14
HETATM   14  C   UNL     1     -10.079  15.985  68.861  1.00  0.00    -0.229 A  
HETATM   15  C   UNL     1     -10.180  16.306  67.500  1.00  0.00    -0.270 A  
HETATM   16  C   UNL     1      -9.170  15.938  66.607  1.00  0.00    -0.280 A  
HETATM   17  C   UNL     1      -8.055  15.235  67.060  1.00  0.00    -0.253 A  
HETATM   18  C   UNL     1      -7.969  14.861  68.397  1.00  0.00    -0.134 A  
HETATM   19  C   UNL     1      -8.973  15.234  69.293  1.00  0.00    -0.241 A  
ENDBRANCH  13  14
ENDBRANCH  12  13
ENDBRANCH   6   7
ENDBRANCH   5   6
ENDBRANCH   4   5
ENDBRANCH   2   4
TORSDOF 6
ENDMDL
MODEL       35
REMARK 921   NORMALIZED FREE ENERGY PREDICTED BY IDOCK:   -4.96 KCAL/MOL
REMARK 922        TOTAL FREE ENERGY PREDICTED BY IDOCK:   -7.54 KCAL/MOL
REMARK 923 INTER-LIGAND FREE ENERGY PREDICTED BY IDOCK:   -6.70 KCAL/MOL
REMARK 924 INTRA-LIGAND FREE ENERGY PREDICTED BY IDOCK:   -0.83 KCAL/MOL
REMARK 927      BINDING AFFINITY PREDICTED BY RF-SCORE:    0.00 PKD
ROOT
HETATM    1  C   UNL     1     -10.565  19.195  66.148  1.00  0.00    -0.439 C  
HETATM    2  N   UNL     1      -9.785  18.259  66.945  1.00  0.00    -0.301 NA 
HETATM    3  C   UNL     1     -10.124  18.343  68.359  1.00  0.00    -0.390 C  
ENDROOT
BRANCH   2   4
HETATM    4  C   UNL     1      -9.712  16.894  66.391  1.00  0.00    -0.284 C  
BRANCH   4   5
HETATM    5  C   UNL     1     -10.672  16.398  65.272  1.00  0.00    -0.295 C  
BRANCH   5   6
HETATM    6  O   UNL     1     -11.307  15.194  65.750  1.00  0.00    -0.324 OA 
BRANCH   6   7
HETATM    7  C   UNL     1     -11.090  13.977  65.154  1.00  0.00    -0.341 A  
HETATM    8  C   UNL     1     -12.003  13.704  64.123  1.00  0.00    -0.488 A  
HETATM    9  C   UNL     1     -12.047  12.459  63.477  1.00  0.00    -0.651 A  
HETATM   10  C   UNL     1     -11.138  11.468  63.825  1.00  0.00    -0.471 A  
HETATM   11  C   UNL     1     -10.232  11.717  64.850  1.00  0.00    -0.315 A  
HETATM   12  C   UNL     1     -10.234  12.942  65.568  1.00  0.00    -0.299 A  
BRANCH  12  13
HETATM   13  C   UNL     1      -9.453  12.932  66.861  1.00  0.00    -0.237 C  
BRANCH  13  14
HETATM   14  C   UNL     1     -10.243  12.434  68.064  1.00  0.00    -0.219 A  
HETATM   15  C   UNL     1     -11.077  13.320  68.760  1.00  0.00    -0.303 A  
HETATM   16  C   UNL     1     -11.926  12.853  69.768  1.00  0.00    -0.365 A  
HETATM   17  C   UNL     1     -11.943  11.501  70.100  1.00  0.00    -0.452 A  
HETATM   18  C   UNL     1     -11.081  10.619  69.456  1.00  0.00    -0.328 A  
HETATM   19  C   UNL     1     -10.237  11.081  68.444  1.00  0.00    -0.198 A  
ENDBRANCH  13  14
ENDBRANCH  12  13
ENDBRANCH   6   7
ENDBRANCH   5   6
ENDBRANCH   4   5
ENDBRANCH   2   4
TORSDOF 6
ENDMDL
MODEL       36
REMARK 921   NORMALIZED FREE ENERGY PREDICTED BY IDOCK:   -4.94 KCAL/MOL
REMARK 922        TOTAL FREE ENERGY PREDICTED BY IDOCK:   -7.51 KCAL/MOL
REMARK 923 INTER-LIGAND FREE ENERGY PREDICTED BY IDOCK:   -6.55 KCAL/MOL
REMARK 924 INTRA-LIGAND FREE ENERGY PREDICTED BY IDOCK:   -0.96 KCAL/MOL
REMARK 927      BINDING AFFINITY PREDICTED BY RF-SCORE:    0.00 PKD
ROOT
HETATM    1  C   UNL     1      -5.418  17.749  66.620  1.00  0.00    -0.165 C  
HETATM    2  N   UNL     1      -5.517  18.560  67.826  1.00  0.00    -0.163 NA 
HETATM    3  C   UNL     1      -6.089  19.870  67.548  1.00  0.00    -0.189 C  
ENDROOT
BRANCH   2   4
HETATM    4  C   UNL     1      -6.083  17.856  68.993  1.00  0.00    -0.216 C  
BRANCH   4   5
HETATM    5  C   UNL     1      -6.933  16.561  68.852  1.00  0.00    -0.191 C  
BRANCH   5   6
HETATM    6  O   UNL     1      -8.316  16.931  69.029  1.00  0.00    -0.233 OA 
BRANCH   6   7
HETATM    7  C   UNL     1      -8.953  17.781  68.160  1.00  0.00    -0.271 A  
HETATM    8  C   UNL     1      -9.480  18.917  68.793  1.00  0.00    -0.407 A  
HETATM    9  C   UNL     1     -10.288  19.842  68.114  1.00  0.00    -0.561 A  
HETATM   10  C   UNL     1     -10.550  19.667  66.761  1.00  0.00    -0.602 A  
HETATM   11  C   UNL     1     -10.044  18.543  66.118  1.00  0.00    -0.391 A  
HETATM   12  C   UNL     1      -9.297  17.556  66.815  1.00  0.00    -0.275 A  
BRANCH  12  13
HETATM   13  C   UNL     1      -9.126  16.244  66.086  1.00  0.00    -0.377 C  
BRANCH  13  14
HETATM   14  C   UNL     1     -10.414  15.450  65.920  1.00  0.00    -0.354 A  
HETATM   15  C   UNL     1     -10.941  15.246  64.637  1.00  0.00    -0.322 A  
HETATM   16  C   UNL     1     -12.034  14.395  64.444  1.00  0.00    -0.471 A  
HETATM   17  C   UNL     1     -12.619  13.749  65.531  1.00  0.00    -0.551 A  
HETATM   18  C   UNL     1     -12.142  13.986  66.816  1.00  0.00    -0.480 A  
HETATM   19  C   UNL     1     -11.046  14.829  67.010  1.00  0.00    -0.333 A  
ENDBRANCH  13  14
ENDBRANCH  12  13
ENDBRANCH   6   7
ENDBRANCH   5   6
ENDBRANCH   4   5
ENDBRANCH   2   4
TORSDOF 6
ENDMDL
MODEL       37
REMARK 921   NORMALIZED FREE ENERGY PREDICTED BY IDOCK:   -4.94 KCAL/MOL
REMARK 922        TOTAL FREE ENERGY PREDICTED BY IDOCK:   -7.51 KCAL/MOL
REMARK 923 INTER-LIGAND FREE ENERGY PREDICTED BY IDOCK:   -7.11 KCAL/MOL
REMARK 924 INTRA-LIGAND FREE ENERGY PREDICTED BY IDOCK:   -0.40 KCAL/MOL
REMARK 927      BINDING AFFINITY PREDICTED BY RF-SCORE:    0.00 PKD
ROOT
HETATM    1  C   UNL     1     -14.353  15.086  71.893  1.00  0.00    -0.584 C  
HETATM    2  N   UNL     1     -13.098  15.813  71.753  1.00  0.00    -0.460 NA 
HETATM    3  C   UNL     1     -12.356  15.853  73.005  1.00  0.00    -0.498 C  
ENDROOT
BRANCH   2   4
HETATM    4  C   UNL     1     -12.310  15.449  70.560  1.00  0.00    -0.408 C  
BRANCH   4   5
HETATM    5  C   UNL     1     -12.104  13.973  70.116  1.00  0.00    -0.351 C  
BRANCH   5   6
HETATM    6  O   UNL     1     -11.009  13.953  69.177  1.00  0.00    -0.245 OA 
BRANCH   6   7
HETATM    7  C   UNL     1     -11.115  13.332  67.958  1.00  0.00    -0.256 A  
HETATM    8  C   UNL     1     -12.010  13.978  67.091  1.00  0.00    -0.465 A  
HETATM    9  C   UNL     1     -12.370  13.432  65.849  1.00  0.00    -0.493 A  
HETATM   10  C   UNL     1     -11.800  12.237  65.429  1.00  0.00    -0.418 A  
HETATM   11  C   UNL     1     -10.918  11.577  66.278  1.00  0.00    -0.328 A  
HETATM   12  C   UNL     1     -10.612  12.078  67.572  1.00  0.00    -0.250 A  
BRANCH  12  13
HETATM   13  C   UNL     1      -9.937  11.093  68.498  1.00  0.00    -0.204 C  
BRANCH  13  14
HETATM   14  C   UNL     1     -10.861  10.491  69.549  1.00  0.00    -0.298 A  
HETATM   15  C   UNL     1     -10.318   9.730  70.594  1.00  0.00    -0.330 A  
HETATM   16  C   UNL     1     -11.125   9.297  71.650  1.00  0.00    -0.438 A  
HETATM   17  C   UNL     1     -12.482   9.608  71.669  1.00  0.00    -0.494 A  
HETATM   18  C   UNL     1     -13.045  10.314  70.611  1.00  0.00    -0.292 A  
HETATM   19  C   UNL     1     -12.241  10.754  69.558  1.00  0.00    -0.292 A  
ENDBRANCH  13  14
ENDBRANCH  12  13
ENDBRANCH   6   7
ENDBRANCH   5   6
ENDBRANCH   4   5
ENDBRANCH   2   4
TORSDOF 6
ENDMDL
MODEL       38
REMARK 921   NORMALIZED FREE ENERGY PREDICTED BY IDOCK:   -4.94 KCAL/MOL
REMARK 922        TOTAL FREE ENERGY PREDICTED BY IDOCK:   -7.50 KCAL/MOL
REMARK 923 INTER-LIGAND FREE ENERGY PREDICTED BY IDOCK:   -6.79 KCAL/MOL
REMARK 924 INTRA-LIGAND FREE ENERGY PREDICTED BY IDOCK:   -0.72 KCAL/MOL
REMARK 927      BINDING AFFINITY PREDICTED BY RF-SCORE:    0.00 PKD
ROOT
HETATM    1  C   UNL     1     -10.947   8.626  72.156  1.00  0.00    -0.364 C  
HETATM    2  N   UNL     1     -11.840   8.880  71.034  1.00  0.00    -0.285 NA 
HETATM    3  C   UNL     1     -13.230   8.964  71.460  1.00  0.00    -0.327 C  
ENDROOT
BRANCH   2   4
HETATM    4  C   UNL     1     -11.391   9.951  70.124  1.00  0.00    -0.275 C  
BRANCH   4   5
HETATM    5  C   UNL     1     -12.158  11.295  69.977  1.00  0.00    -0.348 C  
BRANCH   5   6
HETATM    6  O   UNL     1     -12.181  11.629  68.573  1.00  0.00    -0.485 OA 
BRANCH   6   7
HETATM    7  C   UNL     1     -11.721  12.836  68.110  1.00  0.00    -0.345 A  
HETATM    8  C   UNL     1     -11.574  13.792  69.128  1.00  0.00    -0.363 A  
HETATM    9  C   UNL     1     -11.250  15.129  68.853  1.00  0.00    -0.292 A  
HETATM   10  C   UNL     1     -11.021  15.529  67.543  1.00  0.00    -0.316 A  
HETATM   11  C   UNL     1     -11.170  14.599  66.520  1.00  0.00    -0.346 A  
HETATM   12  C   UNL     1     -11.580  13.263  66.779  1.00  0.00    -0.408 A  
BRANCH  12  13
HETATM   13  C   UNL     1     -12.039  12.485  65.568  1.00  0.00    -0.481 C  
BRANCH  13  14
HETATM   14  C   UNL     1     -10.929  11.721  64.859  1.00  0.00    -0.358 A  
HETATM   15  C   UNL     1     -10.390  10.572  65.455  1.00  0.00    -0.292 A  
HETATM   16  C   UNL     1      -9.482   9.770  64.758  1.00  0.00    -0.318 A  
HETATM   17  C   UNL     1      -9.092  10.112  63.465  1.00  0.00    -0.302 A  
HETATM   18  C   UNL     1      -9.576  11.280  62.883  1.00  0.00    -0.377 A  
HETATM   19  C   UNL     1     -10.488  12.079  63.574  1.00  0.00    -0.505 A  
ENDBRANCH  13  14
ENDBRANCH  12  13
ENDBRANCH   6   7
ENDBRANCH   5   6
ENDBRANCH   4   5
ENDBRANCH   2   4
TORSDOF 6
ENDMDL
MODEL       39
REMARK 921   NORMALIZED FREE ENERGY PREDICTED BY IDOCK:   -4.91 KCAL/MOL
REMARK 922        TOTAL FREE ENERGY PREDICTED BY IDOCK:   -7.47 KCAL/MOL
REMARK 923 INTER-LIGAND FREE ENERGY PREDICTED BY IDOCK:   -6.69 KCAL/MOL
REMARK 924 INTRA-LIGAND FREE ENERGY PREDICTED BY IDOCK:   -0.78 KCAL/MOL
REMARK 927      BINDING AFFINITY PREDICTED BY RF-SCORE:    0.00 PKD
ROOT
HETATM    1  C   UNL     1     -11.042   9.477  71.181  1.00  0.00    -0.379 C  
HETATM    2  N   UNL     1     -11.443  10.239  70.006  1.00  0.00    -0.278 NA 
HETATM    3  C   UNL     1     -12.091  11.490  70.372  1.00  0.00    -0.382 C  
ENDROOT
BRANCH   2   4
HETATM    4  C   UNL     1     -10.406  10.344  68.962  1.00  0.00    -0.214 C  
BRANCH   4   5
HETATM    5  C   UNL     1     -10.659   9.905  67.491  1.00  0.00    -0.275 C  
BRANCH   5   6
HETATM    6  O   UNL     1     -10.118  10.932  66.635  1.00  0.00    -0.204 OA 
BRANCH   6   7
HETATM    7  C   UNL     1     -10.910  11.635  65.761  1.00  0.00    -0.281 A  
HETATM    8  C   UNL     1     -10.758  11.219  64.429  1.00  0.00    -0.407 A  
HETATM    9  C   UNL     1     -11.368  11.895  63.363  1.00  0.00    -0.465 A  
HETATM   10  C   UNL     1     -12.188  12.988  63.617  1.00  0.00    -0.568 A  
HETATM   11  C   UNL     1     -12.344  13.421  64.929  1.00  0.00    -0.457 A  
HETATM   12  C   UNL     1     -11.663  12.796  66.008  1.00  0.00    -0.470 A  
BRANCH  12  13
HETATM   13  C   UNL     1     -11.645  13.581  67.298  1.00  0.00    -0.398 C  
BRANCH  13  14
HETATM   14  C   UNL     1     -10.808  14.851  67.245  1.00  0.00    -0.306 A  
HETATM   15  C   UNL     1      -9.703  14.917  66.385  1.00  0.00    -0.306 A  
HETATM   16  C   UNL     1      -9.013  16.119  66.205  1.00  0.00    -0.372 A  
HETATM   17  C   UNL     1      -9.411  17.265  66.889  1.00  0.00    -0.264 A  
HETATM   18  C   UNL     1     -10.471  17.202  67.787  1.00  0.00    -0.362 A  
HETATM   19  C   UNL     1     -11.167  16.004  67.964  1.00  0.00    -0.303 A  
ENDBRANCH  13  14
ENDBRANCH  12  13
ENDBRANCH   6   7
ENDBRANCH   5   6
ENDBRANCH   4   5
ENDBRANCH   2   4
TORSDOF 6
ENDMDL
MODEL       40
REMARK 921   NORMALIZED FREE ENERGY PREDICTED BY IDOCK:   -4.90 KCAL/MOL
REMARK 922        TOTAL FREE ENERGY PREDICTED BY IDOCK:   -7.46 KCAL/MOL
REMARK 923 INTER-LIGAND FREE ENERGY PREDICTED BY IDOCK:   -6.78 KCAL/MOL
REMARK 924 INTRA-LIGAND FREE ENERGY PREDICTED BY IDOCK:   -0.68 KCAL/MOL
REMARK 927      BINDING AFFINITY PREDICTED BY RF-SCORE:    0.00 PKD
ROOT
HETATM    1  C   UNL     1     -10.420  11.088  64.459  1.00  0.00    -0.342 C  
HETATM    2  N   UNL     1     -10.947  12.394  64.086  1.00  0.00    -0.336 NA 
HETATM    3  C   UNL     1     -12.378  12.342  63.825  1.00  0.00    -0.528 C  
ENDROOT
BRANCH   2   4
HETATM    4  C   UNL     1     -10.500  13.504  64.949  1.00  0.00    -0.402 C  
BRANCH   4   5
HETATM    5  C   UNL     1     -11.362  14.043  66.125  1.00  0.00    -0.321 C  
BRANCH   5   6
HETATM    6  O   UNL     1     -10.731  13.621  67.352  1.00  0.00    -0.263 OA 
BRANCH   6   7
HETATM    7  C   UNL     1     -11.312  13.841  68.576  1.00  0.00    -0.285 A  
HETATM    8  C   UNL     1     -10.965  15.083  69.130  1.00  0.00    -0.265 A  
HETATM    9  C   UNL     1     -11.337  15.447  70.433  1.00  0.00    -0.350 A  
HETATM   10  C   UNL     1     -12.109  14.583  71.198  1.00  0.00    -0.408 A  
HETATM   11  C   UNL     1     -12.455  13.344  70.670  1.00  0.00    -0.385 A  
HETATM   12  C   UNL     1     -12.013  12.930  69.385  1.00  0.00    -0.327 A  
BRANCH  12  13
HETATM   13  C   UNL     1     -12.161  11.454  69.098  1.00  0.00    -0.331 C  
BRANCH  13  14
HETATM   14  C   UNL     1     -11.349  10.555  70.021  1.00  0.00    -0.392 A  
HETATM   15  C   UNL     1     -11.961   9.985  71.147  1.00  0.00    -0.484 A  
HETATM   16  C   UNL     1     -11.283   9.039  71.921  1.00  0.00    -0.438 A  
HETATM   17  C   UNL     1      -9.985   8.660  71.587  1.00  0.00    -0.353 A  
HETATM   18  C   UNL     1      -9.345   9.258  70.506  1.00  0.00    -0.316 A  
HETATM   19  C   UNL     1     -10.022  10.198  69.727  1.00  0.00    -0.258 A  
ENDBRANCH  13  14
ENDBRANCH  12  13
ENDBRANCH   6   7
ENDBRANCH   5   6
ENDBRANCH   4   5
ENDBRANCH   2   4
TORSDOF 6
ENDMDL
MODEL       41
REMARK 921   NORMALIZED FREE ENERGY PREDICTED BY IDOCK:   -4.88 KCAL/MOL
REMARK 922        TOTAL FREE ENERGY PREDICTED BY IDOCK:   -7.43 KCAL/MOL
REMARK 923 INTER-LIGAND FREE ENERGY PREDICTED BY IDOCK:   -7.35 KCAL/MOL
REMARK 924 INTRA-LIGAND FREE ENERGY PREDICTED BY IDOCK:   -0.09 KCAL/MOL
REMARK 927      BINDING AFFINITY PREDICTED BY RF-SCORE:    0.00 PKD
ROOT
HETATM    1  C   UNL     1     -10.121  10.184  65.219  1.00  0.00    -0.274 C  
HETATM    2  N   UNL     1     -10.271  10.804  66.528  1.00  0.00    -0.228 NA 
HETATM    3  C   UNL     1     -10.936  12.095  66.439  1.00  0.00    -0.288 C  
ENDROOT
BRANCH   2   4
HETATM    4  C   UNL     1     -10.777   9.901  67.579  1.00  0.00    -0.272 C  
BRANCH   4   5
HETATM    5  C   UNL     1      -9.860   9.328  68.697  1.00  0.00    -0.162 C  
BRANCH   5   6
HETATM    6  O   UNL     1     -10.006  10.178  69.854  1.00  0.00    -0.242 OA 
BRANCH   6   7
HETATM    7  C   UNL     1     -11.096  10.089  70.682  1.00  0.00    -0.335 A  
HETATM    8  C   UNL     1     -11.334   8.782  71.135  1.00  0.00    -0.345 A  
HETATM    9  C   UNL     1     -12.476   8.446  71.877  1.00  0.00    -0.390 A  
HETATM   10  C   UNL     1     -13.390   9.434  72.223  1.00  0.00    -0.539 A  
HETATM   11  C   UNL     1     -13.176  10.733  71.776  1.00  0.00    -0.523 A  
HETATM   12  C   UNL     1     -12.068  11.068  70.953  1.00  0.00    -0.444 A  
BRANCH  12  13
HETATM   13  C   UNL     1     -12.161  12.409  70.263  1.00  0.00    -0.377 C  
BRANCH  13  14
HETATM   14  C   UNL     1     -12.416  13.578  71.205  1.00  0.00    -0.424 A  
HETATM   15  C   UNL     1     -11.679  14.762  71.054  1.00  0.00    -0.358 A  
HETATM   16  C   UNL     1     -12.000  15.898  71.803  1.00  0.00    -0.573 A  
HETATM   17  C   UNL     1     -13.050  15.862  72.718  1.00  0.00    -0.580 A  
HETATM   18  C   UNL     1     -13.753  14.678  72.917  1.00  0.00    -0.359 A  
HETATM   19  C   UNL     1     -13.440  13.544  72.166  1.00  0.00    -0.631 A  
ENDBRANCH  13  14
ENDBRANCH  12  13
ENDBRANCH   6   7
ENDBRANCH   5   6
ENDBRANCH   4   5
ENDBRANCH   2   4
TORSDOF 6
ENDMDL
MODEL       42
REMARK 921   NORMALIZED FREE ENERGY PREDICTED BY IDOCK:   -4.87 KCAL/MOL
REMARK 922        TOTAL FREE ENERGY PREDICTED BY IDOCK:   -7.42 KCAL/MOL
REMARK 923 INTER-LIGAND FREE ENERGY PREDICTED BY IDOCK:   -6.57 KCAL/MOL
REMARK 924 INTRA-LIGAND FREE ENERGY PREDICTED BY IDOCK:   -0.85 KCAL/MOL
REMARK 927      BINDING AFFINITY PREDICTED BY RF-SCORE:    0.00 PKD
ROOT
HETATM    1  C   UNL     1     -12.463  10.633  70.637  1.00  0.00    -0.371 C  
HETATM    2  N   UNL     1     -11.058  10.247  70.633  1.00  0.00    -0.319 NA 
HETATM    3  C   UNL     1     -10.829   9.042  71.417  1.00  0.00    -0.330 C  
ENDROOT
BRANCH   2   4
HETATM    4  C   UNL     1     -10.420  10.270  69.304  1.00  0.00    -0.228 C  
BRANCH   4   5
HETATM    5  C   UNL     1     -10.556  11.479  68.336  1.00  0.00    -0.201 C  
BRANCH   5   6
HETATM    6  O   UNL     1     -11.525  11.120  67.329  1.00  0.00    -0.473 OA 
BRANCH   6   7
HETATM    7  C   UNL     1     -11.231  11.181  65.990  1.00  0.00     0.034 A  
HETATM    8  C   UNL     1     -10.191  10.313  65.618  1.00  0.00    -0.301 A  
HETATM    9  C   UNL     1      -9.642  10.318  64.327  1.00  0.00    -0.375 A  
HETATM   10  C   UNL     1     -10.157  11.172  63.361  1.00  0.00    -0.439 A  
HETATM   11  C   UNL     1     -11.180  12.046  63.712  1.00  0.00    -0.516 A  
HETATM   12  C   UNL     1     -11.687  12.108  65.038  1.00  0.00    -0.371 A  
BRANCH  12  13
HETATM   13  C   UNL     1     -12.525  13.327  65.349  1.00  0.00    -0.543 C  
BRANCH  13  14
HETATM   14  C   UNL     1     -11.756  14.459  66.017  1.00  0.00    -0.378 A  
HETATM   15  C   UNL     1     -11.901  14.676  67.394  1.00  0.00    -0.374 A  
HETATM   16  C   UNL     1     -11.094  15.606  68.056  1.00  0.00    -0.335 A  
HETATM   17  C   UNL     1     -10.142  16.337  67.348  1.00  0.00    -0.260 A  
HETATM   18  C   UNL     1     -10.026  16.172  65.972  1.00  0.00    -0.373 A  
HETATM   19  C   UNL     1     -10.826  15.239  65.310  1.00  0.00    -0.417 A  
ENDBRANCH  13  14
ENDBRANCH  12  13
ENDBRANCH   6   7
ENDBRANCH   5   6
ENDBRANCH   4   5
ENDBRANCH   2   4
TORSDOF 6
ENDMDL
MODEL       43
REMARK 921   NORMALIZED FREE ENERGY PREDICTED BY IDOCK:   -4.87 KCAL/MOL
REMARK 922        TOTAL FREE ENERGY PREDICTED BY IDOCK:   -7.41 KCAL/MOL
REMARK 923 INTER-LIGAND FREE ENERGY PREDICTED BY IDOCK:   -6.55 KCAL/MOL
REMARK 924 INTRA-LIGAND FREE ENERGY PREDICTED BY IDOCK:   -0.86 KCAL/MOL
REMARK 927      BINDING AFFINITY PREDICTED BY RF-SCORE:    0.00 PKD
ROOT
HETATM    1  C   UNL     1     -12.118  10.513  70.668  1.00  0.00    -0.356 C  
HETATM    2  N   UNL     1     -11.089  10.953  69.737  1.00  0.00    -0.269 NA 
HETATM    3  C   UNL     1     -10.057   9.942  69.557  1.00  0.00    -0.221 C  
ENDROOT
BRANCH   2   4
HETATM    4  C   UNL     1     -11.605  11.559  68.494  1.00  0.00    -0.313 C  
BRANCH   4   5
HETATM    5  C   UNL     1     -10.783  12.586  67.665  1.00  0.00    -0.218 C  
BRANCH   5   6
HETATM    6  O   UNL     1      -9.961  13.328  68.589  1.00  0.00    -0.210 OA 
BRANCH   6   7
HETATM    7  C   UNL     1      -9.777  14.683  68.465  1.00  0.00    -0.225 A  
HETATM    8  C   UNL     1      -8.423  15.046  68.392  1.00  0.00    -0.153 A  
HETATM    9  C   UNL     1      -8.009  16.387  68.403  1.00  0.00    -0.178 A  
HETATM   10  C   UNL     1      -8.957  17.401  68.443  1.00  0.00    -0.277 A  
HETATM   11  C   UNL     1     -10.303  17.061  68.525  1.00  0.00    -0.359 A  
HETATM   12  C   UNL     1     -10.728  15.708  68.601  1.00  0.00    -0.256 A  
BRANCH  12  13
HETATM   13  C   UNL     1     -12.160  15.507  69.040  1.00  0.00    -0.246 C  
BRANCH  13  14
HETATM   14  C   UNL     1     -12.323  15.226  70.528  1.00  0.00    -0.434 A  
HETATM   15  C   UNL     1     -11.849  16.157  71.464  1.00  0.00    -0.528 A  
HETATM   16  C   UNL     1     -12.122  15.995  72.826  1.00  0.00    -0.635 A  
HETATM   17  C   UNL     1     -12.859  14.899  73.268  1.00  0.00    -0.646 A  
HETATM   18  C   UNL     1     -13.287  13.940  72.357  1.00  0.00    -0.629 A  
HETATM   19  C   UNL     1     -13.023  14.101  70.996  1.00  0.00    -0.399 A  
ENDBRANCH  13  14
ENDBRANCH  12  13
ENDBRANCH   6   7
ENDBRANCH   5   6
ENDBRANCH   4   5
ENDBRANCH   2   4
TORSDOF 6
ENDMDL
MODEL       44
REMARK 921   NORMALIZED FREE ENERGY PREDICTED BY IDOCK:   -4.84 KCAL/MOL
REMARK 922        TOTAL FREE ENERGY PREDICTED BY IDOCK:   -7.37 KCAL/MOL
REMARK 923 INTER-LIGAND FREE ENERGY PREDICTED BY IDOCK:   -6.55 KCAL/MOL
REMARK 924 INTRA-LIGAND FREE ENERGY PREDICTED BY IDOCK:   -0.81 KCAL/MOL
REMARK 927      BINDING AFFINITY PREDICTED BY RF-SCORE:    0.00 PKD
ROOT
HETATM    1  C   UNL     1     -12.617  14.317  65.552  1.00  0.00    -0.413 C  
HETATM    2  N   UNL     1     -12.260  12.905  65.544  1.00  0.00    -0.459 NA 
HETATM    3  C   UNL     1     -12.504  12.296  64.244  1.00  0.00    -0.413 C  
ENDROOT
BRANCH   2   4
HETATM    4  C   UNL     1     -10.950  12.601  66.151  1.00  0.00    -0.282 C  
BRANCH   4   5
HETATM    5  C   UNL     1     -10.811  11.775  67.461  1.00  0.00    -0.239 C  
BRANCH   5   6
HETATM    6  O   UNL     1     -10.835  12.706  68.563  1.00  0.00    -0.235 OA 
BRANCH   6   7
HETATM    7  C   UNL     1     -10.134  13.886  68.528  1.00  0.00    -0.234 A  
HETATM    8  C   UNL     1      -8.743  13.695  68.515  1.00  0.00    -0.102 A  
HETATM    9  C   UNL     1      -7.843  14.766  68.619  1.00  0.00    -0.140 A  
HETATM   10  C   UNL     1      -8.324  16.067  68.695  1.00  0.00    -0.203 A  
HETATM   11  C   UNL     1      -9.698  16.276  68.718  1.00  0.00    -0.240 A  
HETATM   12  C   UNL     1     -10.619  15.194  68.698  1.00  0.00    -0.234 A  
BRANCH  12  13
HETATM   13  C   UNL     1     -12.036  15.548  69.084  1.00  0.00    -0.331 C  
BRANCH  13  14
HETATM   14  C   UNL     1     -12.368  15.288  70.548  1.00  0.00    -0.434 A  
HETATM   15  C   UNL     1     -13.249  14.250  70.884  1.00  0.00    -0.320 A  
HETATM   16  C   UNL     1     -13.449  13.894  72.221  1.00  0.00    -0.623 A  
HETATM   17  C   UNL     1     -12.783  14.576  73.236  1.00  0.00    -0.483 A  
HETATM   18  C   UNL     1     -11.949  15.644  72.920  1.00  0.00    -0.588 A  
HETATM   19  C   UNL     1     -11.741  15.997  71.586  1.00  0.00    -0.583 A  
ENDBRANCH  13  14
ENDBRANCH  12  13
ENDBRANCH   6   7
ENDBRANCH   5   6
ENDBRANCH   4   5
ENDBRANCH   2   4
TORSDOF 6
ENDMDL
MODEL       45
REMARK 921   NORMALIZED FREE ENERGY PREDICTED BY IDOCK:   -4.83 KCAL/MOL
REMARK 922        TOTAL FREE ENERGY PREDICTED BY IDOCK:   -7.37 KCAL/MOL
REMARK 923 INTER-LIGAND FREE ENERGY PREDICTED BY IDOCK:   -6.66 KCAL/MOL
REMARK 924 INTRA-LIGAND FREE ENERGY PREDICTED BY IDOCK:   -0.71 KCAL/MOL
REMARK 927      BINDING AFFINITY PREDICTED BY RF-SCORE:    0.00 PKD
ROOT
HETATM    1  C   UNL     1      -8.659   6.234  67.221  1.00  0.00    -0.107 C  
HETATM    2  N   UNL     1      -9.692   7.150  66.756  1.00  0.00    -0.187 NA 
HETATM    3  C   UNL     1     -11.024   6.693  67.129  1.00  0.00    -0.408 C  
ENDROOT
BRANCH   2   4
HETATM    4  C   UNL     1      -9.413   8.574  67.023  1.00  0.00    -0.173 C  
BRANCH   4   5
HETATM    5  C   UNL     1     -10.455   9.516  67.691  1.00  0.00    -0.263 C  
BRANCH   5   6
HETATM    6  O   UNL     1     -10.076  10.872  67.376  1.00  0.00    -0.182 OA 
BRANCH   6   7
HETATM    7  C   UNL     1     -10.978  11.776  66.876  1.00  0.00    -0.285 A  
HETATM    8  C   UNL     1     -11.258  11.575  65.515  1.00  0.00    -0.204 A  
HETATM    9  C   UNL     1     -12.045  12.471  64.776  1.00  0.00    -0.497 A  
HETATM   10  C   UNL     1     -12.610  13.574  65.403  1.00  0.00    -0.531 A  
HETATM   11  C   UNL     1     -12.337  13.795  66.749  1.00  0.00    -0.365 A  
HETATM   12  C   UNL     1     -11.473  12.942  67.486  1.00  0.00    -0.386 A  
BRANCH  12  13
HETATM   13  C   UNL     1     -10.995  13.497  68.807  1.00  0.00    -0.291 C  
BRANCH  13  14
HETATM   14  C   UNL     1     -11.988  13.333  69.950  1.00  0.00    -0.400 A  
HETATM   15  C   UNL     1     -12.181  12.067  70.523  1.00  0.00    -0.414 A  
HETATM   16  C   UNL     1     -12.969  11.919  71.668  1.00  0.00    -0.447 A  
HETATM   17  C   UNL     1     -13.582  13.028  72.246  1.00  0.00    -0.643 A  
HETATM   18  C   UNL     1     -13.444  14.281  71.657  1.00  0.00    -0.456 A  
HETATM   19  C   UNL     1     -12.652  14.434  70.518  1.00  0.00    -0.417 A  
ENDBRANCH  13  14
ENDBRANCH  12  13
ENDBRANCH   6   7
ENDBRANCH   5   6
ENDBRANCH   4   5
ENDBRANCH   2   4
TORSDOF 6
ENDMDL
MODEL       46
REMARK 921   NORMALIZED FREE ENERGY PREDICTED BY IDOCK:   -4.73 KCAL/MOL
REMARK 922        TOTAL FREE ENERGY PREDICTED BY IDOCK:   -7.22 KCAL/MOL
REMARK 923 INTER-LIGAND FREE ENERGY PREDICTED BY IDOCK:   -6.72 KCAL/MOL
REMARK 924 INTRA-LIGAND FREE ENERGY PREDICTED BY IDOCK:   -0.50 KCAL/MOL
REMARK 927      BINDING AFFINITY PREDICTED BY RF-SCORE:    0.00 PKD
ROOT
HETATM    1  C   UNL     1     -10.108   6.804  70.922  1.00  0.00    -0.190 C  
HETATM    2  N   UNL     1     -11.402   7.471  70.988  1.00  0.00    -0.268 NA 
HETATM    3  C   UNL     1     -12.356   6.715  71.786  1.00  0.00    -0.337 C  
ENDROOT
BRANCH   2   4
HETATM    4  C   UNL     1     -11.332   8.914  71.283  1.00  0.00    -0.300 C  
BRANCH   4   5
HETATM    5  C   UNL     1     -12.458   9.662  72.052  1.00  0.00    -0.332 C  
BRANCH   5   6
HETATM    6  O   UNL     1     -13.093  10.563  71.120  1.00  0.00    -0.376 OA 
BRANCH   6   7
HETATM    7  C   UNL     1     -12.794  11.902  71.092  1.00  0.00    -0.249 A  
HETATM    8  C   UNL     1     -13.397  12.619  72.138  1.00  0.00    -0.570 A  
HETATM    9  C   UNL     1     -13.335  14.018  72.215  1.00  0.00    -0.574 A  
HETATM   10  C   UNL     1     -12.623  14.731  71.259  1.00  0.00    -0.403 A  
HETATM   11  C   UNL     1     -12.027  14.040  70.210  1.00  0.00    -0.409 A  
HETATM   12  C   UNL     1     -12.154  12.631  70.076  1.00  0.00    -0.339 A  
BRANCH  12  13
HETATM   13  C   UNL     1     -11.768  12.077  68.724  1.00  0.00    -0.377 C  
BRANCH  13  14
HETATM   14  C   UNL     1     -11.194  13.112  67.766  1.00  0.00    -0.308 A  
HETATM   15  C   UNL     1      -9.818  13.377  67.776  1.00  0.00    -0.234 A  
HETATM   16  C   UNL     1      -9.247  14.207  66.807  1.00  0.00    -0.282 A  
HETATM   17  C   UNL     1     -10.044  14.788  65.824  1.00  0.00    -0.364 A  
HETATM   18  C   UNL     1     -11.419  14.578  65.834  1.00  0.00    -0.345 A  
HETATM   19  C   UNL     1     -11.991  13.745  66.797  1.00  0.00    -0.465 A  
ENDBRANCH  13  14
ENDBRANCH  12  13
ENDBRANCH   6   7
ENDBRANCH   5   6
ENDBRANCH   4   5
ENDBRANCH   2   4
TORSDOF 6
ENDMDL
MODEL       47
REMARK 921   NORMALIZED FREE ENERGY PREDICTED BY IDOCK:   -4.72 KCAL/MOL
REMARK 922        TOTAL FREE ENERGY PREDICTED BY IDOCK:   -7.21 KCAL/MOL
REMARK 923 INTER-LIGAND FREE ENERGY PREDICTED BY IDOCK:   -6.89 KCAL/MOL
REMARK 924 INTRA-LIGAND FREE ENERGY PREDICTED BY IDOCK:   -0.31 KCAL/MOL
REMARK 927      BINDING AFFINITY PREDICTED BY RF-SCORE:    0.00 PKD
ROOT
HETATM    1  C   UNL     1     -11.056   5.730  71.708  1.00  0.00    -0.238 C  
HETATM    2  N   UNL     1     -11.532   6.982  72.282  1.00  0.00    -0.265 NA 
HETATM    3  C   UNL     1     -10.639   7.470  73.323  1.00  0.00    -0.384 C  
ENDROOT
BRANCH   2   4
HETATM    4  C   UNL     1     -11.960   7.987  71.291  1.00  0.00    -0.296 C  
BRANCH   4   5
HETATM    5  C   UNL     1     -11.820   9.515  71.542  1.00  0.00    -0.405 C  
BRANCH   5   6
HETATM    6  O   UNL     1     -12.070  10.183  70.288  1.00  0.00    -0.258 OA 
BRANCH   6   7
HETATM    7  C   UNL     1     -12.054  11.552  70.183  1.00  0.00    -0.351 A  
HETATM    8  C   UNL     1     -12.627  12.192  71.293  1.00  0.00    -0.341 A  
HETATM    9  C   UNL     1     -12.838  13.578  71.328  1.00  0.00    -0.420 A  
HETATM   10  C   UNL     1     -12.434  14.365  70.256  1.00  0.00    -0.413 A  
HETATM   11  C   UNL     1     -11.874  13.748  69.143  1.00  0.00    -0.398 A  
HETATM   12  C   UNL     1     -11.733  12.337  69.062  1.00  0.00    -0.376 A  
BRANCH  12  13
HETATM   13  C   UNL     1     -11.449  11.797  67.680  1.00  0.00    -0.370 C  
BRANCH  13  14
HETATM   14  C   UNL     1     -11.271  12.870  66.615  1.00  0.00    -0.342 A  
HETATM   15  C   UNL     1     -12.335  13.173  65.752  1.00  0.00    -0.496 A  
HETATM   16  C   UNL     1     -12.249  14.255  64.871  1.00  0.00    -0.449 A  
HETATM   17  C   UNL     1     -11.098  15.038  64.833  1.00  0.00    -0.425 A  
HETATM   18  C   UNL     1     -10.014  14.716  65.643  1.00  0.00    -0.381 A  
HETATM   19  C   UNL     1     -10.100  13.641  66.529  1.00  0.00    -0.286 A  
ENDBRANCH  13  14
ENDBRANCH  12  13
ENDBRANCH   6   7
ENDBRANCH   5   6
ENDBRANCH   4   5
ENDBRANCH   2   4
TORSDOF 6
ENDMDL
MODEL       48
REMARK 921   NORMALIZED FREE ENERGY PREDICTED BY IDOCK:   -4.70 KCAL/MOL
REMARK 922        TOTAL FREE ENERGY PREDICTED BY IDOCK:   -7.19 KCAL/MOL
REMARK 923 INTER-LIGAND FREE ENERGY PREDICTED BY IDOCK:   -6.47 KCAL/MOL
REMARK 924 INTRA-LIGAND FREE ENERGY PREDICTED BY IDOCK:   -0.72 KCAL/MOL
REMARK 927      BINDING AFFINITY PREDICTED BY RF-SCORE:    0.00 PKD
ROOT
HETATM    1  C   UNL     1     -14.283  15.331  71.887  1.00  0.00    -0.581 C  
HETATM    2  N   UNL     1     -13.125  15.921  72.544  1.00  0.00    -0.470 NA 
HETATM    3  C   UNL     1     -13.020  15.496  73.933  1.00  0.00    -0.351 C  
ENDROOT
BRANCH   2   4
HETATM    4  C   UNL     1     -11.876  15.851  71.764  1.00  0.00    -0.497 C  
BRANCH   4   5
HETATM    5  C   UNL     1     -11.869  15.710  70.215  1.00  0.00    -0.365 C  
BRANCH   5   6
HETATM    6  O   UNL     1     -10.739  14.885  69.861  1.00  0.00    -0.239 OA 
BRANCH   6   7
HETATM    7  C   UNL     1     -10.463  14.559  68.557  1.00  0.00    -0.250 A  
HETATM    8  C   UNL     1      -9.699  15.536  67.898  1.00  0.00    -0.211 A  
HETATM    9  C   UNL     1      -9.425  15.466  66.524  1.00  0.00    -0.298 A  
HETATM   10  C   UNL     1      -9.879  14.382  65.784  1.00  0.00    -0.330 A  
HETATM   11  C   UNL     1     -10.645  13.409  66.416  1.00  0.00    -0.285 A  
HETATM   12  C   UNL     1     -11.000  13.512  67.788  1.00  0.00    -0.284 A  
BRANCH  12  13
HETATM   13  C   UNL     1     -12.109  12.590  68.236  1.00  0.00    -0.123 C  
BRANCH  13  14
HETATM   14  C   UNL     1     -11.709  11.625  69.345  1.00  0.00    -0.405 A  
HETATM   15  C   UNL     1     -12.616  11.339  70.375  1.00  0.00    -0.292 A  
HETATM   16  C   UNL     1     -12.333  10.345  71.316  1.00  0.00    -0.507 A  
HETATM   17  C   UNL     1     -11.137   9.635  71.246  1.00  0.00    -0.426 A  
HETATM   18  C   UNL     1     -10.203   9.946  70.262  1.00  0.00    -0.322 A  
HETATM   19  C   UNL     1     -10.487  10.933  69.317  1.00  0.00    -0.230 A  
ENDBRANCH  13  14
ENDBRANCH  12  13
ENDBRANCH   6   7
ENDBRANCH   5   6
ENDBRANCH   4   5
ENDBRANCH   2   4
TORSDOF 6
ENDMDL
MODEL       49
REMARK 921   NORMALIZED FREE ENERGY PREDICTED BY IDOCK:   -4.69 KCAL/MOL
REMARK 922        TOTAL FREE ENERGY PREDICTED BY IDOCK:   -7.18 KCAL/MOL
REMARK 923 INTER-LIGAND FREE ENERGY PREDICTED BY IDOCK:   -6.77 KCAL/MOL
REMARK 924 INTRA-LIGAND FREE ENERGY PREDICTED BY IDOCK:   -0.40 KCAL/MOL
REMARK 927      BINDING AFFINITY PREDICTED BY RF-SCORE:    0.00 PKD
ROOT
HETATM    1  C   UNL     1      -8.882  19.366  68.577  1.00  0.00    -0.366 C  
HETATM    2  N   UNL     1     -10.030  19.377  67.680  1.00  0.00    -0.349 NA 
HETATM    3  C   UNL     1      -9.738  20.086  66.442  1.00  0.00    -0.441 C  
ENDROOT
BRANCH   2   4
HETATM    4  C   UNL     1     -10.695  18.070  67.520  1.00  0.00    -0.336 C  
BRANCH   4   5
HETATM    5  C   UNL     1     -10.162  16.776  68.198  1.00  0.00    -0.301 C  
BRANCH   5   6
HETATM    6  O   UNL     1      -9.768  15.869  67.148  1.00  0.00    -0.221 OA 
BRANCH   6   7
HETATM    7  C   UNL     1     -10.672  15.036  66.537  1.00  0.00    -0.312 A  
HETATM    8  C   UNL     1     -10.816  15.297  65.165  1.00  0.00    -0.441 A  
HETATM    9  C   UNL     1     -11.788  14.656  64.382  1.00  0.00    -0.405 A  
HETATM   10  C   UNL     1     -12.613  13.697  64.956  1.00  0.00    -0.434 A  
HETATM   11  C   UNL     1     -12.491  13.430  66.315  1.00  0.00    -0.338 A  
HETATM   12  C   UNL     1     -11.569  14.134  67.134  1.00  0.00    -0.400 A  
BRANCH  12  13
HETATM   13  C   UNL     1     -11.796  13.997  68.622  1.00  0.00    -0.396 C  
BRANCH  13  14
HETATM   14  C   UNL     1     -11.421  12.634  69.187  1.00  0.00    -0.359 A  
HETATM   15  C   UNL     1     -12.145  12.109  70.267  1.00  0.00    -0.385 A  
HETATM   16  C   UNL     1     -11.921  10.800  70.704  1.00  0.00    -0.466 A  
HETATM   17  C   UNL     1     -10.966  10.005  70.075  1.00  0.00    -0.352 A  
HETATM   18  C   UNL     1     -10.202  10.531  69.038  1.00  0.00    -0.233 A  
HETATM   19  C   UNL     1     -10.428  11.835  68.596  1.00  0.00    -0.242 A  
ENDBRANCH  13  14
ENDBRANCH  12  13
ENDBRANCH   6   7
ENDBRANCH   5   6
ENDBRANCH   4   5
ENDBRANCH   2   4
TORSDOF 6
ENDMDL
MODEL       50
REMARK 921   NORMALIZED FREE ENERGY PREDICTED BY IDOCK:   -4.69 KCAL/MOL
REMARK 922        TOTAL FREE ENERGY PREDICTED BY IDOCK:   -7.17 KCAL/MOL
REMARK 923 INTER-LIGAND FREE ENERGY PREDICTED BY IDOCK:   -6.45 KCAL/MOL
REMARK 924 INTRA-LIGAND FREE ENERGY PREDICTED BY IDOCK:   -0.72 KCAL/MOL
REMARK 927      BINDING AFFINITY PREDICTED BY RF-SCORE:    0.00 PKD
ROOT
HETATM    1  C   UNL     1     -11.513  14.605  67.115  1.00  0.00    -0.368 C  
HETATM    2  N   UNL     1     -11.932  13.293  66.641  1.00  0.00    -0.393 NA 
HETATM    3  C   UNL     1     -12.806  13.393  65.481  1.00  0.00    -0.299 C  
ENDROOT
BRANCH   2   4
HETATM    4  C   UNL     1     -10.841  12.306  66.530  1.00  0.00    -0.259 C  
BRANCH   4   5
HETATM    5  C   UNL     1     -10.843  10.971  67.328  1.00  0.00    -0.281 C  
BRANCH   5   6
HETATM    6  O   UNL     1     -10.528  11.288  68.700  1.00  0.00    -0.188 OA 
BRANCH   6   7
HETATM    7  C   UNL     1     -11.493  11.307  69.676  1.00  0.00    -0.309 A  
HETATM    8  C   UNL     1     -11.849  12.608  70.067  1.00  0.00    -0.358 A  
HETATM    9  C   UNL     1     -12.713  12.852  71.145  1.00  0.00    -0.366 A  
HETATM   10  C   UNL     1     -13.278  11.785  71.833  1.00  0.00    -0.468 A  
HETATM   11  C   UNL     1     -12.930  10.489  71.466  1.00  0.00    -0.565 A  
HETATM   12  C   UNL     1     -11.991  10.232  70.431  1.00  0.00    -0.391 A  
BRANCH  12  13
HETATM   13  C   UNL     1     -11.452   8.821  70.388  1.00  0.00    -0.163 C  
BRANCH  13  14
HETATM   14  C   UNL     1     -10.687   8.407  71.638  1.00  0.00    -0.333 A  
HETATM   15  C   UNL     1     -11.310   7.591  72.593  1.00  0.00    -0.395 A  
HETATM   16  C   UNL     1     -10.582   7.073  73.668  1.00  0.00    -0.383 A  
HETATM   17  C   UNL     1      -9.229   7.374  73.808  1.00  0.00    -0.305 A  
HETATM   18  C   UNL     1      -8.612   8.227  72.899  1.00  0.00    -0.276 A  
HETATM   19  C   UNL     1      -9.334   8.739  71.821  1.00  0.00    -0.350 A  
ENDBRANCH  13  14
ENDBRANCH  12  13
ENDBRANCH   6   7
ENDBRANCH   5   6
ENDBRANCH   4   5
ENDBRANCH   2   4
TORSDOF 6
ENDMDL
MODEL       51
REMARK 921   NORMALIZED FREE ENERGY PREDICTED BY IDOCK:   -4.69 KCAL/MOL
REMARK 922        TOTAL FREE ENERGY PREDICTED BY IDOCK:   -7.17 KCAL/MOL
REMARK 923 INTER-LIGAND FREE ENERGY PREDICTED BY IDOCK:   -6.49 KCAL/MOL
REMARK 924 INTRA-LIGAND FREE ENERGY PREDICTED BY IDOCK:   -0.67 KCAL/MOL
REMARK 927      BINDING AFFINITY PREDICTED BY RF-SCORE:    0.00 PKD
ROOT
HETATM    1  C   UNL     1     -10.546   9.952  67.450  1.00  0.00    -0.277 C  
HETATM    2  N   UNL     1      -9.212  10.537  67.433  1.00  0.00    -0.142 NA 
HETATM    3  C   UNL     1      -8.764  10.816  66.077  1.00  0.00    -0.183 C  
ENDROOT
BRANCH   2   4
HETATM    4  C   UNL     1      -9.011  11.629  68.404  1.00  0.00    -0.176 C  
BRANCH   4   5
HETATM    5  C   UNL     1      -8.878  13.116  67.969  1.00  0.00    -0.191 C  
BRANCH   5   6
HETATM    6  O   UNL     1     -10.197  13.700  68.016  1.00  0.00    -0.235 OA 
BRANCH   6   7
HETATM    7  C   UNL     1     -10.821  14.164  66.885  1.00  0.00    -0.296 A  
HETATM    8  C   UNL     1     -11.858  13.324  66.449  1.00  0.00    -0.446 A  
HETATM    9  C   UNL     1     -12.532  13.540  65.237  1.00  0.00    -0.525 A  
HETATM   10  C   UNL     1     -12.207  14.639  64.452  1.00  0.00    -0.473 A  
HETATM   11  C   UNL     1     -11.177  15.477  64.864  1.00  0.00    -0.396 A  
HETATM   12  C   UNL     1     -10.431  15.221  66.045  1.00  0.00    -0.328 A  
BRANCH  12  13
HETATM   13  C   UNL     1      -9.139  15.994  66.171  1.00  0.00    -0.387 C  
BRANCH  13  14
HETATM   14  C   UNL     1      -9.315  17.432  66.640  1.00  0.00    -0.279 A  
HETATM   15  C   UNL     1      -8.309  18.374  66.380  1.00  0.00    -0.272 A  
HETATM   16  C   UNL     1      -8.513  19.727  66.663  1.00  0.00    -0.371 A  
HETATM   17  C   UNL     1      -9.716  20.154  67.219  1.00  0.00    -0.574 A  
HETATM   18  C   UNL     1     -10.701  19.224  67.534  1.00  0.00    -0.571 A  
HETATM   19  C   UNL     1     -10.504  17.872  67.245  1.00  0.00    -0.373 A  
ENDBRANCH  13  14
ENDBRANCH  12  13
ENDBRANCH   6   7
ENDBRANCH   5   6
ENDBRANCH   4   5
ENDBRANCH   2   4
TORSDOF 6
ENDMDL
MODEL       52
REMARK 921   NORMALIZED FREE ENERGY PREDICTED BY IDOCK:   -4.69 KCAL/MOL
REMARK 922        TOTAL FREE ENERGY PREDICTED BY IDOCK:   -7.17 KCAL/MOL
REMARK 923 INTER-LIGAND FREE ENERGY PREDICTED BY IDOCK:   -6.67 KCAL/MOL
REMARK 924 INTRA-LIGAND FREE ENERGY PREDICTED BY IDOCK:   -0.50 KCAL/MOL
REMARK 927      BINDING AFFINITY PREDICTED BY RF-SCORE:    0.00 PKD
ROOT
HETATM    1  C   UNL     1     -11.170   7.422  70.457  1.00  0.00    -0.274 C  
HETATM    2  N   UNL     1     -11.652   8.207  71.585  1.00  0.00    -0.266 NA 
HETATM    3  C   UNL     1     -11.148   7.696  72.851  1.00  0.00    -0.393 C  
ENDROOT
BRANCH   2   4
HETATM    4  C   UNL     1     -11.547   9.668  71.404  1.00  0.00    -0.400 C  
BRANCH   4   5
HETATM    5  C   UNL     1     -12.791  10.600  71.421  1.00  0.00    -0.451 C  
BRANCH   5   6
HETATM    6  O   UNL     1     -12.518  11.702  70.530  1.00  0.00    -0.308 OA 
BRANCH   6   7
HETATM    7  C   UNL     1     -12.584  13.006  70.953  1.00  0.00    -0.280 A  
HETATM    8  C   UNL     1     -13.091  13.133  72.256  1.00  0.00    -0.458 A  
HETATM    9  C   UNL     1     -13.371  14.383  72.828  1.00  0.00    -0.606 A  
HETATM   10  C   UNL     1     -13.106  15.545  72.113  1.00  0.00    -0.521 A  
HETATM   11  C   UNL     1     -12.613  15.439  70.817  1.00  0.00    -0.497 A  
HETATM   12  C   UNL     1     -12.405  14.178  70.198  1.00  0.00    -0.413 A  
BRANCH  12  13
HETATM   13  C   UNL     1     -12.214  14.221  68.700  1.00  0.00    -0.205 C  
BRANCH  13  14
HETATM   14  C   UNL     1     -11.172  13.242  68.175  1.00  0.00    -0.302 A  
HETATM   15  C   UNL     1     -11.565  12.207  67.314  1.00  0.00    -0.404 A  
HETATM   16  C   UNL     1     -10.610  11.393  66.699  1.00  0.00    -0.302 A  
HETATM   17  C   UNL     1      -9.254  11.594  66.946  1.00  0.00    -0.187 A  
HETATM   18  C   UNL     1      -8.852  12.580  67.841  1.00  0.00    -0.185 A  
HETATM   19  C   UNL     1      -9.803  13.400  68.450  1.00  0.00    -0.216 A  
ENDBRANCH  13  14
ENDBRANCH  12  13
ENDBRANCH   6   7
ENDBRANCH   5   6
ENDBRANCH   4   5
ENDBRANCH   2   4
TORSDOF 6
ENDMDL
MODEL       53
REMARK 921   NORMALIZED FREE ENERGY PREDICTED BY IDOCK:   -4.67 KCAL/MOL
REMARK 922        TOTAL FREE ENERGY PREDICTED BY IDOCK:   -7.15 KCAL/MOL
REMARK 923 INTER-LIGAND FREE ENERGY PREDICTED BY IDOCK:   -6.71 KCAL/MOL
REMARK 924 INTRA-LIGAND FREE ENERGY PREDICTED BY IDOCK:   -0.44 KCAL/MOL
REMARK 927      BINDING AFFINITY PREDICTED BY RF-SCORE:    0.00 PKD
ROOT
HETATM    1  C   UNL     1     -12.706  12.062  63.841  1.00  0.00    -0.354 C  
HETATM    2  N   UNL     1     -11.728  13.139  63.760  1.00  0.00    -0.457 NA 
HETATM    3  C   UNL     1     -12.278  14.402  64.233  1.00  0.00    -0.423 C  
ENDROOT
BRANCH   2   4
HETATM    4  C   UNL     1     -10.393  12.794  64.283  1.00  0.00    -0.377 C  
BRANCH   4   5
HETATM    5  C   UNL     1     -10.190  12.134  65.677  1.00  0.00    -0.256 C  
BRANCH   5   6
HETATM    6  O   UNL     1     -10.154  13.194  66.655  1.00  0.00    -0.253 OA 
BRANCH   6   7
HETATM    7  C   UNL     1      -9.085  14.049  66.755  1.00  0.00    -0.232 A  
HETATM    8  C   UNL     1      -7.995  13.485  67.436  1.00  0.00    -0.165 A  
HETATM    9  C   UNL     1      -6.856  14.234  67.769  1.00  0.00    -0.189 A  
HETATM   10  C   UNL     1      -6.768  15.565  67.384  1.00  0.00    -0.200 A  
HETATM   11  C   UNL     1      -7.842  16.145  66.717  1.00  0.00    -0.296 A  
HETATM   12  C   UNL     1      -9.034  15.420  66.449  1.00  0.00    -0.351 A  
BRANCH  12  13
HETATM   13  C   UNL     1     -10.223  16.263  66.050  1.00  0.00    -0.376 C  
BRANCH  13  14
HETATM   14  C   UNL     1     -10.266  17.634  66.711  1.00  0.00    -0.335 A  
HETATM   15  C   UNL     1     -10.076  17.742  68.096  1.00  0.00    -0.362 A  
HETATM   16  C   UNL     1      -9.959  18.997  68.701  1.00  0.00    -0.482 A  
HETATM   17  C   UNL     1     -10.041  20.156  67.933  1.00  0.00    -0.533 A  
HETATM   18  C   UNL     1     -10.285  20.065  66.567  1.00  0.00    -0.598 A  
HETATM   19  C   UNL     1     -10.395  18.814  65.958  1.00  0.00    -0.467 A  
ENDBRANCH  13  14
ENDBRANCH  12  13
ENDBRANCH   6   7
ENDBRANCH   5   6
ENDBRANCH   4   5
ENDBRANCH   2   4
TORSDOF 6
ENDMDL
MODEL       54
REMARK 921   NORMALIZED FREE ENERGY PREDICTED BY IDOCK:   -4.66 KCAL/MOL
REMARK 922        TOTAL FREE ENERGY PREDICTED BY IDOCK:   -7.14 KCAL/MOL
REMARK 923 INTER-LIGAND FREE ENERGY PREDICTED BY IDOCK:   -6.32 KCAL/MOL
REMARK 924 INTRA-LIGAND FREE ENERGY PREDICTED BY IDOCK:   -0.82 KCAL/MOL
REMARK 927      BINDING AFFINITY PREDICTED BY RF-SCORE:    0.00 PKD
ROOT
HETATM    1  C   UNL     1      -8.133  13.444  67.725  1.00  0.00    -0.173 C  
HETATM    2  N   UNL     1      -9.396  13.970  67.224  1.00  0.00    -0.221 NA 
HETATM    3  C   UNL     1      -9.252  15.331  66.726  1.00  0.00    -0.250 C  
ENDROOT
BRANCH   2   4
HETATM    4  C   UNL     1     -10.137  13.048  66.343  1.00  0.00    -0.279 C  
BRANCH   4   5
HETATM    5  C   UNL     1     -10.990  11.872  66.897  1.00  0.00    -0.289 C  
BRANCH   5   6
HETATM    6  O   UNL     1     -11.460  12.259  68.205  1.00  0.00    -0.267 OA 
BRANCH   6   7
HETATM    7  C   UNL     1     -11.355  11.421  69.287  1.00  0.00    -0.289 A  
HETATM    8  C   UNL     1     -10.526  10.314  69.044  1.00  0.00    -0.238 A  
HETATM    9  C   UNL     1     -10.393   9.266  69.967  1.00  0.00    -0.245 A  
HETATM   10  C   UNL     1     -11.062   9.327  71.183  1.00  0.00    -0.411 A  
HETATM   11  C   UNL     1     -11.895  10.410  71.438  1.00  0.00    -0.312 A  
HETATM   12  C   UNL     1     -12.103  11.436  70.477  1.00  0.00    -0.487 A  
BRANCH  12  13
HETATM   13  C   UNL     1     -13.285  12.338  70.745  1.00  0.00     0.394 C  
BRANCH  13  14
HETATM   14  C   UNL     1     -12.921  13.670  71.386  1.00  0.00    -0.427 A  
HETATM   15  C   UNL     1     -13.444  13.999  72.645  1.00  0.00    -0.650 A  
HETATM   16  C   UNL     1     -13.006  15.142  73.319  1.00  0.00    -0.645 A  
HETATM   17  C   UNL     1     -12.050  15.975  72.741  1.00  0.00    -0.635 A  
HETATM   18  C   UNL     1     -11.564  15.691  71.469  1.00  0.00    -0.507 A  
HETATM   19  C   UNL     1     -11.994  14.546  70.796  1.00  0.00    -0.388 A  
ENDBRANCH  13  14
ENDBRANCH  12  13
ENDBRANCH   6   7
ENDBRANCH   5   6
ENDBRANCH   4   5
ENDBRANCH   2   4
TORSDOF 6
ENDMDL
MODEL       55
REMARK 921   NORMALIZED FREE ENERGY PREDICTED BY IDOCK:   -4.62 KCAL/MOL
REMARK 922        TOTAL FREE ENERGY PREDICTED BY IDOCK:   -7.07 KCAL/MOL
REMARK 923 INTER-LIGAND FREE ENERGY PREDICTED BY IDOCK:   -6.34 KCAL/MOL
REMARK 924 INTRA-LIGAND FREE ENERGY PREDICTED BY IDOCK:   -0.73 KCAL/MOL
REMARK 927      BINDING AFFINITY PREDICTED BY RF-SCORE:    0.00 PKD
ROOT
HETATM    1  C   UNL     1     -13.527  13.671  72.480  1.00  0.00    -0.570 C  
HETATM    2  N   UNL     1     -13.142  15.028  72.117  1.00  0.00    -0.328 NA 
HETATM    3  C   UNL     1     -12.199  15.594  73.071  1.00  0.00    -0.466 C  
ENDROOT
BRANCH   2   4
HETATM    4  C   UNL     1     -12.790  15.206  70.696  1.00  0.00    -0.388 C  
BRANCH   4   5
HETATM    5  C   UNL     1     -11.558  16.039  70.241  1.00  0.00    -0.324 C  
BRANCH   5   6
HETATM    6  O   UNL     1     -11.636  16.179  68.807  1.00  0.00    -0.368 OA 
BRANCH   6   7
HETATM    7  C   UNL     1     -10.540  16.518  68.054  1.00  0.00    -0.328 A  
HETATM    8  C   UNL     1     -10.002  17.767  68.404  1.00  0.00    -0.362 A  
HETATM    9  C   UNL     1      -8.968  18.365  67.668  1.00  0.00    -0.282 A  
HETATM   10  C   UNL     1      -8.417  17.697  66.582  1.00  0.00    -0.285 A  
HETATM   11  C   UNL     1      -8.942  16.463  66.215  1.00  0.00    -0.368 A  
HETATM   12  C   UNL     1     -10.045  15.887  66.900  1.00  0.00    -0.267 A  
BRANCH  12  13
HETATM   13  C   UNL     1     -10.722  14.743  66.182  1.00  0.00    -0.314 C  
BRANCH  13  14
HETATM   14  C   UNL     1     -10.617  13.404  66.900  1.00  0.00    -0.273 A  
HETATM   15  C   UNL     1      -9.374  12.975  67.386  1.00  0.00    -0.209 A  
HETATM   16  C   UNL     1      -9.279  11.828  68.180  1.00  0.00    -0.186 A  
HETATM   17  C   UNL     1     -10.421  11.091  68.487  1.00  0.00    -0.210 A  
HETATM   18  C   UNL     1     -11.652  11.474  67.965  1.00  0.00    -0.370 A  
HETATM   19  C   UNL     1     -11.751  12.623  67.179  1.00  0.00    -0.438 A  
ENDBRANCH  13  14
ENDBRANCH  12  13
ENDBRANCH   6   7
ENDBRANCH   5   6
ENDBRANCH   4   5
ENDBRANCH   2   4
TORSDOF 6
ENDMDL
MODEL       56
REMARK 921   NORMALIZED FREE ENERGY PREDICTED BY IDOCK:   -4.61 KCAL/MOL
REMARK 922        TOTAL FREE ENERGY PREDICTED BY IDOCK:   -7.07 KCAL/MOL
REMARK 923 INTER-LIGAND FREE ENERGY PREDICTED BY IDOCK:   -6.29 KCAL/MOL
REMARK 924 INTRA-LIGAND FREE ENERGY PREDICTED BY IDOCK:   -0.78 KCAL/MOL
REMARK 927      BINDING AFFINITY PREDICTED BY RF-SCORE:    0.00 PKD
ROOT
HETATM    1  C   UNL     1     -11.818  14.875  68.060  1.00  0.00    -0.268 C  
HETATM    2  N   UNL     1     -11.498  15.059  69.469  1.00  0.00    -0.275 NA 
HETATM    3  C   UNL     1     -10.808  16.320  69.704  1.00  0.00    -0.345 C  
ENDROOT
BRANCH   2   4
HETATM    4  C   UNL     1     -12.610  14.765  70.393  1.00  0.00    -0.346 C  
BRANCH   4   5
HETATM    5  C   UNL     1     -12.700  13.431  71.189  1.00  0.00    -0.328 C  
BRANCH   5   6
HETATM    6  O   UNL     1     -11.962  12.437  70.449  1.00  0.00    -0.344 OA 
BRANCH   6   7
HETATM    7  C   UNL     1     -12.105  11.095  70.702  1.00  0.00    -0.379 A  
HETATM    8  C   UNL     1     -13.151  10.816  71.595  1.00  0.00    -0.551 A  
HETATM    9  C   UNL     1     -13.379   9.525  72.095  1.00  0.00    -0.545 A  
HETATM   10  C   UNL     1     -12.582   8.469  71.671  1.00  0.00    -0.369 A  
HETATM   11  C   UNL     1     -11.535   8.728  70.793  1.00  0.00    -0.309 A  
HETATM   12  C   UNL     1     -11.242  10.044  70.347  1.00  0.00    -0.393 A  
BRANCH  12  13
HETATM   13  C   UNL     1      -9.888  10.217  69.699  1.00  0.00    -0.254 C  
BRANCH  13  14
HETATM   14  C   UNL     1      -9.928  10.287  68.179  1.00  0.00    -0.168 A  
HETATM   15  C   UNL     1      -9.562   9.164  67.424  1.00  0.00    -0.193 A  
HETATM   16  C   UNL     1      -9.735   9.153  66.037  1.00  0.00    -0.358 A  
HETATM   17  C   UNL     1     -10.264  10.267  65.387  1.00  0.00    -0.312 A  
HETATM   18  C   UNL     1     -10.579  11.408  66.117  1.00  0.00    -0.316 A  
HETATM   19  C   UNL     1     -10.414  11.419  67.503  1.00  0.00    -0.233 A  
ENDBRANCH  13  14
ENDBRANCH  12  13
ENDBRANCH   6   7
ENDBRANCH   5   6
ENDBRANCH   4   5
ENDBRANCH   2   4
TORSDOF 6
ENDMDL
MODEL       57
REMARK 921   NORMALIZED FREE ENERGY PREDICTED BY IDOCK:   -4.61 KCAL/MOL
REMARK 922        TOTAL FREE ENERGY PREDICTED BY IDOCK:   -7.06 KCAL/MOL
REMARK 923 INTER-LIGAND FREE ENERGY PREDICTED BY IDOCK:   -6.23 KCAL/MOL
REMARK 924 INTRA-LIGAND FREE ENERGY PREDICTED BY IDOCK:   -0.84 KCAL/MOL
REMARK 927      BINDING AFFINITY PREDICTED BY RF-SCORE:    0.00 PKD
ROOT
HETATM    1  C   UNL     1      -8.491  16.307  66.304  1.00  0.00    -0.334 C  
HETATM    2  N   UNL     1      -9.681  17.055  65.921  1.00  0.00    -0.523 NA 
HETATM    3  C   UNL     1     -10.617  16.230  65.171  1.00  0.00    -0.304 C  
ENDROOT
BRANCH   2   4
HETATM    4  C   UNL     1     -10.274  17.860  67.006  1.00  0.00    -0.358 C  
BRANCH   4   5
HETATM    5  C   UNL     1     -10.414  17.324  68.459  1.00  0.00    -0.375 C  
BRANCH   5   6
HETATM    6  O   UNL     1     -11.301  16.187  68.417  1.00  0.00    -0.366 OA 
BRANCH   6   7
HETATM    7  C   UNL     1     -11.744  15.573  69.562  1.00  0.00    -0.365 A  
HETATM    8  C   UNL     1     -11.516  16.339  70.716  1.00  0.00    -0.327 A  
HETATM    9  C   UNL     1     -11.765  15.840  72.003  1.00  0.00    -0.572 A  
HETATM   10  C   UNL     1     -12.294  14.565  72.159  1.00  0.00    -0.341 A  
HETATM   11  C   UNL     1     -12.518  13.787  71.028  1.00  0.00    -0.458 A  
HETATM   12  C   UNL     1     -12.191  14.251  69.725  1.00  0.00    -0.390 A  
BRANCH  12  13
HETATM   13  C   UNL     1     -12.154  13.186  68.654  1.00  0.00    -0.222 C  
BRANCH  13  14
HETATM   14  C   UNL     1     -10.851  12.398  68.602  1.00  0.00    -0.273 A  
HETATM   15  C   UNL     1      -9.694  13.007  68.097  1.00  0.00    -0.228 A  
HETATM   16  C   UNL     1      -8.457  12.361  68.180  1.00  0.00    -0.180 A  
HETATM   17  C   UNL     1      -8.364  11.096  68.757  1.00  0.00    -0.136 A  
HETATM   18  C   UNL     1      -9.513  10.457  69.211  1.00  0.00    -0.214 A  
HETATM   19  C   UNL     1     -10.748  11.103  69.137  1.00  0.00    -0.262 A  
ENDBRANCH  13  14
ENDBRANCH  12  13
ENDBRANCH   6   7
ENDBRANCH   5   6
ENDBRANCH   4   5
ENDBRANCH   2   4
TORSDOF 6
ENDMDL
MODEL       58
REMARK 921   NORMALIZED FREE ENERGY PREDICTED BY IDOCK:   -4.61 KCAL/MOL
REMARK 922        TOTAL FREE ENERGY PREDICTED BY IDOCK:   -7.06 KCAL/MOL
REMARK 923 INTER-LIGAND FREE ENERGY PREDICTED BY IDOCK:   -6.31 KCAL/MOL
REMARK 924 INTRA-LIGAND FREE ENERGY PREDICTED BY IDOCK:   -0.75 KCAL/MOL
REMARK 927      BINDING AFFINITY PREDICTED BY RF-SCORE:    0.00 PKD
ROOT
HETATM    1  C   UNL     1     -12.445   6.919  71.156  1.00  0.00    -0.349 C  
HETATM    2  N   UNL     1     -12.629   8.346  71.380  1.00  0.00    -0.300 NA 
HETATM    3  C   UNL     1     -13.824   8.618  72.167  1.00  0.00    -0.429 C  
ENDROOT
BRANCH   2   4
HETATM    4  C   UNL     1     -11.412   9.061  71.808  1.00  0.00    -0.372 C  
BRANCH   4   5
HETATM    5  C   UNL     1     -10.411   9.682  70.792  1.00  0.00    -0.305 C  
BRANCH   5   6
HETATM    6  O   UNL     1     -11.185  10.252  69.716  1.00  0.00    -0.248 OA 
BRANCH   6   7
HETATM    7  C   UNL     1     -10.837  10.070  68.401  1.00  0.00    -0.235 A  
HETATM    8  C   UNL     1     -10.612   8.722  68.076  1.00  0.00    -0.218 A  
HETATM    9  C   UNL     1     -10.113   8.330  66.825  1.00  0.00    -0.373 A  
HETATM   10  C   UNL     1      -9.867   9.288  65.849  1.00  0.00    -0.335 A  
HETATM   11  C   UNL     1     -10.074  10.628  66.155  1.00  0.00    -0.306 A  
HETATM   12  C   UNL     1     -10.499  11.043  67.445  1.00  0.00    -0.255 A  
BRANCH  12  13
HETATM   13  C   UNL     1     -10.337  12.518  67.732  1.00  0.00    -0.224 C  
BRANCH  13  14
HETATM   14  C   UNL     1     -10.924  13.430  66.663  1.00  0.00    -0.297 A  
HETATM   15  C   UNL     1     -10.117  14.412  66.072  1.00  0.00    -0.338 A  
HETATM   16  C   UNL     1     -10.585  15.156  64.985  1.00  0.00    -0.439 A  
HETATM   17  C   UNL     1     -11.866  14.937  64.485  1.00  0.00    -0.404 A  
HETATM   18  C   UNL     1     -12.698  14.005  65.097  1.00  0.00    -0.419 A  
HETATM   19  C   UNL     1     -12.231  13.255  66.177  1.00  0.00    -0.466 A  
ENDBRANCH  13  14
ENDBRANCH  12  13
ENDBRANCH   6   7
ENDBRANCH   5   6
ENDBRANCH   4   5
ENDBRANCH   2   4
TORSDOF 6
ENDMDL
MODEL       59
REMARK 921   NORMALIZED FREE ENERGY PREDICTED BY IDOCK:   -4.61 KCAL/MOL
REMARK 922        TOTAL FREE ENERGY PREDICTED BY IDOCK:   -7.06 KCAL/MOL
REMARK 923 INTER-LIGAND FREE ENERGY PREDICTED BY IDOCK:   -6.24 KCAL/MOL
REMARK 924 INTRA-LIGAND FREE ENERGY PREDICTED BY IDOCK:   -0.82 KCAL/MOL
REMARK 927      BINDING AFFINITY PREDICTED BY RF-SCORE:    0.00 PKD
ROOT
HETATM    1  C   UNL     1     -13.565  13.201  72.107  1.00  0.00    -0.544 C  
HETATM    2  N   UNL     1     -13.298  13.874  70.843  1.00  0.00    -0.148 NA 
HETATM    3  C   UNL     1     -13.379  15.321  70.977  1.00  0.00    -0.474 C  
ENDROOT
BRANCH   2   4
HETATM    4  C   UNL     1     -12.116  13.370  70.119  1.00  0.00    -0.344 C  
BRANCH   4   5
HETATM    5  C   UNL     1     -11.387  14.208  69.031  1.00  0.00    -0.275 C  
BRANCH   5   6
HETATM    6  O   UNL     1     -12.228  14.220  67.859  1.00  0.00    -0.311 OA 
BRANCH   6   7
HETATM    7  C   UNL     1     -11.787  13.747  66.648  1.00  0.00    -0.412 A  
HETATM    8  C   UNL     1     -11.664  12.349  66.620  1.00  0.00    -0.438 A  
HETATM    9  C   UNL     1     -11.098  11.672  65.529  1.00  0.00    -0.297 A  
HETATM   10  C   UNL     1     -10.680  12.388  64.414  1.00  0.00    -0.371 A  
HETATM   11  C   UNL     1     -10.786  13.775  64.427  1.00  0.00    -0.333 A  
HETATM   12  C   UNL     1     -11.278  14.476  65.560  1.00  0.00    -0.335 A  
BRANCH  12  13
HETATM   13  C   UNL     1     -11.003  15.962  65.566  1.00  0.00    -0.248 C  
BRANCH  13  14
HETATM   14  C   UNL     1      -9.985  16.404  66.609  1.00  0.00    -0.281 A  
HETATM   15  C   UNL     1      -8.678  15.899  66.558  1.00  0.00    -0.350 A  
HETATM   16  C   UNL     1      -7.689  16.404  67.407  1.00  0.00    -0.180 A  
HETATM   17  C   UNL     1      -7.996  17.408  68.323  1.00  0.00    -0.253 A  
HETATM   18  C   UNL     1      -9.301  17.878  68.422  1.00  0.00    -0.290 A  
HETATM   19  C   UNL     1     -10.289  17.382  67.571  1.00  0.00    -0.351 A  
ENDBRANCH  13  14
ENDBRANCH  12  13
ENDBRANCH   6   7
ENDBRANCH   5   6
ENDBRANCH   4   5
ENDBRANCH   2   4
TORSDOF 6
ENDMDL
MODEL       60
REMARK 921   NORMALIZED FREE ENERGY PREDICTED BY IDOCK:   -4.60 KCAL/MOL
REMARK 922        TOTAL FREE ENERGY PREDICTED BY IDOCK:   -7.05 KCAL/MOL
REMARK 923 INTER-LIGAND FREE ENERGY PREDICTED BY IDOCK:   -6.29 KCAL/MOL
REMARK 924 INTRA-LIGAND FREE ENERGY PREDICTED BY IDOCK:   -0.76 KCAL/MOL
REMARK 927      BINDING AFFINITY PREDICTED BY RF-SCORE:    0.00 PKD
ROOT
HETATM    1  C   UNL     1     -13.536   9.657  71.996  1.00  0.00    -0.428 C  
HETATM    2  N   UNL     1     -12.168   9.291  71.656  1.00  0.00    -0.346 NA 
HETATM    3  C   UNL     1     -11.983   7.847  71.645  1.00  0.00    -0.294 C  
ENDROOT
BRANCH   2   4
HETATM    4  C   UNL     1     -11.613  10.010  70.493  1.00  0.00    -0.323 C  
BRANCH   4   5
HETATM    5  C   UNL     1     -11.777  11.545  70.307  1.00  0.00    -0.289 C  
BRANCH   5   6
HETATM    6  O   UNL     1     -10.935  11.939  69.204  1.00  0.00    -0.234 OA 
BRANCH   6   7
HETATM    7  C   UNL     1     -11.452  12.524  68.074  1.00  0.00    -0.317 A  
HETATM    8  C   UNL     1     -11.356  11.702  66.940  1.00  0.00    -0.364 A  
HETATM    9  C   UNL     1     -11.696  12.158  65.658  1.00  0.00    -0.385 A  
HETATM   10  C   UNL     1     -12.186  13.448  65.492  1.00  0.00    -0.499 A  
HETATM   11  C   UNL     1     -12.279  14.280  66.602  1.00  0.00    -0.411 A  
HETATM   12  C   UNL     1     -11.858  13.856  67.891  1.00  0.00    -0.413 A  
BRANCH  12  13
HETATM   13  C   UNL     1     -11.684  14.962  68.906  1.00  0.00    -0.343 C  
BRANCH  13  14
HETATM   14  C   UNL     1     -10.475  15.853  68.657  1.00  0.00    -0.240 A  
HETATM   15  C   UNL     1     -10.666  17.185  68.261  1.00  0.00    -0.363 A  
HETATM   16  C   UNL     1      -9.581  18.063  68.176  1.00  0.00    -0.303 A  
HETATM   17  C   UNL     1      -8.295  17.619  68.474  1.00  0.00    -0.291 A  
HETATM   18  C   UNL     1      -8.084  16.287  68.814  1.00  0.00    -0.227 A  
HETATM   19  C   UNL     1      -9.165  15.410  68.907  1.00  0.00    -0.216 A  
ENDBRANCH  13  14
ENDBRANCH  12  13
ENDBRANCH   6   7
ENDBRANCH   5   6
ENDBRANCH   4   5
ENDBRANCH   2   4
TORSDOF 6
ENDMDL
MODEL       61
REMARK 921   NORMALIZED FREE ENERGY PREDICTED BY IDOCK:   -4.60 KCAL/MOL
REMARK 922        TOTAL FREE ENERGY PREDICTED BY IDOCK:   -7.04 KCAL/MOL
REMARK 923 INTER-LIGAND FREE ENERGY PREDICTED BY IDOCK:   -6.43 KCAL/MOL
REMARK 924 INTRA-LIGAND FREE ENERGY PREDICTED BY IDOCK:   -0.61 KCAL/MOL
REMARK 927      BINDING AFFINITY PREDICTED BY RF-SCORE:    0.00 PKD
ROOT
HETATM    1  C   UNL     1      -9.148   9.351  65.103  1.00  0.00    -0.225 C  
HETATM    2  N   UNL     1     -10.116   9.379  66.191  1.00  0.00    -0.284 NA 
HETATM    3  C   UNL     1     -10.245   8.077  66.831  1.00  0.00    -0.315 C  
ENDROOT
BRANCH   2   4
HETATM    4  C   UNL     1      -9.973  10.525  67.110  1.00  0.00    -0.193 C  
BRANCH   4   5
HETATM    5  C   UNL     1     -11.122  11.543  67.356  1.00  0.00    -0.282 C  
BRANCH   5   6
HETATM    6  O   UNL     1     -11.988  10.981  68.364  1.00  0.00    -0.565 OA 
BRANCH   6   7
HETATM    7  C   UNL     1     -12.347  11.688  69.484  1.00  0.00    -0.089 A  
HETATM    8  C   UNL     1     -11.911  13.022  69.451  1.00  0.00    -0.338 A  
HETATM    9  C   UNL     1     -12.051  13.879  70.553  1.00  0.00    -0.426 A  
HETATM   10  C   UNL     1     -12.677  13.424  71.707  1.00  0.00    -0.321 A  
HETATM   11  C   UNL     1     -13.108  12.103  71.761  1.00  0.00    -0.457 A  
HETATM   12  C   UNL     1     -12.896  11.203  70.683  1.00  0.00    -0.271 A  
BRANCH  12  13
HETATM   13  C   UNL     1     -13.088   9.742  71.018  1.00  0.00    -0.363 C  
BRANCH  13  14
HETATM   14  C   UNL     1     -11.822   9.037  71.485  1.00  0.00    -0.415 A  
HETATM   15  C   UNL     1     -10.594   9.350  70.887  1.00  0.00    -0.390 A  
HETATM   16  C   UNL     1      -9.401   8.831  71.399  1.00  0.00    -0.328 A  
HETATM   17  C   UNL     1      -9.422   7.986  72.506  1.00  0.00    -0.297 A  
HETATM   18  C   UNL     1     -10.638   7.622  73.075  1.00  0.00    -0.433 A  
HETATM   19  C   UNL     1     -11.830   8.144  72.570  1.00  0.00    -0.438 A  
ENDBRANCH  13  14
ENDBRANCH  12  13
ENDBRANCH   6   7
ENDBRANCH   5   6
ENDBRANCH   4   5
ENDBRANCH   2   4
TORSDOF 6
ENDMDL
MODEL       62
REMARK 921   NORMALIZED FREE ENERGY PREDICTED BY IDOCK:   -4.60 KCAL/MOL
REMARK 922        TOTAL FREE ENERGY PREDICTED BY IDOCK:   -7.04 KCAL/MOL
REMARK 923 INTER-LIGAND FREE ENERGY PREDICTED BY IDOCK:   -6.38 KCAL/MOL
REMARK 924 INTRA-LIGAND FREE ENERGY PREDICTED BY IDOCK:   -0.66 KCAL/MOL
REMARK 927      BINDING AFFINITY PREDICTED BY RF-SCORE:    0.00 PKD
ROOT
HETATM    1  C   UNL     1     -12.380  15.399  73.943  1.00  0.00    -0.635 C  
HETATM    2  N   UNL     1     -12.716  14.929  72.606  1.00  0.00    -0.354 NA 
HETATM    3  C   UNL     1     -14.088  15.259  72.248  1.00  0.00    -0.554 C  
ENDROOT
BRANCH   2   4
HETATM    4  C   UNL     1     -11.702  15.231  71.578  1.00  0.00    -0.391 C  
BRANCH   4   5
HETATM    5  C   UNL     1     -12.078  15.811  70.185  1.00  0.00    -0.333 C  
BRANCH   5   6
HETATM    6  O   UNL     1     -10.865  15.881  69.405  1.00  0.00    -0.243 OA 
BRANCH   6   7
HETATM    7  C   UNL     1     -10.860  15.635  68.055  1.00  0.00    -0.308 A  
HETATM    8  C   UNL     1     -10.817  14.266  67.748  1.00  0.00    -0.259 A  
HETATM    9  C   UNL     1     -10.664  13.801  66.434  1.00  0.00    -0.281 A  
HETATM   10  C   UNL     1     -10.596  14.708  65.384  1.00  0.00    -0.390 A  
HETATM   11  C   UNL     1     -10.628  16.068  65.668  1.00  0.00    -0.392 A  
HETATM   12  C   UNL     1     -10.696  16.552  67.002  1.00  0.00    -0.191 A  
BRANCH  12  13
HETATM   13  C   UNL     1     -10.366  18.016  67.174  1.00  0.00    -0.382 C  
BRANCH  13  14
HETATM   14  C   UNL     1      -8.928  18.287  67.594  1.00  0.00    -0.271 A  
HETATM   15  C   UNL     1      -8.632  19.424  68.358  1.00  0.00    -0.397 A  
HETATM   16  C   UNL     1      -7.350  19.613  68.883  1.00  0.00    -0.373 A  
HETATM   17  C   UNL     1      -6.348  18.676  68.642  1.00  0.00    -0.234 A  
HETATM   18  C   UNL     1      -6.613  17.571  67.839  1.00  0.00    -0.179 A  
HETATM   19  C   UNL     1      -7.893  17.376  67.319  1.00  0.00    -0.218 A  
ENDBRANCH  13  14
ENDBRANCH  12  13
ENDBRANCH   6   7
ENDBRANCH   5   6
ENDBRANCH   4   5
ENDBRANCH   2   4
TORSDOF 6
ENDMDL
MODEL       63
REMARK 921   NORMALIZED FREE ENERGY PREDICTED BY IDOCK:   -4.59 KCAL/MOL
REMARK 922        TOTAL FREE ENERGY PREDICTED BY IDOCK:   -7.04 KCAL/MOL
REMARK 923 INTER-LIGAND FREE ENERGY PREDICTED BY IDOCK:   -6.18 KCAL/MOL
REMARK 924 INTRA-LIGAND FREE ENERGY PREDICTED BY IDOCK:   -0.85 KCAL/MOL
REMARK 927      BINDING AFFINITY PREDICTED BY RF-SCORE:    0.00 PKD
ROOT
HETATM    1  C   UNL     1      -6.026  15.431  69.907  1.00  0.00    -0.146 C  
HETATM    2  N   UNL     1      -6.626  16.409  69.010  1.00  0.00    -0.168 NA 
HETATM    3  C   UNL     1      -6.337  17.773  69.429  1.00  0.00    -0.239 C  
ENDROOT
BRANCH   2   4
HETATM    4  C   UNL     1      -6.424  16.131  67.575  1.00  0.00    -0.172 C  
BRANCH   4   5
HETATM    5  C   UNL     1      -6.403  17.257  66.504  1.00  0.00    -0.227 C  
BRANCH   5   6
HETATM    6  O   UNL     1      -7.666  17.215  65.807  1.00  0.00    -0.421 OA 
BRANCH   6   7
HETATM    7  C   UNL     1      -8.773  17.874  66.280  1.00  0.00    -0.169 A  
HETATM    8  C   UNL     1      -8.642  19.271  66.227  1.00  0.00    -0.335 A  
HETATM    9  C   UNL     1      -9.598  20.131  66.787  1.00  0.00    -0.559 A  
HETATM   10  C   UNL     1     -10.739  19.603  67.379  1.00  0.00    -0.563 A  
HETATM   11  C   UNL     1     -10.883  18.222  67.449  1.00  0.00    -0.281 A  
HETATM   12  C   UNL     1      -9.881  17.341  66.960  1.00  0.00    -0.281 A  
BRANCH  12  13
HETATM   13  C   UNL     1     -10.007  15.907  67.419  1.00  0.00    -0.239 C  
BRANCH  13  14
HETATM   14  C   UNL     1     -10.731  14.998  66.435  1.00  0.00    -0.322 A  
HETATM   15  C   UNL     1     -11.198  13.747  66.863  1.00  0.00    -0.326 A  
HETATM   16  C   UNL     1     -11.996  12.962  66.025  1.00  0.00    -0.505 A  
HETATM   17  C   UNL     1     -12.326  13.412  64.749  1.00  0.00    -0.444 A  
HETATM   18  C   UNL     1     -11.823  14.625  64.291  1.00  0.00    -0.355 A  
HETATM   19  C   UNL     1     -11.032  15.414  65.128  1.00  0.00    -0.430 A  
ENDBRANCH  13  14
ENDBRANCH  12  13
ENDBRANCH   6   7
ENDBRANCH   5   6
ENDBRANCH   4   5
ENDBRANCH   2   4
TORSDOF 6
ENDMDL
MODEL       64
REMARK 921   NORMALIZED FREE ENERGY PREDICTED BY IDOCK:   -4.58 KCAL/MOL
REMARK 922        TOTAL FREE ENERGY PREDICTED BY IDOCK:   -7.03 KCAL/MOL
REMARK 923 INTER-LIGAND FREE ENERGY PREDICTED BY IDOCK:   -6.23 KCAL/MOL
REMARK 924 INTRA-LIGAND FREE ENERGY PREDICTED BY IDOCK:   -0.80 KCAL/MOL
REMARK 927      BINDING AFFINITY PREDICTED BY RF-SCORE:    0.00 PKD
ROOT
HETATM    1  C   UNL     1     -10.969   6.181  66.860  1.00  0.00    -0.305 C  
HETATM    2  N   UNL     1     -10.905   7.083  68.002  1.00  0.00    -0.191 NA 
HETATM    3  C   UNL     1     -10.803   6.354  69.258  1.00  0.00    -0.327 C  
ENDROOT
BRANCH   2   4
HETATM    4  C   UNL     1      -9.963   8.207  67.843  1.00  0.00    -0.182 C  
BRANCH   4   5
HETATM    5  C   UNL     1     -10.394   9.576  67.244  1.00  0.00    -0.255 C  
BRANCH   5   6
HETATM    6  O   UNL     1      -9.784  10.609  68.046  1.00  0.00    -0.153 OA 
BRANCH   6   7
HETATM    7  C   UNL     1     -10.534  11.461  68.818  1.00  0.00    -0.204 A  
HETATM    8  C   UNL     1     -11.272  10.794  69.809  1.00  0.00    -0.365 A  
HETATM    9  C   UNL     1     -12.208  11.459  70.615  1.00  0.00    -0.484 A  
HETATM   10  C   UNL     1     -12.393  12.828  70.473  1.00  0.00    -0.355 A  
HETATM   11  C   UNL     1     -11.678  13.504  69.491  1.00  0.00    -0.382 A  
HETATM   12  C   UNL     1     -10.790  12.827  68.612  1.00  0.00    -0.284 A  
BRANCH  12  13
HETATM   13  C   UNL     1     -10.369  13.613  67.393  1.00  0.00    -0.244 C  
BRANCH  13  14
HETATM   14  C   UNL     1     -10.982  13.118  66.089  1.00  0.00    -0.299 A  
HETATM   15  C   UNL     1     -12.354  13.291  65.860  1.00  0.00    -0.479 A  
HETATM   16  C   UNL     1     -12.910  12.986  64.614  1.00  0.00    -0.279 A  
HETATM   17  C   UNL     1     -12.105  12.494  63.589  1.00  0.00    -0.642 A  
HETATM   18  C   UNL     1     -10.752  12.265  63.820  1.00  0.00    -0.494 A  
HETATM   19  C   UNL     1     -10.193  12.576  65.060  1.00  0.00    -0.301 A  
ENDBRANCH  13  14
ENDBRANCH  12  13
ENDBRANCH   6   7
ENDBRANCH   5   6
ENDBRANCH   4   5
ENDBRANCH   2   4
TORSDOF 6
ENDMDL
MODEL       65
REMARK 921   NORMALIZED FREE ENERGY PREDICTED BY IDOCK:   -4.58 KCAL/MOL
REMARK 922        TOTAL FREE ENERGY PREDICTED BY IDOCK:   -7.02 KCAL/MOL
REMARK 923 INTER-LIGAND FREE ENERGY PREDICTED BY IDOCK:   -6.01 KCAL/MOL
REMARK 924 INTRA-LIGAND FREE ENERGY PREDICTED BY IDOCK:   -1.02 KCAL/MOL
REMARK 927      BINDING AFFINITY PREDICTED BY RF-SCORE:    0.00 PKD
ROOT
HETATM    1  C   UNL     1     -12.844  11.935  63.509  1.00  0.00    -0.305 C  
HETATM    2  N   UNL     1     -11.751  12.897  63.463  1.00  0.00    -0.514 NA 
HETATM    3  C   UNL     1     -12.063  14.104  64.215  1.00  0.00    -0.444 C  
ENDROOT
BRANCH   2   4
HETATM    4  C   UNL     1     -10.416  12.320  63.715  1.00  0.00    -0.444 C  
BRANCH   4   5
HETATM    5  C   UNL     1     -10.223  10.925  64.374  1.00  0.00    -0.358 C  
BRANCH   5   6
HETATM    6  O   UNL     1     -10.447  11.082  65.790  1.00  0.00    -0.249 OA 
BRANCH   6   7
HETATM    7  C   UNL     1      -9.627  11.859  66.570  1.00  0.00    -0.214 A  
HETATM    8  C   UNL     1      -8.321  11.351  66.665  1.00  0.00    -0.172 A  
HETATM    9  C   UNL     1      -7.364  11.914  67.522  1.00  0.00    -0.132 A  
HETATM   10  C   UNL     1      -7.685  13.035  68.276  1.00  0.00    -0.141 A  
HETATM   11  C   UNL     1      -8.976  13.547  68.201  1.00  0.00    -0.187 A  
HETATM   12  C   UNL     1      -9.978  12.935  67.402  1.00  0.00    -0.217 A  
BRANCH  12  13
HETATM   13  C   UNL     1     -11.393  13.378  67.694  1.00  0.00    -0.321 C  
BRANCH  13  14
HETATM   14  C   UNL     1     -11.943  12.872  69.021  1.00  0.00    -0.297 A  
HETATM   15  C   UNL     1     -12.009  11.493  69.263  1.00  0.00    -0.397 A  
HETATM   16  C   UNL     1     -12.365  11.009  70.526  1.00  0.00    -0.462 A  
HETATM   17  C   UNL     1     -12.671  11.896  71.555  1.00  0.00    -0.379 A  
HETATM   18  C   UNL     1     -12.664  13.266  71.314  1.00  0.00    -0.411 A  
HETATM   19  C   UNL     1     -12.302  13.752  70.056  1.00  0.00    -0.364 A  
ENDBRANCH  13  14
ENDBRANCH  12  13
ENDBRANCH   6   7
ENDBRANCH   5   6
ENDBRANCH   4   5
ENDBRANCH   2   4
TORSDOF 6
ENDMDL
MODEL       66
REMARK 921   NORMALIZED FREE ENERGY PREDICTED BY IDOCK:   -4.57 KCAL/MOL
REMARK 922        TOTAL FREE ENERGY PREDICTED BY IDOCK:   -7.02 KCAL/MOL
REMARK 923 INTER-LIGAND FREE ENERGY PREDICTED BY IDOCK:   -6.28 KCAL/MOL
REMARK 924 INTRA-LIGAND FREE ENERGY PREDICTED BY IDOCK:   -0.73 KCAL/MOL
REMARK 927      BINDING AFFINITY PREDICTED BY RF-SCORE:    0.00 PKD
ROOT
HETATM    1  C   UNL     1     -13.275  11.111  71.908  1.00  0.00    -0.382 C  
HETATM    2  N   UNL     1     -12.980   9.708  72.169  1.00  0.00    -0.411 NA 
HETATM    3  C   UNL     1     -14.055   8.839  71.711  1.00  0.00    -0.401 C  
ENDROOT
BRANCH   2   4
HETATM    4  C   UNL     1     -11.619   9.287  71.788  1.00  0.00    -0.388 C  
BRANCH   4   5
HETATM    5  C   UNL     1     -10.832   9.963  70.629  1.00  0.00    -0.330 C  
BRANCH   5   6
HETATM    6  O   UNL     1      -9.934   8.975  70.083  1.00  0.00    -0.173 OA 
BRANCH   6   7
HETATM    7  C   UNL     1     -10.272   8.216  68.990  1.00  0.00    -0.220 A  
HETATM    8  C   UNL     1     -10.697   6.923  69.333  1.00  0.00    -0.275 A  
HETATM    9  C   UNL     1     -10.956   5.942  68.364  1.00  0.00    -0.264 A  
HETATM   10  C   UNL     1     -10.836   6.255  67.016  1.00  0.00    -0.458 A  
HETATM   11  C   UNL     1     -10.408   7.528  66.657  1.00  0.00    -0.252 A  
HETATM   12  C   UNL     1     -10.061   8.502  67.631  1.00  0.00    -0.271 A  
BRANCH  12  13
HETATM   13  C   UNL     1      -9.287   9.689  67.106  1.00  0.00    -0.168 C  
BRANCH  13  14
HETATM   14  C   UNL     1     -10.142  10.724  66.388  1.00  0.00    -0.278 A  
HETATM   15  C   UNL     1     -10.137  10.775  64.987  1.00  0.00    -0.377 A  
HETATM   16  C   UNL     1     -11.025  11.610  64.303  1.00  0.00    -0.418 A  
HETATM   17  C   UNL     1     -11.919  12.411  65.010  1.00  0.00    -0.458 A  
HETATM   18  C   UNL     1     -11.897  12.412  66.401  1.00  0.00    -0.421 A  
HETATM   19  C   UNL     1     -11.016  11.574  67.086  1.00  0.00    -0.338 A  
ENDBRANCH  13  14
ENDBRANCH  12  13
ENDBRANCH   6   7
ENDBRANCH   5   6
ENDBRANCH   4   5
ENDBRANCH   2   4
TORSDOF 6
ENDMDL
MODEL       67
REMARK 921   NORMALIZED FREE ENERGY PREDICTED BY IDOCK:   -4.57 KCAL/MOL
REMARK 922        TOTAL FREE ENERGY PREDICTED BY IDOCK:   -7.01 KCAL/MOL
REMARK 923 INTER-LIGAND FREE ENERGY PREDICTED BY IDOCK:   -7.14 KCAL/MOL
REMARK 924 INTRA-LIGAND FREE ENERGY PREDICTED BY IDOCK:    0.13 KCAL/MOL
REMARK 927      BINDING AFFINITY PREDICTED BY RF-SCORE:    0.00 PKD
ROOT
HETATM    1  C   UNL     1      -8.692  18.428  68.261  1.00  0.00    -0.302 C  
HETATM    2  N   UNL     1      -9.740  17.488  67.887  1.00  0.00    -0.270 NA 
HETATM    3  C   UNL     1      -9.302  16.584  66.834  1.00  0.00    -0.232 C  
ENDROOT
BRANCH   2   4
HETATM    4  C   UNL     1     -10.424  16.849  69.027  1.00  0.00    -0.341 C  
BRANCH   4   5
HETATM    5  C   UNL     1     -10.151  15.376  69.442  1.00  0.00    -0.269 C  
BRANCH   5   6
HETATM    6  O   UNL     1     -11.372  14.636  69.238  1.00  0.00    -0.257 OA 
BRANCH   6   7
HETATM    7  C   UNL     1     -12.152  14.224  70.289  1.00  0.00    -0.335 A  
HETATM    8  C   UNL     1     -12.461  15.264  71.181  1.00  0.00    -0.438 A  
HETATM    9  C   UNL     1     -13.129  15.032  72.393  1.00  0.00    -0.462 A  
HETATM   10  C   UNL     1     -13.543  13.747  72.719  1.00  0.00    -0.460 A  
HETATM   11  C   UNL     1     -13.238  12.703  71.853  1.00  0.00    -0.504 A  
HETATM   12  C   UNL     1     -12.489  12.912  70.664  1.00  0.00    -0.333 A  
BRANCH  12  13
HETATM   13  C   UNL     1     -11.936  11.660  70.023  1.00  0.00    -0.429 C  
BRANCH  13  14
HETATM   14  C   UNL     1     -12.012  10.421  70.905  1.00  0.00    -0.478 A  
HETATM   15  C   UNL     1     -13.264   9.906  71.269  1.00  0.00    -0.465 A  
HETATM   16  C   UNL     1     -13.361   8.687  71.947  1.00  0.00    -0.418 A  
HETATM   17  C   UNL     1     -12.210   7.977  72.280  1.00  0.00    -0.366 A  
HETATM   18  C   UNL     1     -10.959   8.504  71.975  1.00  0.00    -0.410 A  
HETATM   19  C   UNL     1     -10.860   9.716  71.291  1.00  0.00    -0.366 A  
ENDBRANCH  13  14
ENDBRANCH  12  13
ENDBRANCH   6   7
ENDBRANCH   5   6
ENDBRANCH   4   5
ENDBRANCH   2   4
TORSDOF 6
ENDMDL
MODEL       68
REMARK 921   NORMALIZED FREE ENERGY PREDICTED BY IDOCK:   -4.56 KCAL/MOL
REMARK 922        TOTAL FREE ENERGY PREDICTED BY IDOCK:   -6.99 KCAL/MOL
REMARK 923 INTER-LIGAND FREE ENERGY PREDICTED BY IDOCK:   -6.23 KCAL/MOL
REMARK 924 INTRA-LIGAND FREE ENERGY PREDICTED BY IDOCK:   -0.77 KCAL/MOL
REMARK 927      BINDING AFFINITY PREDICTED BY RF-SCORE:    0.00 PKD
ROOT
HETATM    1  C   UNL     1     -10.141   9.153  66.514  1.00  0.00    -0.287 C  
HETATM    2  N   UNL     1     -10.197   9.887  67.771  1.00  0.00    -0.184 NA 
HETATM    3  C   UNL     1      -8.875  10.315  68.205  1.00  0.00    -0.126 C  
ENDROOT
BRANCH   2   4
HETATM    4  C   UNL     1     -11.249  10.920  67.831  1.00  0.00    -0.321 C  
BRANCH   4   5
HETATM    5  C   UNL     1     -12.112  11.157  69.103  1.00  0.00    -0.283 C  
BRANCH   5   6
HETATM    6  O   UNL     1     -11.452  12.170  69.890  1.00  0.00    -0.236 OA 
BRANCH   6   7
HETATM    7  C   UNL     1     -12.148  13.198  70.475  1.00  0.00    -0.306 A  
HETATM    8  C   UNL     1     -12.936  12.778  71.558  1.00  0.00    -0.388 A  
HETATM    9  C   UNL     1     -13.832  13.642  72.207  1.00  0.00    -0.689 A  
HETATM   10  C   UNL     1     -13.923  14.969  71.807  1.00  0.00    -0.598 A  
HETATM   11  C   UNL     1     -13.156  15.401  70.731  1.00  0.00    -0.479 A  
HETATM   12  C   UNL     1     -12.310  14.515  70.012  1.00  0.00    -0.376 A  
BRANCH  12  13
HETATM   13  C   UNL     1     -11.827  15.028  68.676  1.00  0.00    -0.325 C  
BRANCH  13  14
HETATM   14  C   UNL     1     -10.592  15.916  68.757  1.00  0.00    -0.245 A  
HETATM   15  C   UNL     1      -9.341  15.340  69.017  1.00  0.00    -0.231 A  
HETATM   16  C   UNL     1      -8.176  16.109  68.945  1.00  0.00    -0.229 A  
HETATM   17  C   UNL     1      -8.248  17.462  68.625  1.00  0.00    -0.264 A  
HETATM   18  C   UNL     1      -9.487  18.060  68.419  1.00  0.00    -0.314 A  
HETATM   19  C   UNL     1     -10.652  17.293  68.483  1.00  0.00    -0.350 A  
ENDBRANCH  13  14
ENDBRANCH  12  13
ENDBRANCH   6   7
ENDBRANCH   5   6
ENDBRANCH   4   5
ENDBRANCH   2   4
TORSDOF 6
ENDMDL
MODEL       69
REMARK 921   NORMALIZED FREE ENERGY PREDICTED BY IDOCK:   -4.56 KCAL/MOL
REMARK 922        TOTAL FREE ENERGY PREDICTED BY IDOCK:   -6.99 KCAL/MOL
REMARK 923 INTER-LIGAND FREE ENERGY PREDICTED BY IDOCK:   -6.27 KCAL/MOL
REMARK 924 INTRA-LIGAND FREE ENERGY PREDICTED BY IDOCK:   -0.72 KCAL/MOL
REMARK 927      BINDING AFFINITY PREDICTED BY RF-SCORE:    0.00 PKD
ROOT
HETATM    1  C   UNL     1      -8.020  15.211  67.314  1.00  0.00    -0.205 C  
HETATM    2  N   UNL     1      -8.909  16.364  67.259  1.00  0.00    -0.185 NA 
HETATM    3  C   UNL     1      -8.369  17.420  66.414  1.00  0.00    -0.267 C  
ENDROOT
BRANCH   2   4
HETATM    4  C   UNL     1     -10.328  16.033  67.031  1.00  0.00    -0.292 C  
BRANCH   4   5
HETATM    5  C   UNL     1     -11.293  15.658  68.192  1.00  0.00    -0.340 C  
BRANCH   5   6
HETATM    6  O   UNL     1     -12.216  14.672  67.686  1.00  0.00    -0.268 OA 
BRANCH   6   7
HETATM    7  C   UNL     1     -11.811  13.669  66.841  1.00  0.00    -0.411 A  
HETATM    8  C   UNL     1     -12.587  13.590  65.674  1.00  0.00    -0.512 A  
HETATM    9  C   UNL     1     -12.431  12.551  64.744  1.00  0.00    -0.532 A  
HETATM   10  C   UNL     1     -11.454  11.585  64.946  1.00  0.00    -0.123 A  
HETATM   11  C   UNL     1     -10.681  11.641  66.101  1.00  0.00    -0.325 A  
HETATM   12  C   UNL     1     -10.887  12.640  67.090  1.00  0.00    -0.282 A  
BRANCH  12  13
HETATM   13  C   UNL     1     -10.233  12.368  68.424  1.00  0.00    -0.227 C  
BRANCH  13  14
HETATM   14  C   UNL     1     -11.111  11.603  69.405  1.00  0.00    -0.268 A  
HETATM   15  C   UNL     1     -10.913  10.227  69.585  1.00  0.00    -0.314 A  
HETATM   16  C   UNL     1     -11.600   9.535  70.587  1.00  0.00    -0.350 A  
HETATM   17  C   UNL     1     -12.500  10.206  71.412  1.00  0.00    -0.524 A  
HETATM   18  C   UNL     1     -12.748  11.560  71.209  1.00  0.00    -0.469 A  
HETATM   19  C   UNL     1     -12.058  12.255  70.214  1.00  0.00    -0.376 A  
ENDBRANCH  13  14
ENDBRANCH  12  13
ENDBRANCH   6   7
ENDBRANCH   5   6
ENDBRANCH   4   5
ENDBRANCH   2   4
TORSDOF 6
ENDMDL
MODEL       70
REMARK 921   NORMALIZED FREE ENERGY PREDICTED BY IDOCK:   -4.56 KCAL/MOL
REMARK 922        TOTAL FREE ENERGY PREDICTED BY IDOCK:   -6.99 KCAL/MOL
REMARK 923 INTER-LIGAND FREE ENERGY PREDICTED BY IDOCK:   -6.20 KCAL/MOL
REMARK 924 INTRA-LIGAND FREE ENERGY PREDICTED BY IDOCK:   -0.79 KCAL/MOL
REMARK 927      BINDING AFFINITY PREDICTED BY RF-SCORE:    0.00 PKD
ROOT
HETATM    1  C   UNL     1      -6.179  12.251  67.225  1.00  0.00    -0.152 C  
HETATM    2  N   UNL     1      -6.919  12.970  68.253  1.00  0.00    -0.089 NA 
HETATM    3  C   UNL     1      -6.123  13.156  69.458  1.00  0.00    -0.114 C  
ENDROOT
BRANCH   2   4
HETATM    4  C   UNL     1      -7.630  14.169  67.771  1.00  0.00    -0.166 C  
BRANCH   4   5
HETATM    5  C   UNL     1      -9.100  14.482  68.169  1.00  0.00    -0.191 C  
BRANCH   5   6
HETATM    6  O   UNL     1      -9.897  13.333  67.814  1.00  0.00    -0.212 OA 
BRANCH   6   7
HETATM    7  C   UNL     1     -10.538  12.577  68.763  1.00  0.00    -0.175 A  
HETATM    8  C   UNL     1     -10.152  11.227  68.737  1.00  0.00    -0.204 A  
HETATM    9  C   UNL     1     -10.785  10.256  69.528  1.00  0.00    -0.280 A  
HETATM   10  C   UNL     1     -11.798  10.630  70.402  1.00  0.00    -0.441 A  
HETATM   11  C   UNL     1     -12.200  11.961  70.434  1.00  0.00    -0.399 A  
HETATM   12  C   UNL     1     -11.625  12.937  69.578  1.00  0.00    -0.348 A  
BRANCH  12  13
HETATM   13  C   UNL     1     -12.393  14.233  69.472  1.00  0.00    -0.272 C  
BRANCH  13  14
HETATM   14  C   UNL     1     -12.592  14.951  70.800  1.00  0.00    -0.414 A  
HETATM   15  C   UNL     1     -13.870  15.004  71.374  1.00  0.00    -0.560 A  
HETATM   16  C   UNL     1     -14.050  15.521  72.660  1.00  0.00    -0.536 A  
HETATM   17  C   UNL     1     -12.960  16.001  73.382  1.00  0.00    -0.676 A  
HETATM   18  C   UNL     1     -11.695  16.006  72.803  1.00  0.00    -0.481 A  
HETATM   19  C   UNL     1     -11.511  15.484  71.522  1.00  0.00    -0.489 A  
ENDBRANCH  13  14
ENDBRANCH  12  13
ENDBRANCH   6   7
ENDBRANCH   5   6
ENDBRANCH   4   5
ENDBRANCH   2   4
TORSDOF 6
ENDMDL
MODEL       71
REMARK 921   NORMALIZED FREE ENERGY PREDICTED BY IDOCK:   -4.55 KCAL/MOL
REMARK 922        TOTAL FREE ENERGY PREDICTED BY IDOCK:   -6.98 KCAL/MOL
REMARK 923 INTER-LIGAND FREE ENERGY PREDICTED BY IDOCK:   -6.31 KCAL/MOL
REMARK 924 INTRA-LIGAND FREE ENERGY PREDICTED BY IDOCK:   -0.66 KCAL/MOL
REMARK 927      BINDING AFFINITY PREDICTED BY RF-SCORE:    0.00 PKD
ROOT
HETATM    1  C   UNL     1      -8.463  10.483  65.441  1.00  0.00    -0.170 C  
HETATM    2  N   UNL     1      -9.768  10.218  66.032  1.00  0.00    -0.204 NA 
HETATM    3  C   UNL     1      -9.763   8.994  66.820  1.00  0.00    -0.216 C  
ENDROOT
BRANCH   2   4
HETATM    4  C   UNL     1     -10.396  11.385  66.679  1.00  0.00    -0.233 C  
BRANCH   4   5
HETATM    5  C   UNL     1      -9.873  12.835  66.470  1.00  0.00    -0.258 C  
BRANCH   5   6
HETATM    6  O   UNL     1     -10.106  13.559  67.695  1.00  0.00    -0.223 OA 
BRANCH   6   7
HETATM    7  C   UNL     1     -10.382  14.904  67.698  1.00  0.00    -0.242 A  
HETATM    8  C   UNL     1     -10.281  15.485  66.424  1.00  0.00    -0.300 A  
HETATM    9  C   UNL     1     -10.386  16.870  66.227  1.00  0.00    -0.312 A  
HETATM   10  C   UNL     1     -10.639  17.705  67.308  1.00  0.00    -0.297 A  
HETATM   11  C   UNL     1     -10.732  17.149  68.579  1.00  0.00    -0.326 A  
HETATM   12  C   UNL     1     -10.544  15.758  68.802  1.00  0.00    -0.239 A  
BRANCH  12  13
HETATM   13  C   UNL     1     -10.321  15.363  70.243  1.00  0.00    -0.205 C  
BRANCH  13  14
HETATM   14  C   UNL     1     -11.598  15.262  71.067  1.00  0.00    -0.399 A  
HETATM   15  C   UNL     1     -11.563  15.559  72.437  1.00  0.00    -0.543 A  
HETATM   16  C   UNL     1     -12.745  15.622  73.180  1.00  0.00    -0.599 A  
HETATM   17  C   UNL     1     -13.972  15.378  72.568  1.00  0.00    -0.640 A  
HETATM   18  C   UNL     1     -14.017  15.028  71.223  1.00  0.00    -0.525 A  
HETATM   19  C   UNL     1     -12.839  14.971  70.476  1.00  0.00    -0.380 A  
ENDBRANCH  13  14
ENDBRANCH  12  13
ENDBRANCH   6   7
ENDBRANCH   5   6
ENDBRANCH   4   5
ENDBRANCH   2   4
TORSDOF 6
ENDMDL
MODEL       72
REMARK 921   NORMALIZED FREE ENERGY PREDICTED BY IDOCK:   -4.53 KCAL/MOL
REMARK 922        TOTAL FREE ENERGY PREDICTED BY IDOCK:   -6.96 KCAL/MOL
REMARK 923 INTER-LIGAND FREE ENERGY PREDICTED BY IDOCK:   -6.16 KCAL/MOL
REMARK 924 INTRA-LIGAND FREE ENERGY PREDICTED BY IDOCK:   -0.80 KCAL/MOL
REMARK 927      BINDING AFFINITY PREDICTED BY RF-SCORE:    0.00 PKD
ROOT
HETATM    1  C   UNL     1     -13.732  13.121  72.446  1.00  0.00    -0.540 C  
HETATM    2  N   UNL     1     -13.493  13.995  71.306  1.00  0.00    -0.285 NA 
HETATM    3  C   UNL     1     -13.838  15.377  71.606  1.00  0.00    -0.508 C  
ENDROOT
BRANCH   2   4
HETATM    4  C   UNL     1     -12.190  13.796  70.643  1.00  0.00    -0.363 C  
BRANCH   4   5
HETATM    5  C   UNL     1     -11.518  14.900  69.780  1.00  0.00    -0.295 C  
BRANCH   5   6
HETATM    6  O   UNL     1     -11.162  14.303  68.515  1.00  0.00    -0.243 OA 
BRANCH   6   7
HETATM    7  C   UNL     1      -9.959  14.562  67.908  1.00  0.00    -0.226 A  
HETATM    8  C   UNL     1      -8.877  13.938  68.550  1.00  0.00    -0.137 A  
HETATM    9  C   UNL     1      -7.547  14.183  68.176  1.00  0.00    -0.136 A  
HETATM   10  C   UNL     1      -7.274  15.033  67.112  1.00  0.00    -0.051 A  
HETATM   11  C   UNL     1      -8.332  15.666  66.469  1.00  0.00    -0.276 A  
HETATM   12  C   UNL     1      -9.676  15.492  66.893  1.00  0.00    -0.243 A  
BRANCH  12  13
HETATM   13  C   UNL     1     -10.660  16.500  66.345  1.00  0.00    -0.221 C  
BRANCH  13  14
HETATM   14  C   UNL     1     -10.456  17.917  66.866  1.00  0.00    -0.334 A  
HETATM   15  C   UNL     1     -10.045  18.115  68.191  1.00  0.00    -0.388 A  
HETATM   16  C   UNL     1      -9.705  19.393  68.646  1.00  0.00    -0.504 A  
HETATM   17  C   UNL     1      -9.783  20.486  67.787  1.00  0.00    -0.433 A  
HETATM   18  C   UNL     1     -10.243  20.313  66.485  1.00  0.00    -0.477 A  
HETATM   19  C   UNL     1     -10.576  19.037  66.026  1.00  0.00    -0.499 A  
ENDBRANCH  13  14
ENDBRANCH  12  13
ENDBRANCH   6   7
ENDBRANCH   5   6
ENDBRANCH   4   5
ENDBRANCH   2   4
TORSDOF 6
ENDMDL
MODEL       73
REMARK 921   NORMALIZED FREE ENERGY PREDICTED BY IDOCK:   -4.53 KCAL/MOL
REMARK 922        TOTAL FREE ENERGY PREDICTED BY IDOCK:   -6.95 KCAL/MOL
REMARK 923 INTER-LIGAND FREE ENERGY PREDICTED BY IDOCK:   -6.47 KCAL/MOL
REMARK 924 INTRA-LIGAND FREE ENERGY PREDICTED BY IDOCK:   -0.48 KCAL/MOL
REMARK 927      BINDING AFFINITY PREDICTED BY RF-SCORE:    0.00 PKD
ROOT
HETATM    1  C   UNL     1     -10.661   7.696  69.468  1.00  0.00    -0.227 C  
HETATM    2  N   UNL     1     -10.402   7.620  68.037  1.00  0.00    -0.201 NA 
HETATM    3  C   UNL     1     -11.021   6.445  67.440  1.00  0.00    -0.376 C  
ENDROOT
BRANCH   2   4
HETATM    4  C   UNL     1     -10.609   8.886  67.308  1.00  0.00    -0.234 C  
BRANCH   4   5
HETATM    5  C   UNL     1     -10.577  10.269  68.017  1.00  0.00    -0.231 C  
BRANCH   5   6
HETATM    6  O   UNL     1     -10.071  11.230  67.067  1.00  0.00    -0.197 OA 
BRANCH   6   7
HETATM    7  C   UNL     1     -10.815  11.638  65.987  1.00  0.00    -0.289 A  
HETATM    8  C   UNL     1     -10.265  11.232  64.761  1.00  0.00    -0.347 A  
HETATM    9  C   UNL     1     -10.789  11.660  63.532  1.00  0.00    -0.497 A  
HETATM   10  C   UNL     1     -11.913  12.477  63.507  1.00  0.00    -0.629 A  
HETATM   11  C   UNL     1     -12.465  12.897  64.711  1.00  0.00    -0.517 A  
HETATM   12  C   UNL     1     -11.893  12.539  65.961  1.00  0.00    -0.478 A  
BRANCH  12  13
HETATM   13  C   UNL     1     -12.375  13.345  67.144  1.00  0.00    -0.198 C  
BRANCH  13  14
HETATM   14  C   UNL     1     -11.557  14.599  67.420  1.00  0.00    -0.408 A  
HETATM   15  C   UNL     1     -10.826  15.192  66.381  1.00  0.00    -0.326 A  
HETATM   16  C   UNL     1     -10.193  16.424  66.570  1.00  0.00    -0.310 A  
HETATM   17  C   UNL     1     -10.274  17.072  67.801  1.00  0.00    -0.312 A  
HETATM   18  C   UNL     1     -10.950  16.469  68.857  1.00  0.00    -0.325 A  
HETATM   19  C   UNL     1     -11.589  15.243  68.669  1.00  0.00    -0.370 A  
ENDBRANCH  13  14
ENDBRANCH  12  13
ENDBRANCH   6   7
ENDBRANCH   5   6
ENDBRANCH   4   5
ENDBRANCH   2   4
TORSDOF 6
ENDMDL
MODEL       74
REMARK 921   NORMALIZED FREE ENERGY PREDICTED BY IDOCK:   -4.52 KCAL/MOL
REMARK 922        TOTAL FREE ENERGY PREDICTED BY IDOCK:   -6.94 KCAL/MOL
REMARK 923 INTER-LIGAND FREE ENERGY PREDICTED BY IDOCK:   -6.11 KCAL/MOL
REMARK 924 INTRA-LIGAND FREE ENERGY PREDICTED BY IDOCK:   -0.83 KCAL/MOL
REMARK 927      BINDING AFFINITY PREDICTED BY RF-SCORE:    0.00 PKD
ROOT
HETATM    1  C   UNL     1     -11.517  15.853  70.229  1.00  0.00    -0.366 C  
HETATM    2  N   UNL     1     -11.328  16.179  68.822  1.00  0.00    -0.362 NA 
HETATM    3  C   UNL     1     -10.390  17.279  68.646  1.00  0.00    -0.357 C  
ENDROOT
BRANCH   2   4
HETATM    4  C   UNL     1     -11.109  15.013  67.946  1.00  0.00    -0.307 C  
BRANCH   4   5
HETATM    5  C   UNL     1     -12.267  14.073  67.506  1.00  0.00    -0.223 C  
BRANCH   5   6
HETATM    6  O   UNL     1     -11.689  12.786  67.206  1.00  0.00    -0.348 OA 
BRANCH   6   7
HETATM    7  C   UNL     1     -11.305  12.446  65.932  1.00  0.00    -0.356 A  
HETATM    8  C   UNL     1     -12.306  12.684  64.978  1.00  0.00    -0.561 A  
HETATM    9  C   UNL     1     -12.173  12.280  63.641  1.00  0.00    -0.665 A  
HETATM   10  C   UNL     1     -11.003  11.660  63.220  1.00  0.00    -0.361 A  
HETATM   11  C   UNL     1     -10.003  11.408  64.154  1.00  0.00    -0.335 A  
HETATM   12  C   UNL     1     -10.162  11.737  65.526  1.00  0.00    -0.291 A  
BRANCH  12  13
HETATM   13  C   UNL     1      -9.167  11.090  66.462  1.00  0.00    -0.187 C  
BRANCH  13  14
HETATM   14  C   UNL     1      -9.310   9.579  66.578  1.00  0.00    -0.220 A  
HETATM   15  C   UNL     1     -10.487   9.034  67.112  1.00  0.00    -0.333 A  
HETATM   16  C   UNL     1     -10.704   7.653  67.088  1.00  0.00    -0.361 A  
HETATM   17  C   UNL     1      -9.746   6.802  66.543  1.00  0.00    -0.183 A  
HETATM   18  C   UNL     1      -8.550   7.324  66.061  1.00  0.00    -0.160 A  
HETATM   19  C   UNL     1      -8.333   8.703  66.076  1.00  0.00    -0.135 A  
ENDBRANCH  13  14
ENDBRANCH  12  13
ENDBRANCH   6   7
ENDBRANCH   5   6
ENDBRANCH   4   5
ENDBRANCH   2   4
TORSDOF 6
ENDMDL
MODEL       75
REMARK 921   NORMALIZED FREE ENERGY PREDICTED BY IDOCK:   -4.51 KCAL/MOL
REMARK 922        TOTAL FREE ENERGY PREDICTED BY IDOCK:   -6.93 KCAL/MOL
REMARK 923 INTER-LIGAND FREE ENERGY PREDICTED BY IDOCK:   -6.39 KCAL/MOL
REMARK 924 INTRA-LIGAND FREE ENERGY PREDICTED BY IDOCK:   -0.54 KCAL/MOL
REMARK 927      BINDING AFFINITY PREDICTED BY RF-SCORE:    0.00 PKD
ROOT
HETATM    1  C   UNL     1     -10.931   6.587  67.284  1.00  0.00    -0.400 C  
HETATM    2  N   UNL     1      -9.865   7.463  67.751  1.00  0.00    -0.146 NA 
HETATM    3  C   UNL     1      -8.615   6.740  67.936  1.00  0.00    -0.122 C  
ENDROOT
BRANCH   2   4
HETATM    4  C   UNL     1      -9.757   8.740  67.020  1.00  0.00    -0.198 C  
BRANCH   4   5
HETATM    5  C   UNL     1     -10.293  10.079  67.599  1.00  0.00    -0.224 C  
BRANCH   5   6
HETATM    6  O   UNL     1      -9.927  11.127  66.677  1.00  0.00    -0.197 OA 
BRANCH   6   7
HETATM    7  C   UNL     1     -10.819  11.631  65.765  1.00  0.00    -0.281 A  
HETATM    8  C   UNL     1     -10.524  11.254  64.445  1.00  0.00    -0.407 A  
HETATM    9  C   UNL     1     -11.226  11.773  63.347  1.00  0.00    -0.440 A  
HETATM   10  C   UNL     1     -12.279  12.656  63.555  1.00  0.00    -0.638 A  
HETATM   11  C   UNL     1     -12.581  13.047  64.854  1.00  0.00    -0.490 A  
HETATM   12  C   UNL     1     -11.822  12.594  65.967  1.00  0.00    -0.492 A  
BRANCH  12  13
HETATM   13  C   UNL     1     -12.033  13.368  67.247  1.00  0.00    -0.393 C  
BRANCH  13  14
HETATM   14  C   UNL     1     -11.309  14.707  67.294  1.00  0.00    -0.364 A  
HETATM   15  C   UNL     1     -11.450  15.531  68.420  1.00  0.00    -0.370 A  
HETATM   16  C   UNL     1     -10.678  16.689  68.553  1.00  0.00    -0.351 A  
HETATM   17  C   UNL     1      -9.767  17.042  67.560  1.00  0.00    -0.251 A  
HETATM   18  C   UNL     1      -9.657  16.264  66.412  1.00  0.00    -0.316 A  
HETATM   19  C   UNL     1     -10.421  15.103  66.280  1.00  0.00    -0.312 A  
ENDBRANCH  13  14
ENDBRANCH  12  13
ENDBRANCH   6   7
ENDBRANCH   5   6
ENDBRANCH   4   5
ENDBRANCH   2   4
TORSDOF 6
ENDMDL
MODEL       76
REMARK 921   NORMALIZED FREE ENERGY PREDICTED BY IDOCK:   -4.50 KCAL/MOL
REMARK 922        TOTAL FREE ENERGY PREDICTED BY IDOCK:   -6.91 KCAL/MOL
REMARK 923 INTER-LIGAND FREE ENERGY PREDICTED BY IDOCK:   -6.09 KCAL/MOL
REMARK 924 INTRA-LIGAND FREE ENERGY PREDICTED BY IDOCK:   -0.82 KCAL/MOL
REMARK 927      BINDING AFFINITY PREDICTED BY RF-SCORE:    0.00 PKD
ROOT
HETATM    1  C   UNL     1     -11.972   6.998  70.798  1.00  0.00    -0.345 C  
HETATM    2  N   UNL     1     -11.928   8.101  71.749  1.00  0.00    -0.288 NA 
HETATM    3  C   UNL     1     -10.989   7.842  72.831  1.00  0.00    -0.407 C  
ENDROOT
BRANCH   2   4
HETATM    4  C   UNL     1     -11.832   9.437  71.132  1.00  0.00    -0.338 C  
BRANCH   4   5
HETATM    5  C   UNL     1     -10.823   9.758  69.993  1.00  0.00    -0.278 C  
BRANCH   5   6
HETATM    6  O   UNL     1     -11.527  10.529  68.997  1.00  0.00    -0.257 OA 
BRANCH   6   7
HETATM    7  C   UNL     1     -11.143  10.529  67.679  1.00  0.00    -0.309 A  
HETATM    8  C   UNL     1     -10.353   9.419  67.340  1.00  0.00    -0.325 A  
HETATM    9  C   UNL     1      -9.742   9.296  66.083  1.00  0.00    -0.349 A  
HETATM   10  C   UNL     1      -9.947  10.272  65.117  1.00  0.00    -0.395 A  
HETATM   11  C   UNL     1     -10.719  11.384  65.437  1.00  0.00    -0.313 A  
HETATM   12  C   UNL     1     -11.273  11.560  66.733  1.00  0.00    -0.350 A  
BRANCH  12  13
HETATM   13  C   UNL     1     -11.772  12.954  67.035  1.00  0.00    -0.447 C  
BRANCH  13  14
HETATM   14  C   UNL     1     -10.690  14.025  67.003  1.00  0.00    -0.284 A  
HETATM   15  C   UNL     1      -9.642  13.979  67.933  1.00  0.00    -0.221 A  
HETATM   16  C   UNL     1      -8.560  14.858  67.828  1.00  0.00    -0.171 A  
HETATM   17  C   UNL     1      -8.517  15.798  66.801  1.00  0.00    -0.304 A  
HETATM   18  C   UNL     1      -9.576  15.891  65.904  1.00  0.00    -0.378 A  
HETATM   19  C   UNL     1     -10.655  15.011  66.002  1.00  0.00    -0.329 A  
ENDBRANCH  13  14
ENDBRANCH  12  13
ENDBRANCH   6   7
ENDBRANCH   5   6
ENDBRANCH   4   5
ENDBRANCH   2   4
TORSDOF 6
ENDMDL
MODEL       77
REMARK 921   NORMALIZED FREE ENERGY PREDICTED BY IDOCK:   -4.50 KCAL/MOL
REMARK 922        TOTAL FREE ENERGY PREDICTED BY IDOCK:   -6.91 KCAL/MOL
REMARK 923 INTER-LIGAND FREE ENERGY PREDICTED BY IDOCK:   -6.03 KCAL/MOL
REMARK 924 INTRA-LIGAND FREE ENERGY PREDICTED BY IDOCK:   -0.88 KCAL/MOL
REMARK 927      BINDING AFFINITY PREDICTED BY RF-SCORE:    0.00 PKD
ROOT
HETATM    1  C   UNL     1      -6.648  11.051  66.453  1.00  0.00    -0.126 C  
HETATM    2  N   UNL     1      -6.691  11.683  67.765  1.00  0.00    -0.066 NA 
HETATM    3  C   UNL     1      -5.774  11.047  68.700  1.00  0.00    -0.043 C  
ENDROOT
BRANCH   2   4
HETATM    4  C   UNL     1      -6.646  13.157  67.737  1.00  0.00    -0.151 C  
BRANCH   4   5
HETATM    5  C   UNL     1      -7.912  14.033  67.957  1.00  0.00    -0.152 C  
BRANCH   5   6
HETATM    6  O   UNL     1      -9.012  13.140  68.235  1.00  0.00    -0.191 OA 
BRANCH   6   7
HETATM    7  C   UNL     1     -10.178  13.185  67.514  1.00  0.00    -0.225 A  
HETATM    8  C   UNL     1     -10.089  12.507  66.287  1.00  0.00    -0.264 A  
HETATM    9  C   UNL     1     -11.120  12.548  65.337  1.00  0.00    -0.337 A  
HETATM   10  C   UNL     1     -12.291  13.240  65.617  1.00  0.00    -0.521 A  
HETATM   11  C   UNL     1     -12.395  13.926  66.823  1.00  0.00    -0.370 A  
HETATM   12  C   UNL     1     -11.324  13.962  67.756  1.00  0.00    -0.335 A  
BRANCH  12  13
HETATM   13  C   UNL     1     -11.443  15.018  68.830  1.00  0.00    -0.333 C  
BRANCH  13  14
HETATM   14  C   UNL     1     -12.210  14.568  70.066  1.00  0.00    -0.396 A  
HETATM   15  C   UNL     1     -13.025  15.483  70.747  1.00  0.00    -0.490 A  
HETATM   16  C   UNL     1     -13.855  15.058  71.788  1.00  0.00    -0.576 A  
HETATM   17  C   UNL     1     -13.872  13.718  72.169  1.00  0.00    -0.649 A  
HETATM   18  C   UNL     1     -13.027  12.809  71.539  1.00  0.00    -0.388 A  
HETATM   19  C   UNL     1     -12.203  13.229  70.494  1.00  0.00    -0.416 A  
ENDBRANCH  13  14
ENDBRANCH  12  13
ENDBRANCH   6   7
ENDBRANCH   5   6
ENDBRANCH   4   5
ENDBRANCH   2   4
TORSDOF 6
ENDMDL
MODEL       78
REMARK 921   NORMALIZED FREE ENERGY PREDICTED BY IDOCK:   -4.49 KCAL/MOL
REMARK 922        TOTAL FREE ENERGY PREDICTED BY IDOCK:   -6.91 KCAL/MOL
REMARK 923 INTER-LIGAND FREE ENERGY PREDICTED BY IDOCK:   -5.97 KCAL/MOL
REMARK 924 INTRA-LIGAND FREE ENERGY PREDICTED BY IDOCK:   -0.93 KCAL/MOL
REMARK 927      BINDING AFFINITY PREDICTED BY RF-SCORE:    0.00 PKD
ROOT
HETATM    1  C   UNL     1      -5.268  17.599  67.303  1.00  0.00    -0.130 C  
HETATM    2  N   UNL     1      -5.527  18.971  66.886  1.00  0.00    -0.152 NA 
HETATM    3  C   UNL     1      -6.308  19.022  65.658  1.00  0.00    -0.251 C  
ENDROOT
BRANCH   2   4
HETATM    4  C   UNL     1      -5.987  19.863  67.967  1.00  0.00    -0.222 C  
BRANCH   4   5
HETATM    5  C   UNL     1      -6.546  19.321  69.313  1.00  0.00    -0.313 C  
BRANCH   5   6
HETATM    6  O   UNL     1      -7.977  19.504  69.291  1.00  0.00    -0.291 OA 
BRANCH   6   7
HETATM    7  C   UNL     1      -8.744  19.080  68.234  1.00  0.00    -0.331 A  
HETATM    8  C   UNL     1      -9.450  20.125  67.617  1.00  0.00    -0.514 A  
HETATM    9  C   UNL     1     -10.397  19.891  66.609  1.00  0.00    -0.608 A  
HETATM   10  C   UNL     1     -10.625  18.596  66.163  1.00  0.00    -0.409 A  
HETATM   11  C   UNL     1      -9.942  17.546  66.768  1.00  0.00    -0.313 A  
HETATM   12  C   UNL     1      -9.044  17.763  67.847  1.00  0.00    -0.259 A  
BRANCH  12  13
HETATM   13  C   UNL     1      -8.660  16.525  68.623  1.00  0.00    -0.243 C  
BRANCH  13  14
HETATM   14  C   UNL     1      -9.845  15.707  69.120  1.00  0.00    -0.247 A  
HETATM   15  C   UNL     1     -10.815  16.314  69.929  1.00  0.00    -0.352 A  
HETATM   16  C   UNL     1     -11.985  15.630  70.270  1.00  0.00    -0.398 A  
HETATM   17  C   UNL     1     -12.195  14.330  69.817  1.00  0.00    -0.390 A  
HETATM   18  C   UNL     1     -11.216  13.695  69.059  1.00  0.00    -0.316 A  
HETATM   19  C   UNL     1     -10.049  14.378  68.711  1.00  0.00    -0.234 A  
ENDBRANCH  13  14
ENDBRANCH  12  13
ENDBRANCH   6   7
ENDBRANCH   5   6
ENDBRANCH   4   5
ENDBRANCH   2   4
TORSDOF 6
ENDMDL
MODEL       79
REMARK 921   NORMALIZED FREE ENERGY PREDICTED BY IDOCK:   -4.43 KCAL/MOL
REMARK 922        TOTAL FREE ENERGY PREDICTED BY IDOCK:   -6.82 KCAL/MOL
REMARK 923 INTER-LIGAND FREE ENERGY PREDICTED BY IDOCK:   -5.91 KCAL/MOL
REMARK 924 INTRA-LIGAND FREE ENERGY PREDICTED BY IDOCK:   -0.91 KCAL/MOL
REMARK 927      BINDING AFFINITY PREDICTED BY RF-SCORE:    0.00 PKD
ROOT
HETATM    1  C   UNL     1     -10.560  16.521  65.582  1.00  0.00    -0.304 C  
HETATM    2  N   UNL     1     -10.241  17.517  66.597  1.00  0.00    -0.324 NA 
HETATM    3  C   UNL     1     -10.495  18.870  66.121  1.00  0.00    -0.457 C  
ENDROOT
BRANCH   2   4
HETATM    4  C   UNL     1     -10.762  17.210  67.942  1.00  0.00    -0.355 C  
BRANCH   4   5
HETATM    5  C   UNL     1     -10.032  16.242  68.916  1.00  0.00    -0.248 C  
BRANCH   5   6
HETATM    6  O   UNL     1     -10.337  14.896  68.496  1.00  0.00    -0.225 OA 
BRANCH   6   7
HETATM    7  C   UNL     1      -9.349  13.980  68.233  1.00  0.00    -0.208 A  
HETATM    8  C   UNL     1      -8.075  14.562  68.138  1.00  0.00    -0.137 A  
HETATM    9  C   UNL     1      -6.948  13.827  67.738  1.00  0.00    -0.178 A  
HETATM   10  C   UNL     1      -7.069  12.470  67.467  1.00  0.00    -0.151 A  
HETATM   11  C   UNL     1      -8.324  11.878  67.547  1.00  0.00    -0.158 A  
HETATM   12  C   UNL     1      -9.486  12.630  67.868  1.00  0.00    -0.204 A  
BRANCH  12  13
HETATM   13  C   UNL     1     -10.799  11.943  67.571  1.00  0.00    -0.283 C  
BRANCH  13  14
HETATM   14  C   UNL     1     -11.328  12.188  66.164  1.00  0.00    -0.414 A  
HETATM   15  C   UNL     1     -12.229  13.238  65.937  1.00  0.00    -0.497 A  
HETATM   16  C   UNL     1     -12.609  13.578  64.635  1.00  0.00    -0.303 A  
HETATM   17  C   UNL     1     -12.102  12.869  63.549  1.00  0.00    -0.633 A  
HETATM   18  C   UNL     1     -11.251  11.790  63.763  1.00  0.00    -0.518 A  
HETATM   19  C   UNL     1     -10.864  11.452  65.061  1.00  0.00    -0.311 A  
ENDBRANCH  13  14
ENDBRANCH  12  13
ENDBRANCH   6   7
ENDBRANCH   5   6
ENDBRANCH   4   5
ENDBRANCH   2   4
TORSDOF 6
ENDMDL
MODEL       80
REMARK 921   NORMALIZED FREE ENERGY PREDICTED BY IDOCK:   -4.41 KCAL/MOL
REMARK 922        TOTAL FREE ENERGY PREDICTED BY IDOCK:   -6.79 KCAL/MOL
REMARK 923 INTER-LIGAND FREE ENERGY PREDICTED BY IDOCK:   -6.60 KCAL/MOL
REMARK 924 INTRA-LIGAND FREE ENERGY PREDICTED BY IDOCK:   -0.19 KCAL/MOL
REMARK 927      BINDING AFFINITY PREDICTED BY RF-SCORE:    0.00 PKD
ROOT
HETATM    1  C   UNL     1      -5.815  16.370  69.873  1.00  0.00    -0.199 C  
HETATM    2  N   UNL     1      -6.698  17.350  69.255  1.00  0.00    -0.242 NA 
HETATM    3  C   UNL     1      -6.265  18.713  69.529  1.00  0.00    -0.263 C  
ENDROOT
BRANCH   2   4
HETATM    4  C   UNL     1      -7.040  17.064  67.848  1.00  0.00    -0.156 C  
BRANCH   4   5
HETATM    5  C   UNL     1      -7.736  15.744  67.412  1.00  0.00    -0.183 C  
BRANCH   5   6
HETATM    6  O   UNL     1      -9.157  15.929  67.578  1.00  0.00    -0.196 OA 
BRANCH   6   7
HETATM    7  C   UNL     1     -10.026  14.867  67.601  1.00  0.00    -0.226 A  
HETATM    8  C   UNL     1      -9.765  13.925  66.593  1.00  0.00    -0.295 A  
HETATM    9  C   UNL     1     -10.616  12.837  66.352  1.00  0.00    -0.273 A  
HETATM   10  C   UNL     1     -11.735  12.645  67.152  1.00  0.00    -0.438 A  
HETATM   11  C   UNL     1     -12.016  13.572  68.150  1.00  0.00    -0.376 A  
HETATM   12  C   UNL     1     -11.207  14.723  68.348  1.00  0.00    -0.298 A  
BRANCH  12  13
HETATM   13  C   UNL     1     -11.824  15.802  69.208  1.00  0.00    -0.358 C  
BRANCH  13  14
HETATM   14  C   UNL     1     -12.070  15.384  70.652  1.00  0.00    -0.412 A  
HETATM   15  C   UNL     1     -11.570  16.175  71.696  1.00  0.00    -0.503 A  
HETATM   16  C   UNL     1     -11.911  15.898  73.023  1.00  0.00    -0.596 A  
HETATM   17  C   UNL     1     -12.745  14.823  73.323  1.00  0.00    -0.596 A  
HETATM   18  C   UNL     1     -13.203  13.997  72.301  1.00  0.00    -0.558 A  
HETATM   19  C   UNL     1     -12.870  14.275  70.975  1.00  0.00    -0.427 A  
ENDBRANCH  13  14
ENDBRANCH  12  13
ENDBRANCH   6   7
ENDBRANCH   5   6
ENDBRANCH   4   5
ENDBRANCH   2   4
TORSDOF 6
ENDMDL
MODEL       81
REMARK 921   NORMALIZED FREE ENERGY PREDICTED BY IDOCK:   -4.37 KCAL/MOL
REMARK 922        TOTAL FREE ENERGY PREDICTED BY IDOCK:   -6.74 KCAL/MOL
REMARK 923 INTER-LIGAND FREE ENERGY PREDICTED BY IDOCK:   -6.09 KCAL/MOL
REMARK 924 INTRA-LIGAND FREE ENERGY PREDICTED BY IDOCK:   -0.64 KCAL/MOL
REMARK 927      BINDING AFFINITY PREDICTED BY RF-SCORE:    0.00 PKD
ROOT
HETATM    1  C   UNL     1     -12.112  14.127  66.757  1.00  0.00    -0.442 C  
HETATM    2  N   UNL     1     -12.268  12.749  66.311  1.00  0.00    -0.538 NA 
HETATM    3  C   UNL     1     -12.468  12.669  64.871  1.00  0.00    -0.494 C  
ENDROOT
BRANCH   2   4
HETATM    4  C   UNL     1     -11.277  11.809  66.867  1.00  0.00    -0.327 C  
BRANCH   4   5
HETATM    5  C   UNL     1     -11.480  11.097  68.234  1.00  0.00    -0.303 C  
BRANCH   5   6
HETATM    6  O   UNL     1     -10.589   9.963  68.268  1.00  0.00    -0.205 OA 
BRANCH   6   7
HETATM    7  C   UNL     1      -9.632   9.825  69.241  1.00  0.00    -0.197 A  
HETATM    8  C   UNL     1      -8.516  10.650  69.031  1.00  0.00    -0.148 A  
HETATM    9  C   UNL     1      -7.365  10.564  69.829  1.00  0.00    -0.139 A  
HETATM   10  C   UNL     1      -7.327   9.671  70.892  1.00  0.00     0.016 A  
HETATM   11  C   UNL     1      -8.419   8.838  71.110  1.00  0.00    -0.233 A  
HETATM   12  C   UNL     1      -9.555   8.857  70.257  1.00  0.00    -0.212 A  
BRANCH  12  13
HETATM   13  C   UNL     1     -10.485   7.675  70.399  1.00  0.00    -0.221 C  
BRANCH  13  14
HETATM   14  C   UNL     1     -11.796   7.992  71.105  1.00  0.00    -0.307 A  
HETATM   15  C   UNL     1     -12.002   9.272  71.639  1.00  0.00    -0.448 A  
HETATM   16  C   UNL     1     -13.250   9.634  72.155  1.00  0.00    -0.535 A  
HETATM   17  C   UNL     1     -14.301   8.720  72.154  1.00  0.00    -0.481 A  
HETATM   18  C   UNL     1     -14.095   7.429  71.678  1.00  0.00    -0.552 A  
HETATM   19  C   UNL     1     -12.852   7.067  71.156  1.00  0.00    -0.328 A  
ENDBRANCH  13  14
ENDBRANCH  12  13
ENDBRANCH   6   7
ENDBRANCH   5   6
ENDBRANCH   4   5
ENDBRANCH   2   4
TORSDOF 6
ENDMDL
MODEL       82
REMARK 921   NORMALIZED FREE ENERGY PREDICTED BY IDOCK:   -4.37 KCAL/MOL
REMARK 922        TOTAL FREE ENERGY PREDICTED BY IDOCK:   -6.74 KCAL/MOL
REMARK 923 INTER-LIGAND FREE ENERGY PREDICTED BY IDOCK:   -6.01 KCAL/MOL
REMARK 924 INTRA-LIGAND FREE ENERGY PREDICTED BY IDOCK:   -0.73 KCAL/MOL
REMARK 927      BINDING AFFINITY PREDICTED BY RF-SCORE:    0.00 PKD
ROOT
HETATM    1  C   UNL     1     -12.512  12.194  63.622  1.00  0.00    -0.549 C  
HETATM    2  N   UNL     1     -11.532  12.578  64.630  1.00  0.00    -0.314 NA 
HETATM    3  C   UNL     1     -10.349  11.730  64.581  1.00  0.00    -0.290 C  
ENDROOT
BRANCH   2   4
HETATM    4  C   UNL     1     -11.270  14.028  64.708  1.00  0.00    -0.375 C  
BRANCH   4   5
HETATM    5  C   UNL     1     -11.611  14.868  65.971  1.00  0.00    -0.226 C  
BRANCH   5   6
HETATM    6  O   UNL     1     -11.148  14.128  67.120  1.00  0.00    -0.293 OA 
BRANCH   6   7
HETATM    7  C   UNL     1      -9.951  14.413  67.728  1.00  0.00    -0.226 A  
HETATM    8  C   UNL     1      -9.081  13.311  67.766  1.00  0.00    -0.202 A  
HETATM    9  C   UNL     1      -7.865  13.346  68.464  1.00  0.00    -0.115 A  
HETATM   10  C   UNL     1      -7.470  14.513  69.107  1.00  0.00    -0.118 A  
HETATM   11  C   UNL     1      -8.322  15.612  69.088  1.00  0.00    -0.251 A  
HETATM   12  C   UNL     1      -9.594  15.560  68.457  1.00  0.00    -0.203 A  
BRANCH  12  13
HETATM   13  C   UNL     1     -10.537  16.684  68.819  1.00  0.00    -0.340 C  
BRANCH  13  14
HETATM   14  C   UNL     1     -10.232  18.004  68.124  1.00  0.00    -0.392 A  
HETATM   15  C   UNL     1      -9.307  18.890  68.695  1.00  0.00    -0.415 A  
HETATM   16  C   UNL     1      -8.898  20.033  68.003  1.00  0.00    -0.297 A  
HETATM   17  C   UNL     1      -9.414  20.310  66.739  1.00  0.00    -0.518 A  
HETATM   18  C   UNL     1     -10.374  19.469  66.184  1.00  0.00    -0.614 A  
HETATM   19  C   UNL     1     -10.779  18.323  66.870  1.00  0.00    -0.272 A  
ENDBRANCH  13  14
ENDBRANCH  12  13
ENDBRANCH   6   7
ENDBRANCH   5   6
ENDBRANCH   4   5
ENDBRANCH   2   4
TORSDOF 6
ENDMDL
MODEL       83
REMARK 921   NORMALIZED FREE ENERGY PREDICTED BY IDOCK:   -4.37 KCAL/MOL
REMARK 922        TOTAL FREE ENERGY PREDICTED BY IDOCK:   -6.74 KCAL/MOL
REMARK 923 INTER-LIGAND FREE ENERGY PREDICTED BY IDOCK:   -6.06 KCAL/MOL
REMARK 924 INTRA-LIGAND FREE ENERGY PREDICTED BY IDOCK:   -0.68 KCAL/MOL
REMARK 927      BINDING AFFINITY PREDICTED BY RF-SCORE:    0.00 PKD
ROOT
HETATM    1  C   UNL     1      -5.348  15.942  70.568  1.00  0.00    -0.164 C  
HETATM    2  N   UNL     1      -5.738  17.208  69.961  1.00  0.00    -0.228 NA 
HETATM    3  C   UNL     1      -5.308  18.345  70.762  1.00  0.00    -0.253 C  
ENDROOT
BRANCH   2   4
HETATM    4  C   UNL     1      -5.455  17.307  68.516  1.00  0.00    -0.145 C  
BRANCH   4   5
HETATM    5  C   UNL     1      -6.441  16.777  67.437  1.00  0.00    -0.162 C  
BRANCH   5   6
HETATM    6  O   UNL     1      -7.780  17.014  67.921  1.00  0.00    -0.169 OA 
BRANCH   6   7
HETATM    7  C   UNL     1      -8.600  17.951  67.345  1.00  0.00    -0.239 A  
HETATM    8  C   UNL     1      -8.453  19.228  67.910  1.00  0.00    -0.343 A  
HETATM    9  C   UNL     1      -9.293  20.297  67.565  1.00  0.00    -0.513 A  
HETATM   10  C   UNL     1     -10.279  20.118  66.603  1.00  0.00    -0.556 A  
HETATM   11  C   UNL     1     -10.447  18.858  66.039  1.00  0.00    -0.507 A  
HETATM   12  C   UNL     1      -9.658  17.748  66.442  1.00  0.00    -0.293 A  
BRANCH  12  13
HETATM   13  C   UNL     1     -10.183  16.397  66.015  1.00  0.00    -0.373 C  
BRANCH  13  14
HETATM   14  C   UNL     1     -10.945  15.650  67.102  1.00  0.00    -0.270 A  
HETATM   15  C   UNL     1     -11.342  14.324  66.882  1.00  0.00    -0.354 A  
HETATM   16  C   UNL     1     -11.905  13.571  67.917  1.00  0.00    -0.397 A  
HETATM   17  C   UNL     1     -12.088  14.136  69.176  1.00  0.00    -0.362 A  
HETATM   18  C   UNL     1     -11.750  15.468  69.393  1.00  0.00    -0.382 A  
HETATM   19  C   UNL     1     -11.181  16.221  68.364  1.00  0.00    -0.349 A  
ENDBRANCH  13  14
ENDBRANCH  12  13
ENDBRANCH   6   7
ENDBRANCH   5   6
ENDBRANCH   4   5
ENDBRANCH   2   4
TORSDOF 6
ENDMDL
MODEL       84
REMARK 921   NORMALIZED FREE ENERGY PREDICTED BY IDOCK:   -4.36 KCAL/MOL
REMARK 922        TOTAL FREE ENERGY PREDICTED BY IDOCK:   -6.72 KCAL/MOL
REMARK 923 INTER-LIGAND FREE ENERGY PREDICTED BY IDOCK:   -5.92 KCAL/MOL
REMARK 924 INTRA-LIGAND FREE ENERGY PREDICTED BY IDOCK:   -0.81 KCAL/MOL
REMARK 927      BINDING AFFINITY PREDICTED BY RF-SCORE:    0.00 PKD
ROOT
HETATM    1  C   UNL     1     -13.272  11.360  71.870  1.00  0.00    -0.380 C  
HETATM    2  N   UNL     1     -12.253  10.508  71.272  1.00  0.00    -0.370 NA 
HETATM    3  C   UNL     1     -12.255   9.175  71.855  1.00  0.00    -0.379 C  
ENDROOT
BRANCH   2   4
HETATM    4  C   UNL     1     -12.204  10.555  69.798  1.00  0.00    -0.181 C  
BRANCH   4   5
HETATM    5  C   UNL     1     -11.655  11.786  69.022  1.00  0.00    -0.311 C  
BRANCH   5   6
HETATM    6  O   UNL     1     -12.122  11.682  67.661  1.00  0.00    -0.615 OA 
BRANCH   6   7
HETATM    7  C   UNL     1     -11.565  12.420  66.647  1.00  0.00    -0.385 A  
HETATM    8  C   UNL     1     -12.080  13.724  66.574  1.00  0.00    -0.483 A  
HETATM    9  C   UNL     1     -11.749  14.598  65.527  1.00  0.00    -0.316 A  
HETATM   10  C   UNL     1     -10.852  14.194  64.547  1.00  0.00    -0.336 A  
HETATM   11  C   UNL     1     -10.338  12.903  64.598  1.00  0.00    -0.366 A  
HETATM   12  C   UNL     1     -10.731  11.981  65.605  1.00  0.00    -0.313 A  
BRANCH  12  13
HETATM   13  C   UNL     1     -10.377  10.538  65.330  1.00  0.00    -0.300 C  
BRANCH  13  14
HETATM   14  C   UNL     1      -9.722   9.821  66.503  1.00  0.00    -0.267 A  
HETATM   15  C   UNL     1      -8.689  10.452  67.210  1.00  0.00    -0.125 A  
HETATM   16  C   UNL     1      -8.178   9.882  68.380  1.00  0.00    -0.106 A  
HETATM   17  C   UNL     1      -8.684   8.673  68.850  1.00  0.00    -0.131 A  
HETATM   18  C   UNL     1      -9.671   8.008  68.128  1.00  0.00    -0.179 A  
HETATM   19  C   UNL     1     -10.188   8.578  66.964  1.00  0.00    -0.371 A  
ENDBRANCH  13  14
ENDBRANCH  12  13
ENDBRANCH   6   7
ENDBRANCH   5   6
ENDBRANCH   4   5
ENDBRANCH   2   4
TORSDOF 6
ENDMDL
MODEL       85
REMARK 921   NORMALIZED FREE ENERGY PREDICTED BY IDOCK:   -4.36 KCAL/MOL
REMARK 922        TOTAL FREE ENERGY PREDICTED BY IDOCK:   -6.72 KCAL/MOL
REMARK 923 INTER-LIGAND FREE ENERGY PREDICTED BY IDOCK:   -5.71 KCAL/MOL
REMARK 924 INTRA-LIGAND FREE ENERGY PREDICTED BY IDOCK:   -1.01 KCAL/MOL
REMARK 927      BINDING AFFINITY PREDICTED BY RF-SCORE:    0.00 PKD
ROOT
HETATM    1  C   UNL     1      -8.314  10.008  67.195  1.00  0.00    -0.121 C  
HETATM    2  N   UNL     1      -9.413   9.094  66.913  1.00  0.00    -0.161 NA 
HETATM    3  C   UNL     1      -9.044   7.711  67.176  1.00  0.00    -0.127 C  
ENDROOT
BRANCH   2   4
HETATM    4  C   UNL     1     -10.717   9.517  67.459  1.00  0.00    -0.245 C  
BRANCH   4   5
HETATM    5  C   UNL     1     -10.838  10.421  68.719  1.00  0.00    -0.232 C  
BRANCH   5   6
HETATM    6  O   UNL     1     -11.585  11.595  68.338  1.00  0.00    -0.267 OA 
BRANCH   6   7
HETATM    7  C   UNL     1     -11.230  12.849  68.770  1.00  0.00    -0.279 A  
HETATM    8  C   UNL     1     -12.106  13.360  69.741  1.00  0.00    -0.374 A  
HETATM    9  C   UNL     1     -12.007  14.677  70.214  1.00  0.00    -0.370 A  
HETATM   10  C   UNL     1     -10.990  15.503  69.751  1.00  0.00    -0.299 A  
HETATM   11  C   UNL     1     -10.118  15.017  68.783  1.00  0.00    -0.231 A  
HETATM   12  C   UNL     1     -10.261  13.714  68.235  1.00  0.00    -0.243 A  
BRANCH  12  13
HETATM   13  C   UNL     1      -9.483  13.462  66.964  1.00  0.00    -0.247 C  
BRANCH  13  14
HETATM   14  C   UNL     1     -10.343  13.386  65.710  1.00  0.00    -0.296 A  
HETATM   15  C   UNL     1     -10.272  12.251  64.890  1.00  0.00    -0.307 A  
HETATM   16  C   UNL     1     -11.159  12.090  63.821  1.00  0.00    -0.510 A  
HETATM   17  C   UNL     1     -12.117  13.064  63.553  1.00  0.00    -0.617 A  
HETATM   18  C   UNL     1     -12.163  14.221  64.325  1.00  0.00    -0.451 A  
HETATM   19  C   UNL     1     -11.284  14.381  65.397  1.00  0.00    -0.335 A  
ENDBRANCH  13  14
ENDBRANCH  12  13
ENDBRANCH   6   7
ENDBRANCH   5   6
ENDBRANCH   4   5
ENDBRANCH   2   4
TORSDOF 6
ENDMDL
MODEL       86
REMARK 921   NORMALIZED FREE ENERGY PREDICTED BY IDOCK:   -4.35 KCAL/MOL
REMARK 922        TOTAL FREE ENERGY PREDICTED BY IDOCK:   -6.72 KCAL/MOL
REMARK 923 INTER-LIGAND FREE ENERGY PREDICTED BY IDOCK:   -5.65 KCAL/MOL
REMARK 924 INTRA-LIGAND FREE ENERGY PREDICTED BY IDOCK:   -1.06 KCAL/MOL
REMARK 927      BINDING AFFINITY PREDICTED BY RF-SCORE:    0.00 PKD
ROOT
HETATM    1  C   UNL     1      -7.467  10.682  67.732  1.00  0.00    -0.091 C  
HETATM    2  N   UNL     1      -7.960  11.990  68.142  1.00  0.00    -0.144 NA 
HETATM    3  C   UNL     1      -7.189  13.068  67.540  1.00  0.00    -0.151 C  
ENDROOT
BRANCH   2   4
HETATM    4  C   UNL     1      -9.425  12.142  68.070  1.00  0.00    -0.201 C  
BRANCH   4   5
HETATM    5  C   UNL     1     -10.384  10.923  67.955  1.00  0.00    -0.187 C  
BRANCH   5   6
HETATM    6  O   UNL     1     -11.415  11.272  67.007  1.00  0.00    -0.455 OA 
BRANCH   6   7
HETATM    7  C   UNL     1     -11.160  11.354  65.661  1.00  0.00    -0.141 A  
HETATM    8  C   UNL     1     -10.211  10.416  65.226  1.00  0.00    -0.332 A  
HETATM    9  C   UNL     1      -9.705  10.419  63.918  1.00  0.00    -0.367 A  
HETATM   10  C   UNL     1     -10.178  11.345  62.997  1.00  0.00    -0.311 A  
HETATM   11  C   UNL     1     -11.112  12.289  63.411  1.00  0.00    -0.487 A  
HETATM   12  C   UNL     1     -11.568  12.348  64.755  1.00  0.00    -0.395 A  
BRANCH  12  13
HETATM   13  C   UNL     1     -12.290  13.620  65.134  1.00  0.00    -0.486 C  
BRANCH  13  14
HETATM   14  C   UNL     1     -11.485  14.551  66.031  1.00  0.00    -0.348 A  
HETATM   15  C   UNL     1     -11.906  14.778  67.349  1.00  0.00    -0.320 A  
HETATM   16  C   UNL     1     -11.105  15.503  68.236  1.00  0.00    -0.322 A  
HETATM   17  C   UNL     1      -9.882  16.019  67.814  1.00  0.00    -0.231 A  
HETATM   18  C   UNL     1      -9.477  15.849  66.494  1.00  0.00    -0.299 A  
HETATM   19  C   UNL     1     -10.271  15.119  65.608  1.00  0.00    -0.387 A  
ENDBRANCH  13  14
ENDBRANCH  12  13
ENDBRANCH   6   7
ENDBRANCH   5   6
ENDBRANCH   4   5
ENDBRANCH   2   4
TORSDOF 6
ENDMDL
MODEL       87
REMARK 921   NORMALIZED FREE ENERGY PREDICTED BY IDOCK:   -4.35 KCAL/MOL
REMARK 922        TOTAL FREE ENERGY PREDICTED BY IDOCK:   -6.71 KCAL/MOL
REMARK 923 INTER-LIGAND FREE ENERGY PREDICTED BY IDOCK:   -6.14 KCAL/MOL
REMARK 924 INTRA-LIGAND FREE ENERGY PREDICTED BY IDOCK:   -0.57 KCAL/MOL
REMARK 927      BINDING AFFINITY PREDICTED BY RF-SCORE:    0.00 PKD
ROOT
HETATM    1  C   UNL     1     -14.320  15.111  71.520  1.00  0.00    -0.559 C  
HETATM    2  N   UNL     1     -12.965  15.608  71.325  1.00  0.00    -0.496 NA 
HETATM    3  C   UNL     1     -12.164  15.476  72.533  1.00  0.00    -0.416 C  
ENDROOT
BRANCH   2   4
HETATM    4  C   UNL     1     -12.318  15.150  70.081  1.00  0.00    -0.341 C  
BRANCH   4   5
HETATM    5  C   UNL     1     -12.038  13.648  69.792  1.00  0.00    -0.334 C  
BRANCH   5   6
HETATM    6  O   UNL     1     -11.066  13.586  68.728  1.00  0.00    -0.246 OA 
BRANCH   6   7
HETATM    7  C   UNL     1     -11.424  13.270  67.441  1.00  0.00    -0.332 A  
HETATM    8  C   UNL     1     -12.153  14.290  66.810  1.00  0.00    -0.446 A  
HETATM    9  C   UNL     1     -12.734  14.118  65.545  1.00  0.00    -0.468 A  
HETATM   10  C   UNL     1     -12.556  12.922  64.860  1.00  0.00    -0.525 A  
HETATM   11  C   UNL     1     -11.844  11.897  65.473  1.00  0.00    -0.135 A  
HETATM   12  C   UNL     1     -11.324  12.030  66.788  1.00  0.00    -0.398 A  
BRANCH  12  13
HETATM   13  C   UNL     1     -10.898  10.737  67.445  1.00  0.00    -0.345 C  
BRANCH  13  14
HETATM   14  C   UNL     1      -9.637  10.122  66.852  1.00  0.00    -0.219 A  
HETATM   15  C   UNL     1      -9.715   8.893  66.182  1.00  0.00    -0.338 A  
HETATM   16  C   UNL     1      -8.606   8.384  65.500  1.00  0.00    -0.201 A  
HETATM   17  C   UNL     1      -7.405   9.090  65.489  1.00  0.00    -0.085 A  
HETATM   18  C   UNL     1      -7.298  10.283  66.196  1.00  0.00    -0.122 A  
HETATM   19  C   UNL     1      -8.405  10.797  66.872  1.00  0.00    -0.132 A  
ENDBRANCH  13  14
ENDBRANCH  12  13
ENDBRANCH   6   7
ENDBRANCH   5   6
ENDBRANCH   4   5
ENDBRANCH   2   4
TORSDOF 6
ENDMDL
MODEL       88
REMARK 921   NORMALIZED FREE ENERGY PREDICTED BY IDOCK:   -4.34 KCAL/MOL
REMARK 922        TOTAL FREE ENERGY PREDICTED BY IDOCK:   -6.70 KCAL/MOL
REMARK 923 INTER-LIGAND FREE ENERGY PREDICTED BY IDOCK:   -5.95 KCAL/MOL
REMARK 924 INTRA-LIGAND FREE ENERGY PREDICTED BY IDOCK:   -0.76 KCAL/MOL
REMARK 927      BINDING AFFINITY PREDICTED BY RF-SCORE:    0.00 PKD
ROOT
HETATM    1  C   UNL     1      -9.051   9.983  64.328  1.00  0.00    -0.255 C  
HETATM    2  N   UNL     1      -9.564  11.244  64.846  1.00  0.00    -0.233 NA 
HETATM    3  C   UNL     1     -10.863  11.572  64.275  1.00  0.00    -0.359 C  
ENDROOT
BRANCH   2   4
HETATM    4  C   UNL     1      -9.460  11.393  66.310  1.00  0.00    -0.209 C  
BRANCH   4   5
HETATM    5  C   UNL     1      -9.484  10.173  67.274  1.00  0.00    -0.154 C  
BRANCH   5   6
HETATM    6  O   UNL     1      -9.191  10.664  68.599  1.00  0.00    -0.164 OA 
BRANCH   6   7
HETATM    7  C   UNL     1      -9.822  10.163  69.710  1.00  0.00    -0.208 A  
HETATM    8  C   UNL     1      -9.126   9.095  70.299  1.00  0.00    -0.247 A  
HETATM    9  C   UNL     1      -9.664   8.350  71.359  1.00  0.00    -0.260 A  
HETATM   10  C   UNL     1     -10.903   8.693  71.886  1.00  0.00    -0.419 A  
HETATM   11  C   UNL     1     -11.611   9.742  71.310  1.00  0.00    -0.465 A  
HETATM   12  C   UNL     1     -11.115  10.448  70.182  1.00  0.00    -0.383 A  
BRANCH  12  13
HETATM   13  C   UNL     1     -12.131  11.302  69.460  1.00  0.00    -0.386 C  
BRANCH  13  14
HETATM   14  C   UNL     1     -12.031  12.789  69.771  1.00  0.00    -0.362 A  
HETATM   15  C   UNL     1     -12.477  13.269  71.011  1.00  0.00    -0.422 A  
HETATM   16  C   UNL     1     -12.256  14.599  71.379  1.00  0.00    -0.411 A  
HETATM   17  C   UNL     1     -11.599  15.468  70.509  1.00  0.00    -0.371 A  
HETATM   18  C   UNL     1     -11.201  15.020  69.254  1.00  0.00    -0.297 A  
HETATM   19  C   UNL     1     -11.414  13.690  68.887  1.00  0.00    -0.344 A  
ENDBRANCH  13  14
ENDBRANCH  12  13
ENDBRANCH   6   7
ENDBRANCH   5   6
ENDBRANCH   4   5
ENDBRANCH   2   4
TORSDOF 6
ENDMDL
MODEL       89
REMARK 921   NORMALIZED FREE ENERGY PREDICTED BY IDOCK:   -4.34 KCAL/MOL
REMARK 922        TOTAL FREE ENERGY PREDICTED BY IDOCK:   -6.70 KCAL/MOL
REMARK 923 INTER-LIGAND FREE ENERGY PREDICTED BY IDOCK:   -5.73 KCAL/MOL
REMARK 924 INTRA-LIGAND FREE ENERGY PREDICTED BY IDOCK:   -0.97 KCAL/MOL
REMARK 927      BINDING AFFINITY PREDICTED BY RF-SCORE:    0.00 PKD
ROOT
HETATM    1  C   UNL     1      -8.497  11.036  66.735  1.00  0.00    -0.148 C  
HETATM    2  N   UNL     1      -8.492  11.945  67.874  1.00  0.00    -0.145 NA 
HETATM    3  C   UNL     1      -7.184  12.001  68.512  1.00  0.00    -0.101 C  
ENDROOT
BRANCH   2   4
HETATM    4  C   UNL     1      -9.129  13.251  67.619  1.00  0.00    -0.204 C  
BRANCH   4   5
HETATM    5  C   UNL     1     -10.593  13.560  68.045  1.00  0.00    -0.239 C  
BRANCH   5   6
HETATM    6  O   UNL     1     -11.134  12.359  68.634  1.00  0.00    -0.228 OA 
BRANCH   6   7
HETATM    7  C   UNL     1     -11.936  12.398  69.747  1.00  0.00    -0.289 A  
HETATM    8  C   UNL     1     -12.047  13.686  70.295  1.00  0.00    -0.427 A  
HETATM    9  C   UNL     1     -12.705  13.923  71.512  1.00  0.00    -0.440 A  
HETATM   10  C   UNL     1     -13.308  12.870  72.188  1.00  0.00    -0.615 A  
HETATM   11  C   UNL     1     -13.201  11.586  71.665  1.00  0.00    -0.389 A  
HETATM   12  C   UNL     1     -12.466  11.322  70.478  1.00  0.00    -0.398 A  
BRANCH  12  13
HETATM   13  C   UNL     1     -12.141   9.866  70.235  1.00  0.00    -0.168 C  
BRANCH  13  14
HETATM   14  C   UNL     1     -10.903   9.371  70.971  1.00  0.00    -0.406 A  
HETATM   15  C   UNL     1     -11.050   8.568  72.110  1.00  0.00    -0.436 A  
HETATM   16  C   UNL     1      -9.935   7.977  72.711  1.00  0.00    -0.364 A  
HETATM   17  C   UNL     1      -8.661   8.191  72.190  1.00  0.00    -0.234 A  
HETATM   18  C   UNL     1      -8.495   9.031  71.093  1.00  0.00    -0.234 A  
HETATM   19  C   UNL     1      -9.607   9.616  70.486  1.00  0.00    -0.261 A  
ENDBRANCH  13  14
ENDBRANCH  12  13
ENDBRANCH   6   7
ENDBRANCH   5   6
ENDBRANCH   4   5
ENDBRANCH   2   4
TORSDOF 6
ENDMDL
MODEL       90
REMARK 921   NORMALIZED FREE ENERGY PREDICTED BY IDOCK:   -4.34 KCAL/MOL
REMARK 922        TOTAL FREE ENERGY PREDICTED BY IDOCK:   -6.70 KCAL/MOL
REMARK 923 INTER-LIGAND FREE ENERGY PREDICTED BY IDOCK:   -6.17 KCAL/MOL
REMARK 924 INTRA-LIGAND FREE ENERGY PREDICTED BY IDOCK:   -0.53 KCAL/MOL
REMARK 927      BINDING AFFINITY PREDICTED BY RF-SCORE:    0.00 PKD
ROOT
HETATM    1  C   UNL     1     -10.885  12.744  63.994  1.00  0.00    -0.424 C  
HETATM    2  N   UNL     1     -11.475  13.645  64.975  1.00  0.00    -0.317 NA 
HETATM    3  C   UNL     1     -12.153  14.765  64.338  1.00  0.00    -0.440 C  
ENDROOT
BRANCH   2   4
HETATM    4  C   UNL     1     -12.232  12.972  66.048  1.00  0.00    -0.399 C  
BRANCH   4   5
HETATM    5  C   UNL     1     -11.556  12.472  67.356  1.00  0.00    -0.370 C  
BRANCH   5   6
HETATM    6  O   UNL     1     -11.588  11.030  67.335  1.00  0.00    -0.525 OA 
BRANCH   6   7
HETATM    7  C   UNL     1     -10.438  10.281  67.375  1.00  0.00    -0.251 A  
HETATM    8  C   UNL     1     -10.109   9.717  66.132  1.00  0.00    -0.315 A  
HETATM    9  C   UNL     1      -9.053   8.806  65.983  1.00  0.00    -0.265 A  
HETATM   10  C   UNL     1      -8.270   8.472  67.081  1.00  0.00    -0.108 A  
HETATM   11  C   UNL     1      -8.586   9.013  68.322  1.00  0.00    -0.130 A  
HETATM   12  C   UNL     1      -9.704   9.870  68.501  1.00  0.00    -0.163 A  
BRANCH  12  13
HETATM   13  C   UNL     1     -10.126  10.086  69.935  1.00  0.00    -0.289 C  
BRANCH  13  14
HETATM   14  C   UNL     1     -10.696   8.847  70.612  1.00  0.00    -0.282 A  
HETATM   15  C   UNL     1     -11.109   8.916  71.950  1.00  0.00    -0.442 A  
HETATM   16  C   UNL     1     -11.773   7.839  72.544  1.00  0.00    -0.393 A  
HETATM   17  C   UNL     1     -12.022   6.679  71.815  1.00  0.00    -0.391 A  
HETATM   18  C   UNL     1     -11.568   6.575  70.504  1.00  0.00    -0.455 A  
HETATM   19  C   UNL     1     -10.911   7.651  69.905  1.00  0.00    -0.208 A  
ENDBRANCH  13  14
ENDBRANCH  12  13
ENDBRANCH   6   7
ENDBRANCH   5   6
ENDBRANCH   4   5
ENDBRANCH   2   4
TORSDOF 6
ENDMDL
MODEL       91
REMARK 921   NORMALIZED FREE ENERGY PREDICTED BY IDOCK:   -4.33 KCAL/MOL
REMARK 922        TOTAL FREE ENERGY PREDICTED BY IDOCK:   -6.69 KCAL/MOL
REMARK 923 INTER-LIGAND FREE ENERGY PREDICTED BY IDOCK:   -5.71 KCAL/MOL
REMARK 924 INTRA-LIGAND FREE ENERGY PREDICTED BY IDOCK:   -0.98 KCAL/MOL
REMARK 927      BINDING AFFINITY PREDICTED BY RF-SCORE:    0.00 PKD
ROOT
HETATM    1  C   UNL     1     -11.178   5.245  72.505  1.00  0.00    -0.210 C  
HETATM    2  N   UNL     1     -11.726   6.582  72.316  1.00  0.00    -0.295 NA 
HETATM    3  C   UNL     1     -10.952   7.586  73.031  1.00  0.00    -0.390 C  
ENDROOT
BRANCH   2   4
HETATM    4  C   UNL     1     -12.059   6.915  70.918  1.00  0.00    -0.373 C  
BRANCH   4   5
HETATM    5  C   UNL     1     -11.200   6.424  69.718  1.00  0.00    -0.419 C  
BRANCH   5   6
HETATM    6  O   UNL     1     -11.000   7.552  68.840  1.00  0.00    -0.091 OA 
BRANCH   6   7
HETATM    7  C   UNL     1      -9.995   8.462  69.051  1.00  0.00    -0.190 A  
HETATM    8  C   UNL     1      -8.848   7.887  69.623  1.00  0.00    -0.138 A  
HETATM    9  C   UNL     1      -7.759   8.662  70.048  1.00  0.00    -0.080 A  
HETATM   10  C   UNL     1      -7.779  10.039  69.866  1.00  0.00    -0.183 A  
HETATM   11  C   UNL     1      -8.909  10.628  69.309  1.00  0.00    -0.092 A  
HETATM   12  C   UNL     1     -10.052   9.863  68.954  1.00  0.00    -0.194 A  
BRANCH  12  13
HETATM   13  C   UNL     1     -11.309  10.662  68.704  1.00  0.00    -0.345 C  
BRANCH  13  14
HETATM   14  C   UNL     1     -11.877  11.337  69.945  1.00  0.00    -0.436 A  
HETATM   15  C   UNL     1     -11.947  12.736  70.002  1.00  0.00    -0.371 A  
HETATM   16  C   UNL     1     -12.602  13.372  71.061  1.00  0.00    -0.425 A  
HETATM   17  C   UNL     1     -13.182  12.619  72.080  1.00  0.00    -0.531 A  
HETATM   18  C   UNL     1     -13.072  11.233  72.065  1.00  0.00    -0.431 A  
HETATM   19  C   UNL     1     -12.425  10.595  71.005  1.00  0.00    -0.515 A  
ENDBRANCH  13  14
ENDBRANCH  12  13
ENDBRANCH   6   7
ENDBRANCH   5   6
ENDBRANCH   4   5
ENDBRANCH   2   4
TORSDOF 6
ENDMDL
MODEL       92
REMARK 921   NORMALIZED FREE ENERGY PREDICTED BY IDOCK:   -4.33 KCAL/MOL
REMARK 922        TOTAL FREE ENERGY PREDICTED BY IDOCK:   -6.69 KCAL/MOL
REMARK 923 INTER-LIGAND FREE ENERGY PREDICTED BY IDOCK:   -5.75 KCAL/MOL
REMARK 924 INTRA-LIGAND FREE ENERGY PREDICTED BY IDOCK:   -0.94 KCAL/MOL
REMARK 927      BINDING AFFINITY PREDICTED BY RF-SCORE:    0.00 PKD
ROOT
HETATM    1  C   UNL     1     -10.410  11.986  66.023  1.00  0.00    -0.238 C  
HETATM    2  N   UNL     1     -11.060  12.791  64.997  1.00  0.00    -0.279 NA 
HETATM    3  C   UNL     1     -12.499  12.868  65.205  1.00  0.00    -0.501 C  
ENDROOT
BRANCH   2   4
HETATM    4  C   UNL     1     -10.391  14.074  64.711  1.00  0.00    -0.380 C  
BRANCH   4   5
HETATM    5  C   UNL     1     -11.092  15.445  64.928  1.00  0.00    -0.423 C  
BRANCH   5   6
HETATM    6  O   UNL     1     -10.302  16.189  65.879  1.00  0.00    -0.330 OA 
BRANCH   6   7
HETATM    7  C   UNL     1     -10.212  15.812  67.195  1.00  0.00    -0.279 A  
HETATM    8  C   UNL     1     -11.461  15.758  67.835  1.00  0.00    -0.221 A  
HETATM    9  C   UNL     1     -11.583  15.530  69.214  1.00  0.00    -0.369 A  
HETATM   10  C   UNL     1     -10.446  15.307  69.980  1.00  0.00    -0.266 A  
HETATM   11  C   UNL     1      -9.200  15.365  69.366  1.00  0.00    -0.268 A  
HETATM   12  C   UNL     1      -9.059  15.678  67.988  1.00  0.00    -0.183 A  
BRANCH  12  13
HETATM   13  C   UNL     1      -7.662  16.053  67.553  1.00  0.00    -0.176 C  
BRANCH  13  14
HETATM   14  C   UNL     1      -7.464  17.543  67.305  1.00  0.00    -0.214 A  
HETATM   15  C   UNL     1      -7.034  17.985  66.046  1.00  0.00    -0.340 A  
HETATM   16  C   UNL     1      -6.992  19.350  65.749  1.00  0.00    -0.307 A  
HETATM   17  C   UNL     1      -7.367  20.288  66.707  1.00  0.00    -0.325 A  
HETATM   18  C   UNL     1      -7.742  19.867  67.979  1.00  0.00    -0.323 A  
HETATM   19  C   UNL     1      -7.792  18.504  68.277  1.00  0.00    -0.323 A  
ENDBRANCH  13  14
ENDBRANCH  12  13
ENDBRANCH   6   7
ENDBRANCH   5   6
ENDBRANCH   4   5
ENDBRANCH   2   4
TORSDOF 6
ENDMDL
MODEL       93
REMARK 921   NORMALIZED FREE ENERGY PREDICTED BY IDOCK:   -4.31 KCAL/MOL
REMARK 922        TOTAL FREE ENERGY PREDICTED BY IDOCK:   -6.66 KCAL/MOL
REMARK 923 INTER-LIGAND FREE ENERGY PREDICTED BY IDOCK:   -5.78 KCAL/MOL
REMARK 924 INTRA-LIGAND FREE ENERGY PREDICTED BY IDOCK:   -0.88 KCAL/MOL
REMARK 927      BINDING AFFINITY PREDICTED BY RF-SCORE:    0.00 PKD
ROOT
HETATM    1  C   UNL     1     -10.330  11.499  63.630  1.00  0.00    -0.417 C  
HETATM    2  N   UNL     1     -11.349  12.515  63.399  1.00  0.00    -0.467 NA 
HETATM    3  C   UNL     1     -12.692  11.962  63.501  1.00  0.00    -0.405 C  
ENDROOT
BRANCH   2   4
HETATM    4  C   UNL     1     -11.127  13.781  64.123  1.00  0.00    -0.171 C  
BRANCH   4   5
HETATM    5  C   UNL     1     -10.758  13.823  65.633  1.00  0.00    -0.288 C  
BRANCH   5   6
HETATM    6  O   UNL     1     -11.952  14.177  66.360  1.00  0.00    -0.400 OA 
BRANCH   6   7
HETATM    7  C   UNL     1     -11.971  14.239  67.731  1.00  0.00    -0.349 A  
HETATM    8  C   UNL     1     -11.762  15.538  68.222  1.00  0.00    -0.287 A  
HETATM    9  C   UNL     1     -11.606  15.800  69.592  1.00  0.00    -0.363 A  
HETATM   10  C   UNL     1     -11.701  14.761  70.509  1.00  0.00    -0.350 A  
HETATM   11  C   UNL     1     -11.898  13.467  70.041  1.00  0.00    -0.364 A  
HETATM   12  C   UNL     1     -11.973  13.178  68.652  1.00  0.00    -0.319 A  
BRANCH  12  13
HETATM   13  C   UNL     1     -11.830  11.718  68.290  1.00  0.00    -0.340 C  
BRANCH  13  14
HETATM   14  C   UNL     1     -10.500  11.101  68.700  1.00  0.00    -0.220 A  
HETATM   15  C   UNL     1      -9.302  11.684  68.263  1.00  0.00    -0.191 A  
HETATM   16  C   UNL     1      -8.073  11.229  68.748  1.00  0.00    -0.130 A  
HETATM   17  C   UNL     1      -8.025  10.181  69.665  1.00  0.00    -0.181 A  
HETATM   18  C   UNL     1      -9.202   9.557  70.064  1.00  0.00    -0.264 A  
HETATM   19  C   UNL     1     -10.432  10.013  69.587  1.00  0.00    -0.275 A  
ENDBRANCH  13  14
ENDBRANCH  12  13
ENDBRANCH   6   7
ENDBRANCH   5   6
ENDBRANCH   4   5
ENDBRANCH   2   4
TORSDOF 6
ENDMDL
MODEL       94
REMARK 921   NORMALIZED FREE ENERGY PREDICTED BY IDOCK:   -4.31 KCAL/MOL
REMARK 922        TOTAL FREE ENERGY PREDICTED BY IDOCK:   -6.66 KCAL/MOL
REMARK 923 INTER-LIGAND FREE ENERGY PREDICTED BY IDOCK:   -5.83 KCAL/MOL
REMARK 924 INTRA-LIGAND FREE ENERGY PREDICTED BY IDOCK:   -0.83 KCAL/MOL
REMARK 927      BINDING AFFINITY PREDICTED BY RF-SCORE:    0.00 PKD
ROOT
HETATM    1  C   UNL     1      -7.587  11.835  67.575  1.00  0.00    -0.135 C  
HETATM    2  N   UNL     1      -8.963  11.368  67.472  1.00  0.00    -0.148 NA 
HETATM    3  C   UNL     1      -9.752  12.209  66.582  1.00  0.00    -0.219 C  
ENDROOT
BRANCH   2   4
HETATM    4  C   UNL     1      -9.102   9.915  67.260  1.00  0.00    -0.135 C  
BRANCH   4   5
HETATM    5  C   UNL     1      -9.217   8.909  68.440  1.00  0.00    -0.140 C  
BRANCH   5   6
HETATM    6  O   UNL     1      -9.290   9.678  69.658  1.00  0.00    -0.181 OA 
BRANCH   6   7
HETATM    7  C   UNL     1      -9.909   9.193  70.783  1.00  0.00    -0.270 A  
HETATM    8  C   UNL     1      -9.117   8.274  71.489  1.00  0.00    -0.229 A  
HETATM    9  C   UNL     1      -9.610   7.555  72.588  1.00  0.00    -0.220 A  
HETATM   10  C   UNL     1     -10.907   7.778  73.033  1.00  0.00    -0.451 A  
HETATM   11  C   UNL     1     -11.710   8.678  72.341  1.00  0.00    -0.393 A  
HETATM   12  C   UNL     1     -11.249   9.348  71.177  1.00  0.00    -0.427 A  
BRANCH  12  13
HETATM   13  C   UNL     1     -12.325  10.003  70.343  1.00  0.00    -0.210 C  
BRANCH  13  14
HETATM   14  C   UNL     1     -12.510  11.489  70.619  1.00  0.00    -0.405 A  
HETATM   15  C   UNL     1     -13.248  11.900  71.738  1.00  0.00    -0.426 A  
HETATM   16  C   UNL     1     -13.303  13.250  72.097  1.00  0.00    -0.618 A  
HETATM   17  C   UNL     1     -12.633  14.205  71.337  1.00  0.00    -0.445 A  
HETATM   18  C   UNL     1     -11.943  13.819  70.192  1.00  0.00    -0.404 A  
HETATM   19  C   UNL     1     -11.880  12.471  69.835  1.00  0.00    -0.373 A  
ENDBRANCH  13  14
ENDBRANCH  12  13
ENDBRANCH   6   7
ENDBRANCH   5   6
ENDBRANCH   4   5
ENDBRANCH   2   4
TORSDOF 6
ENDMDL
MODEL       95
REMARK 921   NORMALIZED FREE ENERGY PREDICTED BY IDOCK:   -4.30 KCAL/MOL
REMARK 922        TOTAL FREE ENERGY PREDICTED BY IDOCK:   -6.65 KCAL/MOL
REMARK 923 INTER-LIGAND FREE ENERGY PREDICTED BY IDOCK:   -6.19 KCAL/MOL
REMARK 924 INTRA-LIGAND FREE ENERGY PREDICTED BY IDOCK:   -0.46 KCAL/MOL
REMARK 927      BINDING AFFINITY PREDICTED BY RF-SCORE:    0.00 PKD
ROOT
HETATM    1  C   UNL     1     -10.475  16.043  65.472  1.00  0.00    -0.405 C  
HETATM    2  N   UNL     1     -11.365  15.293  66.347  1.00  0.00    -0.231 NA 
HETATM    3  C   UNL     1     -11.970  14.161  65.659  1.00  0.00    -0.396 C  
ENDROOT
BRANCH   2   4
HETATM    4  C   UNL     1     -10.808  14.999  67.681  1.00  0.00    -0.291 C  
BRANCH   4   5
HETATM    5  C   UNL     1      -9.278  14.909  67.943  1.00  0.00    -0.183 C  
BRANCH   5   6
HETATM    6  O   UNL     1      -9.003  13.586  68.449  1.00  0.00    -0.184 OA 
BRANCH   6   7
HETATM    7  C   UNL     1      -9.493  12.461  67.834  1.00  0.00    -0.198 A  
HETATM    8  C   UNL     1      -8.901  12.219  66.584  1.00  0.00    -0.167 A  
HETATM    9  C   UNL     1      -9.353  11.203  65.729  1.00  0.00    -0.238 A  
HETATM   10  C   UNL     1     -10.391  10.372  66.133  1.00  0.00    -0.269 A  
HETATM   11  C   UNL     1     -10.996  10.602  67.363  1.00  0.00    -0.361 A  
HETATM   12  C   UNL     1     -10.603  11.680  68.200  1.00  0.00    -0.230 A  
BRANCH  12  13
HETATM   13  C   UNL     1     -11.568  12.017  69.313  1.00  0.00    -0.380 C  
BRANCH  13  14
HETATM   14  C   UNL     1     -11.731  10.915  70.352  1.00  0.00    -0.444 A  
HETATM   15  C   UNL     1     -12.859  10.910  71.185  1.00  0.00    -0.508 A  
HETATM   16  C   UNL     1     -13.107   9.831  72.038  1.00  0.00    -0.546 A  
HETATM   17  C   UNL     1     -12.228   8.751  72.077  1.00  0.00    -0.447 A  
HETATM   18  C   UNL     1     -11.076   8.768  71.296  1.00  0.00    -0.348 A  
HETATM   19  C   UNL     1     -10.829   9.841  70.439  1.00  0.00    -0.370 A  
ENDBRANCH  13  14
ENDBRANCH  12  13
ENDBRANCH   6   7
ENDBRANCH   5   6
ENDBRANCH   4   5
ENDBRANCH   2   4
TORSDOF 6
ENDMDL
MODEL       96
REMARK 921   NORMALIZED FREE ENERGY PREDICTED BY IDOCK:   -4.30 KCAL/MOL
REMARK 922        TOTAL FREE ENERGY PREDICTED BY IDOCK:   -6.64 KCAL/MOL
REMARK 923 INTER-LIGAND FREE ENERGY PREDICTED BY IDOCK:   -5.89 KCAL/MOL
REMARK 924 INTRA-LIGAND FREE ENERGY PREDICTED BY IDOCK:   -0.76 KCAL/MOL
REMARK 927      BINDING AFFINITY PREDICTED BY RF-SCORE:    0.00 PKD
ROOT
HETATM    1  C   UNL     1     -11.822  14.124  66.795  1.00  0.00    -0.425 C  
HETATM    2  N   UNL     1     -10.825  13.161  66.348  1.00  0.00    -0.285 NA 
HETATM    3  C   UNL     1      -9.502  13.475  66.868  1.00  0.00    -0.258 C  
ENDROOT
BRANCH   2   4
HETATM    4  C   UNL     1     -11.237  11.750  66.473  1.00  0.00    -0.321 C  
BRANCH   4   5
HETATM    5  C   UNL     1     -10.242  10.626  66.881  1.00  0.00    -0.223 C  
BRANCH   5   6
HETATM    6  O   UNL     1     -11.024   9.500  67.331  1.00  0.00    -0.232 OA 
BRANCH   6   7
HETATM    7  C   UNL     1     -10.435   8.344  67.779  1.00  0.00    -0.220 A  
HETATM    8  C   UNL     1     -10.729   7.233  66.972  1.00  0.00    -0.406 A  
HETATM    9  C   UNL     1     -10.343   5.932  67.327  1.00  0.00    -0.279 A  
HETATM   10  C   UNL     1      -9.608   5.722  68.487  1.00  0.00    -0.150 A  
HETATM   11  C   UNL     1      -9.314   6.808  69.303  1.00  0.00    -0.144 A  
HETATM   12  C   UNL     1      -9.773   8.118  68.997  1.00  0.00    -0.163 A  
BRANCH  12  13
HETATM   13  C   UNL     1      -9.688   9.110  70.133  1.00  0.00    -0.234 C  
BRANCH  13  14
HETATM   14  C   UNL     1     -11.039   9.542  70.688  1.00  0.00    -0.364 A  
HETATM   15  C   UNL     1     -11.741   8.684  71.545  1.00  0.00    -0.369 A  
HETATM   16  C   UNL     1     -12.905   9.117  72.187  1.00  0.00    -0.486 A  
HETATM   17  C   UNL     1     -13.387  10.406  71.970  1.00  0.00    -0.440 A  
HETATM   18  C   UNL     1     -12.731  11.249  71.079  1.00  0.00    -0.457 A  
HETATM   19  C   UNL     1     -11.564  10.822  70.443  1.00  0.00    -0.431 A  
ENDBRANCH  13  14
ENDBRANCH  12  13
ENDBRANCH   6   7
ENDBRANCH   5   6
ENDBRANCH   4   5
ENDBRANCH   2   4
TORSDOF 6
ENDMDL
MODEL       97
REMARK 921   NORMALIZED FREE ENERGY PREDICTED BY IDOCK:   -4.27 KCAL/MOL
REMARK 922        TOTAL FREE ENERGY PREDICTED BY IDOCK:   -6.61 KCAL/MOL
REMARK 923 INTER-LIGAND FREE ENERGY PREDICTED BY IDOCK:   -5.70 KCAL/MOL
REMARK 924 INTRA-LIGAND FREE ENERGY PREDICTED BY IDOCK:   -0.91 KCAL/MOL
REMARK 927      BINDING AFFINITY PREDICTED BY RF-SCORE:    0.00 PKD
ROOT
HETATM    1  C   UNL     1      -7.789  10.045  64.678  1.00  0.00    -0.145 C  
HETATM    2  N   UNL     1      -9.060  10.389  65.300  1.00  0.00    -0.181 NA 
HETATM    3  C   UNL     1     -10.118  10.543  64.311  1.00  0.00    -0.310 C  
ENDROOT
BRANCH   2   4
HETATM    4  C   UNL     1      -9.408   9.571  66.477  1.00  0.00    -0.171 C  
BRANCH   4   5
HETATM    5  C   UNL     1     -10.704   9.809  67.303  1.00  0.00    -0.227 C  
BRANCH   5   6
HETATM    6  O   UNL     1     -10.304  10.214  68.628  1.00  0.00    -0.171 OA 
BRANCH   6   7
HETATM    7  C   UNL     1     -10.855  11.309  69.246  1.00  0.00    -0.212 A  
HETATM    8  C   UNL     1     -11.856  10.970  70.170  1.00  0.00    -0.441 A  
HETATM    9  C   UNL     1     -12.641  11.941  70.808  1.00  0.00    -0.325 A  
HETATM   10  C   UNL     1     -12.408  13.289  70.562  1.00  0.00    -0.389 A  
HETATM   11  C   UNL     1     -11.427  13.644  69.643  1.00  0.00    -0.286 A  
HETATM   12  C   UNL     1     -10.683  12.667  68.929  1.00  0.00    -0.201 A  
BRANCH  12  13
HETATM   13  C   UNL     1      -9.925  13.187  67.730  1.00  0.00    -0.227 C  
BRANCH  13  14
HETATM   14  C   UNL     1     -10.809  13.767  66.634  1.00  0.00    -0.288 A  
HETATM   15  C   UNL     1     -10.368  14.879  65.904  1.00  0.00    -0.330 A  
HETATM   16  C   UNL     1     -11.090  15.334  64.796  1.00  0.00    -0.407 A  
HETATM   17  C   UNL     1     -12.265  14.692  64.414  1.00  0.00    -0.473 A  
HETATM   18  C   UNL     1     -12.745  13.622  65.163  1.00  0.00    -0.443 A  
HETATM   19  C   UNL     1     -12.022  13.161  66.265  1.00  0.00    -0.473 A  
ENDBRANCH  13  14
ENDBRANCH  12  13
ENDBRANCH   6   7
ENDBRANCH   5   6
ENDBRANCH   4   5
ENDBRANCH   2   4
TORSDOF 6
ENDMDL
MODEL       98
REMARK 921   NORMALIZED FREE ENERGY PREDICTED BY IDOCK:   -4.27 KCAL/MOL
REMARK 922        TOTAL FREE ENERGY PREDICTED BY IDOCK:   -6.60 KCAL/MOL
REMARK 923 INTER-LIGAND FREE ENERGY PREDICTED BY IDOCK:   -5.94 KCAL/MOL
REMARK 924 INTRA-LIGAND FREE ENERGY PREDICTED BY IDOCK:   -0.67 KCAL/MOL
REMARK 927      BINDING AFFINITY PREDICTED BY RF-SCORE:    0.00 PKD
ROOT
HETATM    1  C   UNL     1      -9.988   7.327  68.886  1.00  0.00    -0.166 C  
HETATM    2  N   UNL     1      -9.938   7.140  67.442  1.00  0.00    -0.158 NA 
HETATM    3  C   UNL     1     -10.739   6.001  67.019  1.00  0.00    -0.337 C  
ENDROOT
BRANCH   2   4
HETATM    4  C   UNL     1     -10.127   8.375  66.658  1.00  0.00    -0.288 C  
BRANCH   4   5
HETATM    5  C   UNL     1      -9.816   9.785  67.236  1.00  0.00    -0.181 C  
BRANCH   5   6
HETATM    6  O   UNL     1      -9.495  10.647  66.124  1.00  0.00    -0.169 OA 
BRANCH   6   7
HETATM    7  C   UNL     1     -10.395  11.562  65.638  1.00  0.00    -0.261 A  
HETATM    8  C   UNL     1     -10.889  11.221  64.369  1.00  0.00    -0.373 A  
HETATM    9  C   UNL     1     -11.711  12.087  63.632  1.00  0.00    -0.587 A  
HETATM   10  C   UNL     1     -12.094  13.306  64.177  1.00  0.00    -0.494 A  
HETATM   11  C   UNL     1     -11.606  13.666  65.429  1.00  0.00    -0.334 A  
HETATM   12  C   UNL     1     -10.706  12.834  66.147  1.00  0.00    -0.297 A  
BRANCH  12  13
HETATM   13  C   UNL     1      -9.995  13.502  67.301  1.00  0.00    -0.236 C  
BRANCH  13  14
HETATM   14  C   UNL     1     -10.749  13.434  68.622  1.00  0.00    -0.275 A  
HETATM   15  C   UNL     1     -11.077  14.620  69.294  1.00  0.00    -0.290 A  
HETATM   16  C   UNL     1     -11.898  14.593  70.425  1.00  0.00    -0.365 A  
HETATM   17  C   UNL     1     -12.392  13.381  70.903  1.00  0.00    -0.436 A  
HETATM   18  C   UNL     1     -12.030  12.192  70.279  1.00  0.00    -0.389 A  
HETATM   19  C   UNL     1     -11.216  12.217  69.146  1.00  0.00    -0.303 A  
ENDBRANCH  13  14
ENDBRANCH  12  13
ENDBRANCH   6   7
ENDBRANCH   5   6
ENDBRANCH   4   5
ENDBRANCH   2   4
TORSDOF 6
ENDMDL
MODEL       99
REMARK 921   NORMALIZED FREE ENERGY PREDICTED BY IDOCK:   -4.27 KCAL/MOL
REMARK 922        TOTAL FREE ENERGY PREDICTED BY IDOCK:   -6.60 KCAL/MOL
REMARK 923 INTER-LIGAND FREE ENERGY PREDICTED BY IDOCK:   -5.88 KCAL/MOL
REMARK 924 INTRA-LIGAND FREE ENERGY PREDICTED BY IDOCK:   -0.72 KCAL/MOL
REMARK 927      BINDING AFFINITY PREDICTED BY RF-SCORE:    0.00 PKD
ROOT
HETATM    1  C   UNL     1     -11.254   8.809  71.471  1.00  0.00    -0.307 C  
HETATM    2  N   UNL     1     -12.058   9.792  70.756  1.00  0.00    -0.289 NA 
HETATM    3  C   UNL     1     -12.961  10.502  71.651  1.00  0.00    -0.476 C  
ENDROOT
BRANCH   2   4
HETATM    4  C   UNL     1     -11.298  10.640  69.818  1.00  0.00    -0.301 C  
BRANCH   4   5
HETATM    5  C   UNL     1     -11.970  11.767  68.984  1.00  0.00    -0.280 C  
BRANCH   5   6
HETATM    6  O   UNL     1     -11.883  11.387  67.595  1.00  0.00    -0.609 OA 
BRANCH   6   7
HETATM    7  C   UNL     1     -11.466  12.269  66.629  1.00  0.00    -0.373 A  
HETATM    8  C   UNL     1     -11.962  13.568  66.824  1.00  0.00    -0.453 A  
HETATM    9  C   UNL     1     -11.772  14.588  65.880  1.00  0.00    -0.345 A  
HETATM   10  C   UNL     1     -11.036  14.335  64.730  1.00  0.00    -0.408 A  
HETATM   11  C   UNL     1     -10.544  13.052  64.514  1.00  0.00    -0.413 A  
HETATM   12  C   UNL     1     -10.803  11.991  65.422  1.00  0.00    -0.336 A  
BRANCH  12  13
HETATM   13  C   UNL     1     -10.519  10.606  64.889  1.00  0.00    -0.282 C  
BRANCH  13  14
HETATM   14  C   UNL     1      -9.043  10.316  64.656  1.00  0.00    -0.265 A  
HETATM   15  C   UNL     1      -8.590  10.027  63.361  1.00  0.00    -0.204 A  
HETATM   16  C   UNL     1      -7.223   9.909  63.096  1.00  0.00    -0.128 A  
HETATM   17  C   UNL     1      -6.294  10.068  64.121  1.00  0.00    -0.132 A  
HETATM   18  C   UNL     1      -6.731  10.301  65.421  1.00  0.00    -0.123 A  
HETATM   19  C   UNL     1      -8.095  10.426  65.688  1.00  0.00    -0.156 A  
ENDBRANCH  13  14
ENDBRANCH  12  13
ENDBRANCH   6   7
ENDBRANCH   5   6
ENDBRANCH   4   5
ENDBRANCH   2   4
TORSDOF 6
ENDMDL
MODEL      100
REMARK 921   NORMALIZED FREE ENERGY PREDICTED BY IDOCK:   -4.26 KCAL/MOL
REMARK 922        TOTAL FREE ENERGY PREDICTED BY IDOCK:   -6.60 KCAL/MOL
REMARK 923 INTER-LIGAND FREE ENERGY PREDICTED BY IDOCK:   -6.03 KCAL/MOL
REMARK 924 INTRA-LIGAND FREE ENERGY PREDICTED BY IDOCK:   -0.57 KCAL/MOL
REMARK 927      BINDING AFFINITY PREDICTED BY RF-SCORE:    0.00 PKD
ROOT
HETATM    1  C   UNL     1      -6.791  15.460  69.632  1.00  0.00    -0.185 C  
HETATM    2  N   UNL     1      -7.201  15.782  68.272  1.00  0.00    -0.113 NA 
HETATM    3  C   UNL     1      -7.332  14.586  67.453  1.00  0.00    -0.157 C  
ENDROOT
BRANCH   2   4
HETATM    4  C   UNL     1      -8.319  16.740  68.179  1.00  0.00    -0.201 C  
BRANCH   4   5
HETATM    5  C   UNL     1      -9.349  16.706  67.014  1.00  0.00    -0.224 C  
BRANCH   5   6
HETATM    6  O   UNL     1     -10.521  16.015  67.494  1.00  0.00    -0.284 OA 
BRANCH   6   7
HETATM    7  C   UNL     1     -11.038  14.927  66.836  1.00  0.00    -0.337 A  
HETATM    8  C   UNL     1     -11.204  15.148  65.459  1.00  0.00    -0.320 A  
HETATM    9  C   UNL     1     -11.844  14.219  64.627  1.00  0.00    -0.459 A  
HETATM   10  C   UNL     1     -12.297  13.016  65.155  1.00  0.00    -0.536 A  
HETATM   11  C   UNL     1     -12.150  12.783  66.518  1.00  0.00    -0.338 A  
HETATM   12  C   UNL     1     -11.579  13.752  67.385  1.00  0.00    -0.393 A  
BRANCH  12  13
HETATM   13  C   UNL     1     -11.810  13.512  68.859  1.00  0.00    -0.384 C  
BRANCH  13  14
HETATM   14  C   UNL     1     -11.444  12.110  69.327  1.00  0.00    -0.363 A  
HETATM   15  C   UNL     1     -10.296  11.487  68.819  1.00  0.00    -0.213 A  
HETATM   16  C   UNL     1      -9.857  10.269  69.345  1.00  0.00    -0.247 A  
HETATM   17  C   UNL     1     -10.565   9.653  70.374  1.00  0.00    -0.354 A  
HETATM   18  C   UNL     1     -11.737  10.232  70.850  1.00  0.00    -0.472 A  
HETATM   19  C   UNL     1     -12.174  11.453  70.332  1.00  0.00    -0.450 A  
ENDBRANCH  13  14
ENDBRANCH  12  13
ENDBRANCH   6   7
ENDBRANCH   5   6
ENDBRANCH   4   5
ENDBRANCH   2   4
TORSDOF 6
ENDMDL
MODEL      101
REMARK 921   NORMALIZED FREE ENERGY PREDICTED BY IDOCK:   -4.26 KCAL/MOL
REMARK 922        TOTAL FREE ENERGY PREDICTED BY IDOCK:   -6.59 KCAL/MOL
REMARK 923 INTER-LIGAND FREE ENERGY PREDICTED BY IDOCK:   -6.00 KCAL/MOL
REMARK 924 INTRA-LIGAND FREE ENERGY PREDICTED BY IDOCK:   -0.59 KCAL/MOL
REMARK 927      BINDING AFFINITY PREDICTED BY RF-SCORE:    0.00 PKD
ROOT
HETATM    1  C   UNL     1     -12.780  13.999  65.468  1.00  0.00    -0.486 C  
HETATM    2  N   UNL     1     -12.331  12.618  65.347  1.00  0.00    -0.609 NA 
HETATM    3  C   UNL     1     -12.134  12.236  63.956  1.00  0.00    -0.471 C  
ENDROOT
BRANCH   2   4
HETATM    4  C   UNL     1     -11.240  12.246  66.268  1.00  0.00    -0.323 C  
BRANCH   4   5
HETATM    5  C   UNL     1     -11.440  12.170  67.808  1.00  0.00    -0.332 C  
BRANCH   5   6
HETATM    6  O   UNL     1     -11.958  10.858  68.112  1.00  0.00    -0.581 OA 
BRANCH   6   7
HETATM    7  C   UNL     1     -11.302  10.001  68.959  1.00  0.00    -0.084 A  
HETATM    8  C   UNL     1     -11.593  10.239  70.312  1.00  0.00    -0.396 A  
HETATM    9  C   UNL     1     -10.923   9.569  71.347  1.00  0.00    -0.415 A  
HETATM   10  C   UNL     1      -9.970   8.606  71.043  1.00  0.00    -0.272 A  
HETATM   11  C   UNL     1      -9.661   8.362  69.709  1.00  0.00    -0.180 A  
HETATM   12  C   UNL     1     -10.272   9.094  68.656  1.00  0.00    -0.225 A  
BRANCH  12  13
HETATM   13  C   UNL     1      -9.591   8.976  67.312  1.00  0.00    -0.206 C  
BRANCH  13  14
HETATM   14  C   UNL     1      -9.695   7.595  66.679  1.00  0.00    -0.283 A  
HETATM   15  C   UNL     1      -8.730   7.186  65.748  1.00  0.00    -0.125 A  
HETATM   16  C   UNL     1      -8.716   5.872  65.270  1.00  0.00    -0.078 A  
HETATM   17  C   UNL     1      -9.671   4.957  65.706  1.00  0.00    -0.184 A  
HETATM   18  C   UNL     1     -10.668   5.364  66.587  1.00  0.00    -0.309 A  
HETATM   19  C   UNL     1     -10.680   6.673  67.072  1.00  0.00    -0.437 A  
ENDBRANCH  13  14
ENDBRANCH  12  13
ENDBRANCH   6   7
ENDBRANCH   5   6
ENDBRANCH   4   5
ENDBRANCH   2   4
TORSDOF 6
ENDMDL
MODEL      102
REMARK 921   NORMALIZED FREE ENERGY PREDICTED BY IDOCK:   -4.25 KCAL/MOL
REMARK 922        TOTAL FREE ENERGY PREDICTED BY IDOCK:   -6.58 KCAL/MOL
REMARK 923 INTER-LIGAND FREE ENERGY PREDICTED BY IDOCK:   -5.80 KCAL/MOL
REMARK 924 INTRA-LIGAND FREE ENERGY PREDICTED BY IDOCK:   -0.78 KCAL/MOL
REMARK 927      BINDING AFFINITY PREDICTED BY RF-SCORE:    0.00 PKD
ROOT
HETATM    1  C   UNL     1     -10.712  11.762  63.923  1.00  0.00    -0.399 C  
HETATM    2  N   UNL     1     -10.092  10.447  63.826  1.00  0.00    -0.193 NA 
HETATM    3  C   UNL     1      -9.225  10.346  62.660  1.00  0.00    -0.303 C  
ENDROOT
BRANCH   2   4
HETATM    4  C   UNL     1      -9.516   9.946  65.089  1.00  0.00    -0.275 C  
BRANCH   4   5
HETATM    5  C   UNL     1      -9.940  10.506  66.476  1.00  0.00    -0.214 C  
BRANCH   5   6
HETATM    6  O   UNL     1     -10.871   9.569  67.054  1.00  0.00    -0.196 OA 
BRANCH   6   7
HETATM    7  C   UNL     1     -10.449   8.420  67.675  1.00  0.00    -0.239 A  
HETATM    8  C   UNL     1     -10.873   7.255  67.017  1.00  0.00    -0.350 A  
HETATM    9  C   UNL     1     -10.669   5.977  67.558  1.00  0.00    -0.383 A  
HETATM   10  C   UNL     1      -9.990   5.837  68.762  1.00  0.00    -0.207 A  
HETATM   11  C   UNL     1      -9.570   6.980  69.434  1.00  0.00    -0.155 A  
HETATM   12  C   UNL     1      -9.845   8.282  68.937  1.00  0.00    -0.183 A  
BRANCH  12  13
HETATM   13  C   UNL     1      -9.651   9.403  69.930  1.00  0.00    -0.234 C  
BRANCH  13  14
HETATM   14  C   UNL     1     -10.946   9.956  70.510  1.00  0.00    -0.391 A  
HETATM   15  C   UNL     1     -11.606   9.251  71.526  1.00  0.00    -0.452 A  
HETATM   16  C   UNL     1     -12.709   9.810  72.178  1.00  0.00    -0.410 A  
HETATM   17  C   UNL     1     -13.171  11.073  71.816  1.00  0.00    -0.505 A  
HETATM   18  C   UNL     1     -12.560  11.760  70.772  1.00  0.00    -0.344 A  
HETATM   19  C   UNL     1     -11.455  11.207  70.124  1.00  0.00    -0.361 A  
ENDBRANCH  13  14
ENDBRANCH  12  13
ENDBRANCH   6   7
ENDBRANCH   5   6
ENDBRANCH   4   5
ENDBRANCH   2   4
TORSDOF 6
ENDMDL
MODEL      103
REMARK 921   NORMALIZED FREE ENERGY PREDICTED BY IDOCK:   -4.25 KCAL/MOL
REMARK 922        TOTAL FREE ENERGY PREDICTED BY IDOCK:   -6.58 KCAL/MOL
REMARK 923 INTER-LIGAND FREE ENERGY PREDICTED BY IDOCK:   -5.81 KCAL/MOL
REMARK 924 INTRA-LIGAND FREE ENERGY PREDICTED BY IDOCK:   -0.77 KCAL/MOL
REMARK 927      BINDING AFFINITY PREDICTED BY RF-SCORE:    0.00 PKD
ROOT
HETATM    1  C   UNL     1      -9.358   9.861  64.346  1.00  0.00    -0.265 C  
HETATM    2  N   UNL     1      -9.928  11.175  64.612  1.00  0.00    -0.269 NA 
HETATM    3  C   UNL     1     -11.031  11.476  63.710  1.00  0.00    -0.409 C  
ENDROOT
BRANCH   2   4
HETATM    4  C   UNL     1     -10.179  11.457  66.038  1.00  0.00    -0.245 C  
BRANCH   4   5
HETATM    5  C   UNL     1     -10.492  10.333  67.066  1.00  0.00    -0.244 C  
BRANCH   5   6
HETATM    6  O   UNL     1     -10.039  10.790  68.357  1.00  0.00    -0.158 OA 
BRANCH   6   7
HETATM    7  C   UNL     1     -10.910  10.992  69.398  1.00  0.00    -0.231 A  
HETATM    8  C   UNL     1     -11.071   9.854  70.205  1.00  0.00    -0.368 A  
HETATM    9  C   UNL     1     -12.018   9.801  71.238  1.00  0.00    -0.471 A  
HETATM   10  C   UNL     1     -12.802  10.914  71.515  1.00  0.00    -0.560 A  
HETATM   11  C   UNL     1     -12.663  12.048  70.721  1.00  0.00    -0.231 A  
HETATM   12  C   UNL     1     -11.767  12.083  69.619  1.00  0.00    -0.405 A  
BRANCH  12  13
HETATM   13  C   UNL     1     -11.982  13.224  68.652  1.00  0.00    -0.345 C  
BRANCH  13  14
HETATM   14  C   UNL     1     -11.069  14.420  68.885  1.00  0.00    -0.277 A  
HETATM   15  C   UNL     1      -9.716  14.338  68.528  1.00  0.00    -0.225 A  
HETATM   16  C   UNL     1      -8.895  15.468  68.589  1.00  0.00    -0.193 A  
HETATM   17  C   UNL     1      -9.412  16.688  69.017  1.00  0.00    -0.236 A  
HETATM   18  C   UNL     1     -10.739  16.771  69.427  1.00  0.00    -0.300 A  
HETATM   19  C   UNL     1     -11.563  15.647  69.361  1.00  0.00    -0.378 A  
ENDBRANCH  13  14
ENDBRANCH  12  13
ENDBRANCH   6   7
ENDBRANCH   5   6
ENDBRANCH   4   5
ENDBRANCH   2   4
TORSDOF 6
ENDMDL
MODEL      104
REMARK 921   NORMALIZED FREE ENERGY PREDICTED BY IDOCK:   -4.25 KCAL/MOL
REMARK 922        TOTAL FREE ENERGY PREDICTED BY IDOCK:   -6.57 KCAL/MOL
REMARK 923 INTER-LIGAND FREE ENERGY PREDICTED BY IDOCK:   -6.13 KCAL/MOL
REMARK 924 INTRA-LIGAND FREE ENERGY PREDICTED BY IDOCK:   -0.44 KCAL/MOL
REMARK 927      BINDING AFFINITY PREDICTED BY RF-SCORE:    0.00 PKD
ROOT
HETATM    1  C   UNL     1     -10.602  16.330  65.761  1.00  0.00    -0.324 C  
HETATM    2  N   UNL     1     -10.546  14.920  66.122  1.00  0.00    -0.307 NA 
HETATM    3  C   UNL     1      -9.284  14.578  66.763  1.00  0.00    -0.267 C  
ENDROOT
BRANCH   2   4
HETATM    4  C   UNL     1     -11.757  14.411  66.793  1.00  0.00    -0.397 C  
BRANCH   4   5
HETATM    5  C   UNL     1     -11.753  13.105  67.638  1.00  0.00    -0.369 C  
BRANCH   5   6
HETATM    6  O   UNL     1     -11.924  12.000  66.727  1.00  0.00    -0.616 OA 
BRANCH   6   7
HETATM    7  C   UNL     1     -10.873  11.489  66.007  1.00  0.00    -0.276 A  
HETATM    8  C   UNL     1     -11.058  11.595  64.619  1.00  0.00    -0.342 A  
HETATM    9  C   UNL     1     -10.171  11.011  63.702  1.00  0.00    -0.431 A  
HETATM   10  C   UNL     1      -9.046  10.338  64.163  1.00  0.00    -0.284 A  
HETATM   11  C   UNL     1      -8.850  10.215  65.534  1.00  0.00    -0.191 A  
HETATM   12  C   UNL     1      -9.786  10.729  66.471  1.00  0.00    -0.236 A  
BRANCH  12  13
HETATM   13  C   UNL     1      -9.629  10.216  67.884  1.00  0.00    -0.166 C  
BRANCH  13  14
HETATM   14  C   UNL     1     -10.081   8.775  68.079  1.00  0.00    -0.241 A  
HETATM   15  C   UNL     1     -10.304   8.289  69.374  1.00  0.00    -0.223 A  
HETATM   16  C   UNL     1     -10.864   7.023  69.571  1.00  0.00    -0.265 A  
HETATM   17  C   UNL     1     -11.198   6.226  68.479  1.00  0.00    -0.305 A  
HETATM   18  C   UNL     1     -10.931   6.674  67.189  1.00  0.00    -0.478 A  
HETATM   19  C   UNL     1     -10.378   7.939  66.989  1.00  0.00    -0.411 A  
ENDBRANCH  13  14
ENDBRANCH  12  13
ENDBRANCH   6   7
ENDBRANCH   5   6
ENDBRANCH   4   5
ENDBRANCH   2   4
TORSDOF 6
ENDMDL
MODEL      105
REMARK 921   NORMALIZED FREE ENERGY PREDICTED BY IDOCK:   -4.24 KCAL/MOL
REMARK 922        TOTAL FREE ENERGY PREDICTED BY IDOCK:   -6.56 KCAL/MOL
REMARK 923 INTER-LIGAND FREE ENERGY PREDICTED BY IDOCK:   -5.74 KCAL/MOL
REMARK 924 INTRA-LIGAND FREE ENERGY PREDICTED BY IDOCK:   -0.82 KCAL/MOL
REMARK 927      BINDING AFFINITY PREDICTED BY RF-SCORE:    0.00 PKD
ROOT
HETATM    1  C   UNL     1      -9.406   8.654  69.305  1.00  0.00    -0.153 C  
HETATM    2  N   UNL     1      -9.769   8.179  67.977  1.00  0.00    -0.156 NA 
HETATM    3  C   UNL     1     -10.425   6.880  68.031  1.00  0.00    -0.211 C  
ENDROOT
BRANCH   2   4
HETATM    4  C   UNL     1     -10.427   9.187  67.124  1.00  0.00    -0.255 C  
BRANCH   4   5
HETATM    5  C   UNL     1     -10.423  10.702  67.473  1.00  0.00    -0.230 C  
BRANCH   5   6
HETATM    6  O   UNL     1     -11.731  11.031  67.986  1.00  0.00    -0.532 OA 
BRANCH   6   7
HETATM    7  C   UNL     1     -11.900  11.927  69.012  1.00  0.00    -0.308 A  
HETATM    8  C   UNL     1     -12.237  11.309  70.227  1.00  0.00    -0.428 A  
HETATM    9  C   UNL     1     -12.590  12.049  71.366  1.00  0.00    -0.330 A  
HETATM   10  C   UNL     1     -12.569  13.437  71.321  1.00  0.00    -0.411 A  
HETATM   11  C   UNL     1     -12.247  14.067  70.124  1.00  0.00    -0.425 A  
HETATM   12  C   UNL     1     -11.971  13.329  68.942  1.00  0.00    -0.336 A  
BRANCH  12  13
HETATM   13  C   UNL     1     -11.992  14.132  67.663  1.00  0.00    -0.405 C  
BRANCH  13  14
HETATM   14  C   UNL     1     -10.716  14.920  67.400  1.00  0.00    -0.292 A  
HETATM   15  C   UNL     1      -9.496  14.241  67.272  1.00  0.00    -0.220 A  
HETATM   16  C   UNL     1      -8.341  14.924  66.880  1.00  0.00    -0.212 A  
HETATM   17  C   UNL     1      -8.388  16.292  66.623  1.00  0.00    -0.315 A  
HETATM   18  C   UNL     1      -9.579  16.989  66.800  1.00  0.00    -0.274 A  
HETATM   19  C   UNL     1     -10.736  16.309  67.184  1.00  0.00    -0.247 A  
ENDBRANCH  13  14
ENDBRANCH  12  13
ENDBRANCH   6   7
ENDBRANCH   5   6
ENDBRANCH   4   5
ENDBRANCH   2   4
TORSDOF 6
ENDMDL
MODEL      106
REMARK 921   NORMALIZED FREE ENERGY PREDICTED BY IDOCK:   -4.23 KCAL/MOL
REMARK 922        TOTAL FREE ENERGY PREDICTED BY IDOCK:   -6.56 KCAL/MOL
REMARK 923 INTER-LIGAND FREE ENERGY PREDICTED BY IDOCK:   -5.77 KCAL/MOL
REMARK 924 INTRA-LIGAND FREE ENERGY PREDICTED BY IDOCK:   -0.78 KCAL/MOL
REMARK 927      BINDING AFFINITY PREDICTED BY RF-SCORE:    0.00 PKD
ROOT
HETATM    1  C   UNL     1     -12.694  13.943  65.527  1.00  0.00    -0.499 C  
HETATM    2  N   UNL     1     -11.396  13.465  65.982  1.00  0.00    -0.304 NA 
HETATM    3  C   UNL     1     -10.483  13.245  64.869  1.00  0.00    -0.371 C  
ENDROOT
BRANCH   2   4
HETATM    4  C   UNL     1     -10.834  14.211  67.124  1.00  0.00    -0.290 C  
BRANCH   4   5
HETATM    5  C   UNL     1     -10.680  13.579  68.537  1.00  0.00    -0.255 C  
BRANCH   5   6
HETATM    6  O   UNL     1     -10.674  12.146  68.370  1.00  0.00    -0.211 OA 
BRANCH   6   7
HETATM    7  C   UNL     1     -11.224  11.307  69.307  1.00  0.00    -0.272 A  
HETATM    8  C   UNL     1     -12.189  11.940  70.107  1.00  0.00    -0.319 A  
HETATM    9  C   UNL     1     -12.773  11.304  71.213  1.00  0.00    -0.510 A  
HETATM   10  C   UNL     1     -12.430   9.992  71.517  1.00  0.00    -0.516 A  
HETATM   11  C   UNL     1     -11.469   9.352  70.741  1.00  0.00    -0.364 A  
HETATM   12  C   UNL     1     -10.810  10.015  69.671  1.00  0.00    -0.292 A  
BRANCH  12  13
HETATM   13  C   UNL     1      -9.563   9.330  69.162  1.00  0.00    -0.161 C  
BRANCH  13  14
HETATM   14  C   UNL     1      -9.794   7.917  68.644  1.00  0.00    -0.177 A  
HETATM   15  C   UNL     1     -10.471   7.726  67.431  1.00  0.00    -0.362 A  
HETATM   16  C   UNL     1     -10.561   6.453  66.860  1.00  0.00    -0.379 A  
HETATM   17  C   UNL     1      -9.987   5.356  67.499  1.00  0.00    -0.198 A  
HETATM   18  C   UNL     1      -9.361   5.522  68.730  1.00  0.00    -0.152 A  
HETATM   19  C   UNL     1      -9.263   6.793  69.299  1.00  0.00    -0.141 A  
ENDBRANCH  13  14
ENDBRANCH  12  13
ENDBRANCH   6   7
ENDBRANCH   5   6
ENDBRANCH   4   5
ENDBRANCH   2   4
TORSDOF 6
ENDMDL
MODEL      107
REMARK 921   NORMALIZED FREE ENERGY PREDICTED BY IDOCK:   -4.23 KCAL/MOL
REMARK 922        TOTAL FREE ENERGY PREDICTED BY IDOCK:   -6.55 KCAL/MOL
REMARK 923 INTER-LIGAND FREE ENERGY PREDICTED BY IDOCK:   -6.08 KCAL/MOL
REMARK 924 INTRA-LIGAND FREE ENERGY PREDICTED BY IDOCK:   -0.47 KCAL/MOL
REMARK 927      BINDING AFFINITY PREDICTED BY RF-SCORE:    0.00 PKD
ROOT
HETATM    1  C   UNL     1      -8.695   8.467  65.779  1.00  0.00    -0.179 C  
HETATM    2  N   UNL     1      -8.688   7.919  67.129  1.00  0.00    -0.130 NA 
HETATM    3  C   UNL     1      -7.417   7.284  67.445  1.00  0.00    -0.096 C  
ENDROOT
BRANCH   2   4
HETATM    4  C   UNL     1      -9.216   8.830  68.163  1.00  0.00    -0.140 C  
BRANCH   4   5
HETATM    5  C   UNL     1      -8.843   8.689  69.665  1.00  0.00    -0.137 C  
BRANCH   5   6
HETATM    6  O   UNL     1      -9.387   9.834  70.355  1.00  0.00    -0.242 OA 
BRANCH   6   7
HETATM    7  C   UNL     1     -10.650   9.821  70.891  1.00  0.00    -0.274 A  
HETATM    8  C   UNL     1     -10.828   8.809  71.848  1.00  0.00    -0.431 A  
HETATM    9  C   UNL     1     -12.080   8.532  72.416  1.00  0.00    -0.436 A  
HETATM   10  C   UNL     1     -13.183   9.300  72.065  1.00  0.00    -0.519 A  
HETATM   11  C   UNL     1     -13.029  10.301  71.112  1.00  0.00    -0.503 A  
HETATM   12  C   UNL     1     -11.784  10.535  70.468  1.00  0.00    -0.443 A  
BRANCH  12  13
HETATM   13  C   UNL     1     -11.854  11.392  69.226  1.00  0.00    -0.417 C  
BRANCH  13  14
HETATM   14  C   UNL     1     -11.840  12.889  69.499  1.00  0.00    -0.383 A  
HETATM   15  C   UNL     1     -12.389  13.381  70.692  1.00  0.00    -0.423 A  
HETATM   16  C   UNL     1     -12.252  14.729  71.034  1.00  0.00    -0.393 A  
HETATM   17  C   UNL     1     -11.577  15.603  70.185  1.00  0.00    -0.366 A  
HETATM   18  C   UNL     1     -11.076  15.141  68.972  1.00  0.00    -0.260 A  
HETATM   19  C   UNL     1     -11.205  13.794  68.631  1.00  0.00    -0.308 A  
ENDBRANCH  13  14
ENDBRANCH  12  13
ENDBRANCH   6   7
ENDBRANCH   5   6
ENDBRANCH   4   5
ENDBRANCH   2   4
TORSDOF 6
ENDMDL
MODEL      108
REMARK 921   NORMALIZED FREE ENERGY PREDICTED BY IDOCK:   -4.22 KCAL/MOL
REMARK 922        TOTAL FREE ENERGY PREDICTED BY IDOCK:   -6.54 KCAL/MOL
REMARK 923 INTER-LIGAND FREE ENERGY PREDICTED BY IDOCK:   -6.35 KCAL/MOL
REMARK 924 INTRA-LIGAND FREE ENERGY PREDICTED BY IDOCK:   -0.20 KCAL/MOL
REMARK 927      BINDING AFFINITY PREDICTED BY RF-SCORE:    0.00 PKD
ROOT
HETATM    1  C   UNL     1      -8.717  17.109  68.511  1.00  0.00    -0.261 C  
HETATM    2  N   UNL     1      -9.394  15.820  68.445  1.00  0.00    -0.192 NA 
HETATM    3  C   UNL     1     -10.153  15.549  69.658  1.00  0.00    -0.293 C  
ENDROOT
BRANCH   2   4
HETATM    4  C   UNL     1     -10.109  15.567  67.180  1.00  0.00    -0.254 C  
BRANCH   4   5
HETATM    5  C   UNL     1      -9.996  14.217  66.416  1.00  0.00    -0.293 C  
BRANCH   5   6
HETATM    6  O   UNL     1     -10.869  13.274  67.074  1.00  0.00    -0.265 OA 
BRANCH   6   7
HETATM    7  C   UNL     1     -10.629  11.923  67.040  1.00  0.00    -0.227 A  
HETATM    8  C   UNL     1     -10.079  11.496  65.821  1.00  0.00    -0.278 A  
HETATM    9  C   UNL     1      -9.887  10.139  65.525  1.00  0.00    -0.365 A  
HETATM   10  C   UNL     1     -10.207   9.174  66.472  1.00  0.00    -0.322 A  
HETATM   11  C   UNL     1     -10.762   9.576  67.681  1.00  0.00    -0.314 A  
HETATM   12  C   UNL     1     -11.038  10.942  67.959  1.00  0.00    -0.351 A  
BRANCH  12  13
HETATM   13  C   UNL     1     -11.952  11.186  69.137  1.00  0.00    -0.413 C  
BRANCH  13  14
HETATM   14  C   UNL     1     -11.696  10.270  70.326  1.00  0.00    -0.388 A  
HETATM   15  C   UNL     1     -12.770   9.856  71.125  1.00  0.00    -0.462 A  
HETATM   16  C   UNL     1     -12.584   8.897  72.125  1.00  0.00    -0.467 A  
HETATM   17  C   UNL     1     -11.322   8.351  72.346  1.00  0.00    -0.448 A  
HETATM   18  C   UNL     1     -10.236   8.793  71.598  1.00  0.00    -0.394 A  
HETATM   19  C   UNL     1     -10.420   9.745  70.594  1.00  0.00    -0.358 A  
ENDBRANCH  13  14
ENDBRANCH  12  13
ENDBRANCH   6   7
ENDBRANCH   5   6
ENDBRANCH   4   5
ENDBRANCH   2   4
TORSDOF 6
ENDMDL
MODEL      109
REMARK 921   NORMALIZED FREE ENERGY PREDICTED BY IDOCK:   -4.22 KCAL/MOL
REMARK 922        TOTAL FREE ENERGY PREDICTED BY IDOCK:   -6.53 KCAL/MOL
REMARK 923 INTER-LIGAND FREE ENERGY PREDICTED BY IDOCK:   -5.76 KCAL/MOL
REMARK 924 INTRA-LIGAND FREE ENERGY PREDICTED BY IDOCK:   -0.78 KCAL/MOL
REMARK 927      BINDING AFFINITY PREDICTED BY RF-SCORE:    0.00 PKD
ROOT
HETATM    1  C   UNL     1     -10.480  10.630  64.875  1.00  0.00    -0.212 C  
HETATM    2  N   UNL     1     -10.849  11.630  63.882  1.00  0.00    -0.373 NA 
HETATM    3  C   UNL     1     -12.293  11.783  63.782  1.00  0.00    -0.337 C  
ENDROOT
BRANCH   2   4
HETATM    4  C   UNL     1     -10.082  12.888  63.965  1.00  0.00    -0.117 C  
BRANCH   4   5
HETATM    5  C   UNL     1     -10.519  14.070  64.876  1.00  0.00    -0.431 C  
BRANCH   5   6
HETATM    6  O   UNL     1     -10.078  13.768  66.217  1.00  0.00    -0.284 OA 
BRANCH   6   7
HETATM    7  C   UNL     1      -9.624  14.746  67.065  1.00  0.00    -0.241 A  
HETATM    8  C   UNL     1      -8.224  14.842  67.089  1.00  0.00    -0.244 A  
HETATM    9  C   UNL     1      -7.550  15.680  67.991  1.00  0.00    -0.132 A  
HETATM   10  C   UNL     1      -8.275  16.479  68.865  1.00  0.00    -0.241 A  
HETATM   11  C   UNL     1      -9.663  16.391  68.863  1.00  0.00    -0.257 A  
HETATM   12  C   UNL     1     -10.353  15.484  68.014  1.00  0.00    -0.247 A  
BRANCH  12  13
HETATM   13  C   UNL     1     -11.802  15.246  68.369  1.00  0.00    -0.283 C  
BRANCH  13  14
HETATM   14  C   UNL     1     -12.019  14.144  69.398  1.00  0.00    -0.382 A  
HETATM   15  C   UNL     1     -12.578  14.460  70.644  1.00  0.00    -0.424 A  
HETATM   16  C   UNL     1     -12.927  13.448  71.543  1.00  0.00    -0.429 A  
HETATM   17  C   UNL     1     -12.712  12.112  71.214  1.00  0.00    -0.363 A  
HETATM   18  C   UNL     1     -12.106  11.787  70.004  1.00  0.00    -0.387 A  
HETATM   19  C   UNL     1     -11.763  12.794  69.101  1.00  0.00    -0.375 A  
ENDBRANCH  13  14
ENDBRANCH  12  13
ENDBRANCH   6   7
ENDBRANCH   5   6
ENDBRANCH   4   5
ENDBRANCH   2   4
TORSDOF 6
ENDMDL
MODEL      110
REMARK 921   NORMALIZED FREE ENERGY PREDICTED BY IDOCK:   -4.21 KCAL/MOL
REMARK 922        TOTAL FREE ENERGY PREDICTED BY IDOCK:   -6.52 KCAL/MOL
REMARK 923 INTER-LIGAND FREE ENERGY PREDICTED BY IDOCK:   -6.02 KCAL/MOL
REMARK 924 INTRA-LIGAND FREE ENERGY PREDICTED BY IDOCK:   -0.51 KCAL/MOL
REMARK 927      BINDING AFFINITY PREDICTED BY RF-SCORE:    0.00 PKD
ROOT
HETATM    1  C   UNL     1      -8.937  10.266  65.566  1.00  0.00    -0.173 C  
HETATM    2  N   UNL     1      -9.913  10.945  66.407  1.00  0.00    -0.213 NA 
HETATM    3  C   UNL     1     -10.024  10.319  67.717  1.00  0.00    -0.173 C  
ENDROOT
BRANCH   2   4
HETATM    4  C   UNL     1      -9.796  12.416  66.415  1.00  0.00    -0.240 C  
BRANCH   4   5
HETATM    5  C   UNL     1     -10.795  13.335  65.656  1.00  0.00    -0.279 C  
BRANCH   5   6
HETATM    6  O   UNL     1     -11.826  13.717  66.590  1.00  0.00    -0.364 OA 
BRANCH   6   7
HETATM    7  C   UNL     1     -11.542  14.430  67.727  1.00  0.00    -0.356 A  
HETATM    8  C   UNL     1     -11.995  13.799  68.896  1.00  0.00    -0.394 A  
HETATM    9  C   UNL     1     -11.932  14.421  70.152  1.00  0.00    -0.386 A  
HETATM   10  C   UNL     1     -11.366  15.684  70.269  1.00  0.00    -0.357 A  
HETATM   11  C   UNL     1     -10.920  16.330  69.121  1.00  0.00    -0.324 A  
HETATM   12  C   UNL     1     -11.056  15.745  67.834  1.00  0.00    -0.326 A  
BRANCH  12  13
HETATM   13  C   UNL     1     -10.862  16.692  66.673  1.00  0.00    -0.024 C  
BRANCH  13  14
HETATM   14  C   UNL     1     -10.070  17.946  67.016  1.00  0.00    -0.340 A  
HETATM   15  C   UNL     1      -8.672  17.882  67.099  1.00  0.00    -0.248 A  
HETATM   16  C   UNL     1      -7.915  19.046  67.261  1.00  0.00    -0.273 A  
HETATM   17  C   UNL     1      -8.546  20.285  67.354  1.00  0.00    -0.420 A  
HETATM   18  C   UNL     1      -9.935  20.358  67.330  1.00  0.00    -0.564 A  
HETATM   19  C   UNL     1     -10.693  19.198  67.160  1.00  0.00    -0.567 A  
ENDBRANCH  13  14
ENDBRANCH  12  13
ENDBRANCH   6   7
ENDBRANCH   5   6
ENDBRANCH   4   5
ENDBRANCH   2   4
TORSDOF 6
ENDMDL
MODEL      111
REMARK 921   NORMALIZED FREE ENERGY PREDICTED BY IDOCK:   -4.21 KCAL/MOL
REMARK 922        TOTAL FREE ENERGY PREDICTED BY IDOCK:   -6.52 KCAL/MOL
REMARK 923 INTER-LIGAND FREE ENERGY PREDICTED BY IDOCK:   -5.81 KCAL/MOL
REMARK 924 INTRA-LIGAND FREE ENERGY PREDICTED BY IDOCK:   -0.71 KCAL/MOL
REMARK 927      BINDING AFFINITY PREDICTED BY RF-SCORE:    0.00 PKD
ROOT
HETATM    1  C   UNL     1     -11.666  12.791  63.711  1.00  0.00    -0.493 C  
HETATM    2  N   UNL     1     -11.206  14.018  64.348  1.00  0.00    -0.345 NA 
HETATM    3  C   UNL     1     -12.249  15.034  64.375  1.00  0.00    -0.337 C  
ENDROOT
BRANCH   2   4
HETATM    4  C   UNL     1     -10.486  13.816  65.619  1.00  0.00    -0.305 C  
BRANCH   4   5
HETATM    5  C   UNL     1     -10.206  14.979  66.612  1.00  0.00    -0.268 C  
BRANCH   5   6
HETATM    6  O   UNL     1      -9.096  15.737  66.088  1.00  0.00    -0.307 OA 
BRANCH   6   7
HETATM    7  C   UNL     1      -7.862  15.719  66.689  1.00  0.00    -0.157 A  
HETATM    8  C   UNL     1      -7.664  14.589  67.498  1.00  0.00    -0.208 A  
HETATM    9  C   UNL     1      -6.529  14.444  68.310  1.00  0.00    -0.115 A  
HETATM   10  C   UNL     1      -5.539  15.418  68.294  1.00  0.00    -0.120 A  
HETATM   11  C   UNL     1      -5.722  16.549  67.506  1.00  0.00    -0.174 A  
HETATM   12  C   UNL     1      -6.905  16.747  66.745  1.00  0.00    -0.265 A  
BRANCH  12  13
HETATM   13  C   UNL     1      -7.114  18.154  66.236  1.00  0.00    -0.298 C  
BRANCH  13  14
HETATM   14  C   UNL     1      -8.236  18.910  66.935  1.00  0.00    -0.276 A  
HETATM   15  C   UNL     1      -9.192  19.593  66.170  1.00  0.00    -0.397 A  
HETATM   16  C   UNL     1     -10.313  20.164  66.779  1.00  0.00    -0.505 A  
HETATM   17  C   UNL     1     -10.487  20.069  68.158  1.00  0.00    -0.428 A  
HETATM   18  C   UNL     1      -9.518  19.443  68.936  1.00  0.00    -0.448 A  
HETATM   19  C   UNL     1      -8.401  18.865  68.330  1.00  0.00    -0.364 A  
ENDBRANCH  13  14
ENDBRANCH  12  13
ENDBRANCH   6   7
ENDBRANCH   5   6
ENDBRANCH   4   5
ENDBRANCH   2   4
TORSDOF 6
ENDMDL
MODEL      112
REMARK 921   NORMALIZED FREE ENERGY PREDICTED BY IDOCK:   -4.20 KCAL/MOL
REMARK 922        TOTAL FREE ENERGY PREDICTED BY IDOCK:   -6.51 KCAL/MOL
REMARK 923 INTER-LIGAND FREE ENERGY PREDICTED BY IDOCK:   -5.87 KCAL/MOL
REMARK 924 INTRA-LIGAND FREE ENERGY PREDICTED BY IDOCK:   -0.64 KCAL/MOL
REMARK 927      BINDING AFFINITY PREDICTED BY RF-SCORE:    0.00 PKD
ROOT
HETATM    1  C   UNL     1     -12.456  16.200  72.299  1.00  0.00    -0.414 C  
HETATM    2  N   UNL     1     -13.509  15.194  72.314  1.00  0.00    -0.395 NA 
HETATM    3  C   UNL     1     -14.398  15.328  71.168  1.00  0.00    -0.276 C  
ENDROOT
BRANCH   2   4
HETATM    4  C   UNL     1     -13.043  13.823  72.598  1.00  0.00    -0.391 C  
BRANCH   4   5
HETATM    5  C   UNL     1     -13.247  12.651  71.597  1.00  0.00    -0.298 C  
BRANCH   5   6
HETATM    6  O   UNL     1     -12.393  12.899  70.461  1.00  0.00    -0.342 OA 
BRANCH   6   7
HETATM    7  C   UNL     1     -11.973  11.884  69.638  1.00  0.00    -0.298 A  
HETATM    8  C   UNL     1     -11.571  10.739  70.344  1.00  0.00    -0.431 A  
HETATM    9  C   UNL     1     -10.978   9.640  69.705  1.00  0.00    -0.253 A  
HETATM   10  C   UNL     1     -10.813   9.649  68.325  1.00  0.00    -0.230 A  
HETATM   11  C   UNL     1     -11.197  10.778  67.610  1.00  0.00    -0.370 A  
HETATM   12  C   UNL     1     -11.721  11.929  68.256  1.00  0.00    -0.385 A  
BRANCH  12  13
HETATM   13  C   UNL     1     -11.754  13.182  67.411  1.00  0.00    -0.419 C  
BRANCH  13  14
HETATM   14  C   UNL     1     -10.644  14.176  67.725  1.00  0.00    -0.243 A  
HETATM   15  C   UNL     1     -10.854  15.164  68.697  1.00  0.00    -0.245 A  
HETATM   16  C   UNL     1      -9.804  15.989  69.110  1.00  0.00    -0.247 A  
HETATM   17  C   UNL     1      -8.537  15.844  68.551  1.00  0.00    -0.190 A  
HETATM   18  C   UNL     1      -8.327  14.905  67.546  1.00  0.00    -0.195 A  
HETATM   19  C   UNL     1      -9.372  14.075  67.136  1.00  0.00    -0.244 A  
ENDBRANCH  13  14
ENDBRANCH  12  13
ENDBRANCH   6   7
ENDBRANCH   5   6
ENDBRANCH   4   5
ENDBRANCH   2   4
TORSDOF 6
ENDMDL
MODEL      113
REMARK 921   NORMALIZED FREE ENERGY PREDICTED BY IDOCK:   -4.18 KCAL/MOL
REMARK 922        TOTAL FREE ENERGY PREDICTED BY IDOCK:   -6.49 KCAL/MOL
REMARK 923 INTER-LIGAND FREE ENERGY PREDICTED BY IDOCK:   -5.73 KCAL/MOL
REMARK 924 INTRA-LIGAND FREE ENERGY PREDICTED BY IDOCK:   -0.76 KCAL/MOL
REMARK 927      BINDING AFFINITY PREDICTED BY RF-SCORE:    0.00 PKD
ROOT
HETATM    1  C   UNL     1      -8.647   8.021  66.232  1.00  0.00    -0.143 C  
HETATM    2  N   UNL     1      -9.424   9.192  66.613  1.00  0.00    -0.170 NA 
HETATM    3  C   UNL     1      -9.924   9.908  65.448  1.00  0.00    -0.279 C  
ENDROOT
BRANCH   2   4
HETATM    4  C   UNL     1     -10.413   8.951  67.681  1.00  0.00    -0.255 C  
BRANCH   4   5
HETATM    5  C   UNL     1     -10.497   9.840  68.954  1.00  0.00    -0.214 C  
BRANCH   5   6
HETATM    6  O   UNL     1     -11.548  10.805  68.738  1.00  0.00    -0.282 OA 
BRANCH   6   7
HETATM    7  C   UNL     1     -11.981  11.637  69.739  1.00  0.00    -0.332 A  
HETATM    8  C   UNL     1     -12.489  10.941  70.848  1.00  0.00    -0.507 A  
HETATM    9  C   UNL     1     -13.110  11.599  71.920  1.00  0.00    -0.490 A  
HETATM   10  C   UNL     1     -13.196  12.986  71.923  1.00  0.00    -0.527 A  
HETATM   11  C   UNL     1     -12.707  13.692  70.830  1.00  0.00    -0.338 A  
HETATM   12  C   UNL     1     -12.153  13.032  69.700  1.00  0.00    -0.304 A  
BRANCH  12  13
HETATM   13  C   UNL     1     -11.999  13.889  68.466  1.00  0.00    -0.394 C  
BRANCH  13  14
HETATM   14  C   UNL     1     -10.774  14.794  68.483  1.00  0.00    -0.247 A  
HETATM   15  C   UNL     1     -10.942  16.185  68.543  1.00  0.00    -0.338 A  
HETATM   16  C   UNL     1      -9.839  17.026  68.714  1.00  0.00    -0.278 A  
HETATM   17  C   UNL     1      -8.557  16.491  68.816  1.00  0.00    -0.262 A  
HETATM   18  C   UNL     1      -8.370  15.117  68.702  1.00  0.00    -0.160 A  
HETATM   19  C   UNL     1      -9.470  14.273  68.538  1.00  0.00    -0.206 A  
ENDBRANCH  13  14
ENDBRANCH  12  13
ENDBRANCH   6   7
ENDBRANCH   5   6
ENDBRANCH   4   5
ENDBRANCH   2   4
TORSDOF 6
ENDMDL
MODEL      114
REMARK 921   NORMALIZED FREE ENERGY PREDICTED BY IDOCK:   -4.18 KCAL/MOL
REMARK 922        TOTAL FREE ENERGY PREDICTED BY IDOCK:   -6.48 KCAL/MOL
REMARK 923 INTER-LIGAND FREE ENERGY PREDICTED BY IDOCK:   -5.72 KCAL/MOL
REMARK 924 INTRA-LIGAND FREE ENERGY PREDICTED BY IDOCK:   -0.76 KCAL/MOL
REMARK 927      BINDING AFFINITY PREDICTED BY RF-SCORE:    0.00 PKD
ROOT
HETATM    1  C   UNL     1      -8.684  17.166  68.394  1.00  0.00    -0.246 C  
HETATM    2  N   UNL     1      -8.682  15.913  69.139  1.00  0.00    -0.246 NA 
HETATM    3  C   UNL     1     -10.029  15.509  69.514  1.00  0.00    -0.280 C  
ENDROOT
BRANCH   2   4
HETATM    4  C   UNL     1      -7.842  14.853  68.551  1.00  0.00    -0.126 C  
BRANCH   4   5
HETATM    5  C   UNL     1      -8.386  13.424  68.264  1.00  0.00    -0.160 C  
BRANCH   5   6
HETATM    6  O   UNL     1      -8.543  13.300  66.836  1.00  0.00    -0.191 OA 
BRANCH   6   7
HETATM    7  C   UNL     1      -9.779  13.335  66.240  1.00  0.00    -0.268 A  
HETATM    8  C   UNL     1     -10.195  14.637  65.919  1.00  0.00    -0.344 A  
HETATM    9  C   UNL     1     -11.482  14.910  65.431  1.00  0.00    -0.320 A  
HETATM   10  C   UNL     1     -12.372  13.866  65.212  1.00  0.00    -0.485 A  
HETATM   11  C   UNL     1     -11.982  12.571  65.533  1.00  0.00    -0.500 A  
HETATM   12  C   UNL     1     -10.712  12.293  66.106  1.00  0.00    -0.296 A  
BRANCH  12  13
HETATM   13  C   UNL     1     -10.571  10.920  66.721  1.00  0.00    -0.313 C  
BRANCH  13  14
HETATM   14  C   UNL     1     -11.004  10.841  68.178  1.00  0.00    -0.308 A  
HETATM   15  C   UNL     1     -11.809  11.855  68.717  1.00  0.00    -0.371 A  
HETATM   16  C   UNL     1     -12.344  11.729  70.003  1.00  0.00    -0.233 A  
HETATM   17  C   UNL     1     -12.073  10.597  70.767  1.00  0.00    -0.474 A  
HETATM   18  C   UNL     1     -11.232   9.609  70.266  1.00  0.00    -0.324 A  
HETATM   19  C   UNL     1     -10.702   9.728  68.981  1.00  0.00    -0.238 A  
ENDBRANCH  13  14
ENDBRANCH  12  13
ENDBRANCH   6   7
ENDBRANCH   5   6
ENDBRANCH   4   5
ENDBRANCH   2   4
TORSDOF 6
ENDMDL
MODEL      115
REMARK 921   NORMALIZED FREE ENERGY PREDICTED BY IDOCK:   -4.17 KCAL/MOL
REMARK 922        TOTAL FREE ENERGY PREDICTED BY IDOCK:   -6.47 KCAL/MOL
REMARK 923 INTER-LIGAND FREE ENERGY PREDICTED BY IDOCK:   -5.85 KCAL/MOL
REMARK 924 INTRA-LIGAND FREE ENERGY PREDICTED BY IDOCK:   -0.62 KCAL/MOL
REMARK 927      BINDING AFFINITY PREDICTED BY RF-SCORE:    0.00 PKD
ROOT
HETATM    1  C   UNL     1     -12.482  15.247  73.413  1.00  0.00    -0.517 C  
HETATM    2  N   UNL     1     -13.072  14.555  72.275  1.00  0.00    -0.348 NA 
HETATM    3  C   UNL     1     -14.387  15.086  71.945  1.00  0.00    -0.584 C  
ENDROOT
BRANCH   2   4
HETATM    4  C   UNL     1     -12.159  14.368  71.132  1.00  0.00    -0.341 C  
BRANCH   4   5
HETATM    5  C   UNL     1     -11.454  15.560  70.425  1.00  0.00    -0.345 C  
BRANCH   5   6
HETATM    6  O   UNL     1     -11.091  15.123  69.099  1.00  0.00    -0.232 OA 
BRANCH   6   7
HETATM    7  C   UNL     1      -9.781  15.045  68.697  1.00  0.00    -0.219 A  
HETATM    8  C   UNL     1      -9.124  16.285  68.731  1.00  0.00    -0.245 A  
HETATM    9  C   UNL     1      -7.825  16.454  68.230  1.00  0.00    -0.168 A  
HETATM   10  C   UNL     1      -7.134  15.361  67.720  1.00  0.00    -0.185 A  
HETATM   11  C   UNL     1      -7.771  14.127  67.670  1.00  0.00    -0.186 A  
HETATM   12  C   UNL     1      -9.116  13.962  68.096  1.00  0.00    -0.193 A  
BRANCH  12  13
HETATM   13  C   UNL     1      -9.778  12.676  67.658  1.00  0.00    -0.197 C  
BRANCH  13  14
HETATM   14  C   UNL     1     -10.457  12.756  66.297  1.00  0.00    -0.273 A  
HETATM   15  C   UNL     1     -10.802  11.576  65.625  1.00  0.00    -0.310 A  
HETATM   16  C   UNL     1     -11.560  11.622  64.451  1.00  0.00    -0.270 A  
HETATM   17  C   UNL     1     -11.971  12.847  63.930  1.00  0.00    -0.550 A  
HETATM   18  C   UNL     1     -11.588  14.029  64.556  1.00  0.00    -0.403 A  
HETATM   19  C   UNL     1     -10.838  13.985  65.732  1.00  0.00    -0.291 A  
ENDBRANCH  13  14
ENDBRANCH  12  13
ENDBRANCH   6   7
ENDBRANCH   5   6
ENDBRANCH   4   5
ENDBRANCH   2   4
TORSDOF 6
ENDMDL
MODEL      116
REMARK 921   NORMALIZED FREE ENERGY PREDICTED BY IDOCK:   -4.15 KCAL/MOL
REMARK 922        TOTAL FREE ENERGY PREDICTED BY IDOCK:   -6.44 KCAL/MOL
REMARK 923 INTER-LIGAND FREE ENERGY PREDICTED BY IDOCK:   -5.73 KCAL/MOL
REMARK 924 INTRA-LIGAND FREE ENERGY PREDICTED BY IDOCK:   -0.72 KCAL/MOL
REMARK 927      BINDING AFFINITY PREDICTED BY RF-SCORE:    0.00 PKD
ROOT
HETATM    1  C   UNL     1     -11.661  15.933  64.239  1.00  0.00    -0.178 C  
HETATM    2  N   UNL     1     -10.407  15.895  64.980  1.00  0.00    -0.524 NA 
HETATM    3  C   UNL     1     -10.315  16.987  65.939  1.00  0.00    -0.298 C  
ENDROOT
BRANCH   2   4
HETATM    4  C   UNL     1     -10.043  14.563  65.500  1.00  0.00    -0.366 C  
BRANCH   4   5
HETATM    5  C   UNL     1     -10.207  14.181  66.999  1.00  0.00    -0.260 C  
BRANCH   5   6
HETATM    6  O   UNL     1     -11.444  13.450  67.125  1.00  0.00    -0.307 OA 
BRANCH   6   7
HETATM    7  C   UNL     1     -11.863  12.942  68.330  1.00  0.00    -0.330 A  
HETATM    8  C   UNL     1     -12.123  13.940  69.283  1.00  0.00    -0.383 A  
HETATM    9  C   UNL     1     -12.427  13.634  70.618  1.00  0.00    -0.417 A  
HETATM   10  C   UNL     1     -12.521  12.307  71.018  1.00  0.00    -0.361 A  
HETATM   11  C   UNL     1     -12.257  11.305  70.091  1.00  0.00    -0.410 A  
HETATM   12  C   UNL     1     -11.866  11.604  68.758  1.00  0.00    -0.387 A  
BRANCH  12  13
HETATM   13  C   UNL     1     -11.277  10.446  67.986  1.00  0.00    -0.340 C  
BRANCH  13  14
HETATM   14  C   UNL     1     -10.329   9.573  68.797  1.00  0.00    -0.228 A  
HETATM   15  C   UNL     1      -9.196  10.147  69.391  1.00  0.00    -0.229 A  
HETATM   16  C   UNL     1      -8.397   9.402  70.264  1.00  0.00    -0.217 A  
HETATM   17  C   UNL     1      -8.713   8.074  70.543  1.00  0.00    -0.135 A  
HETATM   18  C   UNL     1      -9.802   7.476  69.917  1.00  0.00    -0.187 A  
HETATM   19  C   UNL     1     -10.606   8.219  69.052  1.00  0.00    -0.167 A  
ENDBRANCH  13  14
ENDBRANCH  12  13
ENDBRANCH   6   7
ENDBRANCH   5   6
ENDBRANCH   4   5
ENDBRANCH   2   4
TORSDOF 6
ENDMDL
MODEL      117
REMARK 921   NORMALIZED FREE ENERGY PREDICTED BY IDOCK:   -4.10 KCAL/MOL
REMARK 922        TOTAL FREE ENERGY PREDICTED BY IDOCK:   -6.37 KCAL/MOL
REMARK 923 INTER-LIGAND FREE ENERGY PREDICTED BY IDOCK:   -5.39 KCAL/MOL
REMARK 924 INTRA-LIGAND FREE ENERGY PREDICTED BY IDOCK:   -0.98 KCAL/MOL
REMARK 927      BINDING AFFINITY PREDICTED BY RF-SCORE:    0.00 PKD
ROOT
HETATM    1  C   UNL     1      -8.435  10.639  67.393  1.00  0.00    -0.122 C  
HETATM    2  N   UNL     1      -7.552  11.790  67.522  1.00  0.00    -0.126 NA 
HETATM    3  C   UNL     1      -6.292  11.583  66.823  1.00  0.00    -0.134 C  
ENDROOT
BRANCH   2   4
HETATM    4  C   UNL     1      -8.203  13.092  67.282  1.00  0.00    -0.168 C  
BRANCH   4   5
HETATM    5  C   UNL     1      -7.522  14.443  67.644  1.00  0.00    -0.175 C  
BRANCH   5   6
HETATM    6  O   UNL     1      -7.859  15.388  66.608  1.00  0.00    -0.162 OA 
BRANCH   6   7
HETATM    7  C   UNL     1      -8.593  16.518  66.872  1.00  0.00    -0.207 A  
HETATM    8  C   UNL     1      -8.131  17.220  67.995  1.00  0.00    -0.221 A  
HETATM    9  C   UNL     1      -8.820  18.323  68.520  1.00  0.00    -0.322 A  
HETATM   10  C   UNL     1      -9.976  18.776  67.897  1.00  0.00    -0.400 A  
HETATM   11  C   UNL     1     -10.455  18.087  66.788  1.00  0.00    -0.335 A  
HETATM   12  C   UNL     1      -9.812  16.919  66.299  1.00  0.00    -0.320 A  
BRANCH  12  13
HETATM   13  C   UNL     1     -10.629  16.091  65.334  1.00  0.00    -0.428 C  
BRANCH  13  14
HETATM   14  C   UNL     1     -11.134  14.776  65.913  1.00  0.00    -0.340 A  
HETATM   15  C   UNL     1     -11.108  13.617  65.124  1.00  0.00    -0.324 A  
HETATM   16  C   UNL     1     -11.421  12.373  65.679  1.00  0.00    -0.412 A  
HETATM   17  C   UNL     1     -11.774  12.274  67.023  1.00  0.00    -0.399 A  
HETATM   18  C   UNL     1     -11.857  13.422  67.803  1.00  0.00    -0.395 A  
HETATM   19  C   UNL     1     -11.539  14.665  67.254  1.00  0.00    -0.404 A  
ENDBRANCH  13  14
ENDBRANCH  12  13
ENDBRANCH   6   7
ENDBRANCH   5   6
ENDBRANCH   4   5
ENDBRANCH   2   4
TORSDOF 6
ENDMDL
MODEL      118
REMARK 921   NORMALIZED FREE ENERGY PREDICTED BY IDOCK:   -4.10 KCAL/MOL
REMARK 922        TOTAL FREE ENERGY PREDICTED BY IDOCK:   -6.37 KCAL/MOL
REMARK 923 INTER-LIGAND FREE ENERGY PREDICTED BY IDOCK:   -5.96 KCAL/MOL
REMARK 924 INTRA-LIGAND FREE ENERGY PREDICTED BY IDOCK:   -0.41 KCAL/MOL
REMARK 927      BINDING AFFINITY PREDICTED BY RF-SCORE:    0.00 PKD
ROOT
HETATM    1  C   UNL     1      -5.598  14.385  69.771  1.00  0.00    -0.099 C  
HETATM    2  N   UNL     1      -6.367  14.971  68.681  1.00  0.00    -0.085 NA 
HETATM    3  C   UNL     1      -6.668  13.990  67.647  1.00  0.00    -0.173 C  
ENDROOT
BRANCH   2   4
HETATM    4  C   UNL     1      -7.503  15.806  69.112  1.00  0.00    -0.207 C  
BRANCH   4   5
HETATM    5  C   UNL     1      -8.198  16.822  68.161  1.00  0.00    -0.199 C  
BRANCH   5   6
HETATM    6  O   UNL     1      -9.621  16.615  68.274  1.00  0.00    -0.222 OA 
BRANCH   6   7
HETATM    7  C   UNL     1     -10.287  15.721  67.474  1.00  0.00    -0.280 A  
HETATM    8  C   UNL     1      -9.902  15.799  66.126  1.00  0.00    -0.341 A  
HETATM    9  C   UNL     1     -10.556  15.073  65.120  1.00  0.00    -0.440 A  
HETATM   10  C   UNL     1     -11.592  14.210  65.455  1.00  0.00    -0.334 A  
HETATM   11  C   UNL     1     -11.994  14.125  66.783  1.00  0.00    -0.475 A  
HETATM   12  C   UNL     1     -11.395  14.919  67.797  1.00  0.00    -0.341 A  
BRANCH  12  13
HETATM   13  C   UNL     1     -12.160  14.984  69.098  1.00  0.00    -0.261 C  
BRANCH  13  14
HETATM   14  C   UNL     1     -12.189  13.672  69.872  1.00  0.00    -0.367 A  
HETATM   15  C   UNL     1     -12.853  13.610  71.105  1.00  0.00    -0.399 A  
HETATM   16  C   UNL     1     -13.025  12.386  71.758  1.00  0.00    -0.422 A  
HETATM   17  C   UNL     1     -12.526  11.214  71.194  1.00  0.00    -0.498 A  
HETATM   18  C   UNL     1     -11.817  11.269  69.998  1.00  0.00    -0.448 A  
HETATM   19  C   UNL     1     -11.650  12.488  69.340  1.00  0.00    -0.368 A  
ENDBRANCH  13  14
ENDBRANCH  12  13
ENDBRANCH   6   7
ENDBRANCH   5   6
ENDBRANCH   4   5
ENDBRANCH   2   4
TORSDOF 6
ENDMDL
MODEL      119
REMARK 921   NORMALIZED FREE ENERGY PREDICTED BY IDOCK:   -4.09 KCAL/MOL
REMARK 922        TOTAL FREE ENERGY PREDICTED BY IDOCK:   -6.36 KCAL/MOL
REMARK 923 INTER-LIGAND FREE ENERGY PREDICTED BY IDOCK:   -5.75 KCAL/MOL
REMARK 924 INTRA-LIGAND FREE ENERGY PREDICTED BY IDOCK:   -0.61 KCAL/MOL
REMARK 927      BINDING AFFINITY PREDICTED BY RF-SCORE:    0.00 PKD
ROOT
HETATM    1  C   UNL     1      -9.465  17.408  68.536  1.00  0.00    -0.297 C  
HETATM    2  N   UNL     1      -9.543  16.126  69.222  1.00  0.00    -0.246 NA 
HETATM    3  C   UNL     1     -10.920  15.679  69.374  1.00  0.00    -0.283 C  
ENDROOT
BRANCH   2   4
HETATM    4  C   UNL     1      -8.597  15.107  68.726  1.00  0.00    -0.182 C  
BRANCH   4   5
HETATM    5  C   UNL     1      -9.044  13.662  68.367  1.00  0.00    -0.165 C  
BRANCH   5   6
HETATM    6  O   UNL     1      -9.015  13.545  66.929  1.00  0.00    -0.230 OA 
BRANCH   6   7
HETATM    7  C   UNL     1     -10.165  13.561  66.180  1.00  0.00    -0.302 A  
HETATM    8  C   UNL     1     -10.320  14.745  65.441  1.00  0.00    -0.410 A  
HETATM    9  C   UNL     1     -11.489  15.025  64.719  1.00  0.00    -0.403 A  
HETATM   10  C   UNL     1     -12.521  14.096  64.687  1.00  0.00    -0.375 A  
HETATM   11  C   UNL     1     -12.390  12.921  65.420  1.00  0.00    -0.538 A  
HETATM   12  C   UNL     1     -11.246  12.665  66.223  1.00  0.00    -0.354 A  
BRANCH  12  13
HETATM   13  C   UNL     1     -11.401  11.542  67.222  1.00  0.00    -0.359 C  
BRANCH  13  14
HETATM   14  C   UNL     1     -10.611  10.286  66.877  1.00  0.00    -0.282 A  
HETATM   15  C   UNL     1      -9.937  10.207  65.650  1.00  0.00    -0.348 A  
HETATM   16  C   UNL     1      -9.084   9.134  65.376  1.00  0.00    -0.271 A  
HETATM   17  C   UNL     1      -8.904   8.124  66.318  1.00  0.00    -0.193 A  
HETATM   18  C   UNL     1      -9.609   8.160  67.516  1.00  0.00    -0.196 A  
HETATM   19  C   UNL     1     -10.456   9.234  67.796  1.00  0.00    -0.313 A  
ENDBRANCH  13  14
ENDBRANCH  12  13
ENDBRANCH   6   7
ENDBRANCH   5   6
ENDBRANCH   4   5
ENDBRANCH   2   4
TORSDOF 6
ENDMDL
MODEL      120
REMARK 921   NORMALIZED FREE ENERGY PREDICTED BY IDOCK:   -4.08 KCAL/MOL
REMARK 922        TOTAL FREE ENERGY PREDICTED BY IDOCK:   -6.35 KCAL/MOL
REMARK 923 INTER-LIGAND FREE ENERGY PREDICTED BY IDOCK:   -5.63 KCAL/MOL
REMARK 924 INTRA-LIGAND FREE ENERGY PREDICTED BY IDOCK:   -0.72 KCAL/MOL
REMARK 927      BINDING AFFINITY PREDICTED BY RF-SCORE:    0.00 PKD
ROOT
HETATM    1  C   UNL     1      -7.923   7.846  65.351  1.00  0.00    -0.123 C  
HETATM    2  N   UNL     1      -8.898   8.773  65.908  1.00  0.00    -0.174 NA 
HETATM    3  C   UNL     1      -9.470   9.634  64.882  1.00  0.00    -0.220 C  
ENDROOT
BRANCH   2   4
HETATM    4  C   UNL     1      -9.869   8.159  66.834  1.00  0.00    -0.247 C  
BRANCH   4   5
HETATM    5  C   UNL     1     -10.280   8.830  68.175  1.00  0.00    -0.205 C  
BRANCH   5   6
HETATM    6  O   UNL     1     -10.923   7.822  68.983  1.00  0.00    -0.084 OA 
BRANCH   6   7
HETATM    7  C   UNL     1     -10.865   7.851  70.354  1.00  0.00    -0.244 A  
HETATM    8  C   UNL     1     -10.007   6.875  70.886  1.00  0.00    -0.200 A  
HETATM    9  C   UNL     1      -9.909   6.641  72.266  1.00  0.00    -0.162 A  
HETATM   10  C   UNL     1     -10.645   7.419  73.152  1.00  0.00    -0.424 A  
HETATM   11  C   UNL     1     -11.507   8.384  72.643  1.00  0.00    -0.359 A  
HETATM   12  C   UNL     1     -11.677   8.572  71.246  1.00  0.00    -0.331 A  
BRANCH  12  13
HETATM   13  C   UNL     1     -12.886   9.388  70.849  1.00  0.00    -0.150 C  
BRANCH  13  14
HETATM   14  C   UNL     1     -12.675  10.894  70.927  1.00  0.00    -0.464 A  
HETATM   15  C   UNL     1     -11.971  11.548  69.906  1.00  0.00    -0.426 A  
HETATM   16  C   UNL     1     -11.896  12.944  69.876  1.00  0.00    -0.373 A  
HETATM   17  C   UNL     1     -12.513  13.700  70.870  1.00  0.00    -0.448 A  
HETATM   18  C   UNL     1     -13.168  13.063  71.919  1.00  0.00    -0.527 A  
HETATM   19  C   UNL     1     -13.250  11.670  71.947  1.00  0.00    -0.475 A  
ENDBRANCH  13  14
ENDBRANCH  12  13
ENDBRANCH   6   7
ENDBRANCH   5   6
ENDBRANCH   4   5
ENDBRANCH   2   4
TORSDOF 6
ENDMDL
MODEL      121
REMARK 921   NORMALIZED FREE ENERGY PREDICTED BY IDOCK:   -4.05 KCAL/MOL
REMARK 922        TOTAL FREE ENERGY PREDICTED BY IDOCK:   -6.31 KCAL/MOL
REMARK 923 INTER-LIGAND FREE ENERGY PREDICTED BY IDOCK:   -5.76 KCAL/MOL
REMARK 924 INTRA-LIGAND FREE ENERGY PREDICTED BY IDOCK:   -0.56 KCAL/MOL
REMARK 927      BINDING AFFINITY PREDICTED BY RF-SCORE:    0.00 PKD
ROOT
HETATM    1  C   UNL     1      -9.100   5.899  73.753  1.00  0.00    -0.127 C  
HETATM    2  N   UNL     1     -10.350   6.106  73.033  1.00  0.00    -0.195 NA 
HETATM    3  C   UNL     1     -11.290   5.019  73.263  1.00  0.00    -0.317 C  
ENDROOT
BRANCH   2   4
HETATM    4  C   UNL     1     -10.910   7.465  73.157  1.00  0.00    -0.386 C  
BRANCH   4   5
HETATM    5  C   UNL     1     -11.751   8.125  72.028  1.00  0.00    -0.332 C  
BRANCH   5   6
HETATM    6  O   UNL     1     -10.828   8.638  71.045  1.00  0.00    -0.227 OA 
BRANCH   6   7
HETATM    7  C   UNL     1     -10.822   8.181  69.751  1.00  0.00    -0.190 A  
HETATM    8  C   UNL     1     -11.093   6.806  69.656  1.00  0.00    -0.343 A  
HETATM    9  C   UNL     1     -10.999   6.110  68.442  1.00  0.00    -0.391 A  
HETATM   10  C   UNL     1     -10.670   6.794  67.278  1.00  0.00    -0.423 A  
HETATM   11  C   UNL     1     -10.390   8.154  67.353  1.00  0.00    -0.351 A  
HETATM   12  C   UNL     1     -10.400   8.851  68.591  1.00  0.00    -0.228 A  
BRANCH  12  13
HETATM   13  C   UNL     1      -9.738  10.210  68.569  1.00  0.00    -0.161 C  
BRANCH  13  14
HETATM   14  C   UNL     1     -10.645  11.338  68.097  1.00  0.00    -0.225 A  
HETATM   15  C   UNL     1     -11.126  12.274  69.024  1.00  0.00    -0.289 A  
HETATM   16  C   UNL     1     -11.831  13.402  68.595  1.00  0.00    -0.397 A  
HETATM   17  C   UNL     1     -12.075  13.601  67.238  1.00  0.00    -0.385 A  
HETATM   18  C   UNL     1     -11.653  12.653  66.312  1.00  0.00    -0.440 A  
HETATM   19  C   UNL     1     -10.942  11.530  66.737  1.00  0.00    -0.347 A  
ENDBRANCH  13  14
ENDBRANCH  12  13
ENDBRANCH   6   7
ENDBRANCH   5   6
ENDBRANCH   4   5
ENDBRANCH   2   4
TORSDOF 6
ENDMDL
MODEL      122
REMARK 921   NORMALIZED FREE ENERGY PREDICTED BY IDOCK:   -4.03 KCAL/MOL
REMARK 922        TOTAL FREE ENERGY PREDICTED BY IDOCK:   -6.27 KCAL/MOL
REMARK 923 INTER-LIGAND FREE ENERGY PREDICTED BY IDOCK:   -5.51 KCAL/MOL
REMARK 924 INTRA-LIGAND FREE ENERGY PREDICTED BY IDOCK:   -0.76 KCAL/MOL
REMARK 927      BINDING AFFINITY PREDICTED BY RF-SCORE:    0.00 PKD
ROOT
HETATM    1  C   UNL     1      -5.617  17.765  68.800  1.00  0.00    -0.174 C  
HETATM    2  N   UNL     1      -6.775  18.629  68.611  1.00  0.00    -0.257 NA 
HETATM    3  C   UNL     1      -6.460  20.021  68.900  1.00  0.00    -0.319 C  
ENDROOT
BRANCH   2   4
HETATM    4  C   UNL     1      -7.517  18.393  67.358  1.00  0.00    -0.218 C  
BRANCH   4   5
HETATM    5  C   UNL     1      -7.907  16.967  66.877  1.00  0.00    -0.217 C  
BRANCH   5   6
HETATM    6  O   UNL     1      -9.346  16.872  66.929  1.00  0.00    -0.227 OA 
BRANCH   6   7
HETATM    7  C   UNL     1     -10.022  15.821  66.362  1.00  0.00    -0.277 A  
HETATM    8  C   UNL     1     -10.770  16.196  65.235  1.00  0.00    -0.386 A  
HETATM    9  C   UNL     1     -11.642  15.307  64.589  1.00  0.00    -0.333 A  
HETATM   10  C   UNL     1     -11.750  13.997  65.039  1.00  0.00    -0.366 A  
HETATM   11  C   UNL     1     -11.024  13.609  66.160  1.00  0.00    -0.285 A  
HETATM   12  C   UNL     1     -10.203  14.524  66.872  1.00  0.00    -0.264 A  
BRANCH  12  13
HETATM   13  C   UNL     1      -9.770  14.066  68.245  1.00  0.00    -0.225 C  
BRANCH  13  14
HETATM   14  C   UNL     1     -10.785  14.344  69.345  1.00  0.00    -0.184 A  
HETATM   15  C   UNL     1     -10.945  15.651  69.826  1.00  0.00    -0.307 A  
HETATM   16  C   UNL     1     -11.972  15.957  70.723  1.00  0.00    -0.413 A  
HETATM   17  C   UNL     1     -12.844  14.961  71.157  1.00  0.00    -0.426 A  
HETATM   18  C   UNL     1     -12.664  13.650  70.730  1.00  0.00    -0.338 A  
HETATM   19  C   UNL     1     -11.643  13.342  69.830  1.00  0.00    -0.297 A  
ENDBRANCH  13  14
ENDBRANCH  12  13
ENDBRANCH   6   7
ENDBRANCH   5   6
ENDBRANCH   4   5
ENDBRANCH   2   4
TORSDOF 6
ENDMDL
MODEL      123
REMARK 921   NORMALIZED FREE ENERGY PREDICTED BY IDOCK:   -4.03 KCAL/MOL
REMARK 922        TOTAL FREE ENERGY PREDICTED BY IDOCK:   -6.27 KCAL/MOL
REMARK 923 INTER-LIGAND FREE ENERGY PREDICTED BY IDOCK:   -5.52 KCAL/MOL
REMARK 924 INTRA-LIGAND FREE ENERGY PREDICTED BY IDOCK:   -0.76 KCAL/MOL
REMARK 927      BINDING AFFINITY PREDICTED BY RF-SCORE:    0.00 PKD
ROOT
HETATM    1  C   UNL     1      -8.534   6.605  67.074  1.00  0.00    -0.113 C  
HETATM    2  N   UNL     1      -9.207   7.796  67.575  1.00  0.00    -0.132 NA 
HETATM    3  C   UNL     1     -10.656   7.655  67.528  1.00  0.00    -0.252 C  
ENDROOT
BRANCH   2   4
HETATM    4  C   UNL     1      -8.662   8.322  68.840  1.00  0.00    -0.137 C  
BRANCH   4   5
HETATM    5  C   UNL     1      -9.082   9.704  69.417  1.00  0.00    -0.188 C  
BRANCH   5   6
HETATM    6  O   UNL     1      -9.531   9.488  70.771  1.00  0.00    -0.251 OA 
BRANCH   6   7
HETATM    7  C   UNL     1     -10.864   9.488  71.099  1.00  0.00    -0.355 A  
HETATM    8  C   UNL     1     -11.555  10.594  70.580  1.00  0.00    -0.444 A  
HETATM    9  C   UNL     1     -12.892  10.860  70.911  1.00  0.00    -0.418 A  
HETATM   10  C   UNL     1     -13.583   9.989  71.744  1.00  0.00    -0.330 A  
HETATM   11  C   UNL     1     -12.913   8.893  72.275  1.00  0.00    -0.479 A  
HETATM   12  C   UNL     1     -11.536   8.660  72.014  1.00  0.00    -0.440 A  
BRANCH  12  13
HETATM   13  C   UNL     1     -10.869   7.658  72.928  1.00  0.00    -0.446 C  
BRANCH  13  14
HETATM   14  C   UNL     1     -10.580   6.314  72.274  1.00  0.00    -0.244 A  
HETATM   15  C   UNL     1     -10.650   6.193  70.879  1.00  0.00    -0.298 A  
HETATM   16  C   UNL     1     -10.242   5.015  70.247  1.00  0.00    -0.328 A  
HETATM   17  C   UNL     1      -9.770   3.942  71.000  1.00  0.00    -0.252 A  
HETATM   18  C   UNL     1      -9.746   4.029  72.388  1.00  0.00    -0.210 A  
HETATM   19  C   UNL     1     -10.147   5.206  73.022  1.00  0.00    -0.198 A  
ENDBRANCH  13  14
ENDBRANCH  12  13
ENDBRANCH   6   7
ENDBRANCH   5   6
ENDBRANCH   4   5
ENDBRANCH   2   4
TORSDOF 6
ENDMDL
MODEL      124
REMARK 921   NORMALIZED FREE ENERGY PREDICTED BY IDOCK:   -4.02 KCAL/MOL
REMARK 922        TOTAL FREE ENERGY PREDICTED BY IDOCK:   -6.26 KCAL/MOL
REMARK 923 INTER-LIGAND FREE ENERGY PREDICTED BY IDOCK:   -5.63 KCAL/MOL
REMARK 924 INTRA-LIGAND FREE ENERGY PREDICTED BY IDOCK:   -0.63 KCAL/MOL
REMARK 927      BINDING AFFINITY PREDICTED BY RF-SCORE:    0.00 PKD
ROOT
HETATM    1  C   UNL     1     -12.061  15.436  70.577  1.00  0.00    -0.371 C  
HETATM    2  N   UNL     1     -11.198  16.099  69.608  1.00  0.00    -0.330 NA 
HETATM    3  C   UNL     1      -9.813  15.672  69.742  1.00  0.00    -0.257 C  
ENDROOT
BRANCH   2   4
HETATM    4  C   UNL     1     -11.726  16.117  68.231  1.00  0.00    -0.074 C  
BRANCH   4   5
HETATM    5  C   UNL     1     -11.893  14.823  67.386  1.00  0.00    -0.295 C  
BRANCH   5   6
HETATM    6  O   UNL     1     -10.890  14.850  66.349  1.00  0.00    -0.313 OA 
BRANCH   6   7
HETATM    7  C   UNL     1     -10.847  13.899  65.361  1.00  0.00    -0.319 A  
HETATM    8  C   UNL     1     -11.829  14.089  64.376  1.00  0.00    -0.453 A  
HETATM    9  C   UNL     1     -12.049  13.154  63.353  1.00  0.00    -0.558 A  
HETATM   10  C   UNL     1     -11.251  12.020  63.271  1.00  0.00    -0.403 A  
HETATM   11  C   UNL     1     -10.279  11.810  64.242  1.00  0.00    -0.344 A  
HETATM   12  C   UNL     1     -10.104  12.707  65.330  1.00  0.00    -0.277 A  
BRANCH  12  13
HETATM   13  C   UNL     1      -9.274  12.174  66.475  1.00  0.00    -0.216 C  
BRANCH  13  14
HETATM   14  C   UNL     1     -10.039  11.271  67.433  1.00  0.00    -0.214 A  
HETATM   15  C   UNL     1      -9.570   9.974  67.687  1.00  0.00    -0.171 A  
HETATM   16  C   UNL     1     -10.165   9.184  68.674  1.00  0.00    -0.225 A  
HETATM   17  C   UNL     1     -11.242   9.673  69.410  1.00  0.00    -0.112 A  
HETATM   18  C   UNL     1     -11.754  10.937  69.130  1.00  0.00    -0.397 A  
HETATM   19  C   UNL     1     -11.157  11.731  68.150  1.00  0.00    -0.297 A  
ENDBRANCH  13  14
ENDBRANCH  12  13
ENDBRANCH   6   7
ENDBRANCH   5   6
ENDBRANCH   4   5
ENDBRANCH   2   4
TORSDOF 6
ENDMDL
MODEL      125
REMARK 921   NORMALIZED FREE ENERGY PREDICTED BY IDOCK:   -3.99 KCAL/MOL
REMARK 922        TOTAL FREE ENERGY PREDICTED BY IDOCK:   -6.23 KCAL/MOL
REMARK 923 INTER-LIGAND FREE ENERGY PREDICTED BY IDOCK:   -5.23 KCAL/MOL
REMARK 924 INTRA-LIGAND FREE ENERGY PREDICTED BY IDOCK:   -1.00 KCAL/MOL
REMARK 927      BINDING AFFINITY PREDICTED BY RF-SCORE:    0.00 PKD
ROOT
HETATM    1  C   UNL     1      -8.428   4.779  73.693  1.00  0.00    -0.105 C  
HETATM    2  N   UNL     1      -9.530   4.294  72.873  1.00  0.00    -0.122 NA 
HETATM    3  C   UNL     1      -9.505   2.844  72.743  1.00  0.00    -0.099 C  
ENDROOT
BRANCH   2   4
HETATM    4  C   UNL     1     -10.843   4.879  73.204  1.00  0.00    -0.282 C  
BRANCH   4   5
HETATM    5  C   UNL     1     -11.509   5.978  72.328  1.00  0.00    -0.312 C  
BRANCH   5   6
HETATM    6  O   UNL     1     -11.028   7.255  72.798  1.00  0.00    -0.273 OA 
BRANCH   6   7
HETATM    7  C   UNL     1     -11.422   8.433  72.215  1.00  0.00    -0.384 A  
HETATM    8  C   UNL     1     -12.737   8.795  72.547  1.00  0.00    -0.378 A  
HETATM    9  C   UNL     1     -13.382   9.889  71.950  1.00  0.00    -0.524 A  
HETATM   10  C   UNL     1     -12.700  10.676  71.031  1.00  0.00    -0.512 A  
HETATM   11  C   UNL     1     -11.399  10.328  70.682  1.00  0.00    -0.431 A  
HETATM   12  C   UNL     1     -10.766   9.174  71.217  1.00  0.00    -0.401 A  
BRANCH  12  13
HETATM   13  C   UNL     1      -9.517   8.731  70.490  1.00  0.00    -0.219 C  
BRANCH  13  14
HETATM   14  C   UNL     1      -9.692   7.465  69.663  1.00  0.00    -0.163 A  
HETATM   15  C   UNL     1      -8.830   6.379  69.868  1.00  0.00    -0.142 A  
HETATM   16  C   UNL     1      -9.065   5.156  69.233  1.00  0.00    -0.140 A  
HETATM   17  C   UNL     1     -10.154   5.007  68.378  1.00  0.00    -0.176 A  
HETATM   18  C   UNL     1     -10.985   6.093  68.121  1.00  0.00    -0.398 A  
HETATM   19  C   UNL     1     -10.758   7.313  68.760  1.00  0.00    -0.168 A  
ENDBRANCH  13  14
ENDBRANCH  12  13
ENDBRANCH   6   7
ENDBRANCH   5   6
ENDBRANCH   4   5
ENDBRANCH   2   4
TORSDOF 6
ENDMDL
MODEL      126
REMARK 921   NORMALIZED FREE ENERGY PREDICTED BY IDOCK:   -3.99 KCAL/MOL
REMARK 922        TOTAL FREE ENERGY PREDICTED BY IDOCK:   -6.23 KCAL/MOL
REMARK 923 INTER-LIGAND FREE ENERGY PREDICTED BY IDOCK:   -5.62 KCAL/MOL
REMARK 924 INTRA-LIGAND FREE ENERGY PREDICTED BY IDOCK:   -0.60 KCAL/MOL
REMARK 927      BINDING AFFINITY PREDICTED BY RF-SCORE:    0.00 PKD
ROOT
HETATM    1  C   UNL     1     -13.400  14.255  72.789  1.00  0.00    -0.525 C  
HETATM    2  N   UNL     1     -12.789  14.774  71.573  1.00  0.00    -0.311 NA 
HETATM    3  C   UNL     1     -11.753  15.754  71.866  1.00  0.00    -0.483 C  
ENDROOT
BRANCH   2   4
HETATM    4  C   UNL     1     -12.425  13.744  70.582  1.00  0.00    -0.359 C  
BRANCH   4   5
HETATM    5  C   UNL     1     -11.341  13.982  69.493  1.00  0.00    -0.245 C  
BRANCH   5   6
HETATM    6  O   UNL     1     -11.957  14.732  68.426  1.00  0.00    -0.303 OA 
BRANCH   6   7
HETATM    7  C   UNL     1     -11.570  14.579  67.118  1.00  0.00    -0.388 A  
HETATM    8  C   UNL     1     -12.320  13.608  66.436  1.00  0.00    -0.441 A  
HETATM    9  C   UNL     1     -11.998  13.197  65.134  1.00  0.00    -0.431 A  
HETATM   10  C   UNL     1     -10.933  13.789  64.466  1.00  0.00    -0.399 A  
HETATM   11  C   UNL     1     -10.173  14.745  65.129  1.00  0.00    -0.410 A  
HETATM   12  C   UNL     1     -10.437  15.108  66.477  1.00  0.00    -0.292 A  
BRANCH  12  13
HETATM   13  C   UNL     1      -9.333  15.876  67.164  1.00  0.00    -0.223 C  
BRANCH  13  14
HETATM   14  C   UNL     1      -8.255  14.998  67.786  1.00  0.00    -0.162 A  
HETATM   15  C   UNL     1      -8.087  13.682  67.332  1.00  0.00    -0.184 A  
HETATM   16  C   UNL     1      -7.010  12.909  67.776  1.00  0.00    -0.138 A  
HETATM   17  C   UNL     1      -6.097  13.437  68.686  1.00  0.00    -0.086 A  
HETATM   18  C   UNL     1      -6.283  14.721  69.187  1.00  0.00    -0.105 A  
HETATM   19  C   UNL     1      -7.353  15.498  68.740  1.00  0.00    -0.141 A  
ENDBRANCH  13  14
ENDBRANCH  12  13
ENDBRANCH   6   7
ENDBRANCH   5   6
ENDBRANCH   4   5
ENDBRANCH   2   4
TORSDOF 6
ENDMDL
MODEL      127
REMARK 921   NORMALIZED FREE ENERGY PREDICTED BY IDOCK:   -3.99 KCAL/MOL
REMARK 922        TOTAL FREE ENERGY PREDICTED BY IDOCK:   -6.23 KCAL/MOL
REMARK 923 INTER-LIGAND FREE ENERGY PREDICTED BY IDOCK:   -5.35 KCAL/MOL
REMARK 924 INTRA-LIGAND FREE ENERGY PREDICTED BY IDOCK:   -0.88 KCAL/MOL
REMARK 927      BINDING AFFINITY PREDICTED BY RF-SCORE:    0.00 PKD
ROOT
HETATM    1  C   UNL     1     -12.067  14.528  64.398  1.00  0.00    -0.472 C  
HETATM    2  N   UNL     1     -12.147  13.147  64.856  1.00  0.00    -0.378 NA 
HETATM    3  C   UNL     1     -12.349  12.224  63.748  1.00  0.00    -0.538 C  
ENDROOT
BRANCH   2   4
HETATM    4  C   UNL     1     -11.100  12.760  65.821  1.00  0.00    -0.285 C  
BRANCH   4   5
HETATM    5  C   UNL     1     -11.341  12.767  67.357  1.00  0.00    -0.313 C  
BRANCH   5   6
HETATM    6  O   UNL     1     -12.026  11.543  67.692  1.00  0.00    -0.630 OA 
BRANCH   6   7
HETATM    7  C   UNL     1     -11.395  10.521  68.357  1.00  0.00    -0.262 A  
HETATM    8  C   UNL     1     -11.298  10.745  69.739  1.00  0.00    -0.372 A  
HETATM    9  C   UNL     1     -10.568   9.894  70.583  1.00  0.00    -0.341 A  
HETATM   10  C   UNL     1      -9.952   8.764  70.059  1.00  0.00    -0.196 A  
HETATM   11  C   UNL     1     -10.029   8.530  68.690  1.00  0.00    -0.197 A  
HETATM   12  C   UNL     1     -10.693   9.430  67.815  1.00  0.00    -0.290 A  
BRANCH  12  13
HETATM   13  C   UNL     1     -10.393   9.238  66.346  1.00  0.00    -0.238 C  
BRANCH  13  14
HETATM   14  C   UNL     1      -8.923   9.407  65.983  1.00  0.00    -0.205 A  
HETATM   15  C   UNL     1      -8.362   8.604  64.980  1.00  0.00    -0.181 A  
HETATM   16  C   UNL     1      -7.062   8.843  64.523  1.00  0.00    -0.089 A  
HETATM   17  C   UNL     1      -6.306   9.876  65.070  1.00  0.00    -0.104 A  
HETATM   18  C   UNL     1      -6.830  10.645  66.105  1.00  0.00    -0.135 A  
HETATM   19  C   UNL     1      -8.130  10.414  66.558  1.00  0.00    -0.122 A  
ENDBRANCH  13  14
ENDBRANCH  12  13
ENDBRANCH   6   7
ENDBRANCH   5   6
ENDBRANCH   4   5
ENDBRANCH   2   4
TORSDOF 6
ENDMDL
MODEL      128
REMARK 921   NORMALIZED FREE ENERGY PREDICTED BY IDOCK:   -3.97 KCAL/MOL
REMARK 922        TOTAL FREE ENERGY PREDICTED BY IDOCK:   -6.20 KCAL/MOL
REMARK 923 INTER-LIGAND FREE ENERGY PREDICTED BY IDOCK:   -5.75 KCAL/MOL
REMARK 924 INTRA-LIGAND FREE ENERGY PREDICTED BY IDOCK:   -0.44 KCAL/MOL
REMARK 927      BINDING AFFINITY PREDICTED BY RF-SCORE:    0.00 PKD
ROOT
HETATM    1  C   UNL     1      -9.099   6.758  66.327  1.00  0.00    -0.139 C  
HETATM    2  N   UNL     1      -9.258   7.559  67.534  1.00  0.00    -0.127 NA 
HETATM    3  C   UNL     1      -7.987   8.103  67.991  1.00  0.00    -0.127 C  
ENDROOT
BRANCH   2   4
HETATM    4  C   UNL     1     -10.379   8.517  67.490  1.00  0.00    -0.267 C  
BRANCH   4   5
HETATM    5  C   UNL     1     -10.176  10.045  67.696  1.00  0.00    -0.204 C  
BRANCH   5   6
HETATM    6  O   UNL     1     -11.114  10.725  66.837  1.00  0.00    -0.244 OA 
BRANCH   6   7
HETATM    7  C   UNL     1     -10.833  10.979  65.518  1.00  0.00    -0.088 A  
HETATM    8  C   UNL     1      -9.659  10.348  65.078  1.00  0.00    -0.339 A  
HETATM    9  C   UNL     1      -9.116  10.587  63.806  1.00  0.00    -0.258 A  
HETATM   10  C   UNL     1      -9.770  11.438  62.925  1.00  0.00    -0.344 A  
HETATM   11  C   UNL     1     -10.930  12.080  63.346  1.00  0.00    -0.475 A  
HETATM   12  C   UNL     1     -11.442  11.911  64.660  1.00  0.00    -0.345 A  
BRANCH  12  13
HETATM   13  C   UNL     1     -12.479  12.926  65.081  1.00  0.00    -0.561 C  
BRANCH  13  14
HETATM   14  C   UNL     1     -11.911  14.124  65.831  1.00  0.00    -0.420 A  
HETATM   15  C   UNL     1     -12.050  14.198  67.224  1.00  0.00    -0.407 A  
HETATM   16  C   UNL     1     -11.408  15.206  67.950  1.00  0.00    -0.346 A  
HETATM   17  C   UNL     1     -10.630  16.156  67.293  1.00  0.00    -0.305 A  
HETATM   18  C   UNL     1     -10.528  16.127  65.905  1.00  0.00    -0.366 A  
HETATM   19  C   UNL     1     -11.162  15.118  65.179  1.00  0.00    -0.392 A  
ENDBRANCH  13  14
ENDBRANCH  12  13
ENDBRANCH   6   7
ENDBRANCH   5   6
ENDBRANCH   4   5
ENDBRANCH   2   4
TORSDOF 6
ENDMDL
MODEL      129
REMARK 921   NORMALIZED FREE ENERGY PREDICTED BY IDOCK:   -3.96 KCAL/MOL
REMARK 922        TOTAL FREE ENERGY PREDICTED BY IDOCK:   -6.18 KCAL/MOL
REMARK 923 INTER-LIGAND FREE ENERGY PREDICTED BY IDOCK:   -5.59 KCAL/MOL
REMARK 924 INTRA-LIGAND FREE ENERGY PREDICTED BY IDOCK:   -0.59 KCAL/MOL
REMARK 927      BINDING AFFINITY PREDICTED BY RF-SCORE:    0.00 PKD
ROOT
HETATM    1  C   UNL     1     -10.289  11.271  65.524  1.00  0.00    -0.266 C  
HETATM    2  N   UNL     1     -10.272  10.275  66.587  1.00  0.00    -0.229 NA 
HETATM    3  C   UNL     1      -8.914   9.959  67.007  1.00  0.00    -0.138 C  
ENDROOT
BRANCH   2   4
HETATM    4  C   UNL     1     -11.231  10.528  67.679  1.00  0.00    -0.265 C  
BRANCH   4   5
HETATM    5  C   UNL     1     -10.781  11.022  69.084  1.00  0.00    -0.234 C  
BRANCH   5   6
HETATM    6  O   UNL     1     -10.541  12.441  68.986  1.00  0.00    -0.165 OA 
BRANCH   6   7
HETATM    7  C   UNL     1     -11.288  13.351  69.692  1.00  0.00    -0.137 A  
HETATM    8  C   UNL     1     -12.271  12.747  70.492  1.00  0.00    -0.389 A  
HETATM    9  C   UNL     1     -13.232  13.498  71.186  1.00  0.00    -0.218 A  
HETATM   10  C   UNL     1     -13.199  14.885  71.126  1.00  0.00    -0.476 A  
HETATM   11  C   UNL     1     -12.239  15.501  70.331  1.00  0.00    -0.443 A  
HETATM   12  C   UNL     1     -11.314  14.749  69.558  1.00  0.00    -0.312 A  
BRANCH  12  13
HETATM   13  C   UNL     1     -10.584  15.530  68.490  1.00  0.00    -0.246 C  
BRANCH  13  14
HETATM   14  C   UNL     1     -11.085  15.272  67.075  1.00  0.00    -0.305 A  
HETATM   15  C   UNL     1     -12.193  14.437  66.875  1.00  0.00    -0.300 A  
HETATM   16  C   UNL     1     -12.764  14.306  65.605  1.00  0.00    -0.395 A  
HETATM   17  C   UNL     1     -12.228  14.998  64.521  1.00  0.00    -0.344 A  
HETATM   18  C   UNL     1     -11.095  15.786  64.695  1.00  0.00    -0.376 A  
HETATM   19  C   UNL     1     -10.527  15.924  65.963  1.00  0.00    -0.357 A  
ENDBRANCH  13  14
ENDBRANCH  12  13
ENDBRANCH   6   7
ENDBRANCH   5   6
ENDBRANCH   4   5
ENDBRANCH   2   4
TORSDOF 6
ENDMDL
MODEL      130
REMARK 921   NORMALIZED FREE ENERGY PREDICTED BY IDOCK:   -3.95 KCAL/MOL
REMARK 922        TOTAL FREE ENERGY PREDICTED BY IDOCK:   -6.17 KCAL/MOL
REMARK 923 INTER-LIGAND FREE ENERGY PREDICTED BY IDOCK:   -5.55 KCAL/MOL
REMARK 924 INTRA-LIGAND FREE ENERGY PREDICTED BY IDOCK:   -0.62 KCAL/MOL
REMARK 927      BINDING AFFINITY PREDICTED BY RF-SCORE:    0.00 PKD
ROOT
HETATM    1  C   UNL     1      -6.229   8.716  67.411  1.00  0.00    -0.056 C  
HETATM    2  N   UNL     1      -7.585   9.189  67.653  1.00  0.00    -0.085 NA 
HETATM    3  C   UNL     1      -7.952   9.077  69.058  1.00  0.00    -0.102 C  
ENDROOT
BRANCH   2   4
HETATM    4  C   UNL     1      -7.908  10.479  67.014  1.00  0.00    -0.114 C  
BRANCH   4   5
HETATM    5  C   UNL     1      -8.993  11.439  67.579  1.00  0.00    -0.150 C  
BRANCH   5   6
HETATM    6  O   UNL     1     -10.272  10.977  67.097  1.00  0.00    -0.193 OA 
BRANCH   6   7
HETATM    7  C   UNL     1     -10.935  11.619  66.081  1.00  0.00    -0.288 A  
HETATM    8  C   UNL     1     -10.599  11.123  64.811  1.00  0.00    -0.371 A  
HETATM    9  C   UNL     1     -11.055  11.728  63.630  1.00  0.00    -0.518 A  
HETATM   10  C   UNL     1     -11.902  12.828  63.700  1.00  0.00    -0.603 A  
HETATM   11  C   UNL     1     -12.238  13.338  64.949  1.00  0.00    -0.466 A  
HETATM   12  C   UNL     1     -11.714  12.786  66.148  1.00  0.00    -0.458 A  
BRANCH  12  13
HETATM   13  C   UNL     1     -11.876  13.648  67.378  1.00  0.00    -0.429 C  
BRANCH  13  14
HETATM   14  C   UNL     1     -10.921  14.833  67.440  1.00  0.00    -0.313 A  
HETATM   15  C   UNL     1      -9.659  14.738  66.837  1.00  0.00    -0.251 A  
HETATM   16  C   UNL     1      -8.828  15.858  66.747  1.00  0.00    -0.294 A  
HETATM   17  C   UNL     1      -9.243  17.082  67.267  1.00  0.00    -0.225 A  
HETATM   18  C   UNL     1     -10.469  17.178  67.917  1.00  0.00    -0.369 A  
HETATM   19  C   UNL     1     -11.304  16.063  68.002  1.00  0.00    -0.266 A  
ENDBRANCH  13  14
ENDBRANCH  12  13
ENDBRANCH   6   7
ENDBRANCH   5   6
ENDBRANCH   4   5
ENDBRANCH   2   4
TORSDOF 6
ENDMDL
MODEL      131
REMARK 921   NORMALIZED FREE ENERGY PREDICTED BY IDOCK:   -3.94 KCAL/MOL
REMARK 922        TOTAL FREE ENERGY PREDICTED BY IDOCK:   -6.15 KCAL/MOL
REMARK 923 INTER-LIGAND FREE ENERGY PREDICTED BY IDOCK:   -5.37 KCAL/MOL
REMARK 924 INTRA-LIGAND FREE ENERGY PREDICTED BY IDOCK:   -0.78 KCAL/MOL
REMARK 927      BINDING AFFINITY PREDICTED BY RF-SCORE:    0.00 PKD
ROOT
HETATM    1  C   UNL     1     -13.334  11.444  71.991  1.00  0.00    -0.283 C  
HETATM    2  N   UNL     1     -12.722  10.124  71.930  1.00  0.00    -0.415 NA 
HETATM    3  C   UNL     1     -13.723   9.069  71.861  1.00  0.00    -0.441 C  
ENDROOT
BRANCH   2   4
HETATM    4  C   UNL     1     -11.611  10.007  70.966  1.00  0.00    -0.393 C  
BRANCH   4   5
HETATM    5  C   UNL     1     -11.407  11.021  69.804  1.00  0.00    -0.292 C  
BRANCH   5   6
HETATM    6  O   UNL     1     -10.088  10.799  69.264  1.00  0.00    -0.218 OA 
BRANCH   6   7
HETATM    7  C   UNL     1      -9.897  10.381  67.971  1.00  0.00    -0.150 A  
HETATM    8  C   UNL     1     -10.112   9.004  67.805  1.00  0.00    -0.260 A  
HETATM    9  C   UNL     1      -9.837   8.348  66.595  1.00  0.00    -0.343 A  
HETATM   10  C   UNL     1      -9.378   9.075  65.504  1.00  0.00    -0.255 A  
HETATM   11  C   UNL     1      -9.150  10.438  65.652  1.00  0.00    -0.206 A  
HETATM   12  C   UNL     1      -9.345  11.097  66.896  1.00  0.00    -0.189 A  
BRANCH  12  13
HETATM   13  C   UNL     1      -8.727  12.472  66.998  1.00  0.00    -0.205 C  
BRANCH  13  14
HETATM   14  C   UNL     1      -9.702  13.566  67.413  1.00  0.00    -0.229 A  
HETATM   15  C   UNL     1     -10.951  13.655  66.784  1.00  0.00    -0.297 A  
HETATM   16  C   UNL     1     -11.919  14.549  67.250  1.00  0.00    -0.375 A  
HETATM   17  C   UNL     1     -11.647  15.372  68.341  1.00  0.00    -0.368 A  
HETATM   18  C   UNL     1     -10.392  15.333  68.940  1.00  0.00    -0.243 A  
HETATM   19  C   UNL     1      -9.426  14.436  68.481  1.00  0.00    -0.212 A  
ENDBRANCH  13  14
ENDBRANCH  12  13
ENDBRANCH   6   7
ENDBRANCH   5   6
ENDBRANCH   4   5
ENDBRANCH   2   4
TORSDOF 6
ENDMDL
MODEL      132
REMARK 921   NORMALIZED FREE ENERGY PREDICTED BY IDOCK:   -3.93 KCAL/MOL
REMARK 922        TOTAL FREE ENERGY PREDICTED BY IDOCK:   -6.14 KCAL/MOL
REMARK 923 INTER-LIGAND FREE ENERGY PREDICTED BY IDOCK:   -5.44 KCAL/MOL
REMARK 924 INTRA-LIGAND FREE ENERGY PREDICTED BY IDOCK:   -0.70 KCAL/MOL
REMARK 927      BINDING AFFINITY PREDICTED BY RF-SCORE:    0.00 PKD
ROOT
HETATM    1  C   UNL     1     -10.792  13.437  64.960  1.00  0.00    -0.328 C  
HETATM    2  N   UNL     1     -10.833  12.111  65.562  1.00  0.00    -0.274 NA 
HETATM    3  C   UNL     1     -10.085  11.140  64.776  1.00  0.00    -0.295 C  
ENDROOT
BRANCH   2   4
HETATM    4  C   UNL     1     -10.569  12.089  67.014  1.00  0.00    -0.227 C  
BRANCH   4   5
HETATM    5  C   UNL     1     -11.586  11.505  68.035  1.00  0.00    -0.300 C  
BRANCH   5   6
HETATM    6  O   UNL     1     -10.873  10.564  68.864  1.00  0.00    -0.206 OA 
BRANCH   6   7
HETATM    7  C   UNL     1     -11.444  10.009  69.982  1.00  0.00    -0.248 A  
HETATM    8  C   UNL     1     -12.435  10.824  70.552  1.00  0.00    -0.447 A  
HETATM    9  C   UNL     1     -13.046  10.510  71.775  1.00  0.00    -0.570 A  
HETATM   10  C   UNL     1     -12.702   9.338  72.438  1.00  0.00    -0.383 A  
HETATM   11  C   UNL     1     -11.716   8.523  71.894  1.00  0.00    -0.409 A  
HETATM   12  C   UNL     1     -11.032   8.873  70.699  1.00  0.00    -0.287 A  
BRANCH  12  13
HETATM   13  C   UNL     1      -9.766   8.092  70.431  1.00  0.00    -0.179 C  
BRANCH  13  14
HETATM   14  C   UNL     1      -9.746   7.380  69.085  1.00  0.00    -0.165 A  
HETATM   15  C   UNL     1     -10.708   6.399  68.805  1.00  0.00    -0.339 A  
HETATM   16  C   UNL     1     -10.804   5.843  67.527  1.00  0.00    -0.335 A  
HETATM   17  C   UNL     1      -9.936   6.251  66.517  1.00  0.00    -0.172 A  
HETATM   18  C   UNL     1      -8.941   7.183  66.795  1.00  0.00    -0.151 A  
HETATM   19  C   UNL     1      -8.847   7.745  68.068  1.00  0.00    -0.124 A  
ENDBRANCH  13  14
ENDBRANCH  12  13
ENDBRANCH   6   7
ENDBRANCH   5   6
ENDBRANCH   4   5
ENDBRANCH   2   4
TORSDOF 6
ENDMDL
MODEL      133
REMARK 921   NORMALIZED FREE ENERGY PREDICTED BY IDOCK:   -3.92 KCAL/MOL
REMARK 922        TOTAL FREE ENERGY PREDICTED BY IDOCK:   -6.13 KCAL/MOL
REMARK 923 INTER-LIGAND FREE ENERGY PREDICTED BY IDOCK:   -5.54 KCAL/MOL
REMARK 924 INTRA-LIGAND FREE ENERGY PREDICTED BY IDOCK:   -0.59 KCAL/MOL
REMARK 927      BINDING AFFINITY PREDICTED BY RF-SCORE:    0.00 PKD
ROOT
HETATM    1  C   UNL     1      -8.644  19.730  68.022  1.00  0.00    -0.295 C  
HETATM    2  N   UNL     1      -9.798  18.900  67.702  1.00  0.00    -0.319 NA 
HETATM    3  C   UNL     1     -10.417  19.300  66.447  1.00  0.00    -0.474 C  
ENDROOT
BRANCH   2   4
HETATM    4  C   UNL     1      -9.574  17.451  67.865  1.00  0.00    -0.267 C  
BRANCH   4   5
HETATM    5  C   UNL     1     -10.418  16.388  67.107  1.00  0.00    -0.297 C  
BRANCH   5   6
HETATM    6  O   UNL     1     -11.635  16.189  67.855  1.00  0.00    -0.181 OA 
BRANCH   6   7
HETATM    7  C   UNL     1     -11.873  15.031  68.553  1.00  0.00    -0.291 A  
HETATM    8  C   UNL     1     -11.968  15.237  69.939  1.00  0.00    -0.373 A  
HETATM    9  C   UNL     1     -12.069  14.172  70.845  1.00  0.00    -0.416 A  
HETATM   10  C   UNL     1     -12.122  12.866  70.374  1.00  0.00    -0.385 A  
HETATM   11  C   UNL     1     -12.020  12.641  69.006  1.00  0.00    -0.282 A  
HETATM   12  C   UNL     1     -11.832  13.707  68.085  1.00  0.00    -0.407 A  
BRANCH  12  13
HETATM   13  C   UNL     1     -11.386  13.291  66.702  1.00  0.00    -0.353 C  
BRANCH  13  14
HETATM   14  C   UNL     1     -10.008  12.645  66.659  1.00  0.00    -0.247 A  
HETATM   15  C   UNL     1      -8.926  13.279  67.285  1.00  0.00    -0.217 A  
HETATM   16  C   UNL     1      -7.689  12.636  67.391  1.00  0.00    -0.161 A  
HETATM   17  C   UNL     1      -7.516  11.359  66.862  1.00  0.00    -0.147 A  
HETATM   18  C   UNL     1      -8.565  10.740  66.189  1.00  0.00    -0.171 A  
HETATM   19  C   UNL     1      -9.803  11.377  66.089  1.00  0.00    -0.255 A  
ENDBRANCH  13  14
ENDBRANCH  12  13
ENDBRANCH   6   7
ENDBRANCH   5   6
ENDBRANCH   4   5
ENDBRANCH   2   4
TORSDOF 6
ENDMDL
MODEL      134
REMARK 921   NORMALIZED FREE ENERGY PREDICTED BY IDOCK:   -3.91 KCAL/MOL
REMARK 922        TOTAL FREE ENERGY PREDICTED BY IDOCK:   -6.11 KCAL/MOL
REMARK 923 INTER-LIGAND FREE ENERGY PREDICTED BY IDOCK:   -5.34 KCAL/MOL
REMARK 924 INTRA-LIGAND FREE ENERGY PREDICTED BY IDOCK:   -0.77 KCAL/MOL
REMARK 927      BINDING AFFINITY PREDICTED BY RF-SCORE:    0.00 PKD
ROOT
HETATM    1  C   UNL     1      -5.844   9.723  68.586  1.00  0.00    -0.039 C  
HETATM    2  N   UNL     1      -6.782  10.404  69.469  1.00  0.00    -0.068 NA 
HETATM    3  C   UNL     1      -6.576  11.845  69.465  1.00  0.00    -0.093 C  
ENDROOT
BRANCH   2   4
HETATM    4  C   UNL     1      -8.183   9.964  69.331  1.00  0.00    -0.146 C  
BRANCH   4   5
HETATM    5  C   UNL     1      -8.878   9.819  67.947  1.00  0.00    -0.122 C  
BRANCH   5   6
HETATM    6  O   UNL     1     -10.274  10.136  68.130  1.00  0.00    -0.157 OA 
BRANCH   6   7
HETATM    7  C   UNL     1     -10.677  11.304  68.725  1.00  0.00    -0.203 A  
HETATM    8  C   UNL     1     -11.614  11.100  69.751  1.00  0.00    -0.409 A  
HETATM    9  C   UNL     1     -12.259  12.167  70.394  1.00  0.00    -0.378 A  
HETATM   10  C   UNL     1     -11.943  13.475  70.048  1.00  0.00    -0.410 A  
HETATM   11  C   UNL     1     -11.025  13.697  69.027  1.00  0.00    -0.271 A  
HETATM   12  C   UNL     1     -10.429  12.624  68.312  1.00  0.00    -0.249 A  
BRANCH  12  13
HETATM   13  C   UNL     1      -9.744  13.013  67.022  1.00  0.00    -0.235 C  
BRANCH  13  14
HETATM   14  C   UNL     1     -10.633  12.915  65.790  1.00  0.00    -0.293 A  
HETATM   15  C   UNL     1     -11.426  14.010  65.419  1.00  0.00    -0.315 A  
HETATM   16  C   UNL     1     -12.130  14.001  64.211  1.00  0.00    -0.476 A  
HETATM   17  C   UNL     1     -12.060  12.895  63.367  1.00  0.00    -0.610 A  
HETATM   18  C   UNL     1     -11.322  11.779  63.749  1.00  0.00    -0.524 A  
HETATM   19  C   UNL     1     -10.611  11.789  64.950  1.00  0.00    -0.344 A  
ENDBRANCH  13  14
ENDBRANCH  12  13
ENDBRANCH   6   7
ENDBRANCH   5   6
ENDBRANCH   4   5
ENDBRANCH   2   4
TORSDOF 6
ENDMDL
MODEL      135
REMARK 921   NORMALIZED FREE ENERGY PREDICTED BY IDOCK:   -3.90 KCAL/MOL
REMARK 922        TOTAL FREE ENERGY PREDICTED BY IDOCK:   -6.11 KCAL/MOL
REMARK 923 INTER-LIGAND FREE ENERGY PREDICTED BY IDOCK:   -5.40 KCAL/MOL
REMARK 924 INTRA-LIGAND FREE ENERGY PREDICTED BY IDOCK:   -0.71 KCAL/MOL
REMARK 927      BINDING AFFINITY PREDICTED BY RF-SCORE:    0.00 PKD
ROOT
HETATM    1  C   UNL     1     -10.609  15.920  66.653  1.00  0.00    -0.305 C  
HETATM    2  N   UNL     1     -10.557  14.738  67.503  1.00  0.00    -0.256 NA 
HETATM    3  C   UNL     1      -9.498  14.836  68.497  1.00  0.00    -0.214 C  
ENDROOT
BRANCH   2   4
HETATM    4  C   UNL     1     -11.867  14.293  68.015  1.00  0.00    -0.344 C  
BRANCH   4   5
HETATM    5  C   UNL     1     -12.003  13.258  69.168  1.00  0.00    -0.296 C  
BRANCH   5   6
HETATM    6  O   UNL     1     -11.983  11.944  68.573  1.00  0.00    -0.367 OA 
BRANCH   6   7
HETATM    7  C   UNL     1     -10.873  11.139  68.635  1.00  0.00    -0.209 A  
HETATM    8  C   UNL     1     -10.220  11.012  67.398  1.00  0.00    -0.229 A  
HETATM    9  C   UNL     1      -9.148  10.127  67.209  1.00  0.00    -0.151 A  
HETATM   10  C   UNL     1      -8.676   9.377  68.279  1.00  0.00    -0.124 A  
HETATM   11  C   UNL     1      -9.315   9.482  69.509  1.00  0.00    -0.199 A  
HETATM   12  C   UNL     1     -10.454  10.311  69.690  1.00  0.00    -0.286 A  
BRANCH  12  13
HETATM   13  C   UNL     1     -11.242  10.054  70.954  1.00  0.00    -0.415 C  
BRANCH  13  14
HETATM   14  C   UNL     1     -11.144   8.626  71.471  1.00  0.00    -0.358 A  
HETATM   15  C   UNL     1     -10.518   8.375  72.700  1.00  0.00    -0.317 A  
HETATM   16  C   UNL     1     -10.551   7.098  73.266  1.00  0.00    -0.405 A  
HETATM   17  C   UNL     1     -11.198   6.055  72.607  1.00  0.00    -0.326 A  
HETATM   18  C   UNL     1     -11.775   6.276  71.361  1.00  0.00    -0.316 A  
HETATM   19  C   UNL     1     -11.751   7.552  70.796  1.00  0.00    -0.281 A  
ENDBRANCH  13  14
ENDBRANCH  12  13
ENDBRANCH   6   7
ENDBRANCH   5   6
ENDBRANCH   4   5
ENDBRANCH   2   4
TORSDOF 6
ENDMDL
MODEL      136
REMARK 921   NORMALIZED FREE ENERGY PREDICTED BY IDOCK:   -3.89 KCAL/MOL
REMARK 922        TOTAL FREE ENERGY PREDICTED BY IDOCK:   -6.09 KCAL/MOL
REMARK 923 INTER-LIGAND FREE ENERGY PREDICTED BY IDOCK:   -5.51 KCAL/MOL
REMARK 924 INTRA-LIGAND FREE ENERGY PREDICTED BY IDOCK:   -0.58 KCAL/MOL
REMARK 927      BINDING AFFINITY PREDICTED BY RF-SCORE:    0.00 PKD
ROOT
HETATM    1  C   UNL     1     -12.484  15.248  73.414  1.00  0.00    -0.517 C  
HETATM    2  N   UNL     1     -13.076  14.564  72.272  1.00  0.00    -0.348 NA 
HETATM    3  C   UNL     1     -14.394  15.094  71.952  1.00  0.00    -0.596 C  
ENDROOT
BRANCH   2   4
HETATM    4  C   UNL     1     -12.167  14.390  71.123  1.00  0.00    -0.350 C  
BRANCH   4   5
HETATM    5  C   UNL     1     -12.322  15.205  69.808  1.00  0.00    -0.242 C  
BRANCH   5   6
HETATM    6  O   UNL     1     -11.664  14.464  68.760  1.00  0.00    -0.301 OA 
BRANCH   6   7
HETATM    7  C   UNL     1     -10.575  14.968  68.093  1.00  0.00    -0.248 A  
HETATM    8  C   UNL     1     -10.861  16.154  67.398  1.00  0.00    -0.265 A  
HETATM    9  C   UNL     1      -9.929  16.757  66.541  1.00  0.00    -0.308 A  
HETATM   10  C   UNL     1      -8.664  16.202  66.395  1.00  0.00    -0.360 A  
HETATM   11  C   UNL     1      -8.365  15.023  67.068  1.00  0.00    -0.254 A  
HETATM   12  C   UNL     1      -9.329  14.357  67.872  1.00  0.00    -0.203 A  
BRANCH  12  13
HETATM   13  C   UNL     1      -8.985  12.933  68.241  1.00  0.00    -0.175 C  
BRANCH  13  14
HETATM   14  C   UNL     1      -9.441  11.897  67.222  1.00  0.00    -0.176 A  
HETATM   15  C   UNL     1     -10.531  12.180  66.387  1.00  0.00    -0.261 A  
HETATM   16  C   UNL     1     -10.871  11.313  65.345  1.00  0.00    -0.255 A  
HETATM   17  C   UNL     1     -10.136  10.149  65.133  1.00  0.00    -0.329 A  
HETATM   18  C   UNL     1      -9.088   9.827  65.989  1.00  0.00    -0.201 A  
HETATM   19  C   UNL     1      -8.741  10.695  67.025  1.00  0.00    -0.128 A  
ENDBRANCH  13  14
ENDBRANCH  12  13
ENDBRANCH   6   7
ENDBRANCH   5   6
ENDBRANCH   4   5
ENDBRANCH   2   4
TORSDOF 6
ENDMDL
MODEL      137
REMARK 921   NORMALIZED FREE ENERGY PREDICTED BY IDOCK:   -3.88 KCAL/MOL
REMARK 922        TOTAL FREE ENERGY PREDICTED BY IDOCK:   -6.08 KCAL/MOL
REMARK 923 INTER-LIGAND FREE ENERGY PREDICTED BY IDOCK:   -5.47 KCAL/MOL
REMARK 924 INTRA-LIGAND FREE ENERGY PREDICTED BY IDOCK:   -0.61 KCAL/MOL
REMARK 927      BINDING AFFINITY PREDICTED BY RF-SCORE:    0.00 PKD
ROOT
HETATM    1  C   UNL     1      -7.656   7.863  67.609  1.00  0.00    -0.109 C  
HETATM    2  N   UNL     1      -8.399   9.097  67.822  1.00  0.00    -0.116 NA 
HETATM    3  C   UNL     1      -9.204   9.039  69.034  1.00  0.00    -0.140 C  
ENDROOT
BRANCH   2   4
HETATM    4  C   UNL     1      -7.605  10.328  67.648  1.00  0.00    -0.090 C  
BRANCH   4   5
HETATM    5  C   UNL     1      -7.776  11.262  66.417  1.00  0.00    -0.089 C  
BRANCH   5   6
HETATM    6  O   UNL     1      -8.911  12.114  66.676  1.00  0.00    -0.202 OA 
BRANCH   6   7
HETATM    7  C   UNL     1      -9.898  12.307  65.742  1.00  0.00    -0.244 A  
HETATM    8  C   UNL     1      -9.891  11.333  64.730  1.00  0.00    -0.312 A  
HETATM    9  C   UNL     1     -10.724  11.421  63.605  1.00  0.00    -0.470 A  
HETATM   10  C   UNL     1     -11.622  12.475  63.491  1.00  0.00    -0.584 A  
HETATM   11  C   UNL     1     -11.638  13.454  64.478  1.00  0.00    -0.405 A  
HETATM   12  C   UNL     1     -10.740  13.420  65.579  1.00  0.00    -0.301 A  
BRANCH  12  13
HETATM   13  C   UNL     1     -10.630  14.709  66.359  1.00  0.00    -0.301 C  
BRANCH  13  14
HETATM   14  C   UNL     1     -11.325  14.681  67.713  1.00  0.00    -0.338 A  
HETATM   15  C   UNL     1     -11.728  13.454  68.259  1.00  0.00    -0.391 A  
HETATM   16  C   UNL     1     -12.228  13.386  69.563  1.00  0.00    -0.260 A  
HETATM   17  C   UNL     1     -12.341  14.543  70.331  1.00  0.00    -0.400 A  
HETATM   18  C   UNL     1     -11.997  15.774  69.783  1.00  0.00    -0.337 A  
HETATM   19  C   UNL     1     -11.491  15.844  68.484  1.00  0.00    -0.377 A  
ENDBRANCH  13  14
ENDBRANCH  12  13
ENDBRANCH   6   7
ENDBRANCH   5   6
ENDBRANCH   4   5
ENDBRANCH   2   4
TORSDOF 6
ENDMDL
MODEL      138
REMARK 921   NORMALIZED FREE ENERGY PREDICTED BY IDOCK:   -3.88 KCAL/MOL
REMARK 922        TOTAL FREE ENERGY PREDICTED BY IDOCK:   -6.07 KCAL/MOL
REMARK 923 INTER-LIGAND FREE ENERGY PREDICTED BY IDOCK:   -5.47 KCAL/MOL
REMARK 924 INTRA-LIGAND FREE ENERGY PREDICTED BY IDOCK:   -0.60 KCAL/MOL
REMARK 927      BINDING AFFINITY PREDICTED BY RF-SCORE:    0.00 PKD
ROOT
HETATM    1  C   UNL     1      -8.944  18.866  68.195  1.00  0.00    -0.311 C  
HETATM    2  N   UNL     1     -10.201  18.361  67.661  1.00  0.00    -0.360 NA 
HETATM    3  C   UNL     1     -10.426  18.813  66.296  1.00  0.00    -0.435 C  
ENDROOT
BRANCH   2   4
HETATM    4  C   UNL     1     -10.435  16.924  67.899  1.00  0.00    -0.344 C  
BRANCH   4   5
HETATM    5  C   UNL     1      -9.300  15.867  67.790  1.00  0.00    -0.207 C  
BRANCH   5   6
HETATM    6  O   UNL     1      -9.316  15.352  66.442  1.00  0.00    -0.253 OA 
BRANCH   6   7
HETATM    7  C   UNL     1     -10.309  14.514  66.001  1.00  0.00    -0.309 A  
HETATM    8  C   UNL     1     -11.124  15.100  65.020  1.00  0.00    -0.428 A  
HETATM    9  C   UNL     1     -12.279  14.468  64.535  1.00  0.00    -0.483 A  
HETATM   10  C   UNL     1     -12.621  13.204  64.998  1.00  0.00    -0.499 A  
HETATM   11  C   UNL     1     -11.831  12.611  65.978  1.00  0.00    -0.492 A  
HETATM   12  C   UNL     1     -10.707  13.277  66.536  1.00  0.00    -0.290 A  
BRANCH  12  13
HETATM   13  C   UNL     1     -10.173  12.674  67.814  1.00  0.00    -0.222 C  
BRANCH  13  14
HETATM   14  C   UNL     1      -9.051  11.665  67.608  1.00  0.00    -0.174 A  
HETATM   15  C   UNL     1      -9.327  10.294  67.705  1.00  0.00    -0.158 A  
HETATM   16  C   UNL     1      -8.354   9.348  67.370  1.00  0.00    -0.125 A  
HETATM   17  C   UNL     1      -7.092   9.760  66.946  1.00  0.00    -0.089 A  
HETATM   18  C   UNL     1      -6.787  11.117  66.898  1.00  0.00    -0.127 A  
HETATM   19  C   UNL     1      -7.759  12.063  67.225  1.00  0.00    -0.168 A  
ENDBRANCH  13  14
ENDBRANCH  12  13
ENDBRANCH   6   7
ENDBRANCH   5   6
ENDBRANCH   4   5
ENDBRANCH   2   4
TORSDOF 6
ENDMDL
MODEL      139
REMARK 921   NORMALIZED FREE ENERGY PREDICTED BY IDOCK:   -3.87 KCAL/MOL
REMARK 922        TOTAL FREE ENERGY PREDICTED BY IDOCK:   -6.06 KCAL/MOL
REMARK 923 INTER-LIGAND FREE ENERGY PREDICTED BY IDOCK:   -5.37 KCAL/MOL
REMARK 924 INTRA-LIGAND FREE ENERGY PREDICTED BY IDOCK:   -0.70 KCAL/MOL
REMARK 927      BINDING AFFINITY PREDICTED BY RF-SCORE:    0.00 PKD
ROOT
HETATM    1  C   UNL     1      -9.898   8.412  70.508  1.00  0.00    -0.184 C  
HETATM    2  N   UNL     1      -9.794   7.936  69.136  1.00  0.00    -0.171 NA 
HETATM    3  C   UNL     1     -10.677   6.804  68.890  1.00  0.00    -0.240 C  
ENDROOT
BRANCH   2   4
HETATM    4  C   UNL     1      -9.828   8.999  68.114  1.00  0.00    -0.166 C  
BRANCH   4   5
HETATM    5  C   UNL     1     -10.868  10.154  68.148  1.00  0.00    -0.262 C  
BRANCH   5   6
HETATM    6  O   UNL     1     -10.302  11.223  68.934  1.00  0.00    -0.201 OA 
BRANCH   6   7
HETATM    7  C   UNL     1      -9.907  12.408  68.364  1.00  0.00    -0.198 A  
HETATM    8  C   UNL     1      -8.514  12.510  68.224  1.00  0.00    -0.165 A  
HETATM    9  C   UNL     1      -7.893  13.692  67.794  1.00  0.00    -0.172 A  
HETATM   10  C   UNL     1      -8.667  14.793  67.450  1.00  0.00    -0.210 A  
HETATM   11  C   UNL     1     -10.048  14.714  67.591  1.00  0.00    -0.228 A  
HETATM   12  C   UNL     1     -10.681  13.551  68.106  1.00  0.00    -0.265 A  
BRANCH  12  13
HETATM   13  C   UNL     1     -12.119  13.738  68.532  1.00  0.00    -0.327 C  
BRANCH  13  14
HETATM   14  C   UNL     1     -12.298  14.023  70.017  1.00  0.00    -0.397 A  
HETATM   15  C   UNL     1     -12.078  15.319  70.504  1.00  0.00    -0.395 A  
HETATM   16  C   UNL     1     -12.382  15.640  71.830  1.00  0.00    -0.502 A  
HETATM   17  C   UNL     1     -12.899  14.670  72.686  1.00  0.00    -0.499 A  
HETATM   18  C   UNL     1     -13.070  13.367  72.231  1.00  0.00    -0.484 A  
HETATM   19  C   UNL     1     -12.774  13.044  70.906  1.00  0.00    -0.299 A  
ENDBRANCH  13  14
ENDBRANCH  12  13
ENDBRANCH   6   7
ENDBRANCH   5   6
ENDBRANCH   4   5
ENDBRANCH   2   4
TORSDOF 6
ENDMDL
MODEL      140
REMARK 921   NORMALIZED FREE ENERGY PREDICTED BY IDOCK:   -3.86 KCAL/MOL
REMARK 922        TOTAL FREE ENERGY PREDICTED BY IDOCK:   -6.05 KCAL/MOL
REMARK 923 INTER-LIGAND FREE ENERGY PREDICTED BY IDOCK:   -5.27 KCAL/MOL
REMARK 924 INTRA-LIGAND FREE ENERGY PREDICTED BY IDOCK:   -0.77 KCAL/MOL
REMARK 927      BINDING AFFINITY PREDICTED BY RF-SCORE:    0.00 PKD
ROOT
HETATM    1  C   UNL     1     -12.007  13.217  63.520  1.00  0.00    -0.474 C  
HETATM    2  N   UNL     1     -11.637  12.214  64.509  1.00  0.00    -0.338 NA 
HETATM    3  C   UNL     1     -10.427  11.501  64.125  1.00  0.00    -0.353 C  
ENDROOT
BRANCH   2   4
HETATM    4  C   UNL     1     -11.679  12.686  65.906  1.00  0.00    -0.420 C  
BRANCH   4   5
HETATM    5  C   UNL     1     -11.006  11.903  67.069  1.00  0.00    -0.278 C  
BRANCH   5   6
HETATM    6  O   UNL     1     -10.050  12.789  67.689  1.00  0.00    -0.213 OA 
BRANCH   6   7
HETATM    7  C   UNL     1     -10.445  13.874  68.430  1.00  0.00    -0.247 A  
HETATM    8  C   UNL     1     -11.367  13.544  69.435  1.00  0.00    -0.293 A  
HETATM    9  C   UNL     1     -12.003  14.522  70.214  1.00  0.00    -0.379 A  
HETATM   10  C   UNL     1     -11.692  15.863  70.028  1.00  0.00    -0.340 A  
HETATM   11  C   UNL     1     -10.787  16.211  69.031  1.00  0.00    -0.299 A  
HETATM   12  C   UNL     1     -10.201  15.236  68.180  1.00  0.00    -0.230 A  
BRANCH  12  13
HETATM   13  C   UNL     1      -9.534  15.782  66.940  1.00  0.00    -0.244 C  
BRANCH  13  14
HETATM   14  C   UNL     1      -8.112  16.279  67.163  1.00  0.00    -0.219 A  
HETATM   15  C   UNL     1      -7.602  17.306  66.357  1.00  0.00    -0.349 A  
HETATM   16  C   UNL     1      -6.360  17.881  66.640  1.00  0.00    -0.218 A  
HETATM   17  C   UNL     1      -5.609  17.430  67.723  1.00  0.00    -0.136 A  
HETATM   18  C   UNL     1      -6.077  16.374  68.498  1.00  0.00    -0.123 A  
HETATM   19  C   UNL     1      -7.320  15.803  68.222  1.00  0.00    -0.121 A  
ENDBRANCH  13  14
ENDBRANCH  12  13
ENDBRANCH   6   7
ENDBRANCH   5   6
ENDBRANCH   4   5
ENDBRANCH   2   4
TORSDOF 6
ENDMDL
MODEL      141
REMARK 921   NORMALIZED FREE ENERGY PREDICTED BY IDOCK:   -3.86 KCAL/MOL
REMARK 922        TOTAL FREE ENERGY PREDICTED BY IDOCK:   -6.05 KCAL/MOL
REMARK 923 INTER-LIGAND FREE ENERGY PREDICTED BY IDOCK:   -5.31 KCAL/MOL
REMARK 924 INTRA-LIGAND FREE ENERGY PREDICTED BY IDOCK:   -0.74 KCAL/MOL
REMARK 927      BINDING AFFINITY PREDICTED BY RF-SCORE:    0.00 PKD
ROOT
HETATM    1  C   UNL     1     -10.133  11.637  63.744  1.00  0.00    -0.381 C  
HETATM    2  N   UNL     1     -11.199  12.620  63.607  1.00  0.00    -0.458 NA 
HETATM    3  C   UNL     1     -12.484  11.987  63.347  1.00  0.00    -0.509 C  
ENDROOT
BRANCH   2   4
HETATM    4  C   UNL     1     -11.206  13.665  64.648  1.00  0.00    -0.373 C  
BRANCH   4   5
HETATM    5  C   UNL     1     -11.007  13.340  66.155  1.00  0.00    -0.279 C  
BRANCH   5   6
HETATM    6  O   UNL     1     -11.775  12.154  66.446  1.00  0.00    -0.489 OA 
BRANCH   6   7
HETATM    7  C   UNL     1     -11.561  11.416  67.583  1.00  0.00    -0.238 A  
HETATM    8  C   UNL     1     -12.026  12.053  68.745  1.00  0.00    -0.299 A  
HETATM    9  C   UNL     1     -11.783  11.536  70.026  1.00  0.00    -0.414 A  
HETATM   10  C   UNL     1     -11.099  10.335  70.168  1.00  0.00    -0.385 A  
HETATM   11  C   UNL     1     -10.623   9.694  69.030  1.00  0.00    -0.237 A  
HETATM   12  C   UNL     1     -10.790  10.251  67.734  1.00  0.00    -0.346 A  
BRANCH  12  13
HETATM   13  C   UNL     1      -9.926   9.639  66.656  1.00  0.00    -0.301 C  
BRANCH  13  14
HETATM   14  C   UNL     1      -8.440   9.937  66.803  1.00  0.00    -0.125 A  
HETATM   15  C   UNL     1      -8.003  11.268  66.868  1.00  0.00    -0.155 A  
HETATM   16  C   UNL     1      -6.667  11.564  67.156  1.00  0.00    -0.129 A  
HETATM   17  C   UNL     1      -5.752  10.536  67.369  1.00  0.00    -0.044 A  
HETATM   18  C   UNL     1      -6.159   9.211  67.252  1.00  0.00    -0.057 A  
HETATM   19  C   UNL     1      -7.493   8.912  66.973  1.00  0.00    -0.087 A  
ENDBRANCH  13  14
ENDBRANCH  12  13
ENDBRANCH   6   7
ENDBRANCH   5   6
ENDBRANCH   4   5
ENDBRANCH   2   4
TORSDOF 6
ENDMDL
MODEL      142
REMARK 921   NORMALIZED FREE ENERGY PREDICTED BY IDOCK:   -3.85 KCAL/MOL
REMARK 922        TOTAL FREE ENERGY PREDICTED BY IDOCK:   -6.04 KCAL/MOL
REMARK 923 INTER-LIGAND FREE ENERGY PREDICTED BY IDOCK:   -5.62 KCAL/MOL
REMARK 924 INTRA-LIGAND FREE ENERGY PREDICTED BY IDOCK:   -0.42 KCAL/MOL
REMARK 927      BINDING AFFINITY PREDICTED BY RF-SCORE:    0.00 PKD
ROOT
HETATM    1  C   UNL     1      -6.643  19.339  67.850  1.00  0.00    -0.231 C  
HETATM    2  N   UNL     1      -7.968  19.089  68.401  1.00  0.00    -0.326 NA 
HETATM    3  C   UNL     1      -9.014  19.668  67.571  1.00  0.00    -0.317 C  
ENDROOT
BRANCH   2   4
HETATM    4  C   UNL     1      -8.199  17.698  68.834  1.00  0.00    -0.151 C  
BRANCH   4   5
HETATM    5  C   UNL     1      -9.567  16.984  68.646  1.00  0.00    -0.275 C  
BRANCH   5   6
HETATM    6  O   UNL     1      -9.682  15.989  69.684  1.00  0.00    -0.251 OA 
BRANCH   6   7
HETATM    7  C   UNL     1     -10.888  15.690  70.268  1.00  0.00    -0.350 A  
HETATM    8  C   UNL     1     -10.856  15.783  71.668  1.00  0.00     0.266 A  
HETATM    9  C   UNL     1     -11.938  15.386  72.466  1.00  0.00    -0.549 A  
HETATM   10  C   UNL     1     -13.104  14.923  71.869  1.00  0.00    -0.425 A  
HETATM   11  C   UNL     1     -13.152  14.815  70.483  1.00  0.00    -0.275 A  
HETATM   12  C   UNL     1     -12.032  15.134  69.670  1.00  0.00    -0.359 A  
BRANCH  12  13
HETATM   13  C   UNL     1     -12.109  14.636  68.246  1.00  0.00    -0.214 C  
BRANCH  13  14
HETATM   14  C   UNL     1     -11.748  13.166  68.078  1.00  0.00    -0.394 A  
HETATM   15  C   UNL     1     -11.476  12.661  66.799  1.00  0.00    -0.410 A  
HETATM   16  C   UNL     1     -10.996  11.358  66.637  1.00  0.00    -0.341 A  
HETATM   17  C   UNL     1     -10.794  10.542  67.748  1.00  0.00    -0.347 A  
HETATM   18  C   UNL     1     -11.113  11.011  69.018  1.00  0.00    -0.301 A  
HETATM   19  C   UNL     1     -11.585  12.314  69.184  1.00  0.00    -0.373 A  
ENDBRANCH  13  14
ENDBRANCH  12  13
ENDBRANCH   6   7
ENDBRANCH   5   6
ENDBRANCH   4   5
ENDBRANCH   2   4
TORSDOF 6
ENDMDL
MODEL      143
REMARK 921   NORMALIZED FREE ENERGY PREDICTED BY IDOCK:   -3.85 KCAL/MOL
REMARK 922        TOTAL FREE ENERGY PREDICTED BY IDOCK:   -6.03 KCAL/MOL
REMARK 923 INTER-LIGAND FREE ENERGY PREDICTED BY IDOCK:   -5.21 KCAL/MOL
REMARK 924 INTRA-LIGAND FREE ENERGY PREDICTED BY IDOCK:   -0.83 KCAL/MOL
REMARK 927      BINDING AFFINITY PREDICTED BY RF-SCORE:    0.00 PKD
ROOT
HETATM    1  C   UNL     1     -10.329  16.881  66.666  1.00  0.00    -0.299 C  
HETATM    2  N   UNL     1     -10.212  15.518  67.169  1.00  0.00    -0.255 NA 
HETATM    3  C   UNL     1      -9.128  15.391  68.132  1.00  0.00    -0.184 C  
ENDROOT
BRANCH   2   4
HETATM    4  C   UNL     1     -11.491  14.901  67.568  1.00  0.00    -0.348 C  
BRANCH   4   5
HETATM    5  C   UNL     1     -11.577  13.450  68.122  1.00  0.00    -0.341 C  
BRANCH   5   6
HETATM    6  O   UNL     1     -12.186  12.633  67.101  1.00  0.00    -0.445 OA 
BRANCH   6   7
HETATM    7  C   UNL     1     -11.483  12.212  65.999  1.00  0.00    -0.370 A  
HETATM    8  C   UNL     1     -12.010  12.705  64.794  1.00  0.00    -0.458 A  
HETATM    9  C   UNL     1     -11.529  12.287  63.545  1.00  0.00    -0.558 A  
HETATM   10  C   UNL     1     -10.470  11.389  63.477  1.00  0.00    -0.477 A  
HETATM   11  C   UNL     1      -9.942  10.883  64.660  1.00  0.00    -0.369 A  
HETATM   12  C   UNL     1     -10.476  11.235  65.928  1.00  0.00    -0.314 A  
BRANCH  12  13
HETATM   13  C   UNL     1     -10.047  10.350  67.075  1.00  0.00    -0.264 C  
BRANCH  13  14
HETATM   14  C   UNL     1      -8.573  10.469  67.438  1.00  0.00    -0.122 A  
HETATM   15  C   UNL     1      -8.035  11.727  67.746  1.00  0.00    -0.141 A  
HETATM   16  C   UNL     1      -6.729  11.842  68.229  1.00  0.00    -0.063 A  
HETATM   17  C   UNL     1      -5.941  10.706  68.398  1.00  0.00    -0.046 A  
HETATM   18  C   UNL     1      -6.442   9.457  68.044  1.00  0.00    -0.062 A  
HETATM   19  C   UNL     1      -7.749   9.338  67.568  1.00  0.00    -0.092 A  
ENDBRANCH  13  14
ENDBRANCH  12  13
ENDBRANCH   6   7
ENDBRANCH   5   6
ENDBRANCH   4   5
ENDBRANCH   2   4
TORSDOF 6
ENDMDL
MODEL      144
REMARK 921   NORMALIZED FREE ENERGY PREDICTED BY IDOCK:   -3.84 KCAL/MOL
REMARK 922        TOTAL FREE ENERGY PREDICTED BY IDOCK:   -6.03 KCAL/MOL
REMARK 923 INTER-LIGAND FREE ENERGY PREDICTED BY IDOCK:   -5.28 KCAL/MOL
REMARK 924 INTRA-LIGAND FREE ENERGY PREDICTED BY IDOCK:   -0.75 KCAL/MOL
REMARK 927      BINDING AFFINITY PREDICTED BY RF-SCORE:    0.00 PKD
ROOT
HETATM    1  C   UNL     1     -12.056   8.544  71.439  1.00  0.00    -0.303 C  
HETATM    2  N   UNL     1     -11.052   7.535  71.129  1.00  0.00    -0.248 NA 
HETATM    3  C   UNL     1     -11.546   6.562  70.164  1.00  0.00    -0.402 C  
ENDROOT
BRANCH   2   4
HETATM    4  C   UNL     1      -9.706   8.074  70.853  1.00  0.00    -0.164 C  
BRANCH   4   5
HETATM    5  C   UNL     1      -9.147   8.218  69.409  1.00  0.00    -0.154 C  
BRANCH   5   6
HETATM    6  O   UNL     1      -9.779   9.370  68.815  1.00  0.00    -0.152 OA 
BRANCH   6   7
HETATM    7  C   UNL     1      -9.083  10.526  68.564  1.00  0.00    -0.154 A  
HETATM    8  C   UNL     1      -7.793  10.519  69.118  1.00  0.00    -0.138 A  
HETATM    9  C   UNL     1      -6.967  11.653  69.098  1.00  0.00    -0.105 A  
HETATM   10  C   UNL     1      -7.406  12.816  68.479  1.00  0.00    -0.115 A  
HETATM   11  C   UNL     1      -8.684  12.846  67.933  1.00  0.00    -0.186 A  
HETATM   12  C   UNL     1      -9.560  11.731  68.021  1.00  0.00    -0.187 A  
BRANCH  12  13
HETATM   13  C   UNL     1     -11.009  12.026  67.710  1.00  0.00    -0.279 C  
BRANCH  13  14
HETATM   14  C   UNL     1     -11.327  12.094  66.222  1.00  0.00    -0.411 A  
HETATM   15  C   UNL     1     -12.183  13.095  65.742  1.00  0.00    -0.514 A  
HETATM   16  C   UNL     1     -12.368  13.272  64.368  1.00  0.00    -0.410 A  
HETATM   17  C   UNL     1     -11.712  12.445  63.459  1.00  0.00    -0.592 A  
HETATM   18  C   UNL     1     -10.903  11.413  63.923  1.00  0.00    -0.463 A  
HETATM   19  C   UNL     1     -10.710  11.238  65.294  1.00  0.00    -0.302 A  
ENDBRANCH  13  14
ENDBRANCH  12  13
ENDBRANCH   6   7
ENDBRANCH   5   6
ENDBRANCH   4   5
ENDBRANCH   2   4
TORSDOF 6
ENDMDL
MODEL      145
REMARK 921   NORMALIZED FREE ENERGY PREDICTED BY IDOCK:   -3.83 KCAL/MOL
REMARK 922        TOTAL FREE ENERGY PREDICTED BY IDOCK:   -6.01 KCAL/MOL
REMARK 923 INTER-LIGAND FREE ENERGY PREDICTED BY IDOCK:   -5.62 KCAL/MOL
REMARK 924 INTRA-LIGAND FREE ENERGY PREDICTED BY IDOCK:   -0.40 KCAL/MOL
REMARK 927      BINDING AFFINITY PREDICTED BY RF-SCORE:    0.00 PKD
ROOT
HETATM    1  C   UNL     1      -9.645   4.676  68.272  1.00  0.00    -0.149 C  
HETATM    2  N   UNL     1     -10.512   5.474  69.128  1.00  0.00    -0.250 NA 
HETATM    3  C   UNL     1     -10.184   5.303  70.536  1.00  0.00    -0.264 C  
ENDROOT
BRANCH   2   4
HETATM    4  C   UNL     1     -10.694   6.870  68.685  1.00  0.00    -0.216 C  
BRANCH   4   5
HETATM    5  C   UNL     1     -10.671   7.276  67.184  1.00  0.00    -0.343 C  
BRANCH   5   6
HETATM    6  O   UNL     1      -9.792   8.414  67.058  1.00  0.00    -0.186 OA 
BRANCH   6   7
HETATM    7  C   UNL     1      -9.683   9.116  65.884  1.00  0.00    -0.266 A  
HETATM    8  C   UNL     1      -8.721   8.580  65.013  1.00  0.00    -0.124 A  
HETATM    9  C   UNL     1      -8.353   9.224  63.822  1.00  0.00    -0.180 A  
HETATM   10  C   UNL     1      -8.981  10.407  63.455  1.00  0.00    -0.240 A  
HETATM   11  C   UNL     1      -9.930  10.958  64.309  1.00  0.00    -0.392 A  
HETATM   12  C   UNL     1     -10.249  10.360  65.557  1.00  0.00    -0.316 A  
BRANCH  12  13
HETATM   13  C   UNL     1     -11.014  11.242  66.516  1.00  0.00    -0.303 C  
BRANCH  13  14
HETATM   14  C   UNL     1     -11.201  12.674  66.033  1.00  0.00    -0.345 A  
HETATM   15  C   UNL     1     -10.195  13.622  66.268  1.00  0.00    -0.296 A  
HETATM   16  C   UNL     1     -10.276  14.898  65.704  1.00  0.00    -0.382 A  
HETATM   17  C   UNL     1     -11.366  15.246  64.909  1.00  0.00    -0.387 A  
HETATM   18  C   UNL     1     -12.398  14.334  64.713  1.00  0.00    -0.440 A  
HETATM   19  C   UNL     1     -12.317  13.057  65.269  1.00  0.00    -0.537 A  
ENDBRANCH  13  14
ENDBRANCH  12  13
ENDBRANCH   6   7
ENDBRANCH   5   6
ENDBRANCH   4   5
ENDBRANCH   2   4
TORSDOF 6
ENDMDL
MODEL      146
REMARK 921   NORMALIZED FREE ENERGY PREDICTED BY IDOCK:   -3.83 KCAL/MOL
REMARK 922        TOTAL FREE ENERGY PREDICTED BY IDOCK:   -6.01 KCAL/MOL
REMARK 923 INTER-LIGAND FREE ENERGY PREDICTED BY IDOCK:   -5.28 KCAL/MOL
REMARK 924 INTRA-LIGAND FREE ENERGY PREDICTED BY IDOCK:   -0.74 KCAL/MOL
REMARK 927      BINDING AFFINITY PREDICTED BY RF-SCORE:    0.00 PKD
ROOT
HETATM    1  C   UNL     1      -8.225   6.908  65.640  1.00  0.00    -0.134 C  
HETATM    2  N   UNL     1      -9.331   7.157  66.554  1.00  0.00    -0.169 NA 
HETATM    3  C   UNL     1      -9.476   6.085  67.529  1.00  0.00    -0.112 C  
ENDROOT
BRANCH   2   4
HETATM    4  C   UNL     1      -9.374   8.525  67.106  1.00  0.00    -0.152 C  
BRANCH   4   5
HETATM    5  C   UNL     1     -10.675   9.147  67.688  1.00  0.00    -0.189 C  
BRANCH   5   6
HETATM    6  O   UNL     1     -10.352   9.686  68.987  1.00  0.00    -0.190 OA 
BRANCH   6   7
HETATM    7  C   UNL     1     -11.325  10.122  69.850  1.00  0.00    -0.275 A  
HETATM    8  C   UNL     1     -11.424  11.522  69.901  1.00  0.00    -0.340 A  
HETATM    9  C   UNL     1     -12.258  12.177  70.820  1.00  0.00    -0.367 A  
HETATM   10  C   UNL     1     -13.049  11.434  71.686  1.00  0.00    -0.498 A  
HETATM   11  C   UNL     1     -12.958  10.047  71.657  1.00  0.00    -0.554 A  
HETATM   12  C   UNL     1     -12.056   9.375  70.790  1.00  0.00    -0.270 A  
BRANCH  12  13
HETATM   13  C   UNL     1     -11.812   7.920  71.117  1.00  0.00    -0.307 C  
BRANCH  13  14
HETATM   14  C   UNL     1     -10.782   7.692  72.215  1.00  0.00    -0.311 A  
HETATM   15  C   UNL     1     -10.969   6.649  73.133  1.00  0.00    -0.263 A  
HETATM   16  C   UNL     1      -9.967   6.323  74.052  1.00  0.00    -0.274 A  
HETATM   17  C   UNL     1      -8.774   7.042  74.073  1.00  0.00    -0.200 A  
HETATM   18  C   UNL     1      -8.597   8.115  73.205  1.00  0.00    -0.299 A  
HETATM   19  C   UNL     1      -9.593   8.438  72.281  1.00  0.00    -0.374 A  
ENDBRANCH  13  14
ENDBRANCH  12  13
ENDBRANCH   6   7
ENDBRANCH   5   6
ENDBRANCH   4   5
ENDBRANCH   2   4
TORSDOF 6
ENDMDL
MODEL      147
REMARK 921   NORMALIZED FREE ENERGY PREDICTED BY IDOCK:   -3.83 KCAL/MOL
REMARK 922        TOTAL FREE ENERGY PREDICTED BY IDOCK:   -6.00 KCAL/MOL
REMARK 923 INTER-LIGAND FREE ENERGY PREDICTED BY IDOCK:   -5.43 KCAL/MOL
REMARK 924 INTRA-LIGAND FREE ENERGY PREDICTED BY IDOCK:   -0.57 KCAL/MOL
REMARK 927      BINDING AFFINITY PREDICTED BY RF-SCORE:    0.00 PKD
ROOT
HETATM    1  C   UNL     1     -10.898  16.090  67.444  1.00  0.00    -0.277 C  
HETATM    2  N   UNL     1     -10.746  14.848  68.190  1.00  0.00    -0.246 NA 
HETATM    3  C   UNL     1     -10.802  15.074  69.628  1.00  0.00    -0.271 C  
ENDROOT
BRANCH   2   4
HETATM    4  C   UNL     1     -11.569  13.729  67.692  1.00  0.00    -0.347 C  
BRANCH   4   5
HETATM    5  C   UNL     1     -10.993  12.299  67.490  1.00  0.00    -0.254 C  
BRANCH   5   6
HETATM    6  O   UNL     1     -12.012  11.362  67.899  1.00  0.00    -0.626 OA 
BRANCH   6   7
HETATM    7  C   UNL     1     -11.928  10.677  69.086  1.00  0.00    -0.158 A  
HETATM    8  C   UNL     1     -12.767  11.204  70.081  1.00  0.00    -0.157 A  
HETATM    9  C   UNL     1     -12.734  10.741  71.405  1.00  0.00    -0.544 A  
HETATM   10  C   UNL     1     -11.881   9.701  71.752  1.00  0.00    -0.391 A  
HETATM   11  C   UNL     1     -11.036   9.173  70.782  1.00  0.00    -0.332 A  
HETATM   12  C   UNL     1     -11.001   9.690  69.459  1.00  0.00    -0.233 A  
BRANCH  12  13
HETATM   13  C   UNL     1      -9.807   9.268  68.635  1.00  0.00    -0.173 C  
BRANCH  13  14
HETATM   14  C   UNL     1      -9.863   7.827  68.146  1.00  0.00    -0.190 A  
HETATM   15  C   UNL     1      -9.102   6.845  68.795  1.00  0.00    -0.133 A  
HETATM   16  C   UNL     1      -9.254   5.495  68.464  1.00  0.00    -0.133 A  
HETATM   17  C   UNL     1     -10.156   5.113  67.474  1.00  0.00    -0.213 A  
HETATM   18  C   UNL     1     -10.877   6.082  66.783  1.00  0.00    -0.356 A  
HETATM   19  C   UNL     1     -10.734   7.429  67.117  1.00  0.00    -0.400 A  
ENDBRANCH  13  14
ENDBRANCH  12  13
ENDBRANCH   6   7
ENDBRANCH   5   6
ENDBRANCH   4   5
ENDBRANCH   2   4
TORSDOF 6
ENDMDL
MODEL      148
REMARK 921   NORMALIZED FREE ENERGY PREDICTED BY IDOCK:   -3.82 KCAL/MOL
REMARK 922        TOTAL FREE ENERGY PREDICTED BY IDOCK:   -6.00 KCAL/MOL
REMARK 923 INTER-LIGAND FREE ENERGY PREDICTED BY IDOCK:   -5.34 KCAL/MOL
REMARK 924 INTRA-LIGAND FREE ENERGY PREDICTED BY IDOCK:   -0.66 KCAL/MOL
REMARK 927      BINDING AFFINITY PREDICTED BY RF-SCORE:    0.00 PKD
ROOT
HETATM    1  C   UNL     1     -12.068  15.966  69.978  1.00  0.00    -0.244 C  
HETATM    2  N   UNL     1     -11.492  16.172  68.656  1.00  0.00    -0.375 NA 
HETATM    3  C   UNL     1     -10.539  17.273  68.651  1.00  0.00    -0.329 C  
ENDROOT
BRANCH   2   4
HETATM    4  C   UNL     1     -11.039  14.939  67.986  1.00  0.00    -0.295 C  
BRANCH   4   5
HETATM    5  C   UNL     1     -10.144  13.885  68.697  1.00  0.00    -0.203 C  
BRANCH   5   6
HETATM    6  O   UNL     1      -9.123  13.483  67.761  1.00  0.00    -0.187 OA 
BRANCH   6   7
HETATM    7  C   UNL     1      -8.535  12.244  67.821  1.00  0.00    -0.163 A  
HETATM    8  C   UNL     1      -7.134  12.305  67.875  1.00  0.00    -0.105 A  
HETATM    9  C   UNL     1      -6.334  11.155  67.801  1.00  0.00    -0.055 A  
HETATM   10  C   UNL     1      -6.930   9.904  67.715  1.00  0.00    -0.085 A  
HETATM   11  C   UNL     1      -8.317   9.823  67.652  1.00  0.00    -0.114 A  
HETATM   12  C   UNL     1      -9.133  10.985  67.640  1.00  0.00    -0.145 A  
BRANCH  12  13
HETATM   13  C   UNL     1     -10.565  10.761  67.213  1.00  0.00    -0.304 C  
BRANCH  13  14
HETATM   14  C   UNL     1     -10.952  11.475  65.925  1.00  0.00    -0.301 A  
HETATM   15  C   UNL     1     -10.294  11.151  64.730  1.00  0.00    -0.387 A  
HETATM   16  C   UNL     1     -10.733  11.679  63.512  1.00  0.00    -0.495 A  
HETATM   17  C   UNL     1     -11.824  12.543  63.475  1.00  0.00    -0.616 A  
HETATM   18  C   UNL     1     -12.451  12.917  64.660  1.00  0.00    -0.499 A  
HETATM   19  C   UNL     1     -12.020  12.386  65.876  1.00  0.00    -0.434 A  
ENDBRANCH  13  14
ENDBRANCH  12  13
ENDBRANCH   6   7
ENDBRANCH   5   6
ENDBRANCH   4   5
ENDBRANCH   2   4
TORSDOF 6
ENDMDL
MODEL      149
REMARK 921   NORMALIZED FREE ENERGY PREDICTED BY IDOCK:   -3.82 KCAL/MOL
REMARK 922        TOTAL FREE ENERGY PREDICTED BY IDOCK:   -5.99 KCAL/MOL
REMARK 923 INTER-LIGAND FREE ENERGY PREDICTED BY IDOCK:   -5.20 KCAL/MOL
REMARK 924 INTRA-LIGAND FREE ENERGY PREDICTED BY IDOCK:   -0.80 KCAL/MOL
REMARK 927      BINDING AFFINITY PREDICTED BY RF-SCORE:    0.00 PKD
ROOT
HETATM    1  C   UNL     1      -9.731   4.297  67.882  1.00  0.00    -0.114 C  
HETATM    2  N   UNL     1      -9.260   5.663  68.066  1.00  0.00    -0.107 NA 
HETATM    3  C   UNL     1      -7.819   5.765  67.884  1.00  0.00    -0.097 C  
ENDROOT
BRANCH   2   4
HETATM    4  C   UNL     1     -10.061   6.687  67.368  1.00  0.00    -0.164 C  
BRANCH   4   5
HETATM    5  C   UNL     1      -9.416   7.927  66.687  1.00  0.00    -0.211 C  
BRANCH   5   6
HETATM    6  O   UNL     1      -9.561   9.041  67.593  1.00  0.00    -0.144 OA 
BRANCH   6   7
HETATM    7  C   UNL     1     -10.364  10.113  67.297  1.00  0.00    -0.237 A  
HETATM    8  C   UNL     1     -10.410  10.399  65.923  1.00  0.00    -0.261 A  
HETATM    9  C   UNL     1     -11.059  11.537  65.420  1.00  0.00    -0.250 A  
HETATM   10  C   UNL     1     -11.720  12.396  66.289  1.00  0.00    -0.457 A  
HETATM   11  C   UNL     1     -11.679  12.134  67.654  1.00  0.00    -0.386 A  
HETATM   12  C   UNL     1     -10.953  11.033  68.182  1.00  0.00    -0.301 A  
BRANCH  12  13
HETATM   13  C   UNL     1     -10.704  11.081  69.671  1.00  0.00    -0.193 C  
BRANCH  13  14
HETATM   14  C   UNL     1     -11.528  10.083  70.474  1.00  0.00    -0.407 A  
HETATM   15  C   UNL     1     -12.820  10.430  70.893  1.00  0.00    -0.482 A  
HETATM   16  C   UNL     1     -13.650   9.480  71.497  1.00  0.00    -0.397 A  
HETATM   17  C   UNL     1     -13.195   8.179  71.699  1.00  0.00    -0.357 A  
HETATM   18  C   UNL     1     -11.896   7.836  71.339  1.00  0.00    -0.324 A  
HETATM   19  C   UNL     1     -11.068   8.780  70.730  1.00  0.00    -0.306 A  
ENDBRANCH  13  14
ENDBRANCH  12  13
ENDBRANCH   6   7
ENDBRANCH   5   6
ENDBRANCH   4   5
ENDBRANCH   2   4
TORSDOF 6
ENDMDL
MODEL      150
REMARK 921   NORMALIZED FREE ENERGY PREDICTED BY IDOCK:   -3.81 KCAL/MOL
REMARK 922        TOTAL FREE ENERGY PREDICTED BY IDOCK:   -5.99 KCAL/MOL
REMARK 923 INTER-LIGAND FREE ENERGY PREDICTED BY IDOCK:   -5.23 KCAL/MOL
REMARK 924 INTRA-LIGAND FREE ENERGY PREDICTED BY IDOCK:   -0.76 KCAL/MOL
REMARK 927      BINDING AFFINITY PREDICTED BY RF-SCORE:    0.00 PKD
ROOT
HETATM    1  C   UNL     1      -9.809  18.947  66.580  1.00  0.00    -0.358 C  
HETATM    2  N   UNL     1      -9.567  17.599  67.075  1.00  0.00    -0.267 NA 
HETATM    3  C   UNL     1     -10.454  17.264  68.179  1.00  0.00    -0.382 C  
ENDROOT
BRANCH   2   4
HETATM    4  C   UNL     1      -9.450  16.572  66.022  1.00  0.00    -0.282 C  
BRANCH   4   5
HETATM    5  C   UNL     1     -10.685  16.024  65.252  1.00  0.00    -0.399 C  
BRANCH   5   6
HETATM    6  O   UNL     1     -11.076  14.789  65.886  1.00  0.00    -0.329 OA 
BRANCH   6   7
HETATM    7  C   UNL     1     -10.701  13.568  65.383  1.00  0.00    -0.304 A  
HETATM    8  C   UNL     1     -11.237  13.313  64.111  1.00  0.00    -0.412 A  
HETATM    9  C   UNL     1     -11.093  12.070  63.477  1.00  0.00    -0.519 A  
HETATM   10  C   UNL     1     -10.364  11.061  64.093  1.00  0.00    -0.434 A  
HETATM   11  C   UNL     1      -9.833  11.292  65.357  1.00  0.00    -0.281 A  
HETATM   12  C   UNL     1     -10.044  12.517  66.044  1.00  0.00    -0.268 A  
BRANCH  12  13
HETATM   13  C   UNL     1      -9.722  12.490  67.520  1.00  0.00    -0.196 C  
BRANCH  13  14
HETATM   14  C   UNL     1      -8.251  12.715  67.842  1.00  0.00    -0.170 A  
HETATM   15  C   UNL     1      -7.651  13.941  67.522  1.00  0.00    -0.190 A  
HETATM   16  C   UNL     1      -6.349  14.226  67.944  1.00  0.00    -0.173 A  
HETATM   17  C   UNL     1      -5.628  13.288  68.679  1.00  0.00    -0.076 A  
HETATM   18  C   UNL     1      -6.191  12.046  68.956  1.00  0.00    -0.079 A  
HETATM   19  C   UNL     1      -7.493  11.761  68.542  1.00  0.00    -0.110 A  
ENDBRANCH  13  14
ENDBRANCH  12  13
ENDBRANCH   6   7
ENDBRANCH   5   6
ENDBRANCH   4   5
ENDBRANCH   2   4
TORSDOF 6
ENDMDL
MODEL      151
REMARK 921   NORMALIZED FREE ENERGY PREDICTED BY IDOCK:   -3.80 KCAL/MOL
REMARK 922        TOTAL FREE ENERGY PREDICTED BY IDOCK:   -5.98 KCAL/MOL
REMARK 923 INTER-LIGAND FREE ENERGY PREDICTED BY IDOCK:   -5.60 KCAL/MOL
REMARK 924 INTRA-LIGAND FREE ENERGY PREDICTED BY IDOCK:   -0.37 KCAL/MOL
REMARK 927      BINDING AFFINITY PREDICTED BY RF-SCORE:    0.00 PKD
ROOT
HETATM    1  C   UNL     1      -7.970   9.587  67.321  1.00  0.00    -0.106 C  
HETATM    2  N   UNL     1      -8.693  10.415  66.365  1.00  0.00    -0.138 NA 
HETATM    3  C   UNL     1      -9.565   9.619  65.514  1.00  0.00    -0.283 C  
ENDROOT
BRANCH   2   4
HETATM    4  C   UNL     1      -9.307  11.625  66.945  1.00  0.00    -0.188 C  
BRANCH   4   5
HETATM    5  C   UNL     1     -10.697  11.602  67.641  1.00  0.00    -0.207 C  
BRANCH   5   6
HETATM    6  O   UNL     1     -10.467  11.533  69.064  1.00  0.00    -0.203 OA 
BRANCH   6   7
HETATM    7  C   UNL     1     -11.424  11.064  69.928  1.00  0.00    -0.320 A  
HETATM    8  C   UNL     1     -12.140  12.092  70.562  1.00  0.00    -0.402 A  
HETATM    9  C   UNL     1     -13.065  11.834  71.585  1.00  0.00    -0.443 A  
HETATM   10  C   UNL     1     -13.327  10.524  71.965  1.00  0.00    -0.420 A  
HETATM   11  C   UNL     1     -12.622   9.493  71.355  1.00  0.00    -0.447 A  
HETATM   12  C   UNL     1     -11.622   9.748  70.379  1.00  0.00    -0.327 A  
BRANCH  12  13
HETATM   13  C   UNL     1     -10.709   8.583  70.075  1.00  0.00    -0.234 C  
BRANCH  13  14
HETATM   14  C   UNL     1     -10.534   7.608  71.231  1.00  0.00    -0.223 A  
HETATM   15  C   UNL     1     -10.303   8.100  72.523  1.00  0.00    -0.401 A  
HETATM   16  C   UNL     1     -10.292   7.236  73.622  1.00  0.00    -0.399 A  
HETATM   17  C   UNL     1     -10.500   5.870  73.441  1.00  0.00    -0.263 A  
HETATM   18  C   UNL     1     -10.676   5.360  72.159  1.00  0.00    -0.286 A  
HETATM   19  C   UNL     1     -10.695   6.222  71.061  1.00  0.00    -0.313 A  
ENDBRANCH  13  14
ENDBRANCH  12  13
ENDBRANCH   6   7
ENDBRANCH   5   6
ENDBRANCH   4   5
ENDBRANCH   2   4
TORSDOF 6
ENDMDL
MODEL      152
REMARK 921   NORMALIZED FREE ENERGY PREDICTED BY IDOCK:   -3.79 KCAL/MOL
REMARK 922        TOTAL FREE ENERGY PREDICTED BY IDOCK:   -5.96 KCAL/MOL
REMARK 923 INTER-LIGAND FREE ENERGY PREDICTED BY IDOCK:   -5.25 KCAL/MOL
REMARK 924 INTRA-LIGAND FREE ENERGY PREDICTED BY IDOCK:   -0.71 KCAL/MOL
REMARK 927      BINDING AFFINITY PREDICTED BY RF-SCORE:    0.00 PKD
ROOT
HETATM    1  C   UNL     1     -10.891   6.446  67.593  1.00  0.00    -0.339 C  
HETATM    2  N   UNL     1     -10.510   7.490  68.534  1.00  0.00    -0.197 NA 
HETATM    3  C   UNL     1     -10.014   6.934  69.784  1.00  0.00    -0.178 C  
ENDROOT
BRANCH   2   4
HETATM    4  C   UNL     1      -9.692   8.571  67.951  1.00  0.00    -0.162 C  
BRANCH   4   5
HETATM    5  C   UNL     1      -9.035   8.453  66.547  1.00  0.00    -0.157 C  
BRANCH   5   6
HETATM    6  O   UNL     1      -9.827   9.238  65.632  1.00  0.00    -0.289 OA 
BRANCH   6   7
HETATM    7  C   UNL     1      -9.298   9.749  64.474  1.00  0.00    -0.235 A  
HETATM    8  C   UNL     1      -7.939   9.435  64.308  1.00  0.00    -0.133 A  
HETATM    9  C   UNL     1      -7.172   9.974  63.265  1.00  0.00    -0.134 A  
HETATM   10  C   UNL     1      -7.767  10.813  62.332  1.00  0.00    -0.173 A  
HETATM   11  C   UNL     1      -9.109  11.144  62.484  1.00  0.00    -0.347 A  
HETATM   12  C   UNL     1      -9.874  10.672  63.584  1.00  0.00    -0.392 A  
BRANCH  12  13
HETATM   13  C   UNL     1     -11.186  11.388  63.810  1.00  0.00    -0.375 C  
BRANCH  13  14
HETATM   14  C   UNL     1     -11.159  12.393  64.953  1.00  0.00    -0.344 A  
HETATM   15  C   UNL     1     -11.492  11.976  66.250  1.00  0.00    -0.408 A  
HETATM   16  C   UNL     1     -11.328  12.838  67.337  1.00  0.00    -0.363 A  
HETATM   17  C   UNL     1     -10.842  14.129  67.142  1.00  0.00    -0.291 A  
HETATM   18  C   UNL     1     -10.562  14.575  65.854  1.00  0.00    -0.315 A  
HETATM   19  C   UNL     1     -10.717  13.714  64.767  1.00  0.00    -0.420 A  
ENDBRANCH  13  14
ENDBRANCH  12  13
ENDBRANCH   6   7
ENDBRANCH   5   6
ENDBRANCH   4   5
ENDBRANCH   2   4
TORSDOF 6
ENDMDL
MODEL      153
REMARK 921   NORMALIZED FREE ENERGY PREDICTED BY IDOCK:   -3.79 KCAL/MOL
REMARK 922        TOTAL FREE ENERGY PREDICTED BY IDOCK:   -5.95 KCAL/MOL
REMARK 923 INTER-LIGAND FREE ENERGY PREDICTED BY IDOCK:   -5.15 KCAL/MOL
REMARK 924 INTRA-LIGAND FREE ENERGY PREDICTED BY IDOCK:   -0.80 KCAL/MOL
REMARK 927      BINDING AFFINITY PREDICTED BY RF-SCORE:    0.00 PKD
ROOT
HETATM    1  C   UNL     1      -8.069  10.249  65.378  1.00  0.00    -0.147 C  
HETATM    2  N   UNL     1      -9.338  10.801  65.834  1.00  0.00    -0.181 NA 
HETATM    3  C   UNL     1     -10.258  11.020  64.727  1.00  0.00    -0.319 C  
ENDROOT
BRANCH   2   4
HETATM    4  C   UNL     1      -9.913  10.124  67.012  1.00  0.00    -0.199 C  
BRANCH   4   5
HETATM    5  C   UNL     1      -9.755   8.596  67.253  1.00  0.00    -0.185 C  
BRANCH   5   6
HETATM    6  O   UNL     1      -9.191   8.423  68.570  1.00  0.00    -0.136 OA 
BRANCH   6   7
HETATM    7  C   UNL     1      -9.335   7.250  69.268  1.00  0.00    -0.154 A  
HETATM    8  C   UNL     1      -9.626   6.154  68.442  1.00  0.00    -0.123 A  
HETATM    9  C   UNL     1      -9.948   4.892  68.964  1.00  0.00    -0.237 A  
HETATM   10  C   UNL     1      -9.941   4.691  70.338  1.00  0.00    -0.300 A  
HETATM   11  C   UNL     1      -9.663   5.767  71.174  1.00  0.00    -0.210 A  
HETATM   12  C   UNL     1      -9.419   7.069  70.659  1.00  0.00    -0.165 A  
BRANCH  12  13
HETATM   13  C   UNL     1      -9.489   8.185  71.675  1.00  0.00    -0.233 C  
BRANCH  13  14
HETATM   14  C   UNL     1     -10.842   8.880  71.747  1.00  0.00    -0.436 A  
HETATM   15  C   UNL     1     -11.105   9.972  70.907  1.00  0.00    -0.385 A  
HETATM   16  C   UNL     1     -12.386  10.528  70.845  1.00  0.00    -0.490 A  
HETATM   17  C   UNL     1     -13.414  10.009  71.628  1.00  0.00    -0.398 A  
HETATM   18  C   UNL     1     -13.154   8.962  72.507  1.00  0.00    -0.426 A  
HETATM   19  C   UNL     1     -11.878   8.400  72.566  1.00  0.00    -0.427 A  
ENDBRANCH  13  14
ENDBRANCH  12  13
ENDBRANCH   6   7
ENDBRANCH   5   6
ENDBRANCH   4   5
ENDBRANCH   2   4
TORSDOF 6
ENDMDL
MODEL      154
REMARK 921   NORMALIZED FREE ENERGY PREDICTED BY IDOCK:   -3.78 KCAL/MOL
REMARK 922        TOTAL FREE ENERGY PREDICTED BY IDOCK:   -5.94 KCAL/MOL
REMARK 923 INTER-LIGAND FREE ENERGY PREDICTED BY IDOCK:   -5.40 KCAL/MOL
REMARK 924 INTRA-LIGAND FREE ENERGY PREDICTED BY IDOCK:   -0.54 KCAL/MOL
REMARK 927      BINDING AFFINITY PREDICTED BY RF-SCORE:    0.00 PKD
ROOT
HETATM    1  C   UNL     1      -7.440   5.955  67.850  1.00  0.00    -0.081 C  
HETATM    2  N   UNL     1      -8.601   6.239  68.682  1.00  0.00    -0.121 NA 
HETATM    3  C   UNL     1      -8.969   5.094  69.503  1.00  0.00    -0.099 C  
ENDROOT
BRANCH   2   4
HETATM    4  C   UNL     1      -8.547   7.533  69.389  1.00  0.00    -0.133 C  
BRANCH   4   5
HETATM    5  C   UNL     1      -9.481   7.868  70.586  1.00  0.00    -0.162 C  
BRANCH   5   6
HETATM    6  O   UNL     1     -10.729   8.344  70.040  1.00  0.00    -0.233 OA 
BRANCH   6   7
HETATM    7  C   UNL     1     -11.259   9.558  70.401  1.00  0.00    -0.270 A  
HETATM    8  C   UNL     1     -12.245   9.449  71.395  1.00  0.00    -0.438 A  
HETATM    9  C   UNL     1     -13.011  10.550  71.808  1.00  0.00    -0.582 A  
HETATM   10  C   UNL     1     -12.771  11.803  71.259  1.00  0.00    -0.420 A  
HETATM   11  C   UNL     1     -11.805  11.929  70.267  1.00  0.00    -0.368 A  
HETATM   12  C   UNL     1     -11.082  10.806  69.781  1.00  0.00    -0.346 A  
BRANCH  12  13
HETATM   13  C   UNL     1     -10.342  11.030  68.483  1.00  0.00    -0.204 C  
BRANCH  13  14
HETATM   14  C   UNL     1     -10.763  12.288  67.734  1.00  0.00    -0.246 A  
HETATM   15  C   UNL     1     -10.037  13.474  67.911  1.00  0.00    -0.248 A  
HETATM   16  C   UNL     1     -10.308  14.596  67.122  1.00  0.00    -0.265 A  
HETATM   17  C   UNL     1     -11.311  14.550  66.157  1.00  0.00    -0.348 A  
HETATM   18  C   UNL     1     -12.076  13.397  66.009  1.00  0.00    -0.487 A  
HETATM   19  C   UNL     1     -11.804  12.273  66.790  1.00  0.00    -0.349 A  
ENDBRANCH  13  14
ENDBRANCH  12  13
ENDBRANCH   6   7
ENDBRANCH   5   6
ENDBRANCH   4   5
ENDBRANCH   2   4
TORSDOF 6
ENDMDL
MODEL      155
REMARK 921   NORMALIZED FREE ENERGY PREDICTED BY IDOCK:   -3.77 KCAL/MOL
REMARK 922        TOTAL FREE ENERGY PREDICTED BY IDOCK:   -5.93 KCAL/MOL
REMARK 923 INTER-LIGAND FREE ENERGY PREDICTED BY IDOCK:   -5.30 KCAL/MOL
REMARK 924 INTRA-LIGAND FREE ENERGY PREDICTED BY IDOCK:   -0.64 KCAL/MOL
REMARK 927      BINDING AFFINITY PREDICTED BY RF-SCORE:    0.00 PKD
ROOT
HETATM    1  C   UNL     1     -11.435  15.541  70.961  1.00  0.00    -0.383 C  
HETATM    2  N   UNL     1     -10.850  15.950  69.691  1.00  0.00    -0.286 NA 
HETATM    3  C   UNL     1      -9.480  15.478  69.552  1.00  0.00    -0.269 C  
ENDROOT
BRANCH   2   4
HETATM    4  C   UNL     1     -11.718  15.733  68.518  1.00  0.00    -0.319 C  
BRANCH   4   5
HETATM    5  C   UNL     1     -11.801  14.362  67.787  1.00  0.00    -0.368 C  
BRANCH   5   6
HETATM    6  O   UNL     1     -10.918  14.426  66.648  1.00  0.00    -0.306 OA 
BRANCH   6   7
HETATM    7  C   UNL     1     -10.958  13.485  65.650  1.00  0.00    -0.289 A  
HETATM    8  C   UNL     1     -11.710  13.898  64.539  1.00  0.00    -0.430 A  
HETATM    9  C   UNL     1     -11.995  13.037  63.469  1.00  0.00    -0.615 A  
HETATM   10  C   UNL     1     -11.489  11.743  63.471  1.00  0.00    -0.489 A  
HETATM   11  C   UNL     1     -10.749  11.312  64.567  1.00  0.00    -0.390 A  
HETATM   12  C   UNL     1     -10.526  12.148  65.693  1.00  0.00    -0.290 A  
BRANCH  12  13
HETATM   13  C   UNL     1     -10.026  11.440  66.931  1.00  0.00    -0.235 C  
BRANCH  13  14
HETATM   14  C   UNL     1      -8.700  10.717  66.743  1.00  0.00    -0.133 A  
HETATM   15  C   UNL     1      -8.673   9.315  66.711  1.00  0.00    -0.138 A  
HETATM   16  C   UNL     1      -7.496   8.634  66.389  1.00  0.00    -0.087 A  
HETATM   17  C   UNL     1      -6.330   9.343  66.106  1.00  0.00    -0.068 A  
HETATM   18  C   UNL     1      -6.328  10.732  66.189  1.00  0.00    -0.134 A  
HETATM   19  C   UNL     1      -7.504  11.415  66.503  1.00  0.00    -0.068 A  
ENDBRANCH  13  14
ENDBRANCH  12  13
ENDBRANCH   6   7
ENDBRANCH   5   6
ENDBRANCH   4   5
ENDBRANCH   2   4
TORSDOF 6
ENDMDL
MODEL      156
REMARK 921   NORMALIZED FREE ENERGY PREDICTED BY IDOCK:   -3.76 KCAL/MOL
REMARK 922        TOTAL FREE ENERGY PREDICTED BY IDOCK:   -5.92 KCAL/MOL
REMARK 923 INTER-LIGAND FREE ENERGY PREDICTED BY IDOCK:   -5.01 KCAL/MOL
REMARK 924 INTRA-LIGAND FREE ENERGY PREDICTED BY IDOCK:   -0.91 KCAL/MOL
REMARK 927      BINDING AFFINITY PREDICTED BY RF-SCORE:    0.00 PKD
ROOT
HETATM    1  C   UNL     1     -13.698   8.646  71.627  1.00  0.00    -0.384 C  
HETATM    2  N   UNL     1     -12.565   9.554  71.510  1.00  0.00    -0.348 NA 
HETATM    3  C   UNL     1     -12.924  10.914  71.884  1.00  0.00    -0.396 C  
ENDROOT
BRANCH   2   4
HETATM    4  C   UNL     1     -11.310   9.046  72.096  1.00  0.00    -0.241 C  
BRANCH   4   5
HETATM    5  C   UNL     1      -9.912   9.428  71.531  1.00  0.00    -0.067 C  
BRANCH   5   6
HETATM    6  O   UNL     1      -9.834   8.912  70.186  1.00  0.00    -0.167 OA 
BRANCH   6   7
HETATM    7  C   UNL     1      -9.129   9.561  69.203  1.00  0.00    -0.152 A  
HETATM    8  C   UNL     1      -7.756   9.649  69.483  1.00  0.00    -0.109 A  
HETATM    9  C   UNL     1      -6.879  10.392  68.679  1.00  0.00    -0.058 A  
HETATM   10  C   UNL     1      -7.357  11.032  67.543  1.00  0.00    -0.101 A  
HETATM   11  C   UNL     1      -8.716  10.963  67.254  1.00  0.00    -0.131 A  
HETATM   12  C   UNL     1      -9.627  10.285  68.106  1.00  0.00    -0.151 A  
BRANCH  12  13
HETATM   13  C   UNL     1     -11.086  10.593  67.864  1.00  0.00    -0.371 C  
BRANCH  13  14
HETATM   14  C   UNL     1     -11.429  12.076  67.920  1.00  0.00    -0.396 A  
HETATM   15  C   UNL     1     -11.400  12.747  69.150  1.00  0.00    -0.337 A  
HETATM   16  C   UNL     1     -11.560  14.135  69.206  1.00  0.00    -0.350 A  
HETATM   17  C   UNL     1     -11.761  14.865  68.037  1.00  0.00    -0.344 A  
HETATM   18  C   UNL     1     -11.847  14.206  66.815  1.00  0.00    -0.449 A  
HETATM   19  C   UNL     1     -11.681  12.821  66.756  1.00  0.00    -0.459 A  
ENDBRANCH  13  14
ENDBRANCH  12  13
ENDBRANCH   6   7
ENDBRANCH   5   6
ENDBRANCH   4   5
ENDBRANCH   2   4
TORSDOF 6
ENDMDL
MODEL      157
REMARK 921   NORMALIZED FREE ENERGY PREDICTED BY IDOCK:   -3.76 KCAL/MOL
REMARK 922        TOTAL FREE ENERGY PREDICTED BY IDOCK:   -5.92 KCAL/MOL
REMARK 923 INTER-LIGAND FREE ENERGY PREDICTED BY IDOCK:   -5.16 KCAL/MOL
REMARK 924 INTRA-LIGAND FREE ENERGY PREDICTED BY IDOCK:   -0.76 KCAL/MOL
REMARK 927      BINDING AFFINITY PREDICTED BY RF-SCORE:    0.00 PKD
ROOT
HETATM    1  C   UNL     1      -5.317  12.595  69.747  1.00  0.00    -0.085 C  
HETATM    2  N   UNL     1      -6.176  13.614  70.334  1.00  0.00    -0.104 NA 
HETATM    3  C   UNL     1      -5.734  13.985  71.671  1.00  0.00    -0.206 C  
ENDROOT
BRANCH   2   4
HETATM    4  C   UNL     1      -6.493  14.741  69.436  1.00  0.00    -0.131 C  
BRANCH   4   5
HETATM    5  C   UNL     1      -7.953  15.126  69.068  1.00  0.00    -0.188 C  
BRANCH   5   6
HETATM    6  O   UNL     1      -8.203  14.646  67.731  1.00  0.00    -0.141 OA 
BRANCH   6   7
HETATM    7  C   UNL     1      -9.455  14.257  67.325  1.00  0.00    -0.220 A  
HETATM    8  C   UNL     1      -9.757  12.932  67.676  1.00  0.00    -0.212 A  
HETATM    9  C   UNL     1     -10.926  12.293  67.237  1.00  0.00    -0.301 A  
HETATM   10  C   UNL     1     -11.847  12.991  66.465  1.00  0.00    -0.464 A  
HETATM   11  C   UNL     1     -11.561  14.301  66.099  1.00  0.00    -0.374 A  
HETATM   12  C   UNL     1     -10.342  14.931  66.467  1.00  0.00    -0.295 A  
BRANCH  12  13
HETATM   13  C   UNL     1     -10.020  16.199  65.712  1.00  0.00    -0.370 C  
BRANCH  13  14
HETATM   14  C   UNL     1      -9.733  17.400  66.603  1.00  0.00    -0.296 A  
HETATM   15  C   UNL     1     -10.479  17.588  67.774  1.00  0.00    -0.381 A  
HETATM   16  C   UNL     1     -10.135  18.592  68.683  1.00  0.00    -0.412 A  
HETATM   17  C   UNL     1      -9.050  19.427  68.427  1.00  0.00    -0.410 A  
HETATM   18  C   UNL     1      -8.334  19.289  67.242  1.00  0.00    -0.309 A  
HETATM   19  C   UNL     1      -8.672  18.282  66.336  1.00  0.00    -0.260 A  
ENDBRANCH  13  14
ENDBRANCH  12  13
ENDBRANCH   6   7
ENDBRANCH   5   6
ENDBRANCH   4   5
ENDBRANCH   2   4
TORSDOF 6
ENDMDL
MODEL      158
REMARK 921   NORMALIZED FREE ENERGY PREDICTED BY IDOCK:   -3.76 KCAL/MOL
REMARK 922        TOTAL FREE ENERGY PREDICTED BY IDOCK:   -5.92 KCAL/MOL
REMARK 923 INTER-LIGAND FREE ENERGY PREDICTED BY IDOCK:   -5.09 KCAL/MOL
REMARK 924 INTRA-LIGAND FREE ENERGY PREDICTED BY IDOCK:   -0.83 KCAL/MOL
REMARK 927      BINDING AFFINITY PREDICTED BY RF-SCORE:    0.00 PKD
ROOT
HETATM    1  C   UNL     1     -10.384   9.580  69.103  1.00  0.00    -0.207 C  
HETATM    2  N   UNL     1      -8.983   9.572  68.706  1.00  0.00    -0.131 NA 
HETATM    3  C   UNL     1      -8.484   8.217  68.520  1.00  0.00    -0.127 C  
ENDROOT
BRANCH   2   4
HETATM    4  C   UNL     1      -8.644  10.525  67.632  1.00  0.00    -0.118 C  
BRANCH   4   5
HETATM    5  C   UNL     1      -7.684  11.727  67.859  1.00  0.00    -0.125 C  
BRANCH   5   6
HETATM    6  O   UNL     1      -8.487  12.846  68.289  1.00  0.00    -0.168 OA 
BRANCH   6   7
HETATM    7  C   UNL     1      -9.026  13.735  67.393  1.00  0.00    -0.224 A  
HETATM    8  C   UNL     1      -8.142  14.772  67.053  1.00  0.00    -0.177 A  
HETATM    9  C   UNL     1      -8.540  15.860  66.262  1.00  0.00    -0.348 A  
HETATM   10  C   UNL     1      -9.832  15.910  65.754  1.00  0.00    -0.380 A  
HETATM   11  C   UNL     1     -10.724  14.897  66.088  1.00  0.00    -0.317 A  
HETATM   12  C   UNL     1     -10.358  13.834  66.956  1.00  0.00    -0.260 A  
BRANCH  12  13
HETATM   13  C   UNL     1     -11.510  13.025  67.503  1.00  0.00    -0.375 C  
BRANCH  13  14
HETATM   14  C   UNL     1     -12.002  13.483  68.870  1.00  0.00    -0.378 A  
HETATM   15  C   UNL     1     -12.234  12.535  69.876  1.00  0.00    -0.233 A  
HETATM   16  C   UNL     1     -12.537  12.941  71.179  1.00  0.00    -0.373 A  
HETATM   17  C   UNL     1     -12.623  14.297  71.488  1.00  0.00    -0.432 A  
HETATM   18  C   UNL     1     -12.450  15.247  70.487  1.00  0.00    -0.454 A  
HETATM   19  C   UNL     1     -12.141  14.845  69.187  1.00  0.00    -0.267 A  
ENDBRANCH  13  14
ENDBRANCH  12  13
ENDBRANCH   6   7
ENDBRANCH   5   6
ENDBRANCH   4   5
ENDBRANCH   2   4
TORSDOF 6
ENDMDL
MODEL      159
REMARK 921   NORMALIZED FREE ENERGY PREDICTED BY IDOCK:   -3.76 KCAL/MOL
REMARK 922        TOTAL FREE ENERGY PREDICTED BY IDOCK:   -5.91 KCAL/MOL
REMARK 923 INTER-LIGAND FREE ENERGY PREDICTED BY IDOCK:   -5.37 KCAL/MOL
REMARK 924 INTRA-LIGAND FREE ENERGY PREDICTED BY IDOCK:   -0.54 KCAL/MOL
REMARK 927      BINDING AFFINITY PREDICTED BY RF-SCORE:    0.00 PKD
ROOT
HETATM    1  C   UNL     1     -10.669  12.670  65.895  1.00  0.00    -0.266 C  
HETATM    2  N   UNL     1     -11.747  13.444  65.295  1.00  0.00    -0.312 NA 
HETATM    3  C   UNL     1     -12.716  13.879  66.291  1.00  0.00    -0.213 C  
ENDROOT
BRANCH   2   4
HETATM    4  C   UNL     1     -11.301  14.484  64.349  1.00  0.00    -0.236 C  
BRANCH   4   5
HETATM    5  C   UNL     1     -11.282  15.994  64.720  1.00  0.00    -0.339 C  
BRANCH   5   6
HETATM    6  O   UNL     1     -10.493  16.134  65.920  1.00  0.00    -0.330 OA 
BRANCH   6   7
HETATM    7  C   UNL     1     -10.504  17.288  66.662  1.00  0.00    -0.257 A  
HETATM    8  C   UNL     1     -10.636  18.443  65.874  1.00  0.00    -0.313 A  
HETATM    9  C   UNL     1     -10.531  19.732  66.418  1.00  0.00    -0.618 A  
HETATM   10  C   UNL     1     -10.333  19.891  67.783  1.00  0.00    -0.548 A  
HETATM   11  C   UNL     1     -10.192  18.760  68.579  1.00  0.00    -0.397 A  
HETATM   12  C   UNL     1     -10.212  17.451  68.026  1.00  0.00    -0.345 A  
BRANCH  12  13
HETATM   13  C   UNL     1      -9.697  16.361  68.937  1.00  0.00    -0.257 C  
BRANCH  13  14
HETATM   14  C   UNL     1      -8.189  16.157  68.876  1.00  0.00    -0.229 A  
HETATM   15  C   UNL     1      -7.606  15.085  69.566  1.00  0.00    -0.181 A  
HETATM   16  C   UNL     1      -6.250  14.788  69.402  1.00  0.00    -0.114 A  
HETATM   17  C   UNL     1      -5.459  15.563  68.558  1.00  0.00    -0.102 A  
HETATM   18  C   UNL     1      -6.012  16.663  67.909  1.00  0.00    -0.139 A  
HETATM   19  C   UNL     1      -7.367  16.958  68.065  1.00  0.00    -0.175 A  
ENDBRANCH  13  14
ENDBRANCH  12  13
ENDBRANCH   6   7
ENDBRANCH   5   6
ENDBRANCH   4   5
ENDBRANCH   2   4
TORSDOF 6
ENDMDL
MODEL      160
REMARK 921   NORMALIZED FREE ENERGY PREDICTED BY IDOCK:   -3.76 KCAL/MOL
REMARK 922        TOTAL FREE ENERGY PREDICTED BY IDOCK:   -5.91 KCAL/MOL
REMARK 923 INTER-LIGAND FREE ENERGY PREDICTED BY IDOCK:   -5.41 KCAL/MOL
REMARK 924 INTRA-LIGAND FREE ENERGY PREDICTED BY IDOCK:   -0.50 KCAL/MOL
REMARK 927      BINDING AFFINITY PREDICTED BY RF-SCORE:    0.00 PKD
ROOT
HETATM    1  C   UNL     1     -12.677  11.344  71.189  1.00  0.00    -0.377 C  
HETATM    2  N   UNL     1     -12.193  10.087  71.743  1.00  0.00    -0.357 NA 
HETATM    3  C   UNL     1     -13.288   9.240  72.195  1.00  0.00    -0.468 C  
ENDROOT
BRANCH   2   4
HETATM    4  C   UNL     1     -11.167   9.412  70.924  1.00  0.00    -0.325 C  
BRANCH   4   5
HETATM    5  C   UNL     1     -11.145   9.508  69.373  1.00  0.00    -0.110 C  
BRANCH   5   6
HETATM    6  O   UNL     1      -9.963  10.249  69.003  1.00  0.00    -0.191 OA 
BRANCH   6   7
HETATM    7  C   UNL     1      -9.176   9.871  67.944  1.00  0.00    -0.130 A  
HETATM    8  C   UNL     1      -8.482   8.673  68.178  1.00  0.00    -0.131 A  
HETATM    9  C   UNL     1      -7.518   8.183  67.284  1.00  0.00    -0.090 A  
HETATM   10  C   UNL     1      -7.260   8.868  66.103  1.00  0.00    -0.090 A  
HETATM   11  C   UNL     1      -7.931  10.061  65.857  1.00  0.00    -0.124 A  
HETATM   12  C   UNL     1      -8.846  10.610  66.795  1.00  0.00    -0.146 A  
BRANCH  12  13
HETATM   13  C   UNL     1      -9.217  12.056  66.560  1.00  0.00    -0.216 C  
BRANCH  13  14
HETATM   14  C   UNL     1     -10.321  12.259  65.532  1.00  0.00    -0.296 A  
HETATM   15  C   UNL     1     -10.092  11.914  64.192  1.00  0.00    -0.338 A  
HETATM   16  C   UNL     1     -11.135  11.947  63.262  1.00  0.00    -0.390 A  
HETATM   17  C   UNL     1     -12.413  12.335  63.655  1.00  0.00    -0.647 A  
HETATM   18  C   UNL     1     -12.642  12.733  64.969  1.00  0.00    -0.538 A  
HETATM   19  C   UNL     1     -11.605  12.695  65.901  1.00  0.00    -0.443 A  
ENDBRANCH  13  14
ENDBRANCH  12  13
ENDBRANCH   6   7
ENDBRANCH   5   6
ENDBRANCH   4   5
ENDBRANCH   2   4
TORSDOF 6
ENDMDL
MODEL      161
REMARK 921   NORMALIZED FREE ENERGY PREDICTED BY IDOCK:   -3.73 KCAL/MOL
REMARK 922        TOTAL FREE ENERGY PREDICTED BY IDOCK:   -5.88 KCAL/MOL
REMARK 923 INTER-LIGAND FREE ENERGY PREDICTED BY IDOCK:   -5.18 KCAL/MOL
REMARK 924 INTRA-LIGAND FREE ENERGY PREDICTED BY IDOCK:   -0.69 KCAL/MOL
REMARK 927      BINDING AFFINITY PREDICTED BY RF-SCORE:    0.00 PKD
ROOT
HETATM    1  C   UNL     1     -13.365  11.096  71.754  1.00  0.00    -0.274 C  
HETATM    2  N   UNL     1     -12.892   9.773  72.138  1.00  0.00    -0.383 NA 
HETATM    3  C   UNL     1     -13.945   8.773  72.031  1.00  0.00    -0.451 C  
ENDROOT
BRANCH   2   4
HETATM    4  C   UNL     1     -11.594   9.392  71.550  1.00  0.00    -0.397 C  
BRANCH   4   5
HETATM    5  C   UNL     1     -11.376   8.034  70.823  1.00  0.00    -0.272 C  
BRANCH   5   6
HETATM    6  O   UNL     1     -10.294   7.354  71.493  1.00  0.00    -0.201 OA 
BRANCH   6   7
HETATM    7  C   UNL     1     -10.357   6.017  71.793  1.00  0.00    -0.215 A  
HETATM    8  C   UNL     1     -11.008   5.759  73.010  1.00  0.00    -0.314 A  
HETATM    9  C   UNL     1     -11.059   4.474  73.571  1.00  0.00    -0.398 A  
HETATM   10  C   UNL     1     -10.490   3.402  72.894  1.00  0.00    -0.240 A  
HETATM   11  C   UNL     1      -9.833   3.639  71.692  1.00  0.00    -0.230 A  
HETATM   12  C   UNL     1      -9.702   4.948  71.157  1.00  0.00    -0.245 A  
BRANCH  12  13
HETATM   13  C   UNL     1      -8.676   5.094  70.057  1.00  0.00    -0.123 C  
BRANCH  13  14
HETATM   14  C   UNL     1      -9.264   5.113  68.653  1.00  0.00    -0.150 A  
HETATM   15  C   UNL     1      -9.111   3.993  67.823  1.00  0.00    -0.175 A  
HETATM   16  C   UNL     1      -9.770   3.926  66.592  1.00  0.00    -0.189 A  
HETATM   17  C   UNL     1     -10.579   4.979  66.171  1.00  0.00    -0.321 A  
HETATM   18  C   UNL     1     -10.695   6.120  66.959  1.00  0.00    -0.423 A  
HETATM   19  C   UNL     1     -10.045   6.187  68.192  1.00  0.00    -0.181 A  
ENDBRANCH  13  14
ENDBRANCH  12  13
ENDBRANCH   6   7
ENDBRANCH   5   6
ENDBRANCH   4   5
ENDBRANCH   2   4
TORSDOF 6
ENDMDL
MODEL      162
REMARK 921   NORMALIZED FREE ENERGY PREDICTED BY IDOCK:   -3.72 KCAL/MOL
REMARK 922        TOTAL FREE ENERGY PREDICTED BY IDOCK:   -5.86 KCAL/MOL
REMARK 923 INTER-LIGAND FREE ENERGY PREDICTED BY IDOCK:   -5.14 KCAL/MOL
REMARK 924 INTRA-LIGAND FREE ENERGY PREDICTED BY IDOCK:   -0.72 KCAL/MOL
REMARK 927      BINDING AFFINITY PREDICTED BY RF-SCORE:    0.00 PKD
ROOT
HETATM    1  C   UNL     1      -5.467  12.812  69.743  1.00  0.00    -0.092 C  
HETATM    2  N   UNL     1      -6.168  13.971  70.280  1.00  0.00    -0.152 NA 
HETATM    3  C   UNL     1      -5.524  14.479  71.484  1.00  0.00    -0.137 C  
ENDROOT
BRANCH   2   4
HETATM    4  C   UNL     1      -6.526  14.990  69.275  1.00  0.00    -0.124 C  
BRANCH   4   5
HETATM    5  C   UNL     1      -7.795  15.879  69.408  1.00  0.00    -0.191 C  
BRANCH   5   6
HETATM    6  O   UNL     1      -8.842  15.258  68.634  1.00  0.00    -0.169 OA 
BRANCH   6   7
HETATM    7  C   UNL     1     -10.093  15.041  69.154  1.00  0.00    -0.245 A  
HETATM    8  C   UNL     1     -10.424  15.943  70.178  1.00  0.00    -0.251 A  
HETATM    9  C   UNL     1     -11.596  15.811  70.938  1.00  0.00    -0.440 A  
HETATM   10  C   UNL     1     -12.491  14.787  70.654  1.00  0.00    -0.407 A  
HETATM   11  C   UNL     1     -12.177  13.879  69.650  1.00  0.00    -0.374 A  
HETATM   12  C   UNL     1     -10.953  13.952  68.932  1.00  0.00    -0.290 A  
BRANCH  12  13
HETATM   13  C   UNL     1     -10.597  12.715  68.140  1.00  0.00    -0.241 C  
BRANCH  13  14
HETATM   14  C   UNL     1     -10.915  12.812  66.654  1.00  0.00    -0.300 A  
HETATM   15  C   UNL     1     -12.242  12.682  66.220  1.00  0.00    -0.225 A  
HETATM   16  C   UNL     1     -12.578  12.919  64.884  1.00  0.00    -0.525 A  
HETATM   17  C   UNL     1     -11.594  13.275  63.965  1.00  0.00    -0.458 A  
HETATM   18  C   UNL     1     -10.265  13.353  64.370  1.00  0.00    -0.262 A  
HETATM   19  C   UNL     1      -9.927  13.125  65.705  1.00  0.00    -0.260 A  
ENDBRANCH  13  14
ENDBRANCH  12  13
ENDBRANCH   6   7
ENDBRANCH   5   6
ENDBRANCH   4   5
ENDBRANCH   2   4
TORSDOF 6
ENDMDL
MODEL      163
REMARK 921   NORMALIZED FREE ENERGY PREDICTED BY IDOCK:   -3.71 KCAL/MOL
REMARK 922        TOTAL FREE ENERGY PREDICTED BY IDOCK:   -5.84 KCAL/MOL
REMARK 923 INTER-LIGAND FREE ENERGY PREDICTED BY IDOCK:   -5.09 KCAL/MOL
REMARK 924 INTRA-LIGAND FREE ENERGY PREDICTED BY IDOCK:   -0.76 KCAL/MOL
REMARK 927      BINDING AFFINITY PREDICTED BY RF-SCORE:    0.00 PKD
ROOT
HETATM    1  C   UNL     1     -10.779   4.701  65.784  1.00  0.00    -0.149 C  
HETATM    2  N   UNL     1     -10.199   4.530  67.109  1.00  0.00    -0.114 NA 
HETATM    3  C   UNL     1      -9.059   3.625  67.085  1.00  0.00    -0.168 C  
ENDROOT
BRANCH   2   4
HETATM    4  C   UNL     1      -9.994   5.787  67.855  1.00  0.00    -0.137 C  
BRANCH   4   5
HETATM    5  C   UNL     1     -10.644   6.045  69.244  1.00  0.00    -0.299 C  
BRANCH   5   6
HETATM    6  O   UNL     1      -9.584   6.053  70.222  1.00  0.00    -0.159 OA 
BRANCH   6   7
HETATM    7  C   UNL     1      -9.819   5.774  71.545  1.00  0.00    -0.169 A  
HETATM    8  C   UNL     1     -10.232   4.449  71.758  1.00  0.00    -0.201 A  
HETATM    9  C   UNL     1     -10.658   3.995  73.016  1.00  0.00    -0.256 A  
HETATM   10  C   UNL     1     -10.636   4.856  74.105  1.00  0.00    -0.345 A  
HETATM   11  C   UNL     1     -10.239   6.175  73.911  1.00  0.00    -0.289 A  
HETATM   12  C   UNL     1      -9.887   6.668  72.627  1.00  0.00    -0.180 A  
BRANCH  12  13
HETATM   13  C   UNL     1      -9.827   8.173  72.510  1.00  0.00    -0.363 C  
BRANCH  13  14
HETATM   14  C   UNL     1     -11.124   8.815  72.034  1.00  0.00    -0.441 A  
HETATM   15  C   UNL     1     -11.075   9.917  71.170  1.00  0.00    -0.359 A  
HETATM   16  C   UNL     1     -12.246  10.426  70.600  1.00  0.00    -0.441 A  
HETATM   17  C   UNL     1     -13.478   9.847  70.896  1.00  0.00    -0.181 A  
HETATM   18  C   UNL     1     -13.547   8.788  71.795  1.00  0.00    -0.453 A  
HETATM   19  C   UNL     1     -12.379   8.274  72.360  1.00  0.00    -0.385 A  
ENDBRANCH  13  14
ENDBRANCH  12  13
ENDBRANCH   6   7
ENDBRANCH   5   6
ENDBRANCH   4   5
ENDBRANCH   2   4
TORSDOF 6
ENDMDL
MODEL      164
REMARK 921   NORMALIZED FREE ENERGY PREDICTED BY IDOCK:   -3.70 KCAL/MOL
REMARK 922        TOTAL FREE ENERGY PREDICTED BY IDOCK:   -5.84 KCAL/MOL
REMARK 923 INTER-LIGAND FREE ENERGY PREDICTED BY IDOCK:   -5.18 KCAL/MOL
REMARK 924 INTRA-LIGAND FREE ENERGY PREDICTED BY IDOCK:   -0.66 KCAL/MOL
REMARK 927      BINDING AFFINITY PREDICTED BY RF-SCORE:    0.00 PKD
ROOT
HETATM    1  C   UNL     1      -7.595   9.752  69.410  1.00  0.00    -0.104 C  
HETATM    2  N   UNL     1      -8.771   9.454  68.603  1.00  0.00    -0.130 NA 
HETATM    3  C   UNL     1      -9.134   8.046  68.679  1.00  0.00    -0.140 C  
ENDROOT
BRANCH   2   4
HETATM    4  C   UNL     1      -9.886  10.406  68.770  1.00  0.00    -0.185 C  
BRANCH   4   5
HETATM    5  C   UNL     1      -9.709  11.938  68.569  1.00  0.00    -0.169 C  
BRANCH   5   6
HETATM    6  O   UNL     1     -11.024  12.503  68.381  1.00  0.00    -0.225 OA 
BRANCH   6   7
HETATM    7  C   UNL     1     -11.452  13.591  69.099  1.00  0.00    -0.295 A  
HETATM    8  C   UNL     1     -12.312  13.246  70.154  1.00  0.00    -0.306 A  
HETATM    9  C   UNL     1     -12.972  14.214  70.925  1.00  0.00    -0.374 A  
HETATM   10  C   UNL     1     -12.747  15.563  70.679  1.00  0.00    -0.487 A  
HETATM   11  C   UNL     1     -11.906  15.925  69.633  1.00  0.00    -0.298 A  
HETATM   12  C   UNL     1     -11.299  14.954  68.793  1.00  0.00    -0.304 A  
BRANCH  12  13
HETATM   13  C   UNL     1     -10.715  15.491  67.506  1.00  0.00    -0.300 C  
BRANCH  13  14
HETATM   14  C   UNL     1      -9.830  16.716  67.687  1.00  0.00    -0.256 A  
HETATM   15  C   UNL     1     -10.264  17.961  67.209  1.00  0.00    -0.360 A  
HETATM   16  C   UNL     1      -9.542  19.123  67.496  1.00  0.00    -0.373 A  
HETATM   17  C   UNL     1      -8.375  19.055  68.253  1.00  0.00    -0.369 A  
HETATM   18  C   UNL     1      -7.903  17.820  68.687  1.00  0.00    -0.278 A  
HETATM   19  C   UNL     1      -8.624  16.659  68.407  1.00  0.00    -0.221 A  
ENDBRANCH  13  14
ENDBRANCH  12  13
ENDBRANCH   6   7
ENDBRANCH   5   6
ENDBRANCH   4   5
ENDBRANCH   2   4
TORSDOF 6
ENDMDL
MODEL      165
REMARK 921   NORMALIZED FREE ENERGY PREDICTED BY IDOCK:   -3.69 KCAL/MOL
REMARK 922        TOTAL FREE ENERGY PREDICTED BY IDOCK:   -5.82 KCAL/MOL
REMARK 923 INTER-LIGAND FREE ENERGY PREDICTED BY IDOCK:   -5.01 KCAL/MOL
REMARK 924 INTRA-LIGAND FREE ENERGY PREDICTED BY IDOCK:   -0.81 KCAL/MOL
REMARK 927      BINDING AFFINITY PREDICTED BY RF-SCORE:    0.00 PKD
ROOT
HETATM    1  C   UNL     1      -8.939   3.371  66.146  1.00  0.00    -0.145 C  
HETATM    2  N   UNL     1      -9.068   4.421  67.147  1.00  0.00    -0.124 NA 
HETATM    3  C   UNL     1      -7.998   5.403  67.039  1.00  0.00    -0.101 C  
ENDROOT
BRANCH   2   4
HETATM    4  C   UNL     1     -10.428   4.978  67.278  1.00  0.00    -0.084 C  
BRANCH   4   5
HETATM    5  C   UNL     1     -10.770   6.111  68.287  1.00  0.00    -0.290 C  
BRANCH   5   6
HETATM    6  O   UNL     1     -10.990   5.494  69.572  1.00  0.00    -0.288 OA 
BRANCH   6   7
HETATM    7  C   UNL     1     -10.203   5.786  70.658  1.00  0.00    -0.218 A  
HETATM    8  C   UNL     1      -9.030   5.016  70.707  1.00  0.00    -0.165 A  
HETATM    9  C   UNL     1      -8.157   5.057  71.804  1.00  0.00    -0.115 A  
HETATM   10  C   UNL     1      -8.422   5.913  72.866  1.00  0.00    -0.121 A  
HETATM   11  C   UNL     1      -9.583   6.677  72.840  1.00  0.00    -0.162 A  
HETATM   12  C   UNL     1     -10.517   6.581  71.774  1.00  0.00    -0.239 A  
BRANCH  12  13
HETATM   13  C   UNL     1     -11.873   7.187  72.050  1.00  0.00    -0.333 C  
BRANCH  13  14
HETATM   14  C   UNL     1     -12.040   8.607  71.526  1.00  0.00    -0.369 A  
HETATM   15  C   UNL     1     -13.067   9.416  72.033  1.00  0.00    -0.516 A  
HETATM   16  C   UNL     1     -13.147  10.767  71.682  1.00  0.00    -0.551 A  
HETATM   17  C   UNL     1     -12.210  11.322  70.813  1.00  0.00    -0.479 A  
HETATM   18  C   UNL     1     -11.219  10.518  70.258  1.00  0.00    -0.391 A  
HETATM   19  C   UNL     1     -11.133   9.171  70.613  1.00  0.00    -0.320 A  
ENDBRANCH  13  14
ENDBRANCH  12  13
ENDBRANCH   6   7
ENDBRANCH   5   6
ENDBRANCH   4   5
ENDBRANCH   2   4
TORSDOF 6
ENDMDL
MODEL      166
REMARK 921   NORMALIZED FREE ENERGY PREDICTED BY IDOCK:   -3.68 KCAL/MOL
REMARK 922        TOTAL FREE ENERGY PREDICTED BY IDOCK:   -5.81 KCAL/MOL
REMARK 923 INTER-LIGAND FREE ENERGY PREDICTED BY IDOCK:   -4.99 KCAL/MOL
REMARK 924 INTRA-LIGAND FREE ENERGY PREDICTED BY IDOCK:   -0.81 KCAL/MOL
REMARK 927      BINDING AFFINITY PREDICTED BY RF-SCORE:    0.00 PKD
ROOT
HETATM    1  C   UNL     1      -8.971  10.883  64.949  1.00  0.00    -0.152 C  
HETATM    2  N   UNL     1      -9.016  11.085  66.391  1.00  0.00    -0.174 NA 
HETATM    3  C   UNL     1      -7.866  11.843  66.865  1.00  0.00    -0.120 C  
ENDROOT
BRANCH   2   4
HETATM    4  C   UNL     1     -10.325  11.530  66.906  1.00  0.00    -0.223 C  
BRANCH   4   5
HETATM    5  C   UNL     1     -11.077  10.770  68.036  1.00  0.00    -0.299 C  
BRANCH   5   6
HETATM    6  O   UNL     1     -10.131   9.877  68.659  1.00  0.00    -0.163 OA 
BRANCH   6   7
HETATM    7  C   UNL     1     -10.357   8.525  68.736  1.00  0.00    -0.213 A  
HETATM    8  C   UNL     1     -10.396   7.905  67.477  1.00  0.00    -0.329 A  
HETATM    9  C   UNL     1     -10.752   6.557  67.322  1.00  0.00    -0.427 A  
HETATM   10  C   UNL     1     -11.036   5.784  68.441  1.00  0.00    -0.159 A  
HETATM   11  C   UNL     1     -11.011   6.383  69.695  1.00  0.00    -0.420 A  
HETATM   12  C   UNL     1     -10.735   7.767  69.857  1.00  0.00    -0.245 A  
BRANCH  12  13
HETATM   13  C   UNL     1     -11.091   8.340  71.209  1.00  0.00    -0.296 C  
BRANCH  13  14
HETATM   14  C   UNL     1     -10.179   7.883  72.340  1.00  0.00    -0.327 A  
HETATM   15  C   UNL     1      -8.869   8.377  72.416  1.00  0.00    -0.294 A  
HETATM   16  C   UNL     1      -8.067   8.094  73.525  1.00  0.00    -0.261 A  
HETATM   17  C   UNL     1      -8.557   7.305  74.563  1.00  0.00    -0.230 A  
HETATM   18  C   UNL     1      -9.835   6.762  74.475  1.00  0.00    -0.263 A  
HETATM   19  C   UNL     1     -10.642   7.049  73.373  1.00  0.00    -0.399 A  
ENDBRANCH  13  14
ENDBRANCH  12  13
ENDBRANCH   6   7
ENDBRANCH   5   6
ENDBRANCH   4   5
ENDBRANCH   2   4
TORSDOF 6
ENDMDL
MODEL      167
REMARK 921   NORMALIZED FREE ENERGY PREDICTED BY IDOCK:   -3.68 KCAL/MOL
REMARK 922        TOTAL FREE ENERGY PREDICTED BY IDOCK:   -5.80 KCAL/MOL
REMARK 923 INTER-LIGAND FREE ENERGY PREDICTED BY IDOCK:   -5.34 KCAL/MOL
REMARK 924 INTRA-LIGAND FREE ENERGY PREDICTED BY IDOCK:   -0.47 KCAL/MOL
REMARK 927      BINDING AFFINITY PREDICTED BY RF-SCORE:    0.00 PKD
ROOT
HETATM    1  C   UNL     1     -10.372  11.470  63.616  1.00  0.00    -0.417 C  
HETATM    2  N   UNL     1     -11.210  12.652  63.467  1.00  0.00    -0.464 NA 
HETATM    3  C   UNL     1     -12.612  12.354  63.725  1.00  0.00    -0.437 C  
ENDROOT
BRANCH   2   4
HETATM    4  C   UNL     1     -10.687  13.861  64.131  1.00  0.00     0.070 C  
BRANCH   4   5
HETATM    5  C   UNL     1     -11.574  15.108  64.409  1.00  0.00    -0.271 C  
BRANCH   5   6
HETATM    6  O   UNL     1     -10.690  16.226  64.631  1.00  0.00    -0.670 OA 
BRANCH   6   7
HETATM    7  C   UNL     1     -10.399  16.677  65.894  1.00  0.00    -0.340 A  
HETATM    8  C   UNL     1     -10.832  17.994  66.118  1.00  0.00     0.036 A  
HETATM    9  C   UNL     1     -10.513  18.694  67.291  1.00  0.00    -0.468 A  
HETATM   10  C   UNL     1      -9.783  18.066  68.293  1.00  0.00    -0.332 A  
HETATM   11  C   UNL     1      -9.338  16.765  68.086  1.00  0.00    -0.234 A  
HETATM   12  C   UNL     1      -9.582  16.077  66.868  1.00  0.00    -0.239 A  
BRANCH  12  13
HETATM   13  C   UNL     1      -8.748  14.835  66.652  1.00  0.00    -0.229 C  
BRANCH  13  14
HETATM   14  C   UNL     1      -9.317  13.581  67.302  1.00  0.00    -0.233 A  
HETATM   15  C   UNL     1      -8.480  12.480  67.532  1.00  0.00    -0.177 A  
HETATM   16  C   UNL     1      -8.938  11.380  68.262  1.00  0.00    -0.175 A  
HETATM   17  C   UNL     1     -10.239  11.361  68.760  1.00  0.00    -0.209 A  
HETATM   18  C   UNL     1     -11.098  12.422  68.492  1.00  0.00    -0.296 A  
HETATM   19  C   UNL     1     -10.641  13.525  67.769  1.00  0.00    -0.252 A  
ENDBRANCH  13  14
ENDBRANCH  12  13
ENDBRANCH   6   7
ENDBRANCH   5   6
ENDBRANCH   4   5
ENDBRANCH   2   4
TORSDOF 6
ENDMDL
MODEL      168
REMARK 921   NORMALIZED FREE ENERGY PREDICTED BY IDOCK:   -3.66 KCAL/MOL
REMARK 922        TOTAL FREE ENERGY PREDICTED BY IDOCK:   -5.79 KCAL/MOL
REMARK 923 INTER-LIGAND FREE ENERGY PREDICTED BY IDOCK:   -5.17 KCAL/MOL
REMARK 924 INTRA-LIGAND FREE ENERGY PREDICTED BY IDOCK:   -0.61 KCAL/MOL
REMARK 927      BINDING AFFINITY PREDICTED BY RF-SCORE:    0.00 PKD
ROOT
HETATM    1  C   UNL     1     -12.028  15.516  64.185  1.00  0.00    -0.072 C  
HETATM    2  N   UNL     1     -10.724  15.824  64.756  1.00  0.00    -0.526 NA 
HETATM    3  C   UNL     1     -10.745  17.075  65.502  1.00  0.00    -0.138 C  
ENDROOT
BRANCH   2   4
HETATM    4  C   UNL     1     -10.070  14.691  65.438  1.00  0.00    -0.372 C  
BRANCH   4   5
HETATM    5  C   UNL     1      -9.991  14.585  66.988  1.00  0.00    -0.255 C  
BRANCH   5   6
HETATM    6  O   UNL     1     -11.017  13.663  67.410  1.00  0.00    -0.269 OA 
BRANCH   6   7
HETATM    7  C   UNL     1     -11.554  13.709  68.673  1.00  0.00    -0.329 A  
HETATM    8  C   UNL     1     -11.318  14.930  69.323  1.00  0.00    -0.315 A  
HETATM    9  C   UNL     1     -11.659  15.137  70.668  1.00  0.00    -0.351 A  
HETATM   10  C   UNL     1     -12.290  14.127  71.383  1.00  0.00    -0.425 A  
HETATM   11  C   UNL     1     -12.524  12.906  70.759  1.00  0.00    -0.370 A  
HETATM   12  C   UNL     1     -12.107  12.658  69.424  1.00  0.00    -0.236 A  
BRANCH  12  13
HETATM   13  C   UNL     1     -12.104  11.204  69.011  1.00  0.00    -0.315 C  
BRANCH  13  14
HETATM   14  C   UNL     1     -10.794  10.732  68.395  1.00  0.00    -0.276 A  
HETATM   15  C   UNL     1     -10.797  10.163  67.113  1.00  0.00    -0.257 A  
HETATM   16  C   UNL     1      -9.595   9.864  66.466  1.00  0.00    -0.243 A  
HETATM   17  C   UNL     1      -8.378  10.119  67.094  1.00  0.00    -0.125 A  
HETATM   18  C   UNL     1      -8.361  10.632  68.387  1.00  0.00    -0.127 A  
HETATM   19  C   UNL     1      -9.560  10.938  69.034  1.00  0.00    -0.170 A  
ENDBRANCH  13  14
ENDBRANCH  12  13
ENDBRANCH   6   7
ENDBRANCH   5   6
ENDBRANCH   4   5
ENDBRANCH   2   4
TORSDOF 6
ENDMDL
MODEL      169
REMARK 921   NORMALIZED FREE ENERGY PREDICTED BY IDOCK:   -3.66 KCAL/MOL
REMARK 922        TOTAL FREE ENERGY PREDICTED BY IDOCK:   -5.79 KCAL/MOL
REMARK 923 INTER-LIGAND FREE ENERGY PREDICTED BY IDOCK:   -5.52 KCAL/MOL
REMARK 924 INTRA-LIGAND FREE ENERGY PREDICTED BY IDOCK:   -0.27 KCAL/MOL
REMARK 927      BINDING AFFINITY PREDICTED BY RF-SCORE:    0.00 PKD
ROOT
HETATM    1  C   UNL     1     -13.911  13.476  72.298  1.00  0.00    -0.539 C  
HETATM    2  N   UNL     1     -13.415  14.076  71.067  1.00  0.00    -0.191 NA 
HETATM    3  C   UNL     1     -13.253  15.517  71.199  1.00  0.00    -0.507 C  
ENDROOT
BRANCH   2   4
HETATM    4  C   UNL     1     -12.279  13.364  70.452  1.00  0.00    -0.345 C  
BRANCH   4   5
HETATM    5  C   UNL     1     -11.757  13.703  69.027  1.00  0.00    -0.333 C  
BRANCH   5   6
HETATM    6  O   UNL     1     -12.215  12.661  68.140  1.00  0.00    -0.217 OA 
BRANCH   6   7
HETATM    7  C   UNL     1     -11.405  11.616  67.774  1.00  0.00    -0.288 A  
HETATM    8  C   UNL     1     -11.303  10.629  68.768  1.00  0.00    -0.339 A  
HETATM    9  C   UNL     1     -10.418   9.547  68.655  1.00  0.00    -0.237 A  
HETATM   10  C   UNL     1      -9.641   9.406  67.512  1.00  0.00    -0.174 A  
HETATM   11  C   UNL     1      -9.721  10.378  66.521  1.00  0.00    -0.241 A  
HETATM   12  C   UNL     1     -10.551  11.523  66.662  1.00  0.00    -0.294 A  
BRANCH  12  13
HETATM   13  C   UNL     1     -10.268  12.645  65.691  1.00  0.00    -0.290 C  
BRANCH  13  14
HETATM   14  C   UNL     1      -9.879  13.960  66.354  1.00  0.00    -0.304 A  
HETATM   15  C   UNL     1      -8.795  13.993  67.242  1.00  0.00    -0.225 A  
HETATM   16  C   UNL     1      -8.324  15.211  67.742  1.00  0.00    -0.159 A  
HETATM   17  C   UNL     1      -8.936  16.406  67.371  1.00  0.00    -0.200 A  
HETATM   18  C   UNL     1     -10.047  16.383  66.534  1.00  0.00    -0.304 A  
HETATM   19  C   UNL     1     -10.515  15.170  66.027  1.00  0.00    -0.330 A  
ENDBRANCH  13  14
ENDBRANCH  12  13
ENDBRANCH   6   7
ENDBRANCH   5   6
ENDBRANCH   4   5
ENDBRANCH   2   4
TORSDOF 6
ENDMDL
MODEL      170
REMARK 921   NORMALIZED FREE ENERGY PREDICTED BY IDOCK:   -3.66 KCAL/MOL
REMARK 922        TOTAL FREE ENERGY PREDICTED BY IDOCK:   -5.78 KCAL/MOL
REMARK 923 INTER-LIGAND FREE ENERGY PREDICTED BY IDOCK:   -5.21 KCAL/MOL
REMARK 924 INTRA-LIGAND FREE ENERGY PREDICTED BY IDOCK:   -0.57 KCAL/MOL
REMARK 927      BINDING AFFINITY PREDICTED BY RF-SCORE:    0.00 PKD
ROOT
HETATM    1  C   UNL     1      -9.267   8.873  71.241  1.00  0.00    -0.258 C  
HETATM    2  N   UNL     1     -10.498   8.777  72.015  1.00  0.00    -0.346 NA 
HETATM    3  C   UNL     1     -11.559   9.591  71.440  1.00  0.00    -0.395 C  
ENDROOT
BRANCH   2   4
HETATM    4  C   UNL     1     -10.883   7.402  72.385  1.00  0.00    -0.263 C  
BRANCH   4   5
HETATM    5  C   UNL     1     -11.813   6.530  71.494  1.00  0.00    -0.333 C  
BRANCH   5   6
HETATM    6  O   UNL     1     -11.437   6.761  70.121  1.00  0.00    -0.333 OA 
BRANCH   6   7
HETATM    7  C   UNL     1     -10.796   5.802  69.377  1.00  0.00    -0.323 A  
HETATM    8  C   UNL     1     -10.051   4.908  70.162  1.00  0.00    -0.332 A  
HETATM    9  C   UNL     1      -9.210   3.939  69.594  1.00  0.00    -0.221 A  
HETATM   10  C   UNL     1      -9.132   3.818  68.212  1.00  0.00    -0.193 A  
HETATM   11  C   UNL     1      -9.855   4.701  67.417  1.00  0.00    -0.207 A  
HETATM   12  C   UNL     1     -10.643   5.739  67.981  1.00  0.00    -0.295 A  
BRANCH  12  13
HETATM   13  C   UNL     1     -11.072   6.818  67.014  1.00  0.00    -0.369 C  
BRANCH  13  14
HETATM   14  C   UNL     1     -10.200   8.067  67.045  1.00  0.00    -0.374 A  
HETATM   15  C   UNL     1      -8.984   8.079  66.348  1.00  0.00    -0.204 A  
HETATM   16  C   UNL     1      -8.242   9.259  66.235  1.00  0.00    -0.107 A  
HETATM   17  C   UNL     1      -8.700  10.434  66.825  1.00  0.00    -0.132 A  
HETATM   18  C   UNL     1      -9.877  10.423  67.567  1.00  0.00    -0.202 A  
HETATM   19  C   UNL     1     -10.623   9.249  67.676  1.00  0.00    -0.324 A  
ENDBRANCH  13  14
ENDBRANCH  12  13
ENDBRANCH   6   7
ENDBRANCH   5   6
ENDBRANCH   4   5
ENDBRANCH   2   4
TORSDOF 6
ENDMDL
MODEL      171
REMARK 921   NORMALIZED FREE ENERGY PREDICTED BY IDOCK:   -3.65 KCAL/MOL
REMARK 922        TOTAL FREE ENERGY PREDICTED BY IDOCK:   -5.77 KCAL/MOL
REMARK 923 INTER-LIGAND FREE ENERGY PREDICTED BY IDOCK:   -5.13 KCAL/MOL
REMARK 924 INTRA-LIGAND FREE ENERGY PREDICTED BY IDOCK:   -0.65 KCAL/MOL
REMARK 927      BINDING AFFINITY PREDICTED BY RF-SCORE:    0.00 PKD
ROOT
HETATM    1  C   UNL     1      -9.774  10.386  65.383  1.00  0.00    -0.265 C  
HETATM    2  N   UNL     1     -10.389  10.414  66.703  1.00  0.00    -0.236 NA 
HETATM    3  C   UNL     1     -10.427   9.090  67.308  1.00  0.00    -0.273 C  
ENDROOT
BRANCH   2   4
HETATM    4  C   UNL     1      -9.908  11.498  67.581  1.00  0.00    -0.181 C  
BRANCH   4   5
HETATM    5  C   UNL     1     -10.822  12.180  68.638  1.00  0.00    -0.235 C  
BRANCH   5   6
HETATM    6  O   UNL     1     -11.920  12.791  67.930  1.00  0.00    -0.346 OA 
BRANCH   6   7
HETATM    7  C   UNL     1     -11.728  13.838  67.064  1.00  0.00    -0.390 A  
HETATM    8  C   UNL     1     -12.056  13.517  65.737  1.00  0.00    -0.473 A  
HETATM    9  C   UNL     1     -11.802  14.396  64.674  1.00  0.00    -0.460 A  
HETATM   10  C   UNL     1     -11.250  15.645  64.927  1.00  0.00    -0.376 A  
HETATM   11  C   UNL     1     -10.911  15.978  66.233  1.00  0.00    -0.166 A  
HETATM   12  C   UNL     1     -11.084  15.064  67.306  1.00  0.00    -0.334 A  
BRANCH  12  13
HETATM   13  C   UNL     1     -10.354  15.420  68.580  1.00  0.00    -0.234 C  
BRANCH  13  14
HETATM   14  C   UNL     1      -8.919  15.883  68.368  1.00  0.00    -0.189 A  
HETATM   15  C   UNL     1      -7.940  14.953  67.988  1.00  0.00    -0.132 A  
HETATM   16  C   UNL     1      -6.654  15.377  67.640  1.00  0.00    -0.195 A  
HETATM   17  C   UNL     1      -6.328  16.731  67.678  1.00  0.00    -0.172 A  
HETATM   18  C   UNL     1      -7.272  17.658  68.106  1.00  0.00    -0.218 A  
HETATM   19  C   UNL     1      -8.559  17.239  68.447  1.00  0.00    -0.251 A  
ENDBRANCH  13  14
ENDBRANCH  12  13
ENDBRANCH   6   7
ENDBRANCH   5   6
ENDBRANCH   4   5
ENDBRANCH   2   4
TORSDOF 6
ENDMDL
MODEL      172
REMARK 921   NORMALIZED FREE ENERGY PREDICTED BY IDOCK:   -3.65 KCAL/MOL
REMARK 922        TOTAL FREE ENERGY PREDICTED BY IDOCK:   -5.77 KCAL/MOL
REMARK 923 INTER-LIGAND FREE ENERGY PREDICTED BY IDOCK:   -5.09 KCAL/MOL
REMARK 924 INTRA-LIGAND FREE ENERGY PREDICTED BY IDOCK:   -0.68 KCAL/MOL
REMARK 927      BINDING AFFINITY PREDICTED BY RF-SCORE:    0.00 PKD
ROOT
HETATM    1  C   UNL     1      -7.551   8.280  68.610  1.00  0.00    -0.099 C  
HETATM    2  N   UNL     1      -7.657   8.316  67.158  1.00  0.00    -0.092 NA 
HETATM    3  C   UNL     1      -8.181   7.067  66.625  1.00  0.00    -0.112 C  
ENDROOT
BRANCH   2   4
HETATM    4  C   UNL     1      -8.274   9.544  66.619  1.00  0.00    -0.116 C  
BRANCH   4   5
HETATM    5  C   UNL     1      -9.040  10.554  67.519  1.00  0.00    -0.138 C  
BRANCH   5   6
HETATM    6  O   UNL     1     -10.345   9.996  67.782  1.00  0.00    -0.186 OA 
BRANCH   6   7
HETATM    7  C   UNL     1     -10.935  10.090  69.017  1.00  0.00    -0.212 A  
HETATM    8  C   UNL     1     -10.899   8.883  69.734  1.00  0.00    -0.207 A  
HETATM    9  C   UNL     1     -11.567   8.723  70.957  1.00  0.00    -0.337 A  
HETATM   10  C   UNL     1     -12.255   9.793  71.514  1.00  0.00    -0.493 A  
HETATM   11  C   UNL     1     -12.310  10.994  70.814  1.00  0.00    -0.496 A  
HETATM   12  C   UNL     1     -11.710  11.142  69.536  1.00  0.00    -0.405 A  
BRANCH  12  13
HETATM   13  C   UNL     1     -12.149  12.359  68.756  1.00  0.00    -0.158 C  
BRANCH  13  14
HETATM   14  C   UNL     1     -11.680  13.682  69.346  1.00  0.00    -0.379 A  
HETATM   15  C   UNL     1     -10.446  14.217  68.951  1.00  0.00    -0.241 A  
HETATM   16  C   UNL     1     -10.064  15.498  69.360  1.00  0.00    -0.266 A  
HETATM   17  C   UNL     1     -10.904  16.254  70.175  1.00  0.00    -0.299 A  
HETATM   18  C   UNL     1     -12.106  15.713  70.620  1.00  0.00    -0.443 A  
HETATM   19  C   UNL     1     -12.493  14.437  70.207  1.00  0.00    -0.413 A  
ENDBRANCH  13  14
ENDBRANCH  12  13
ENDBRANCH   6   7
ENDBRANCH   5   6
ENDBRANCH   4   5
ENDBRANCH   2   4
TORSDOF 6
ENDMDL
MODEL      173
REMARK 921   NORMALIZED FREE ENERGY PREDICTED BY IDOCK:   -3.64 KCAL/MOL
REMARK 922        TOTAL FREE ENERGY PREDICTED BY IDOCK:   -5.75 KCAL/MOL
REMARK 923 INTER-LIGAND FREE ENERGY PREDICTED BY IDOCK:   -4.89 KCAL/MOL
REMARK 924 INTRA-LIGAND FREE ENERGY PREDICTED BY IDOCK:   -0.87 KCAL/MOL
REMARK 927      BINDING AFFINITY PREDICTED BY RF-SCORE:    0.00 PKD
ROOT
HETATM    1  C   UNL     1      -9.576  15.891  69.335  1.00  0.00    -0.265 C  
HETATM    2  N   UNL     1     -10.745  16.417  68.643  1.00  0.00    -0.297 NA 
HETATM    3  C   UNL     1     -10.433  17.638  67.914  1.00  0.00    -0.392 C  
ENDROOT
BRANCH   2   4
HETATM    4  C   UNL     1     -11.517  15.409  67.891  1.00  0.00    -0.299 C  
BRANCH   4   5
HETATM    5  C   UNL     1     -11.477  13.896  68.246  1.00  0.00    -0.311 C  
BRANCH   5   6
HETATM    6  O   UNL     1     -10.737  13.227  67.203  1.00  0.00    -0.257 OA 
BRANCH   6   7
HETATM    7  C   UNL     1      -9.625  12.472  67.478  1.00  0.00    -0.187 A  
HETATM    8  C   UNL     1      -8.424  13.152  67.217  1.00  0.00    -0.199 A  
HETATM    9  C   UNL     1      -7.176  12.517  67.298  1.00  0.00    -0.114 A  
HETATM   10  C   UNL     1      -7.101  11.186  67.687  1.00  0.00    -0.089 A  
HETATM   11  C   UNL     1      -8.280  10.493  67.941  1.00  0.00    -0.107 A  
HETATM   12  C   UNL     1      -9.554  11.102  67.781  1.00  0.00    -0.180 A  
BRANCH  12  13
HETATM   13  C   UNL     1     -10.723  10.145  67.743  1.00  0.00    -0.328 C  
BRANCH  13  14
HETATM   14  C   UNL     1     -11.225   9.719  69.116  1.00  0.00    -0.101 A  
HETATM   15  C   UNL     1     -10.889   8.452  69.614  1.00  0.00    -0.153 A  
HETATM   16  C   UNL     1     -11.208   8.098  70.928  1.00  0.00    -0.286 A  
HETATM   17  C   UNL     1     -11.876   8.998  71.754  1.00  0.00    -0.442 A  
HETATM   18  C   UNL     1     -12.265  10.237  71.256  1.00  0.00    -0.496 A  
HETATM   19  C   UNL     1     -11.942  10.597  69.947  1.00  0.00    -0.385 A  
ENDBRANCH  13  14
ENDBRANCH  12  13
ENDBRANCH   6   7
ENDBRANCH   5   6
ENDBRANCH   4   5
ENDBRANCH   2   4
TORSDOF 6
ENDMDL
MODEL      174
REMARK 921   NORMALIZED FREE ENERGY PREDICTED BY IDOCK:   -3.62 KCAL/MOL
REMARK 922        TOTAL FREE ENERGY PREDICTED BY IDOCK:   -5.72 KCAL/MOL
REMARK 923 INTER-LIGAND FREE ENERGY PREDICTED BY IDOCK:   -4.85 KCAL/MOL
REMARK 924 INTRA-LIGAND FREE ENERGY PREDICTED BY IDOCK:   -0.87 KCAL/MOL
REMARK 927      BINDING AFFINITY PREDICTED BY RF-SCORE:    0.00 PKD
ROOT
HETATM    1  C   UNL     1     -13.404  10.955  71.945  1.00  0.00    -0.324 C  
HETATM    2  N   UNL     1     -12.483   9.886  71.584  1.00  0.00    -0.392 NA 
HETATM    3  C   UNL     1     -13.044   8.573  71.867  1.00  0.00    -0.362 C  
ENDROOT
BRANCH   2   4
HETATM    4  C   UNL     1     -11.861  10.036  70.254  1.00  0.00    -0.216 C  
BRANCH   4   5
HETATM    5  C   UNL     1     -12.249  11.183  69.278  1.00  0.00    -0.226 C  
BRANCH   5   6
HETATM    6  O   UNL     1     -11.910  10.748  67.945  1.00  0.00    -0.553 OA 
BRANCH   6   7
HETATM    7  C   UNL     1     -10.674  10.988  67.400  1.00  0.00    -0.257 A  
HETATM    8  C   UNL     1     -10.392  12.356  67.262  1.00  0.00    -0.227 A  
HETATM    9  C   UNL     1      -9.244  12.818  66.602  1.00  0.00    -0.212 A  
HETATM   10  C   UNL     1      -8.324  11.908  66.098  1.00  0.00     0.167 A  
HETATM   11  C   UNL     1      -8.590  10.548  66.216  1.00  0.00    -0.151 A  
HETATM   12  C   UNL     1      -9.789  10.070  66.808  1.00  0.00    -0.251 A  
BRANCH  12  13
HETATM   13  C   UNL     1     -10.099   8.614  66.548  1.00  0.00    -0.339 C  
BRANCH  13  14
HETATM   14  C   UNL     1     -10.078   7.739  67.794  1.00  0.00    -0.242 A  
HETATM   15  C   UNL     1      -9.229   8.071  68.859  1.00  0.00    -0.147 A  
HETATM   16  C   UNL     1      -9.302   7.374  70.069  1.00  0.00    -0.151 A  
HETATM   17  C   UNL     1     -10.214   6.333  70.225  1.00  0.00    -0.244 A  
HETATM   18  C   UNL     1     -11.024   5.957  69.158  1.00  0.00    -0.382 A  
HETATM   19  C   UNL     1     -10.958   6.655  67.951  1.00  0.00    -0.342 A  
ENDBRANCH  13  14
ENDBRANCH  12  13
ENDBRANCH   6   7
ENDBRANCH   5   6
ENDBRANCH   4   5
ENDBRANCH   2   4
TORSDOF 6
ENDMDL
MODEL      175
REMARK 921   NORMALIZED FREE ENERGY PREDICTED BY IDOCK:   -3.59 KCAL/MOL
REMARK 922        TOTAL FREE ENERGY PREDICTED BY IDOCK:   -5.69 KCAL/MOL
REMARK 923 INTER-LIGAND FREE ENERGY PREDICTED BY IDOCK:   -5.44 KCAL/MOL
REMARK 924 INTRA-LIGAND FREE ENERGY PREDICTED BY IDOCK:   -0.25 KCAL/MOL
REMARK 927      BINDING AFFINITY PREDICTED BY RF-SCORE:    0.00 PKD
ROOT
HETATM    1  C   UNL     1      -8.388  12.877  68.355  1.00  0.00    -0.116 C  
HETATM    2  N   UNL     1      -9.612  12.096  68.473  1.00  0.00    -0.175 NA 
HETATM    3  C   UNL     1     -10.594  12.480  67.468  1.00  0.00    -0.220 C  
ENDROOT
BRANCH   2   4
HETATM    4  C   UNL     1      -9.401  10.645  68.630  1.00  0.00    -0.177 C  
BRANCH   4   5
HETATM    5  C   UNL     1      -8.660  10.040  69.856  1.00  0.00    -0.146 C  
BRANCH   5   6
HETATM    6  O   UNL     1      -8.217   8.718  69.484  1.00  0.00    -0.106 OA 
BRANCH   6   7
HETATM    7  C   UNL     1      -9.083   7.781  68.978  1.00  0.00    -0.144 A  
HETATM    8  C   UNL     1      -9.076   7.731  67.575  1.00  0.00    -0.136 A  
HETATM    9  C   UNL     1      -9.985   6.943  66.853  1.00  0.00    -0.264 A  
HETATM   10  C   UNL     1     -10.901   6.148  67.531  1.00  0.00    -0.422 A  
HETATM   11  C   UNL     1     -10.929   6.192  68.921  1.00  0.00    -0.424 A  
HETATM   12  C   UNL     1     -10.070   7.049  69.659  1.00  0.00    -0.194 A  
BRANCH  12  13
HETATM   13  C   UNL     1     -10.454   7.252  71.107  1.00  0.00    -0.221 C  
BRANCH  13  14
HETATM   14  C   UNL     1     -11.804   7.925  71.306  1.00  0.00    -0.321 A  
HETATM   15  C   UNL     1     -12.968   7.144  71.353  1.00  0.00    -0.419 A  
HETATM   16  C   UNL     1     -14.197   7.720  71.687  1.00  0.00    -0.572 A  
HETATM   17  C   UNL     1     -14.281   9.082  71.966  1.00  0.00    -0.384 A  
HETATM   18  C   UNL     1     -13.145   9.879  71.869  1.00  0.00    -0.559 A  
HETATM   19  C   UNL     1     -11.915   9.306  71.543  1.00  0.00    -0.439 A  
ENDBRANCH  13  14
ENDBRANCH  12  13
ENDBRANCH   6   7
ENDBRANCH   5   6
ENDBRANCH   4   5
ENDBRANCH   2   4
TORSDOF 6
ENDMDL
MODEL      176
REMARK 921   NORMALIZED FREE ENERGY PREDICTED BY IDOCK:   -3.58 KCAL/MOL
REMARK 922        TOTAL FREE ENERGY PREDICTED BY IDOCK:   -5.67 KCAL/MOL
REMARK 923 INTER-LIGAND FREE ENERGY PREDICTED BY IDOCK:   -4.93 KCAL/MOL
REMARK 924 INTRA-LIGAND FREE ENERGY PREDICTED BY IDOCK:   -0.75 KCAL/MOL
REMARK 927      BINDING AFFINITY PREDICTED BY RF-SCORE:    0.00 PKD
ROOT
HETATM    1  C   UNL     1     -12.048  14.216  64.403  1.00  0.00    -0.463 C  
HETATM    2  N   UNL     1     -12.136  12.806  64.758  1.00  0.00    -0.406 NA 
HETATM    3  C   UNL     1     -12.507  11.985  63.613  1.00  0.00    -0.525 C  
ENDROOT
BRANCH   2   4
HETATM    4  C   UNL     1     -11.002  12.303  65.557  1.00  0.00    -0.298 C  
BRANCH   4   5
HETATM    5  C   UNL     1     -11.064  12.185  67.106  1.00  0.00    -0.291 C  
BRANCH   5   6
HETATM    6  O   UNL     1     -11.651  10.905  67.419  1.00  0.00    -0.509 OA 
BRANCH   6   7
HETATM    7  C   UNL     1     -11.639  10.397  68.694  1.00  0.00    -0.101 A  
HETATM    8  C   UNL     1     -12.388  11.168  69.597  1.00  0.00    -0.287 A  
HETATM    9  C   UNL     1     -12.394  10.905  70.975  1.00  0.00    -0.498 A  
HETATM   10  C   UNL     1     -11.677   9.826  71.475  1.00  0.00    -0.450 A  
HETATM   11  C   UNL     1     -10.921   9.056  70.598  1.00  0.00    -0.308 A  
HETATM   12  C   UNL     1     -10.840   9.364  69.214  1.00  0.00    -0.190 A  
BRANCH  12  13
HETATM   13  C   UNL     1      -9.722   8.675  68.466  1.00  0.00    -0.174 C  
BRANCH  13  14
HETATM   14  C   UNL     1      -8.351   9.305  68.674  1.00  0.00    -0.118 A  
HETATM   15  C   UNL     1      -7.537   8.860  69.725  1.00  0.00    -0.069 A  
HETATM   16  C   UNL     1      -6.219   9.312  69.843  1.00  0.00    -0.039 A  
HETATM   17  C   UNL     1      -5.705  10.222  68.922  1.00  0.00    -0.041 A  
HETATM   18  C   UNL     1      -6.519  10.714  67.907  1.00  0.00    -0.059 A  
HETATM   19  C   UNL     1      -7.832  10.259  67.782  1.00  0.00    -0.101 A  
ENDBRANCH  13  14
ENDBRANCH  12  13
ENDBRANCH   6   7
ENDBRANCH   5   6
ENDBRANCH   4   5
ENDBRANCH   2   4
TORSDOF 6
ENDMDL
MODEL      177
REMARK 921   NORMALIZED FREE ENERGY PREDICTED BY IDOCK:   -3.58 KCAL/MOL
REMARK 922        TOTAL FREE ENERGY PREDICTED BY IDOCK:   -5.67 KCAL/MOL
REMARK 923 INTER-LIGAND FREE ENERGY PREDICTED BY IDOCK:   -5.28 KCAL/MOL
REMARK 924 INTRA-LIGAND FREE ENERGY PREDICTED BY IDOCK:   -0.40 KCAL/MOL
REMARK 927      BINDING AFFINITY PREDICTED BY RF-SCORE:    0.00 PKD
ROOT
HETATM    1  C   UNL     1      -8.470  15.453  66.726  1.00  0.00    -0.272 C  
HETATM    2  N   UNL     1      -7.153  14.974  67.124  1.00  0.00    -0.207 NA 
HETATM    3  C   UNL     1      -6.281  16.069  67.525  1.00  0.00    -0.165 C  
ENDROOT
BRANCH   2   4
HETATM    4  C   UNL     1      -7.171  13.813  68.033  1.00  0.00    -0.137 C  
BRANCH   4   5
HETATM    5  C   UNL     1      -7.588  12.392  67.560  1.00  0.00    -0.155 C  
BRANCH   5   6
HETATM    6  O   UNL     1      -8.886  12.111  68.125  1.00  0.00    -0.176 OA 
BRANCH   6   7
HETATM    7  C   UNL     1      -9.442  10.858  68.071  1.00  0.00    -0.163 A  
HETATM    8  C   UNL     1      -9.337  10.160  69.285  1.00  0.00    -0.227 A  
HETATM    9  C   UNL     1      -9.715   8.815  69.406  1.00  0.00    -0.172 A  
HETATM   10  C   UNL     1     -10.252   8.147  68.313  1.00  0.00    -0.245 A  
HETATM   11  C   UNL     1     -10.355   8.818  67.100  1.00  0.00    -0.364 A  
HETATM   12  C   UNL     1      -9.897  10.154  66.943  1.00  0.00    -0.244 A  
BRANCH  12  13
HETATM   13  C   UNL     1      -9.745  10.618  65.513  1.00  0.00    -0.291 C  
BRANCH  13  14
HETATM   14  C   UNL     1     -10.814  11.603  65.060  1.00  0.00    -0.346 A  
HETATM   15  C   UNL     1     -11.382  12.486  65.990  1.00  0.00    -0.386 A  
HETATM   16  C   UNL     1     -12.250  13.498  65.570  1.00  0.00    -0.490 A  
HETATM   17  C   UNL     1     -12.569  13.633  64.221  1.00  0.00    -0.195 A  
HETATM   18  C   UNL     1     -12.058  12.730  63.295  1.00  0.00    -0.524 A  
HETATM   19  C   UNL     1     -11.185  11.723  63.710  1.00  0.00    -0.518 A  
ENDBRANCH  13  14
ENDBRANCH  12  13
ENDBRANCH   6   7
ENDBRANCH   5   6
ENDBRANCH   4   5
ENDBRANCH   2   4
TORSDOF 6
ENDMDL
MODEL      178
REMARK 921   NORMALIZED FREE ENERGY PREDICTED BY IDOCK:   -3.57 KCAL/MOL
REMARK 922        TOTAL FREE ENERGY PREDICTED BY IDOCK:   -5.66 KCAL/MOL
REMARK 923 INTER-LIGAND FREE ENERGY PREDICTED BY IDOCK:   -4.90 KCAL/MOL
REMARK 924 INTRA-LIGAND FREE ENERGY PREDICTED BY IDOCK:   -0.77 KCAL/MOL
REMARK 927      BINDING AFFINITY PREDICTED BY RF-SCORE:    0.00 PKD
ROOT
HETATM    1  C   UNL     1     -12.782  12.025  63.431  1.00  0.00    -0.398 C  
HETATM    2  N   UNL     1     -11.658  12.949  63.378  1.00  0.00    -0.479 NA 
HETATM    3  C   UNL     1     -11.856  14.089  64.262  1.00  0.00    -0.410 C  
ENDROOT
BRANCH   2   4
HETATM    4  C   UNL     1     -10.332  12.307  63.459  1.00  0.00    -0.410 C  
BRANCH   4   5
HETATM    5  C   UNL     1     -10.159  10.791  63.756  1.00  0.00    -0.327 C  
BRANCH   5   6
HETATM    6  O   UNL     1     -10.288  10.612  65.182  1.00  0.00    -0.299 OA 
BRANCH   6   7
HETATM    7  C   UNL     1      -9.245  10.157  65.950  1.00  0.00    -0.162 A  
HETATM    8  C   UNL     1      -8.318   9.397  65.219  1.00  0.00    -0.147 A  
HETATM    9  C   UNL     1      -7.255   8.723  65.837  1.00  0.00    -0.084 A  
HETATM   10  C   UNL     1      -7.071   8.834  67.209  1.00  0.00    -0.079 A  
HETATM   11  C   UNL     1      -7.984   9.574  67.952  1.00  0.00    -0.098 A  
HETATM   12  C   UNL     1      -9.113  10.191  67.349  1.00  0.00    -0.149 A  
BRANCH  12  13
HETATM   13  C   UNL     1     -10.187  10.647  68.309  1.00  0.00    -0.187 C  
BRANCH  13  14
HETATM   14  C   UNL     1     -10.469  12.142  68.266  1.00  0.00    -0.225 A  
HETATM   15  C   UNL     1      -9.408  13.051  68.389  1.00  0.00    -0.149 A  
HETATM   16  C   UNL     1      -9.620  14.420  68.201  1.00  0.00    -0.218 A  
HETATM   17  C   UNL     1     -10.894  14.897  67.899  1.00  0.00    -0.276 A  
HETATM   18  C   UNL     1     -11.965  14.013  67.828  1.00  0.00    -0.392 A  
HETATM   19  C   UNL     1     -11.756  12.645  68.009  1.00  0.00    -0.402 A  
ENDBRANCH  13  14
ENDBRANCH  12  13
ENDBRANCH   6   7
ENDBRANCH   5   6
ENDBRANCH   4   5
ENDBRANCH   2   4
TORSDOF 6
ENDMDL
MODEL      179
REMARK 921   NORMALIZED FREE ENERGY PREDICTED BY IDOCK:   -3.57 KCAL/MOL
REMARK 922        TOTAL FREE ENERGY PREDICTED BY IDOCK:   -5.65 KCAL/MOL
REMARK 923 INTER-LIGAND FREE ENERGY PREDICTED BY IDOCK:   -4.98 KCAL/MOL
REMARK 924 INTRA-LIGAND FREE ENERGY PREDICTED BY IDOCK:   -0.68 KCAL/MOL
REMARK 927      BINDING AFFINITY PREDICTED BY RF-SCORE:    0.00 PKD
ROOT
HETATM    1  C   UNL     1     -12.196  15.195  70.354  1.00  0.00    -0.344 C  
HETATM    2  N   UNL     1     -11.678  15.890  69.184  1.00  0.00    -0.380 NA 
HETATM    3  C   UNL     1     -10.479  16.654  69.499  1.00  0.00    -0.281 C  
ENDROOT
BRANCH   2   4
HETATM    4  C   UNL     1     -11.600  15.064  67.964  1.00  0.00    -0.338 C  
BRANCH   4   5
HETATM    5  C   UNL     1     -10.677  13.817  67.861  1.00  0.00    -0.247 C  
BRANCH   5   6
HETATM    6  O   UNL     1      -9.683  14.097  66.853  1.00  0.00    -0.252 OA 
BRANCH   6   7
HETATM    7  C   UNL     1      -8.423  14.530  67.182  1.00  0.00    -0.212 A  
HETATM    8  C   UNL     1      -7.795  13.713  68.135  1.00  0.00    -0.143 A  
HETATM    9  C   UNL     1      -6.562  14.053  68.711  1.00  0.00    -0.096 A  
HETATM   10  C   UNL     1      -5.906  15.208  68.307  1.00  0.00    -0.123 A  
HETATM   11  C   UNL     1      -6.516  16.035  67.371  1.00  0.00    -0.214 A  
HETATM   12  C   UNL     1      -7.803  15.745  66.843  1.00  0.00    -0.271 A  
BRANCH  12  13
HETATM   13  C   UNL     1      -8.478  16.891  66.127  1.00  0.00    -0.281 C  
BRANCH  13  14
HETATM   14  C   UNL     1      -7.812  18.243  66.346  1.00  0.00    -0.290 A  
HETATM   15  C   UNL     1      -6.724  18.617  65.545  1.00  0.00    -0.285 A  
HETATM   16  C   UNL     1      -6.195  19.908  65.622  1.00  0.00    -0.232 A  
HETATM   17  C   UNL     1      -6.738  20.837  66.507  1.00  0.00    -0.322 A  
HETATM   18  C   UNL     1      -7.782  20.463  67.348  1.00  0.00    -0.364 A  
HETATM   19  C   UNL     1      -8.317  19.176  67.267  1.00  0.00    -0.301 A  
ENDBRANCH  13  14
ENDBRANCH  12  13
ENDBRANCH   6   7
ENDBRANCH   5   6
ENDBRANCH   4   5
ENDBRANCH   2   4
TORSDOF 6
ENDMDL
MODEL      180
REMARK 921   NORMALIZED FREE ENERGY PREDICTED BY IDOCK:   -3.56 KCAL/MOL
REMARK 922        TOTAL FREE ENERGY PREDICTED BY IDOCK:   -5.64 KCAL/MOL
REMARK 923 INTER-LIGAND FREE ENERGY PREDICTED BY IDOCK:   -5.02 KCAL/MOL
REMARK 924 INTRA-LIGAND FREE ENERGY PREDICTED BY IDOCK:   -0.62 KCAL/MOL
REMARK 927      BINDING AFFINITY PREDICTED BY RF-SCORE:    0.00 PKD
ROOT
HETATM    1  C   UNL     1      -8.602  10.471  65.144  1.00  0.00    -0.180 C  
HETATM    2  N   UNL     1      -8.896  11.013  66.464  1.00  0.00    -0.163 NA 
HETATM    3  C   UNL     1      -7.754  11.726  67.019  1.00  0.00    -0.158 C  
ENDROOT
BRANCH   2   4
HETATM    4  C   UNL     1     -10.191  11.713  66.564  1.00  0.00    -0.214 C  
BRANCH   4   5
HETATM    5  C   UNL     1     -11.269  11.322  67.614  1.00  0.00    -0.292 C  
BRANCH   5   6
HETATM    6  O   UNL     1     -10.584  11.044  68.854  1.00  0.00    -0.188 OA 
BRANCH   6   7
HETATM    7  C   UNL     1     -11.222  10.451  69.914  1.00  0.00    -0.306 A  
HETATM    8  C   UNL     1     -12.322  11.192  70.374  1.00  0.00    -0.430 A  
HETATM    9  C   UNL     1     -13.028  10.837  71.534  1.00  0.00    -0.562 A  
HETATM   10  C   UNL     1     -12.668   9.694  72.238  1.00  0.00    -0.362 A  
HETATM   11  C   UNL     1     -11.575   8.953  71.803  1.00  0.00    -0.422 A  
HETATM   12  C   UNL     1     -10.802   9.350  70.679  1.00  0.00    -0.346 A  
BRANCH  12  13
HETATM   13  C   UNL     1      -9.463   8.664  70.545  1.00  0.00    -0.206 C  
BRANCH  13  14
HETATM   14  C   UNL     1      -9.523   7.147  70.670  1.00  0.00    -0.161 A  
HETATM   15  C   UNL     1     -10.386   6.418  69.840  1.00  0.00    -0.242 A  
HETATM   16  C   UNL     1     -10.348   5.021  69.828  1.00  0.00    -0.286 A  
HETATM   17  C   UNL     1      -9.458   4.336  70.652  1.00  0.00    -0.241 A  
HETATM   18  C   UNL     1      -8.635   5.046  71.521  1.00  0.00    -0.129 A  
HETATM   19  C   UNL     1      -8.665   6.441  71.530  1.00  0.00    -0.134 A  
ENDBRANCH  13  14
ENDBRANCH  12  13
ENDBRANCH   6   7
ENDBRANCH   5   6
ENDBRANCH   4   5
ENDBRANCH   2   4
TORSDOF 6
ENDMDL
MODEL      181
REMARK 921   NORMALIZED FREE ENERGY PREDICTED BY IDOCK:   -3.55 KCAL/MOL
REMARK 922        TOTAL FREE ENERGY PREDICTED BY IDOCK:   -5.63 KCAL/MOL
REMARK 923 INTER-LIGAND FREE ENERGY PREDICTED BY IDOCK:   -5.00 KCAL/MOL
REMARK 924 INTRA-LIGAND FREE ENERGY PREDICTED BY IDOCK:   -0.64 KCAL/MOL
REMARK 927      BINDING AFFINITY PREDICTED BY RF-SCORE:    0.00 PKD
ROOT
HETATM    1  C   UNL     1     -12.286   9.256  71.353  1.00  0.00    -0.343 C  
HETATM    2  N   UNL     1     -12.262   7.846  71.718  1.00  0.00    -0.298 NA 
HETATM    3  C   UNL     1     -13.564   7.220  71.532  1.00  0.00    -0.356 C  
ENDROOT
BRANCH   2   4
HETATM    4  C   UNL     1     -11.114   7.093  71.178  1.00  0.00    -0.254 C  
BRANCH   4   5
HETATM    5  C   UNL     1     -11.275   6.007  70.077  1.00  0.00    -0.355 C  
BRANCH   5   6
HETATM    6  O   UNL     1     -11.566   6.688  68.838  1.00  0.00    -0.128 OA 
BRANCH   6   7
HETATM    7  C   UNL     1     -10.700   6.653  67.774  1.00  0.00    -0.283 A  
HETATM    8  C   UNL     1     -10.639   5.392  67.160  1.00  0.00    -0.274 A  
HETATM    9  C   UNL     1      -9.716   5.101  66.145  1.00  0.00    -0.192 A  
HETATM   10  C   UNL     1      -8.856   6.092  65.689  1.00  0.00    -0.102 A  
HETATM   11  C   UNL     1      -8.895   7.345  66.291  1.00  0.00    -0.182 A  
HETATM   12  C   UNL     1      -9.767   7.626  67.377  1.00  0.00    -0.208 A  
BRANCH  12  13
HETATM   13  C   UNL     1      -9.451   8.887  68.147  1.00  0.00    -0.155 C  
BRANCH  13  14
HETATM   14  C   UNL     1     -10.164  10.129  67.630  1.00  0.00    -0.246 A  
HETATM   15  C   UNL     1     -10.255  10.351  66.249  1.00  0.00    -0.286 A  
HETATM   16  C   UNL     1     -11.034  11.398  65.748  1.00  0.00    -0.256 A  
HETATM   17  C   UNL     1     -11.719  12.242  66.619  1.00  0.00    -0.417 A  
HETATM   18  C   UNL     1     -11.593  12.067  67.993  1.00  0.00    -0.407 A  
HETATM   19  C   UNL     1     -10.822  11.018  68.497  1.00  0.00    -0.254 A  
ENDBRANCH  13  14
ENDBRANCH  12  13
ENDBRANCH   6   7
ENDBRANCH   5   6
ENDBRANCH   4   5
ENDBRANCH   2   4
TORSDOF 6
ENDMDL
MODEL      182
REMARK 921   NORMALIZED FREE ENERGY PREDICTED BY IDOCK:   -3.55 KCAL/MOL
REMARK 922        TOTAL FREE ENERGY PREDICTED BY IDOCK:   -5.63 KCAL/MOL
REMARK 923 INTER-LIGAND FREE ENERGY PREDICTED BY IDOCK:   -4.82 KCAL/MOL
REMARK 924 INTRA-LIGAND FREE ENERGY PREDICTED BY IDOCK:   -0.81 KCAL/MOL
REMARK 927      BINDING AFFINITY PREDICTED BY RF-SCORE:    0.00 PKD
ROOT
HETATM    1  C   UNL     1      -7.982   7.738  65.489  1.00  0.00    -0.121 C  
HETATM    2  N   UNL     1      -9.059   7.021  66.159  1.00  0.00    -0.147 NA 
HETATM    3  C   UNL     1      -8.547   5.978  67.036  1.00  0.00    -0.107 C  
ENDROOT
BRANCH   2   4
HETATM    4  C   UNL     1     -10.100   7.887  66.744  1.00  0.00    -0.281 C  
BRANCH   4   5
HETATM    5  C   UNL     1      -9.764   9.044  67.727  1.00  0.00    -0.156 C  
BRANCH   5   6
HETATM    6  O   UNL     1     -10.366  10.246  67.203  1.00  0.00    -0.212 OA 
BRANCH   6   7
HETATM    7  C   UNL     1      -9.699  11.445  67.195  1.00  0.00    -0.182 A  
HETATM    8  C   UNL     1      -8.304  11.294  67.255  1.00  0.00    -0.145 A  
HETATM    9  C   UNL     1      -7.442  12.391  67.397  1.00  0.00    -0.157 A  
HETATM   10  C   UNL     1      -7.963  13.679  67.439  1.00  0.00    -0.177 A  
HETATM   11  C   UNL     1      -9.342  13.847  67.390  1.00  0.00    -0.228 A  
HETATM   12  C   UNL     1     -10.229  12.739  67.331  1.00  0.00    -0.222 A  
BRANCH  12  13
HETATM   13  C   UNL     1     -11.674  13.054  67.641  1.00  0.00    -0.415 C  
BRANCH  13  14
HETATM   14  C   UNL     1     -12.016  13.018  69.124  1.00  0.00    -0.320 A  
HETATM   15  C   UNL     1     -12.330  14.210  69.792  1.00  0.00    -0.350 A  
HETATM   16  C   UNL     1     -12.795  14.184  71.110  1.00  0.00    -0.431 A  
HETATM   17  C   UNL     1     -12.941  12.971  71.779  1.00  0.00    -0.420 A  
HETATM   18  C   UNL     1     -12.580  11.785  71.147  1.00  0.00    -0.412 A  
HETATM   19  C   UNL     1     -12.123  11.807  69.829  1.00  0.00    -0.338 A  
ENDBRANCH  13  14
ENDBRANCH  12  13
ENDBRANCH   6   7
ENDBRANCH   5   6
ENDBRANCH   4   5
ENDBRANCH   2   4
TORSDOF 6
ENDMDL
MODEL      183
REMARK 921   NORMALIZED FREE ENERGY PREDICTED BY IDOCK:   -3.55 KCAL/MOL
REMARK 922        TOTAL FREE ENERGY PREDICTED BY IDOCK:   -5.63 KCAL/MOL
REMARK 923 INTER-LIGAND FREE ENERGY PREDICTED BY IDOCK:   -4.93 KCAL/MOL
REMARK 924 INTRA-LIGAND FREE ENERGY PREDICTED BY IDOCK:   -0.69 KCAL/MOL
REMARK 927      BINDING AFFINITY PREDICTED BY RF-SCORE:    0.00 PKD
ROOT
HETATM    1  C   UNL     1      -8.819   4.365  67.526  1.00  0.00    -0.108 C  
HETATM    2  N   UNL     1      -9.643   4.253  68.722  1.00  0.00    -0.162 NA 
HETATM    3  C   UNL     1      -9.274   3.095  69.523  1.00  0.00    -0.151 C  
ENDROOT
BRANCH   2   4
HETATM    4  C   UNL     1      -9.812   5.514  69.470  1.00  0.00    -0.189 C  
BRANCH   4   5
HETATM    5  C   UNL     1     -10.654   6.701  68.921  1.00  0.00    -0.230 C  
BRANCH   5   6
HETATM    6  O   UNL     1     -10.501   7.801  69.843  1.00  0.00    -0.222 OA 
BRANCH   6   7
HETATM    7  C   UNL     1      -9.619   8.825  69.605  1.00  0.00    -0.171 A  
HETATM    8  C   UNL     1      -8.382   8.639  70.241  1.00  0.00    -0.129 A  
HETATM    9  C   UNL     1      -7.389   9.630  70.243  1.00  0.00    -0.153 A  
HETATM   10  C   UNL     1      -7.602  10.823  69.563  1.00  0.00    -0.094 A  
HETATM   11  C   UNL     1      -8.825  11.029  68.935  1.00  0.00    -0.120 A  
HETATM   12  C   UNL     1      -9.869  10.067  68.997  1.00  0.00    -0.203 A  
BRANCH  12  13
HETATM   13  C   UNL     1     -11.232  10.570  68.585  1.00  0.00    -0.328 C  
BRANCH  13  14
HETATM   14  C   UNL     1     -11.960  11.360  69.665  1.00  0.00    -0.416 A  
HETATM   15  C   UNL     1     -12.559  10.680  70.734  1.00  0.00    -0.479 A  
HETATM   16  C   UNL     1     -13.098  11.387  71.813  1.00  0.00    -0.523 A  
HETATM   17  C   UNL     1     -13.054  12.779  71.831  1.00  0.00    -0.474 A  
HETATM   18  C   UNL     1     -12.512  13.468  70.751  1.00  0.00    -0.428 A  
HETATM   19  C   UNL     1     -11.967  12.765  69.676  1.00  0.00    -0.354 A  
ENDBRANCH  13  14
ENDBRANCH  12  13
ENDBRANCH   6   7
ENDBRANCH   5   6
ENDBRANCH   4   5
ENDBRANCH   2   4
TORSDOF 6
ENDMDL
MODEL      184
REMARK 921   NORMALIZED FREE ENERGY PREDICTED BY IDOCK:   -3.54 KCAL/MOL
REMARK 922        TOTAL FREE ENERGY PREDICTED BY IDOCK:   -5.62 KCAL/MOL
REMARK 923 INTER-LIGAND FREE ENERGY PREDICTED BY IDOCK:   -4.85 KCAL/MOL
REMARK 924 INTRA-LIGAND FREE ENERGY PREDICTED BY IDOCK:   -0.77 KCAL/MOL
REMARK 927      BINDING AFFINITY PREDICTED BY RF-SCORE:    0.00 PKD
ROOT
HETATM    1  C   UNL     1     -12.722  11.804  63.155  1.00  0.00    -0.040 C  
HETATM    2  N   UNL     1     -11.691  12.624  63.777  1.00  0.00    -0.448 NA 
HETATM    3  C   UNL     1     -10.359  12.242  63.331  1.00  0.00    -0.357 C  
ENDROOT
BRANCH   2   4
HETATM    4  C   UNL     1     -11.972  14.072  63.770  1.00  0.00    -0.193 C  
BRANCH   4   5
HETATM    5  C   UNL     1     -12.236  14.875  65.075  1.00  0.00    -0.169 C  
BRANCH   5   6
HETATM    6  O   UNL     1     -12.123  13.954  66.179  1.00  0.00    -0.398 OA 
BRANCH   6   7
HETATM    7  C   UNL     1     -10.929  13.743  66.824  1.00  0.00    -0.304 A  
HETATM    8  C   UNL     1      -9.945  14.681  66.474  1.00  0.00    -0.292 A  
HETATM    9  C   UNL     1      -8.617  14.566  66.910  1.00  0.00    -0.207 A  
HETATM   10  C   UNL     1      -8.254  13.520  67.750  1.00  0.00    -0.176 A  
HETATM   11  C   UNL     1      -9.213  12.575  68.099  1.00  0.00    -0.209 A  
HETATM   12  C   UNL     1     -10.540  12.635  67.596  1.00  0.00    -0.232 A  
BRANCH  12  13
HETATM   13  C   UNL     1     -11.351  11.372  67.769  1.00  0.00    -0.354 C  
BRANCH  13  14
HETATM   14  C   UNL     1     -10.582  10.092  67.471  1.00  0.00    -0.336 A  
HETATM   15  C   UNL     1     -10.023   9.899  66.200  1.00  0.00    -0.331 A  
HETATM   16  C   UNL     1      -9.187   8.807  65.950  1.00  0.00    -0.282 A  
HETATM   17  C   UNL     1      -8.910   7.890  66.961  1.00  0.00    -0.140 A  
HETATM   18  C   UNL     1      -9.502   8.038  68.211  1.00  0.00    -0.147 A  
HETATM   19  C   UNL     1     -10.332   9.131  68.466  1.00  0.00    -0.236 A  
ENDBRANCH  13  14
ENDBRANCH  12  13
ENDBRANCH   6   7
ENDBRANCH   5   6
ENDBRANCH   4   5
ENDBRANCH   2   4
TORSDOF 6
ENDMDL
MODEL      185
REMARK 921   NORMALIZED FREE ENERGY PREDICTED BY IDOCK:   -3.53 KCAL/MOL
REMARK 922        TOTAL FREE ENERGY PREDICTED BY IDOCK:   -5.61 KCAL/MOL
REMARK 923 INTER-LIGAND FREE ENERGY PREDICTED BY IDOCK:   -4.98 KCAL/MOL
REMARK 924 INTRA-LIGAND FREE ENERGY PREDICTED BY IDOCK:   -0.63 KCAL/MOL
REMARK 927      BINDING AFFINITY PREDICTED BY RF-SCORE:    0.00 PKD
ROOT
HETATM    1  C   UNL     1     -10.005  18.826  68.603  1.00  0.00    -0.394 C  
HETATM    2  N   UNL     1      -9.931  19.319  67.234  1.00  0.00    -0.343 NA 
HETATM    3  C   UNL     1      -8.956  20.392  67.101  1.00  0.00    -0.336 C  
ENDROOT
BRANCH   2   4
HETATM    4  C   UNL     1      -9.858  18.264  66.206  1.00  0.00    -0.321 C  
BRANCH   4   5
HETATM    5  C   UNL     1     -10.210  16.780  66.509  1.00  0.00    -0.316 C  
BRANCH   5   6
HETATM    6  O   UNL     1      -9.012  16.002  66.303  1.00  0.00    -0.288 OA 
BRANCH   6   7
HETATM    7  C   UNL     1      -8.442  15.273  67.316  1.00  0.00    -0.193 A  
HETATM    8  C   UNL     1      -7.687  16.062  68.199  1.00  0.00    -0.136 A  
HETATM    9  C   UNL     1      -6.908  15.499  69.221  1.00  0.00    -0.160 A  
HETATM   10  C   UNL     1      -6.905  14.122  69.408  1.00  0.00    -0.104 A  
HETATM   11  C   UNL     1      -7.639  13.324  68.539  1.00  0.00    -0.128 A  
HETATM   12  C   UNL     1      -8.364  13.876  67.449  1.00  0.00    -0.208 A  
BRANCH  12  13
HETATM   13  C   UNL     1      -8.807  12.881  66.401  1.00  0.00     0.061 C  
BRANCH  13  14
HETATM   14  C   UNL     1     -10.216  13.117  65.874  1.00  0.00    -0.294 A  
HETATM   15  C   UNL     1     -10.464  13.032  64.497  1.00  0.00    -0.413 A  
HETATM   16  C   UNL     1     -11.771  13.092  64.005  1.00  0.00    -0.497 A  
HETATM   17  C   UNL     1     -12.843  13.248  64.880  1.00  0.00    -0.321 A  
HETATM   18  C   UNL     1     -12.608  13.390  66.244  1.00  0.00    -0.231 A  
HETATM   19  C   UNL     1     -11.305  13.323  66.739  1.00  0.00    -0.359 A  
ENDBRANCH  13  14
ENDBRANCH  12  13
ENDBRANCH   6   7
ENDBRANCH   5   6
ENDBRANCH   4   5
ENDBRANCH   2   4
TORSDOF 6
ENDMDL
MODEL      186
REMARK 921   NORMALIZED FREE ENERGY PREDICTED BY IDOCK:   -3.53 KCAL/MOL
REMARK 922        TOTAL FREE ENERGY PREDICTED BY IDOCK:   -5.61 KCAL/MOL
REMARK 923 INTER-LIGAND FREE ENERGY PREDICTED BY IDOCK:   -4.82 KCAL/MOL
REMARK 924 INTRA-LIGAND FREE ENERGY PREDICTED BY IDOCK:   -0.79 KCAL/MOL
REMARK 927      BINDING AFFINITY PREDICTED BY RF-SCORE:    0.00 PKD
ROOT
HETATM    1  C   UNL     1      -9.617   4.146  67.876  1.00  0.00    -0.148 C  
HETATM    2  N   UNL     1      -9.737   5.130  68.943  1.00  0.00    -0.144 NA 
HETATM    3  C   UNL     1      -8.781   4.883  70.013  1.00  0.00    -0.094 C  
ENDROOT
BRANCH   2   4
HETATM    4  C   UNL     1      -9.823   6.528  68.480  1.00  0.00    -0.138 C  
BRANCH   4   5
HETATM    5  C   UNL     1     -10.445   6.914  67.108  1.00  0.00    -0.303 C  
BRANCH   5   6
HETATM    6  O   UNL     1     -11.114   8.181  67.277  1.00  0.00    -0.015 OA 
BRANCH   6   7
HETATM    7  C   UNL     1     -10.493   9.370  66.991  1.00  0.00    -0.231 A  
HETATM    8  C   UNL     1      -9.410   9.223  66.110  1.00  0.00    -0.270 A  
HETATM    9  C   UNL     1      -8.554  10.289  65.797  1.00  0.00    -0.163 A  
HETATM   10  C   UNL     1      -8.794  11.548  66.331  1.00  0.00    -0.193 A  
HETATM   11  C   UNL     1      -9.857  11.712  67.213  1.00  0.00    -0.203 A  
HETATM   12  C   UNL     1     -10.679  10.621  67.604  1.00  0.00    -0.315 A  
BRANCH  12  13
HETATM   13  C   UNL     1     -11.546  10.871  68.816  1.00  0.00    -0.378 C  
BRANCH  13  14
HETATM   14  C   UNL     1     -11.094  10.132  70.069  1.00  0.00    -0.368 A  
HETATM   15  C   UNL     1     -12.053   9.644  70.968  1.00  0.00    -0.421 A  
HETATM   16  C   UNL     1     -11.672   8.834  72.042  1.00  0.00    -0.442 A  
HETATM   17  C   UNL     1     -10.331   8.512  72.236  1.00  0.00    -0.402 A  
HETATM   18  C   UNL     1      -9.363   9.034  71.383  1.00  0.00    -0.310 A  
HETATM   19  C   UNL     1      -9.741   9.838  70.307  1.00  0.00    -0.279 A  
ENDBRANCH  13  14
ENDBRANCH  12  13
ENDBRANCH   6   7
ENDBRANCH   5   6
ENDBRANCH   4   5
ENDBRANCH   2   4
TORSDOF 6
ENDMDL
MODEL      187
REMARK 921   NORMALIZED FREE ENERGY PREDICTED BY IDOCK:   -3.53 KCAL/MOL
REMARK 922        TOTAL FREE ENERGY PREDICTED BY IDOCK:   -5.60 KCAL/MOL
REMARK 923 INTER-LIGAND FREE ENERGY PREDICTED BY IDOCK:   -4.92 KCAL/MOL
REMARK 924 INTRA-LIGAND FREE ENERGY PREDICTED BY IDOCK:   -0.68 KCAL/MOL
REMARK 927      BINDING AFFINITY PREDICTED BY RF-SCORE:    0.00 PKD
ROOT
HETATM    1  C   UNL     1     -10.106   3.862  63.882  1.00  0.00    -0.188 C  
HETATM    2  N   UNL     1      -9.231   3.836  65.046  1.00  0.00    -0.140 NA 
HETATM    3  C   UNL     1      -7.991   4.561  64.804  1.00  0.00    -0.095 C  
ENDROOT
BRANCH   2   4
HETATM    4  C   UNL     1      -9.902   4.137  66.325  1.00  0.00    -0.192 C  
BRANCH   4   5
HETATM    5  C   UNL     1      -9.214   4.959  67.452  1.00  0.00    -0.125 C  
BRANCH   5   6
HETATM    6  O   UNL     1     -10.241   5.357  68.384  1.00  0.00    -0.173 OA 
BRANCH   6   7
HETATM    7  C   UNL     1     -10.014   5.394  69.737  1.00  0.00    -0.224 A  
HETATM    8  C   UNL     1      -9.876   4.117  70.303  1.00  0.00    -0.239 A  
HETATM    9  C   UNL     1      -9.777   3.923  71.689  1.00  0.00    -0.240 A  
HETATM   10  C   UNL     1      -9.771   5.020  72.541  1.00  0.00    -0.190 A  
HETATM   11  C   UNL     1      -9.915   6.293  72.000  1.00  0.00    -0.187 A  
HETATM   12  C   UNL     1     -10.101   6.495  70.606  1.00  0.00    -0.212 A  
BRANCH  12  13
HETATM   13  C   UNL     1     -10.594   7.869  70.216  1.00  0.00    -0.231 C  
BRANCH  13  14
HETATM   14  C   UNL     1     -11.910   8.269  70.870  1.00  0.00    -0.232 A  
HETATM   15  C   UNL     1     -12.949   7.332  70.966  1.00  0.00    -0.233 A  
HETATM   16  C   UNL     1     -14.105   7.626  71.695  1.00  0.00    -0.547 A  
HETATM   17  C   UNL     1     -14.242   8.860  72.325  1.00  0.00    -0.474 A  
HETATM   18  C   UNL     1     -13.243   9.820  72.192  1.00  0.00    -0.530 A  
HETATM   19  C   UNL     1     -12.085   9.527  71.471  1.00  0.00    -0.468 A  
ENDBRANCH  13  14
ENDBRANCH  12  13
ENDBRANCH   6   7
ENDBRANCH   5   6
ENDBRANCH   4   5
ENDBRANCH   2   4
TORSDOF 6
ENDMDL
MODEL      188
REMARK 921   NORMALIZED FREE ENERGY PREDICTED BY IDOCK:   -3.50 KCAL/MOL
REMARK 922        TOTAL FREE ENERGY PREDICTED BY IDOCK:   -5.57 KCAL/MOL
REMARK 923 INTER-LIGAND FREE ENERGY PREDICTED BY IDOCK:   -5.83 KCAL/MOL
REMARK 924 INTRA-LIGAND FREE ENERGY PREDICTED BY IDOCK:    0.27 KCAL/MOL
REMARK 927      BINDING AFFINITY PREDICTED BY RF-SCORE:    0.00 PKD
ROOT
HETATM    1  C   UNL     1      -9.903  11.084  63.439  1.00  0.00    -0.363 C  
HETATM    2  N   UNL     1     -10.807  12.219  63.315  1.00  0.00    -0.390 NA 
HETATM    3  C   UNL     1     -12.195  11.793  63.206  1.00  0.00    -0.285 C  
ENDROOT
BRANCH   2   4
HETATM    4  C   UNL     1     -10.553  13.312  64.274  1.00  0.00    -0.384 C  
BRANCH   4   5
HETATM    5  C   UNL     1     -10.407  13.061  65.802  1.00  0.00    -0.286 C  
BRANCH   5   6
HETATM    6  O   UNL     1     -11.489  12.196  66.203  1.00  0.00    -0.346 OA 
BRANCH   6   7
HETATM    7  C   UNL     1     -11.554  11.658  67.464  1.00  0.00    -0.272 A  
HETATM    8  C   UNL     1     -11.944  12.591  68.438  1.00  0.00    -0.271 A  
HETATM    9  C   UNL     1     -11.939  12.286  69.807  1.00  0.00    -0.365 A  
HETATM   10  C   UNL     1     -11.580  11.012  70.229  1.00  0.00    -0.414 A  
HETATM   11  C   UNL     1     -11.182  10.076  69.280  1.00  0.00    -0.213 A  
HETATM   12  C   UNL     1     -11.102  10.400  67.899  1.00  0.00    -0.363 A  
BRANCH  12  13
HETATM   13  C   UNL     1     -10.327   9.418  67.052  1.00  0.00    -0.322 C  
BRANCH  13  14
HETATM   14  C   UNL     1     -10.177   8.037  67.676  1.00  0.00    -0.291 A  
HETATM   15  C   UNL     1      -9.562   7.907  68.929  1.00  0.00    -0.155 A  
HETATM   16  C   UNL     1      -9.550   6.675  69.590  1.00  0.00    -0.156 A  
HETATM   17  C   UNL     1     -10.141   5.558  69.002  1.00  0.00    -0.275 A  
HETATM   18  C   UNL     1     -10.706   5.661  67.735  1.00  0.00    -0.250 A  
HETATM   19  C   UNL     1     -10.726   6.891  67.077  1.00  0.00    -0.432 A  
ENDBRANCH  13  14
ENDBRANCH  12  13
ENDBRANCH   6   7
ENDBRANCH   5   6
ENDBRANCH   4   5
ENDBRANCH   2   4
TORSDOF 6
ENDMDL
MODEL      189
REMARK 921   NORMALIZED FREE ENERGY PREDICTED BY IDOCK:   -3.50 KCAL/MOL
REMARK 922        TOTAL FREE ENERGY PREDICTED BY IDOCK:   -5.56 KCAL/MOL
REMARK 923 INTER-LIGAND FREE ENERGY PREDICTED BY IDOCK:   -4.97 KCAL/MOL
REMARK 924 INTRA-LIGAND FREE ENERGY PREDICTED BY IDOCK:   -0.59 KCAL/MOL
REMARK 927      BINDING AFFINITY PREDICTED BY RF-SCORE:    0.00 PKD
ROOT
HETATM    1  C   UNL     1     -11.242   5.640  72.583  1.00  0.00    -0.300 C  
HETATM    2  N   UNL     1     -11.958   6.820  72.117  1.00  0.00    -0.294 NA 
HETATM    3  C   UNL     1     -11.430   8.039  72.713  1.00  0.00    -0.356 C  
ENDROOT
BRANCH   2   4
HETATM    4  C   UNL     1     -12.174   6.869  70.658  1.00  0.00    -0.258 C  
BRANCH   4   5
HETATM    5  C   UNL     1     -11.214   6.177  69.651  1.00  0.00    -0.418 C  
BRANCH   5   6
HETATM    6  O   UNL     1     -10.864   7.152  68.647  1.00  0.00    -0.187 OA 
BRANCH   6   7
HETATM    7  C   UNL     1      -9.872   8.078  68.853  1.00  0.00    -0.175 A  
HETATM    8  C   UNL     1      -9.133   7.835  70.022  1.00  0.00    -0.150 A  
HETATM    9  C   UNL     1      -8.167   8.736  70.493  1.00  0.00    -0.140 A  
HETATM   10  C   UNL     1      -7.887   9.889  69.770  1.00  0.00    -0.169 A  
HETATM   11  C   UNL     1      -8.614  10.151  68.614  1.00  0.00    -0.123 A  
HETATM   12  C   UNL     1      -9.654   9.288  68.174  1.00  0.00    -0.159 A  
BRANCH  12  13
HETATM   13  C   UNL     1     -10.576   9.873  67.130  1.00  0.00    -0.295 C  
BRANCH  13  14
HETATM   14  C   UNL     1     -11.034  11.295  67.428  1.00  0.00    -0.337 A  
HETATM   15  C   UNL     1     -11.723  11.565  68.618  1.00  0.00    -0.389 A  
HETATM   16  C   UNL     1     -12.018  12.882  68.985  1.00  0.00    -0.297 A  
HETATM   17  C   UNL     1     -11.640  13.940  68.162  1.00  0.00    -0.370 A  
HETATM   18  C   UNL     1     -11.005  13.683  66.951  1.00  0.00    -0.296 A  
HETATM   19  C   UNL     1     -10.703  12.370  66.586  1.00  0.00    -0.263 A  
ENDBRANCH  13  14
ENDBRANCH  12  13
ENDBRANCH   6   7
ENDBRANCH   5   6
ENDBRANCH   4   5
ENDBRANCH   2   4
TORSDOF 6
ENDMDL
MODEL      190
REMARK 921   NORMALIZED FREE ENERGY PREDICTED BY IDOCK:   -3.49 KCAL/MOL
REMARK 922        TOTAL FREE ENERGY PREDICTED BY IDOCK:   -5.55 KCAL/MOL
REMARK 923 INTER-LIGAND FREE ENERGY PREDICTED BY IDOCK:   -4.76 KCAL/MOL
REMARK 924 INTRA-LIGAND FREE ENERGY PREDICTED BY IDOCK:   -0.79 KCAL/MOL
REMARK 927      BINDING AFFINITY PREDICTED BY RF-SCORE:    0.00 PKD
ROOT
HETATM    1  C   UNL     1     -10.773  15.263  65.383  1.00  0.00    -0.391 C  
HETATM    2  N   UNL     1     -11.919  14.519  65.885  1.00  0.00    -0.345 NA 
HETATM    3  C   UNL     1     -12.500  13.666  64.858  1.00  0.00    -0.384 C  
ENDROOT
BRANCH   2   4
HETATM    4  C   UNL     1     -11.706  13.877  67.197  1.00  0.00    -0.388 C  
BRANCH   4   5
HETATM    5  C   UNL     1     -10.313  13.834  67.885  1.00  0.00    -0.244 C  
BRANCH   5   6
HETATM    6  O   UNL     1      -9.585  12.724  67.319  1.00  0.00    -0.199 OA 
BRANCH   6   7
HETATM    7  C   UNL     1      -9.856  11.426  67.675  1.00  0.00    -0.176 A  
HETATM    8  C   UNL     1      -9.191  11.030  68.846  1.00  0.00    -0.139 A  
HETATM    9  C   UNL     1      -9.219   9.705  69.307  1.00  0.00    -0.186 A  
HETATM   10  C   UNL     1      -9.958   8.751  68.620  1.00  0.00    -0.197 A  
HETATM   11  C   UNL     1     -10.616   9.122  67.453  1.00  0.00    -0.315 A  
HETATM   12  C   UNL     1     -10.526  10.440  66.931  1.00  0.00    -0.300 A  
BRANCH  12  13
HETATM   13  C   UNL     1     -10.985  10.598  65.500  1.00  0.00     0.128 C  
BRANCH  13  14
HETATM   14  C   UNL     1      -9.859  10.568  64.476  1.00  0.00    -0.401 A  
HETATM   15  C   UNL     1      -8.816   9.642  64.620  1.00  0.00    -0.253 A  
HETATM   16  C   UNL     1      -7.855   9.492  63.616  1.00  0.00    -0.132 A  
HETATM   17  C   UNL     1      -7.918  10.271  62.463  1.00  0.00    -0.166 A  
HETATM   18  C   UNL     1      -8.915  11.233  62.331  1.00  0.00    -0.245 A  
HETATM   19  C   UNL     1      -9.880  11.380  63.329  1.00  0.00    -0.428 A  
ENDBRANCH  13  14
ENDBRANCH  12  13
ENDBRANCH   6   7
ENDBRANCH   5   6
ENDBRANCH   4   5
ENDBRANCH   2   4
TORSDOF 6
ENDMDL
MODEL      191
REMARK 921   NORMALIZED FREE ENERGY PREDICTED BY IDOCK:   -3.49 KCAL/MOL
REMARK 922        TOTAL FREE ENERGY PREDICTED BY IDOCK:   -5.55 KCAL/MOL
REMARK 923 INTER-LIGAND FREE ENERGY PREDICTED BY IDOCK:   -4.75 KCAL/MOL
REMARK 924 INTRA-LIGAND FREE ENERGY PREDICTED BY IDOCK:   -0.80 KCAL/MOL
REMARK 927      BINDING AFFINITY PREDICTED BY RF-SCORE:    0.00 PKD
ROOT
HETATM    1  C   UNL     1      -8.321  10.508  65.762  1.00  0.00    -0.166 C  
HETATM    2  N   UNL     1      -9.494  10.320  66.605  1.00  0.00    -0.161 NA 
HETATM    3  C   UNL     1     -10.507  11.335  66.352  1.00  0.00    -0.257 C  
ENDROOT
BRANCH   2   4
HETATM    4  C   UNL     1      -9.989   8.931  66.664  1.00  0.00    -0.276 C  
BRANCH   4   5
HETATM    5  C   UNL     1      -9.115   7.758  67.191  1.00  0.00    -0.134 C  
BRANCH   5   6
HETATM    6  O   UNL     1      -9.872   7.081  68.215  1.00  0.00    -0.140 OA 
BRANCH   6   7
HETATM    7  C   UNL     1      -9.396   6.945  69.495  1.00  0.00    -0.147 A  
HETATM    8  C   UNL     1      -8.135   6.329  69.547  1.00  0.00    -0.117 A  
HETATM    9  C   UNL     1      -7.531   5.970  70.761  1.00  0.00    -0.091 A  
HETATM   10  C   UNL     1      -8.165   6.262  71.961  1.00  0.00    -0.110 A  
HETATM   11  C   UNL     1      -9.419   6.864  71.930  1.00  0.00    -0.146 A  
HETATM   12  C   UNL     1     -10.077   7.155  70.706  1.00  0.00    -0.197 A  
BRANCH  12  13
HETATM   13  C   UNL     1     -11.551   7.468  70.826  1.00  0.00    -0.300 C  
BRANCH  13  14
HETATM   14  C   UNL     1     -11.863   8.949  70.992  1.00  0.00    -0.324 A  
HETATM   15  C   UNL     1     -11.183   9.892  70.208  1.00  0.00    -0.364 A  
HETATM   16  C   UNL     1     -11.559  11.239  70.232  1.00  0.00    -0.366 A  
HETATM   17  C   UNL     1     -12.608  11.660  71.046  1.00  0.00    -0.431 A  
HETATM   18  C   UNL     1     -13.254  10.744  71.871  1.00  0.00    -0.524 A  
HETATM   19  C   UNL     1     -12.887   9.398  71.844  1.00  0.00    -0.497 A  
ENDBRANCH  13  14
ENDBRANCH  12  13
ENDBRANCH   6   7
ENDBRANCH   5   6
ENDBRANCH   4   5
ENDBRANCH   2   4
TORSDOF 6
ENDMDL
MODEL      192
REMARK 921   NORMALIZED FREE ENERGY PREDICTED BY IDOCK:   -3.48 KCAL/MOL
REMARK 922        TOTAL FREE ENERGY PREDICTED BY IDOCK:   -5.53 KCAL/MOL
REMARK 923 INTER-LIGAND FREE ENERGY PREDICTED BY IDOCK:   -4.91 KCAL/MOL
REMARK 924 INTRA-LIGAND FREE ENERGY PREDICTED BY IDOCK:   -0.62 KCAL/MOL
REMARK 927      BINDING AFFINITY PREDICTED BY RF-SCORE:    0.00 PKD
ROOT
HETATM    1  C   UNL     1     -10.298  12.274  65.317  1.00  0.00    -0.281 C  
HETATM    2  N   UNL     1     -10.855  13.284  64.428  1.00  0.00    -0.388 NA 
HETATM    3  C   UNL     1     -11.640  12.685  63.357  1.00  0.00    -0.469 C  
ENDROOT
BRANCH   2   4
HETATM    4  C   UNL     1     -11.489  14.424  65.116  1.00  0.00    -0.362 C  
BRANCH   4   5
HETATM    5  C   UNL     1     -10.731  15.753  65.397  1.00  0.00    -0.404 C  
BRANCH   5   6
HETATM    6  O   UNL     1      -9.553  15.424  66.163  1.00  0.00    -0.280 OA 
BRANCH   6   7
HETATM    7  C   UNL     1      -8.854  16.379  66.859  1.00  0.00    -0.205 A  
HETATM    8  C   UNL     1      -7.463  16.233  66.740  1.00  0.00    -0.266 A  
HETATM    9  C   UNL     1      -6.565  17.016  67.481  1.00  0.00    -0.169 A  
HETATM   10  C   UNL     1      -7.049  18.002  68.332  1.00  0.00    -0.247 A  
HETATM   11  C   UNL     1      -8.424  18.155  68.470  1.00  0.00    -0.312 A  
HETATM   12  C   UNL     1      -9.342  17.312  67.789  1.00  0.00    -0.250 A  
BRANCH  12  13
HETATM   13  C   UNL     1     -10.762  17.359  68.304  1.00  0.00    -0.327 C  
BRANCH  13  14
HETATM   14  C   UNL     1     -11.164  16.151  69.139  1.00  0.00    -0.336 A  
HETATM   15  C   UNL     1     -10.466  15.862  70.319  1.00  0.00    -0.186 A  
HETATM   16  C   UNL     1     -10.911  14.853  71.179  1.00  0.00    -0.003 A  
HETATM   17  C   UNL     1     -12.050  14.116  70.864  1.00  0.00    -0.416 A  
HETATM   18  C   UNL     1     -12.721  14.355  69.669  1.00  0.00     0.052 A  
HETATM   19  C   UNL     1     -12.283  15.366  68.812  1.00  0.00    -0.061 A  
ENDBRANCH  13  14
ENDBRANCH  12  13
ENDBRANCH   6   7
ENDBRANCH   5   6
ENDBRANCH   4   5
ENDBRANCH   2   4
TORSDOF 6
ENDMDL
MODEL      193
REMARK 921   NORMALIZED FREE ENERGY PREDICTED BY IDOCK:   -3.47 KCAL/MOL
REMARK 922        TOTAL FREE ENERGY PREDICTED BY IDOCK:   -5.53 KCAL/MOL
REMARK 923 INTER-LIGAND FREE ENERGY PREDICTED BY IDOCK:   -4.83 KCAL/MOL
REMARK 924 INTRA-LIGAND FREE ENERGY PREDICTED BY IDOCK:   -0.69 KCAL/MOL
REMARK 927      BINDING AFFINITY PREDICTED BY RF-SCORE:    0.00 PKD
ROOT
HETATM    1  C   UNL     1     -11.442  11.752  68.909  1.00  0.00    -0.297 C  
HETATM    2  N   UNL     1     -12.073  12.941  68.354  1.00  0.00    -0.227 NA 
HETATM    3  C   UNL     1     -11.791  14.124  69.154  1.00  0.00    -0.341 C  
ENDROOT
BRANCH   2   4
HETATM    4  C   UNL     1     -11.898  13.104  66.898  1.00  0.00    -0.386 C  
BRANCH   4   5
HETATM    5  C   UNL     1     -11.531  11.915  65.965  1.00  0.00    -0.281 C  
BRANCH   5   6
HETATM    6  O   UNL     1     -10.168  12.109  65.535  1.00  0.00    -0.252 OA 
BRANCH   6   7
HETATM    7  C   UNL     1      -9.470  11.124  64.881  1.00  0.00    -0.219 A  
HETATM    8  C   UNL     1      -9.792  11.039  63.517  1.00  0.00    -0.403 A  
HETATM    9  C   UNL     1      -9.299  10.013  62.698  1.00  0.00    -0.296 A  
HETATM   10  C   UNL     1      -8.428   9.068  63.224  1.00  0.00    -0.180 A  
HETATM   11  C   UNL     1      -8.103   9.130  64.574  1.00  0.00    -0.139 A  
HETATM   12  C   UNL     1      -8.664  10.114  65.432  1.00  0.00    -0.176 A  
BRANCH  12  13
HETATM   13  C   UNL     1      -8.505   9.843  66.911  1.00  0.00    -0.125 C  
BRANCH  13  14
HETATM   14  C   UNL     1      -9.206   8.580  67.393  1.00  0.00    -0.163 A  
HETATM   15  C   UNL     1      -8.839   8.010  68.620  1.00  0.00    -0.134 A  
HETATM   16  C   UNL     1      -9.569   6.944  69.154  1.00  0.00    -0.144 A  
HETATM   17  C   UNL     1     -10.663   6.428  68.464  1.00  0.00    -0.347 A  
HETATM   18  C   UNL     1     -11.004   6.947  67.219  1.00  0.00    -0.406 A  
HETATM   19  C   UNL     1     -10.282   8.016  66.687  1.00  0.00    -0.315 A  
ENDBRANCH  13  14
ENDBRANCH  12  13
ENDBRANCH   6   7
ENDBRANCH   5   6
ENDBRANCH   4   5
ENDBRANCH   2   4
TORSDOF 6
ENDMDL
MODEL      194
REMARK 921   NORMALIZED FREE ENERGY PREDICTED BY IDOCK:   -3.47 KCAL/MOL
REMARK 922        TOTAL FREE ENERGY PREDICTED BY IDOCK:   -5.52 KCAL/MOL
REMARK 923 INTER-LIGAND FREE ENERGY PREDICTED BY IDOCK:   -5.04 KCAL/MOL
REMARK 924 INTRA-LIGAND FREE ENERGY PREDICTED BY IDOCK:   -0.48 KCAL/MOL
REMARK 927      BINDING AFFINITY PREDICTED BY RF-SCORE:    0.00 PKD
ROOT
HETATM    1  C   UNL     1     -10.444   4.114  64.202  1.00  0.00    -0.095 C  
HETATM    2  N   UNL     1      -9.765   4.281  65.479  1.00  0.00    -0.188 NA 
HETATM    3  C   UNL     1      -8.343   4.540  65.303  1.00  0.00    -0.121 C  
ENDROOT
BRANCH   2   4
HETATM    4  C   UNL     1     -10.458   5.171  66.430  1.00  0.00    -0.303 C  
BRANCH   4   5
HETATM    5  C   UNL     1     -10.073   6.668  66.600  1.00  0.00    -0.135 C  
BRANCH   5   6
HETATM    6  O   UNL     1     -10.718   7.147  67.799  1.00  0.00    -0.223 OA 
BRANCH   6   7
HETATM    7  C   UNL     1     -10.014   7.770  68.798  1.00  0.00    -0.176 A  
HETATM    8  C   UNL     1      -9.247   6.879  69.564  1.00  0.00    -0.148 A  
HETATM    9  C   UNL     1      -8.562   7.287  70.719  1.00  0.00    -0.144 A  
HETATM   10  C   UNL     1      -8.598   8.620  71.108  1.00  0.00    -0.224 A  
HETATM   11  C   UNL     1      -9.361   9.516  70.368  1.00  0.00    -0.311 A  
HETATM   12  C   UNL     1     -10.126   9.097  69.246  1.00  0.00    -0.196 A  
BRANCH  12  13
HETATM   13  C   UNL     1     -11.163  10.087  68.770  1.00  0.00    -0.173 C  
BRANCH  13  14
HETATM   14  C   UNL     1     -11.760  10.946  69.876  1.00  0.00    -0.418 A  
HETATM   15  C   UNL     1     -11.769  12.342  69.741  1.00  0.00    -0.368 A  
HETATM   16  C   UNL     1     -12.446  13.141  70.667  1.00  0.00    -0.363 A  
HETATM   17  C   UNL     1     -13.110  12.557  71.744  1.00  0.00    -0.450 A  
HETATM   18  C   UNL     1     -13.063  11.178  71.921  1.00  0.00    -0.513 A  
HETATM   19  C   UNL     1     -12.395  10.377  70.994  1.00  0.00    -0.490 A  
ENDBRANCH  13  14
ENDBRANCH  12  13
ENDBRANCH   6   7
ENDBRANCH   5   6
ENDBRANCH   4   5
ENDBRANCH   2   4
TORSDOF 6
ENDMDL
MODEL      195
REMARK 921   NORMALIZED FREE ENERGY PREDICTED BY IDOCK:   -3.47 KCAL/MOL
REMARK 922        TOTAL FREE ENERGY PREDICTED BY IDOCK:   -5.52 KCAL/MOL
REMARK 923 INTER-LIGAND FREE ENERGY PREDICTED BY IDOCK:   -4.93 KCAL/MOL
REMARK 924 INTRA-LIGAND FREE ENERGY PREDICTED BY IDOCK:   -0.59 KCAL/MOL
REMARK 927      BINDING AFFINITY PREDICTED BY RF-SCORE:    0.00 PKD
ROOT
HETATM    1  C   UNL     1      -6.131  14.778  70.046  1.00  0.00    -0.150 C  
HETATM    2  N   UNL     1      -6.783  15.065  68.776  1.00  0.00    -0.095 NA 
HETATM    3  C   UNL     1      -6.905  13.872  67.951  1.00  0.00    -0.160 C  
ENDROOT
BRANCH   2   4
HETATM    4  C   UNL     1      -8.002  15.888  68.885  1.00  0.00    -0.204 C  
BRANCH   4   5
HETATM    5  C   UNL     1      -8.858  16.276  67.646  1.00  0.00    -0.190 C  
BRANCH   5   6
HETATM    6  O   UNL     1     -10.085  15.520  67.715  1.00  0.00    -0.229 OA 
BRANCH   6   7
HETATM    7  C   UNL     1     -10.723  15.074  66.584  1.00  0.00    -0.312 A  
HETATM    8  C   UNL     1     -10.959  16.096  65.650  1.00  0.00    -0.144 A  
HETATM    9  C   UNL     1     -11.719  15.884  64.491  1.00  0.00    -0.161 A  
HETATM   10  C   UNL     1     -12.227  14.620  64.219  1.00  0.00    -0.432 A  
HETATM   11  C   UNL     1     -12.012  13.598  65.136  1.00  0.00    -0.391 A  
HETATM   12  C   UNL     1     -11.316  13.821  66.354  1.00  0.00    -0.327 A  
BRANCH  12  13
HETATM   13  C   UNL     1     -11.469  12.733  67.391  1.00  0.00    -0.396 C  
BRANCH  13  14
HETATM   14  C   UNL     1     -10.744  11.438  67.050  1.00  0.00    -0.304 A  
HETATM   15  C   UNL     1     -11.131  10.243  67.672  1.00  0.00    -0.319 A  
HETATM   16  C   UNL     1     -10.587   9.021  67.265  1.00  0.00    -0.301 A  
HETATM   17  C   UNL     1      -9.642   8.981  66.242  1.00  0.00    -0.327 A  
HETATM   18  C   UNL     1      -9.208  10.165  65.654  1.00  0.00    -0.232 A  
HETATM   19  C   UNL     1      -9.755  11.385  66.053  1.00  0.00    -0.253 A  
ENDBRANCH  13  14
ENDBRANCH  12  13
ENDBRANCH   6   7
ENDBRANCH   5   6
ENDBRANCH   4   5
ENDBRANCH   2   4
TORSDOF 6
ENDMDL
MODEL      196
REMARK 921   NORMALIZED FREE ENERGY PREDICTED BY IDOCK:   -3.45 KCAL/MOL
REMARK 922        TOTAL FREE ENERGY PREDICTED BY IDOCK:   -5.50 KCAL/MOL
REMARK 923 INTER-LIGAND FREE ENERGY PREDICTED BY IDOCK:   -4.64 KCAL/MOL
REMARK 924 INTRA-LIGAND FREE ENERGY PREDICTED BY IDOCK:   -0.85 KCAL/MOL
REMARK 927      BINDING AFFINITY PREDICTED BY RF-SCORE:    0.00 PKD
ROOT
HETATM    1  C   UNL     1      -8.959   6.256  66.409  1.00  0.00    -0.152 C  
HETATM    2  N   UNL     1      -8.546   7.563  66.902  1.00  0.00    -0.121 NA 
HETATM    3  C   UNL     1      -8.531   8.559  65.840  1.00  0.00    -0.152 C  
ENDROOT
BRANCH   2   4
HETATM    4  C   UNL     1      -9.205   7.982  68.154  1.00  0.00    -0.133 C  
BRANCH   4   5
HETATM    5  C   UNL     1     -10.239   9.143  68.202  1.00  0.00    -0.207 C  
BRANCH   5   6
HETATM    6  O   UNL     1      -9.698  10.169  69.060  1.00  0.00    -0.184 OA 
BRANCH   6   7
HETATM    7  C   UNL     1      -8.888  11.164  68.573  1.00  0.00    -0.161 A  
HETATM    8  C   UNL     1      -7.562  11.058  69.023  1.00  0.00    -0.134 A  
HETATM    9  C   UNL     1      -6.604  12.049  68.758  1.00  0.00    -0.082 A  
HETATM   10  C   UNL     1      -6.948  13.155  67.992  1.00  0.00    -0.116 A  
HETATM   11  C   UNL     1      -8.259  13.282  67.545  1.00  0.00    -0.184 A  
HETATM   12  C   UNL     1      -9.258  12.328  67.878  1.00  0.00    -0.190 A  
BRANCH  12  13
HETATM   13  C   UNL     1     -10.680  12.774  67.633  1.00  0.00    -0.236 C  
BRANCH  13  14
HETATM   14  C   UNL     1     -11.205  12.446  66.241  1.00  0.00    -0.361 A  
HETATM   15  C   UNL     1     -12.351  13.098  65.762  1.00  0.00    -0.496 A  
HETATM   16  C   UNL     1     -12.762  12.928  64.437  1.00  0.00    -0.322 A  
HETATM   17  C   UNL     1     -12.043  12.099  63.580  1.00  0.00    -0.649 A  
HETATM   18  C   UNL     1     -10.936  11.403  64.057  1.00  0.00    -0.428 A  
HETATM   19  C   UNL     1     -10.519  11.576  65.377  1.00  0.00    -0.333 A  
ENDBRANCH  13  14
ENDBRANCH  12  13
ENDBRANCH   6   7
ENDBRANCH   5   6
ENDBRANCH   4   5
ENDBRANCH   2   4
TORSDOF 6
ENDMDL
MODEL      197
REMARK 921   NORMALIZED FREE ENERGY PREDICTED BY IDOCK:   -3.44 KCAL/MOL
REMARK 922        TOTAL FREE ENERGY PREDICTED BY IDOCK:   -5.49 KCAL/MOL
REMARK 923 INTER-LIGAND FREE ENERGY PREDICTED BY IDOCK:   -4.93 KCAL/MOL
REMARK 924 INTRA-LIGAND FREE ENERGY PREDICTED BY IDOCK:   -0.55 KCAL/MOL
REMARK 927      BINDING AFFINITY PREDICTED BY RF-SCORE:    0.00 PKD
ROOT
HETATM    1  C   UNL     1      -9.682   7.225  70.370  1.00  0.00    -0.172 C  
HETATM    2  N   UNL     1      -9.457   6.862  68.977  1.00  0.00    -0.138 NA 
HETATM    3  C   UNL     1     -10.093   5.596  68.641  1.00  0.00    -0.183 C  
ENDROOT
BRANCH   2   4
HETATM    4  C   UNL     1      -9.678   7.958  68.015  1.00  0.00    -0.159 C  
BRANCH   4   5
HETATM    5  C   UNL     1     -10.811   9.008  68.196  1.00  0.00    -0.027 C  
BRANCH   5   6
HETATM    6  O   UNL     1     -10.250  10.304  67.901  1.00  0.00    -0.167 OA 
BRANCH   6   7
HETATM    7  C   UNL     1     -11.014  11.322  67.386  1.00  0.00    -0.282 A  
HETATM    8  C   UNL     1     -10.840  11.490  66.003  1.00  0.00    -0.330 A  
HETATM    9  C   UNL     1     -11.419  12.559  65.304  1.00  0.00    -0.374 A  
HETATM   10  C   UNL     1     -12.227  13.467  65.976  1.00  0.00    -0.493 A  
HETATM   11  C   UNL     1     -12.404  13.323  67.348  1.00  0.00    -0.082 A  
HETATM   12  C   UNL     1     -11.755  12.293  68.080  1.00  0.00    -0.408 A  
BRANCH  12  13
HETATM   13  C   UNL     1     -11.753  12.475  69.580  1.00  0.00    -0.372 C  
BRANCH  13  14
HETATM   14  C   UNL     1     -11.707  13.928  70.033  1.00  0.00    -0.338 A  
HETATM   15  C   UNL     1     -12.705  14.418  70.888  1.00  0.00    -0.425 A  
HETATM   16  C   UNL     1     -12.602  15.699  71.438  1.00  0.00    -0.519 A  
HETATM   17  C   UNL     1     -11.510  16.508  71.132  1.00  0.00    -0.092 A  
HETATM   18  C   UNL     1     -10.541  16.056  70.242  1.00  0.00    -0.204 A  
HETATM   19  C   UNL     1     -10.637  14.774  69.697  1.00  0.00    -0.167 A  
ENDBRANCH  13  14
ENDBRANCH  12  13
ENDBRANCH   6   7
ENDBRANCH   5   6
ENDBRANCH   4   5
ENDBRANCH   2   4
TORSDOF 6
ENDMDL
MODEL      198
REMARK 921   NORMALIZED FREE ENERGY PREDICTED BY IDOCK:   -3.44 KCAL/MOL
REMARK 922        TOTAL FREE ENERGY PREDICTED BY IDOCK:   -5.48 KCAL/MOL
REMARK 923 INTER-LIGAND FREE ENERGY PREDICTED BY IDOCK:   -5.05 KCAL/MOL
REMARK 924 INTRA-LIGAND FREE ENERGY PREDICTED BY IDOCK:   -0.44 KCAL/MOL
REMARK 927      BINDING AFFINITY PREDICTED BY RF-SCORE:    0.00 PKD
ROOT
HETATM    1  C   UNL     1      -8.768  19.825  66.758  1.00  0.00    -0.339 C  
HETATM    2  N   UNL     1     -10.218  19.710  66.690  1.00  0.00    -0.426 NA 
HETATM    3  C   UNL     1     -10.712  19.927  65.338  1.00  0.00    -0.076 C  
ENDROOT
BRANCH   2   4
HETATM    4  C   UNL     1     -10.773  18.533  67.386  1.00  0.00    -0.381 C  
BRANCH   4   5
HETATM    5  C   UNL     1      -9.955  17.227  67.593  1.00  0.00    -0.297 C  
BRANCH   5   6
HETATM    6  O   UNL     1      -9.828  16.588  66.305  1.00  0.00    -0.280 OA 
BRANCH   6   7
HETATM    7  C   UNL     1     -10.549  15.466  65.981  1.00  0.00    -0.322 A  
HETATM    8  C   UNL     1     -11.263  15.603  64.780  1.00  0.00    -0.391 A  
HETATM    9  C   UNL     1     -12.171  14.629  64.337  1.00  0.00    -0.473 A  
HETATM   10  C   UNL     1     -12.351  13.467  65.076  1.00  0.00    -0.481 A  
HETATM   11  C   UNL     1     -11.661  13.317  66.274  1.00  0.00    -0.384 A  
HETATM   12  C   UNL     1     -10.803  14.333  66.773  1.00  0.00    -0.298 A  
BRANCH  12  13
HETATM   13  C   UNL     1     -10.412  14.188  68.226  1.00  0.00    -0.249 C  
BRANCH  13  14
HETATM   14  C   UNL     1      -8.955  13.804  68.444  1.00  0.00    -0.166 A  
HETATM   15  C   UNL     1      -8.411  12.720  67.740  1.00  0.00    -0.177 A  
HETATM   16  C   UNL     1      -7.042  12.444  67.808  1.00  0.00    -0.120 A  
HETATM   17  C   UNL     1      -6.204  13.239  68.586  1.00  0.00    -0.084 A  
HETATM   18  C   UNL     1      -6.739  14.283  69.334  1.00  0.00    -0.130 A  
HETATM   19  C   UNL     1      -8.104  14.566  69.263  1.00  0.00     0.029 A  
ENDBRANCH  13  14
ENDBRANCH  12  13
ENDBRANCH   6   7
ENDBRANCH   5   6
ENDBRANCH   4   5
ENDBRANCH   2   4
TORSDOF 6
ENDMDL
MODEL      199
REMARK 921   NORMALIZED FREE ENERGY PREDICTED BY IDOCK:   -3.44 KCAL/MOL
REMARK 922        TOTAL FREE ENERGY PREDICTED BY IDOCK:   -5.48 KCAL/MOL
REMARK 923 INTER-LIGAND FREE ENERGY PREDICTED BY IDOCK:   -4.81 KCAL/MOL
REMARK 924 INTRA-LIGAND FREE ENERGY PREDICTED BY IDOCK:   -0.67 KCAL/MOL
REMARK 927      BINDING AFFINITY PREDICTED BY RF-SCORE:    0.00 PKD
ROOT
HETATM    1  C   UNL     1      -9.220  16.902  67.896  1.00  0.00    -0.234 C  
HETATM    2  N   UNL     1      -9.004  15.635  68.582  1.00  0.00    -0.190 NA 
HETATM    3  C   UNL     1     -10.230  15.134  69.186  1.00  0.00    -0.249 C  
ENDROOT
BRANCH   2   4
HETATM    4  C   UNL     1      -8.227  14.646  67.810  1.00  0.00    -0.162 C  
BRANCH   4   5
HETATM    5  C   UNL     1      -8.906  13.545  66.947  1.00  0.00    -0.182 C  
BRANCH   5   6
HETATM    6  O   UNL     1      -9.485  14.195  65.796  1.00  0.00    -0.181 OA 
BRANCH   6   7
HETATM    7  C   UNL     1     -10.556  13.658  65.126  1.00  0.00    -0.361 A  
HETATM    8  C   UNL     1     -11.791  14.109  65.619  1.00  0.00    -0.377 A  
HETATM    9  C   UNL     1     -13.010  13.580  65.170  1.00  0.00    -0.263 A  
HETATM   10  C   UNL     1     -13.018  12.609  64.177  1.00  0.00    -0.166 A  
HETATM   11  C   UNL     1     -11.804  12.143  63.683  1.00  0.00    -0.608 A  
HETATM   12  C   UNL     1     -10.562  12.610  64.190  1.00  0.00    -0.434 A  
BRANCH  12  13
HETATM   13  C   UNL     1      -9.361  11.771  63.821  1.00  0.00     0.039 C  
BRANCH  13  14
HETATM   14  C   UNL     1      -9.161  10.546  64.703  1.00  0.00    -0.248 A  
HETATM   15  C   UNL     1     -10.044  10.305  65.765  1.00  0.00    -0.325 A  
HETATM   16  C   UNL     1      -9.974   9.113  66.491  1.00  0.00    -0.359 A  
HETATM   17  C   UNL     1      -9.014   8.154  66.173  1.00  0.00    -0.218 A  
HETATM   18  C   UNL     1      -8.096   8.404  65.159  1.00  0.00    -0.147 A  
HETATM   19  C   UNL     1      -8.168   9.590  64.427  1.00  0.00    -0.148 A  
ENDBRANCH  13  14
ENDBRANCH  12  13
ENDBRANCH   6   7
ENDBRANCH   5   6
ENDBRANCH   4   5
ENDBRANCH   2   4
TORSDOF 6
ENDMDL
MODEL      200
REMARK 921   NORMALIZED FREE ENERGY PREDICTED BY IDOCK:   -3.43 KCAL/MOL
REMARK 922        TOTAL FREE ENERGY PREDICTED BY IDOCK:   -5.47 KCAL/MOL
REMARK 923 INTER-LIGAND FREE ENERGY PREDICTED BY IDOCK:   -4.57 KCAL/MOL
REMARK 924 INTRA-LIGAND FREE ENERGY PREDICTED BY IDOCK:   -0.90 KCAL/MOL
REMARK 927      BINDING AFFINITY PREDICTED BY RF-SCORE:    0.00 PKD
ROOT
HETATM    1  C   UNL     1      -5.880   4.824  67.649  1.00  0.00    -0.022 C  
HETATM    2  N   UNL     1      -6.704   4.964  68.842  1.00  0.00    -0.048 NA 
HETATM    3  C   UNL     1      -6.440   3.905  69.805  1.00  0.00    -0.033 C  
ENDROOT
BRANCH   2   4
HETATM    4  C   UNL     1      -6.750   6.330  69.398  1.00  0.00    -0.052 C  
BRANCH   4   5
HETATM    5  C   UNL     1      -7.380   6.643  70.785  1.00  0.00    -0.079 C  
BRANCH   5   6
HETATM    6  O   UNL     1      -8.792   6.364  70.691  1.00  0.00    -0.142 OA 
BRANCH   6   7
HETATM    7  C   UNL     1      -9.474   5.738  71.704  1.00  0.00    -0.152 A  
HETATM    8  C   UNL     1      -9.813   4.411  71.397  1.00  0.00    -0.262 A  
HETATM    9  C   UNL     1     -10.630   3.637  72.235  1.00  0.00     0.024 A  
HETATM   10  C   UNL     1     -11.092   4.169  73.432  1.00  0.00    -0.354 A  
HETATM   11  C   UNL     1     -10.774   5.485  73.749  1.00  0.00    -0.300 A  
HETATM   12  C   UNL     1     -10.018   6.305  72.869  1.00  0.00    -0.181 A  
BRANCH  12  13
HETATM   13  C   UNL     1     -10.058   7.784  73.175  1.00  0.00    -0.390 C  
BRANCH  13  14
HETATM   14  C   UNL     1     -10.995   8.582  72.278  1.00  0.00    -0.426 A  
HETATM   15  C   UNL     1     -12.370   8.597  72.553  1.00  0.00    -0.378 A  
HETATM   16  C   UNL     1     -13.227   9.440  71.840  1.00  0.00    -0.507 A  
HETATM   17  C   UNL     1     -12.724  10.269  70.840  1.00  0.00    -0.462 A  
HETATM   18  C   UNL     1     -11.371  10.224  70.519  1.00  0.00    -0.422 A  
HETATM   19  C   UNL     1     -10.511   9.388  71.233  1.00  0.00    -0.385 A  
ENDBRANCH  13  14
ENDBRANCH  12  13
ENDBRANCH   6   7
ENDBRANCH   5   6
ENDBRANCH   4   5
ENDBRANCH   2   4
TORSDOF 6
ENDMDL
MODEL      201
REMARK 921   NORMALIZED FREE ENERGY PREDICTED BY IDOCK:   -3.42 KCAL/MOL
REMARK 922        TOTAL FREE ENERGY PREDICTED BY IDOCK:   -5.45 KCAL/MOL
REMARK 923 INTER-LIGAND FREE ENERGY PREDICTED BY IDOCK:   -4.76 KCAL/MOL
REMARK 924 INTRA-LIGAND FREE ENERGY PREDICTED BY IDOCK:   -0.69 KCAL/MOL
REMARK 927      BINDING AFFINITY PREDICTED BY RF-SCORE:    0.00 PKD
ROOT
HETATM    1  C   UNL     1      -6.913   9.584  68.012  1.00  0.00    -0.079 C  
HETATM    2  N   UNL     1      -7.654  10.149  69.133  1.00  0.00    -0.093 NA 
HETATM    3  C   UNL     1      -7.570  11.602  69.155  1.00  0.00     0.044 C  
ENDROOT
BRANCH   2   4
HETATM    4  C   UNL     1      -9.006   9.588  69.318  1.00  0.00    -0.160 C  
BRANCH   4   5
HETATM    5  C   UNL     1     -10.260  10.196  68.630  1.00  0.00    -0.176 C  
BRANCH   5   6
HETATM    6  O   UNL     1     -11.422   9.626  69.267  1.00  0.00    -0.041 OA 
BRANCH   6   7
HETATM    7  C   UNL     1     -12.186  10.344  70.153  1.00  0.00    -0.229 A  
HETATM    8  C   UNL     1     -11.953  11.727  70.080  1.00  0.00    -0.421 A  
HETATM    9  C   UNL     1     -12.525  12.628  70.990  1.00  0.00    -0.354 A  
HETATM   10  C   UNL     1     -13.386  12.161  71.975  1.00  0.00    -0.470 A  
HETATM   11  C   UNL     1     -13.622  10.794  72.069  1.00  0.00    -0.167 A  
HETATM   12  C   UNL     1     -12.983   9.864  71.207  1.00  0.00    -0.488 A  
BRANCH  12  13
HETATM   13  C   UNL     1     -13.054   8.422  71.650  1.00  0.00    -0.355 C  
BRANCH  13  14
HETATM   14  C   UNL     1     -11.708   7.712  71.685  1.00  0.00    -0.313 A  
HETATM   15  C   UNL     1     -10.722   8.141  72.585  1.00  0.00    -0.421 A  
HETATM   16  C   UNL     1      -9.539   7.413  72.744  1.00  0.00    -0.212 A  
HETATM   17  C   UNL     1      -9.323   6.256  71.998  1.00  0.00    -0.155 A  
HETATM   18  C   UNL     1     -10.268   5.849  71.062  1.00  0.00    -0.266 A  
HETATM   19  C   UNL     1     -11.453   6.570  70.906  1.00  0.00    -0.408 A  
ENDBRANCH  13  14
ENDBRANCH  12  13
ENDBRANCH   6   7
ENDBRANCH   5   6
ENDBRANCH   4   5
ENDBRANCH   2   4
TORSDOF 6
ENDMDL
MODEL      202
REMARK 921   NORMALIZED FREE ENERGY PREDICTED BY IDOCK:   -3.41 KCAL/MOL
REMARK 922        TOTAL FREE ENERGY PREDICTED BY IDOCK:   -5.44 KCAL/MOL
REMARK 923 INTER-LIGAND FREE ENERGY PREDICTED BY IDOCK:   -4.67 KCAL/MOL
REMARK 924 INTRA-LIGAND FREE ENERGY PREDICTED BY IDOCK:   -0.77 KCAL/MOL
REMARK 927      BINDING AFFINITY PREDICTED BY RF-SCORE:    0.00 PKD
ROOT
HETATM    1  C   UNL     1     -10.221  10.936  63.279  1.00  0.00    -0.257 C  
HETATM    2  N   UNL     1     -11.002  12.147  63.491  1.00  0.00    -0.440 NA 
HETATM    3  C   UNL     1     -12.368  11.843  63.894  1.00  0.00    -0.383 C  
ENDROOT
BRANCH   2   4
HETATM    4  C   UNL     1     -10.321  13.182  64.292  1.00  0.00    -0.339 C  
BRANCH   4   5
HETATM    5  C   UNL     1     -11.064  14.028  65.364  1.00  0.00    -0.318 C  
BRANCH   5   6
HETATM    6  O   UNL     1     -10.093  14.906  65.971  1.00  0.00    -0.277 OA 
BRANCH   6   7
HETATM    7  C   UNL     1     -10.125  15.201  67.311  1.00  0.00    -0.235 A  
HETATM    8  C   UNL     1     -10.617  16.490  67.575  1.00  0.00    -0.313 A  
HETATM    9  C   UNL     1     -10.603  17.043  68.865  1.00  0.00    -0.328 A  
HETATM   10  C   UNL     1     -10.132  16.291  69.933  1.00  0.00    -0.023 A  
HETATM   11  C   UNL     1      -9.632  15.016  69.690  1.00  0.00    -0.047 A  
HETATM   12  C   UNL     1      -9.563  14.479  68.377  1.00  0.00    -0.213 A  
BRANCH  12  13
HETATM   13  C   UNL     1      -8.685  13.258  68.227  1.00  0.00    -0.168 C  
BRANCH  13  14
HETATM   14  C   UNL     1      -9.391  11.942  68.525  1.00  0.00    -0.142 A  
HETATM   15  C   UNL     1      -8.640  10.832  68.940  1.00  0.00    -0.155 A  
HETATM   16  C   UNL     1      -9.277   9.663  69.365  1.00  0.00    -0.196 A  
HETATM   17  C   UNL     1     -10.668   9.584  69.369  1.00  0.00    -0.244 A  
HETATM   18  C   UNL     1     -11.424  10.657  68.908  1.00  0.00    -0.334 A  
HETATM   19  C   UNL     1     -10.791  11.828  68.490  1.00  0.00    -0.261 A  
ENDBRANCH  13  14
ENDBRANCH  12  13
ENDBRANCH   6   7
ENDBRANCH   5   6
ENDBRANCH   4   5
ENDBRANCH   2   4
TORSDOF 6
ENDMDL
MODEL      203
REMARK 921   NORMALIZED FREE ENERGY PREDICTED BY IDOCK:   -3.41 KCAL/MOL
REMARK 922        TOTAL FREE ENERGY PREDICTED BY IDOCK:   -5.44 KCAL/MOL
REMARK 923 INTER-LIGAND FREE ENERGY PREDICTED BY IDOCK:   -4.59 KCAL/MOL
REMARK 924 INTRA-LIGAND FREE ENERGY PREDICTED BY IDOCK:   -0.85 KCAL/MOL
REMARK 927      BINDING AFFINITY PREDICTED BY RF-SCORE:    0.00 PKD
ROOT
HETATM    1  C   UNL     1     -13.125  11.058  71.580  1.00  0.00    -0.438 C  
HETATM    2  N   UNL     1     -12.840   9.766  72.192  1.00  0.00    -0.383 NA 
HETATM    3  C   UNL     1     -14.052   8.982  72.380  1.00  0.00    -0.404 C  
ENDROOT
BRANCH   2   4
HETATM    4  C   UNL     1     -11.703   9.042  71.593  1.00  0.00    -0.361 C  
BRANCH   4   5
HETATM    5  C   UNL     1     -10.821   9.659  70.470  1.00  0.00    -0.309 C  
BRANCH   5   6
HETATM    6  O   UNL     1     -10.034   8.591  69.903  1.00  0.00    -0.184 OA 
BRANCH   6   7
HETATM    7  C   UNL     1      -8.957   8.058  70.566  1.00  0.00    -0.152 A  
HETATM    8  C   UNL     1      -7.935   8.994  70.790  1.00  0.00    -0.172 A  
HETATM    9  C   UNL     1      -6.692   8.626  71.326  1.00  0.00    -0.072 A  
HETATM   10  C   UNL     1      -6.461   7.306  71.692  1.00  0.00    -0.040 A  
HETATM   11  C   UNL     1      -7.458   6.362  71.469  1.00  0.00    -0.090 A  
HETATM   12  C   UNL     1      -8.689   6.708  70.850  1.00  0.00    -0.138 A  
BRANCH  12  13
HETATM   13  C   UNL     1      -9.510   5.540  70.356  1.00  0.00    -0.209 C  
BRANCH  13  14
HETATM   14  C   UNL     1     -10.086   4.668  71.464  1.00  0.00    -0.255 A  
HETATM   15  C   UNL     1      -9.722   3.316  71.541  1.00  0.00    -0.233 A  
HETATM   16  C   UNL     1     -10.114   2.537  72.633  1.00  0.00    -0.228 A  
HETATM   17  C   UNL     1     -10.881   3.094  73.654  1.00  0.00    -0.311 A  
HETATM   18  C   UNL     1     -11.296   4.419  73.563  1.00  0.00    -0.334 A  
HETATM   19  C   UNL     1     -10.900   5.202  72.478  1.00  0.00    -0.282 A  
ENDBRANCH  13  14
ENDBRANCH  12  13
ENDBRANCH   6   7
ENDBRANCH   5   6
ENDBRANCH   4   5
ENDBRANCH   2   4
TORSDOF 6
ENDMDL
MODEL      204
REMARK 921   NORMALIZED FREE ENERGY PREDICTED BY IDOCK:   -3.38 KCAL/MOL
REMARK 922        TOTAL FREE ENERGY PREDICTED BY IDOCK:   -5.41 KCAL/MOL
REMARK 923 INTER-LIGAND FREE ENERGY PREDICTED BY IDOCK:   -4.61 KCAL/MOL
REMARK 924 INTRA-LIGAND FREE ENERGY PREDICTED BY IDOCK:   -0.80 KCAL/MOL
REMARK 927      BINDING AFFINITY PREDICTED BY RF-SCORE:    0.00 PKD
ROOT
HETATM    1  C   UNL     1     -12.693  11.953  63.454  1.00  0.00    -0.366 C  
HETATM    2  N   UNL     1     -11.579  12.882  63.586  1.00  0.00    -0.476 NA 
HETATM    3  C   UNL     1     -11.949  14.059  64.358  1.00  0.00    -0.454 C  
ENDROOT
BRANCH   2   4
HETATM    4  C   UNL     1     -10.299  12.253  63.964  1.00  0.00    -0.397 C  
BRANCH   4   5
HETATM    5  C   UNL     1     -10.158  10.720  64.185  1.00  0.00    -0.353 C  
BRANCH   5   6
HETATM    6  O   UNL     1     -10.244  10.479  65.605  1.00  0.00    -0.262 OA 
BRANCH   6   7
HETATM    7  C   UNL     1      -9.153  10.088  66.339  1.00  0.00    -0.149 A  
HETATM    8  C   UNL     1      -8.171   9.452  65.562  1.00  0.00    -0.127 A  
HETATM    9  C   UNL     1      -7.040   8.853  66.136  1.00  0.00    -0.085 A  
HETATM   10  C   UNL     1      -6.846   8.917  67.510  1.00  0.00    -0.071 A  
HETATM   11  C   UNL     1      -7.812   9.534  68.297  1.00  0.00    -0.086 A  
HETATM   12  C   UNL     1      -9.002  10.071  67.736  1.00  0.00    -0.133 A  
BRANCH  12  13
HETATM   13  C   UNL     1     -10.099  10.379  68.728  1.00  0.00    -0.198 C  
BRANCH  13  14
HETATM   14  C   UNL     1     -10.435   9.227  69.666  1.00  0.00    -0.234 A  
HETATM   15  C   UNL     1     -11.019   8.062  69.149  1.00  0.00     0.058 A  
HETATM   16  C   UNL     1     -11.196   6.937  69.959  1.00  0.00    -0.347 A  
HETATM   17  C   UNL     1     -10.803   6.966  71.295  1.00  0.00    -0.263 A  
HETATM   18  C   UNL     1     -10.273   8.134  71.835  1.00  0.00    -0.289 A  
HETATM   19  C   UNL     1     -10.089   9.256  71.027  1.00  0.00    -0.373 A  
ENDBRANCH  13  14
ENDBRANCH  12  13
ENDBRANCH   6   7
ENDBRANCH   5   6
ENDBRANCH   4   5
ENDBRANCH   2   4
TORSDOF 6
ENDMDL
MODEL      205
REMARK 921   NORMALIZED FREE ENERGY PREDICTED BY IDOCK:   -3.38 KCAL/MOL
REMARK 922        TOTAL FREE ENERGY PREDICTED BY IDOCK:   -5.40 KCAL/MOL
REMARK 923 INTER-LIGAND FREE ENERGY PREDICTED BY IDOCK:   -5.00 KCAL/MOL
REMARK 924 INTRA-LIGAND FREE ENERGY PREDICTED BY IDOCK:   -0.40 KCAL/MOL
REMARK 927      BINDING AFFINITY PREDICTED BY RF-SCORE:    0.00 PKD
ROOT
HETATM    1  C   UNL     1     -14.320  14.270  71.870  1.00  0.00    -0.513 C  
HETATM    2  N   UNL     1     -13.357  15.318  72.183  1.00  0.00    -0.384 NA 
HETATM    3  C   UNL     1     -12.600  15.010  73.388  1.00  0.00    -0.518 C  
ENDROOT
BRANCH   2   4
HETATM    4  C   UNL     1     -12.557  15.778  71.033  1.00  0.00    -0.416 C  
BRANCH   4   5
HETATM    5  C   UNL     1     -11.309  15.003  70.523  1.00  0.00    -0.276 C  
BRANCH   5   6
HETATM    6  O   UNL     1     -11.651  14.428  69.244  1.00  0.00    -0.267 OA 
BRANCH   6   7
HETATM    7  C   UNL     1     -10.690  13.965  68.381  1.00  0.00    -0.257 A  
HETATM    8  C   UNL     1     -10.566  12.566  68.399  1.00  0.00    -0.256 A  
HETATM    9  C   UNL     1      -9.552  11.898  67.698  1.00  0.00    -0.185 A  
HETATM   10  C   UNL     1      -8.658  12.623  66.920  1.00  0.00    -0.151 A  
HETATM   11  C   UNL     1      -8.758  14.009  66.896  1.00  0.00    -0.185 A  
HETATM   12  C   UNL     1      -9.728  14.702  67.669  1.00  0.00    -0.214 A  
BRANCH  12  13
HETATM   13  C   UNL     1      -9.490  16.186  67.819  1.00  0.00    -0.217 C  
BRANCH  13  14
HETATM   14  C   UNL     1      -8.077  16.631  67.465  1.00  0.00    -0.184 A  
HETATM   15  C   UNL     1      -7.018  16.327  68.331  1.00  0.00    -0.135 A  
HETATM   16  C   UNL     1      -5.696  16.588  67.957  1.00  0.00    -0.123 A  
HETATM   17  C   UNL     1      -5.419  17.166  66.720  1.00  0.00    -0.211 A  
HETATM   18  C   UNL     1      -6.464  17.524  65.874  1.00  0.00    -0.158 A  
HETATM   19  C   UNL     1      -7.784  17.258  66.242  1.00  0.00    -0.353 A  
ENDBRANCH  13  14
ENDBRANCH  12  13
ENDBRANCH   6   7
ENDBRANCH   5   6
ENDBRANCH   4   5
ENDBRANCH   2   4
TORSDOF 6
ENDMDL
MODEL      206
REMARK 921   NORMALIZED FREE ENERGY PREDICTED BY IDOCK:   -3.35 KCAL/MOL
REMARK 922        TOTAL FREE ENERGY PREDICTED BY IDOCK:   -5.36 KCAL/MOL
REMARK 923 INTER-LIGAND FREE ENERGY PREDICTED BY IDOCK:   -4.76 KCAL/MOL
REMARK 924 INTRA-LIGAND FREE ENERGY PREDICTED BY IDOCK:   -0.60 KCAL/MOL
REMARK 927      BINDING AFFINITY PREDICTED BY RF-SCORE:    0.00 PKD
ROOT
HETATM    1  C   UNL     1      -5.324  12.326  69.426  1.00  0.00    -0.067 C  
HETATM    2  N   UNL     1      -6.040  13.294  70.246  1.00  0.00    -0.126 NA 
HETATM    3  C   UNL     1      -5.324  13.589  71.479  1.00  0.00    -0.200 C  
ENDROOT
BRANCH   2   4
HETATM    4  C   UNL     1      -6.544  14.468  69.509  1.00  0.00    -0.143 C  
BRANCH   4   5
HETATM    5  C   UNL     1      -8.055  14.831  69.454  1.00  0.00    -0.039 C  
BRANCH   5   6
HETATM    6  O   UNL     1      -8.467  14.756  68.073  1.00  0.00    -0.141 OA 
BRANCH   6   7
HETATM    7  C   UNL     1      -9.507  13.954  67.673  1.00  0.00    -0.212 A  
HETATM    8  C   UNL     1      -9.088  12.860  66.900  1.00  0.00    -0.224 A  
HETATM    9  C   UNL     1     -10.000  11.996  66.275  1.00  0.00    -0.249 A  
HETATM   10  C   UNL     1     -11.364  12.189  66.450  1.00  0.00    -0.411 A  
HETATM   11  C   UNL     1     -11.799  13.273  67.204  1.00  0.00    -0.424 A  
HETATM   12  C   UNL     1     -10.887  14.202  67.772  1.00  0.00    -0.260 A  
BRANCH  12  13
HETATM   13  C   UNL     1     -11.502  15.498  68.247  1.00  0.00    -0.359 C  
BRANCH  13  14
HETATM   14  C   UNL     1     -11.977  15.469  69.694  1.00  0.00    -0.380 A  
HETATM   15  C   UNL     1     -11.040  15.568  70.733  1.00  0.00    -0.383 A  
HETATM   16  C   UNL     1     -11.462  15.698  72.059  1.00  0.00    -0.495 A  
HETATM   17  C   UNL     1     -12.821  15.718  72.364  1.00  0.00    -0.539 A  
HETATM   18  C   UNL     1     -13.760  15.565  71.350  1.00  0.00    -0.532 A  
HETATM   19  C   UNL     1     -13.343  15.443  70.024  1.00  0.00     0.422 A  
ENDBRANCH  13  14
ENDBRANCH  12  13
ENDBRANCH   6   7
ENDBRANCH   5   6
ENDBRANCH   4   5
ENDBRANCH   2   4
TORSDOF 6
ENDMDL
MODEL      207
REMARK 921   NORMALIZED FREE ENERGY PREDICTED BY IDOCK:   -3.35 KCAL/MOL
REMARK 922        TOTAL FREE ENERGY PREDICTED BY IDOCK:   -5.36 KCAL/MOL
REMARK 923 INTER-LIGAND FREE ENERGY PREDICTED BY IDOCK:   -4.71 KCAL/MOL
REMARK 924 INTRA-LIGAND FREE ENERGY PREDICTED BY IDOCK:   -0.65 KCAL/MOL
REMARK 927      BINDING AFFINITY PREDICTED BY RF-SCORE:    0.00 PKD
ROOT
HETATM    1  C   UNL     1     -10.424  13.932  67.414  1.00  0.00    -0.263 C  
HETATM    2  N   UNL     1     -11.214  13.172  66.454  1.00  0.00    -0.293 NA 
HETATM    3  C   UNL     1     -12.327  13.953  65.934  1.00  0.00    -0.483 C  
ENDROOT
BRANCH   2   4
HETATM    4  C   UNL     1     -10.420  12.449  65.443  1.00  0.00    -0.277 C  
BRANCH   4   5
HETATM    5  C   UNL     1     -11.020  11.308  64.573  1.00  0.00    -0.231 C  
BRANCH   5   6
HETATM    6  O   UNL     1      -9.993  10.310  64.399  1.00  0.00    -0.335 OA 
BRANCH   6   7
HETATM    7  C   UNL     1      -9.026  10.096  65.350  1.00  0.00    -0.177 A  
HETATM    8  C   UNL     1      -7.729  10.354  64.879  1.00  0.00    -0.084 A  
HETATM    9  C   UNL     1      -6.588  10.067  65.642  1.00  0.00    -0.104 A  
HETATM   10  C   UNL     1      -6.727   9.550  66.924  1.00  0.00    -0.072 A  
HETATM   11  C   UNL     1      -8.003   9.279  67.405  1.00  0.00    -0.106 A  
HETATM   12  C   UNL     1      -9.161   9.487  66.609  1.00  0.00    -0.190 A  
BRANCH  12  13
HETATM   13  C   UNL     1     -10.420   8.824  67.119  1.00  0.00    -0.354 C  
BRANCH  13  14
HETATM   14  C   UNL     1     -10.851   9.286  68.504  1.00  0.00    -0.119 A  
HETATM   15  C   UNL     1     -10.698   8.425  69.600  1.00  0.00    -0.201 A  
HETATM   16  C   UNL     1     -10.942   8.878  70.900  1.00  0.00    -0.325 A  
HETATM   17  C   UNL     1     -11.352  10.191  71.119  1.00  0.00    -0.326 A  
HETATM   18  C   UNL     1     -11.562  11.040  70.037  1.00  0.00    -0.427 A  
HETATM   19  C   UNL     1     -11.312  10.592  68.739  1.00  0.00    -0.339 A  
ENDBRANCH  13  14
ENDBRANCH  12  13
ENDBRANCH   6   7
ENDBRANCH   5   6
ENDBRANCH   4   5
ENDBRANCH   2   4
TORSDOF 6
ENDMDL
MODEL      208
REMARK 921   NORMALIZED FREE ENERGY PREDICTED BY IDOCK:   -3.34 KCAL/MOL
REMARK 922        TOTAL FREE ENERGY PREDICTED BY IDOCK:   -5.35 KCAL/MOL
REMARK 923 INTER-LIGAND FREE ENERGY PREDICTED BY IDOCK:   -4.79 KCAL/MOL
REMARK 924 INTRA-LIGAND FREE ENERGY PREDICTED BY IDOCK:   -0.56 KCAL/MOL
REMARK 927      BINDING AFFINITY PREDICTED BY RF-SCORE:    0.00 PKD
ROOT
HETATM    1  C   UNL     1     -12.695  11.880  63.540  1.00  0.00    -0.405 C  
HETATM    2  N   UNL     1     -11.781  12.980  63.819  1.00  0.00    -0.465 NA 
HETATM    3  C   UNL     1     -12.401  13.994  64.660  1.00  0.00    -0.397 C  
ENDROOT
BRANCH   2   4
HETATM    4  C   UNL     1     -10.425  12.563  64.225  1.00  0.00    -0.378 C  
BRANCH   4   5
HETATM    5  C   UNL     1     -10.109  11.119  64.709  1.00  0.00    -0.295 C  
BRANCH   5   6
HETATM    6  O   UNL     1     -10.416  11.059  66.117  1.00  0.00    -0.246 OA 
BRANCH   6   7
HETATM    7  C   UNL     1      -9.465  11.307  67.075  1.00  0.00    -0.171 A  
HETATM    8  C   UNL     1      -9.324  12.674  67.365  1.00  0.00    -0.189 A  
HETATM    9  C   UNL     1      -8.314  13.156  68.211  1.00  0.00    -0.152 A  
HETATM   10  C   UNL     1      -7.443  12.265  68.823  1.00  0.00    -0.065 A  
HETATM   11  C   UNL     1      -7.560  10.909  68.541  1.00  0.00    -0.111 A  
HETATM   12  C   UNL     1      -8.524  10.417  67.622  1.00  0.00    -0.114 A  
BRANCH  12  13
HETATM   13  C   UNL     1      -8.301   8.999  67.152  1.00  0.00    -0.110 C  
BRANCH  13  14
HETATM   14  C   UNL     1      -9.234   7.977  67.789  1.00  0.00    -0.142 A  
HETATM   15  C   UNL     1      -9.383   7.949  69.182  1.00  0.00    -0.154 A  
HETATM   16  C   UNL     1     -10.344   7.126  69.777  1.00  0.00    -0.224 A  
HETATM   17  C   UNL     1     -11.158   6.316  68.990  1.00  0.00    -0.446 A  
HETATM   18  C   UNL     1     -10.984   6.292  67.610  1.00  0.00    -0.438 A  
HETATM   19  C   UNL     1     -10.030   7.117  67.012  1.00  0.00    -0.283 A  
ENDBRANCH  13  14
ENDBRANCH  12  13
ENDBRANCH   6   7
ENDBRANCH   5   6
ENDBRANCH   4   5
ENDBRANCH   2   4
TORSDOF 6
ENDMDL
MODEL      209
REMARK 921   NORMALIZED FREE ENERGY PREDICTED BY IDOCK:   -3.33 KCAL/MOL
REMARK 922        TOTAL FREE ENERGY PREDICTED BY IDOCK:   -5.34 KCAL/MOL
REMARK 923 INTER-LIGAND FREE ENERGY PREDICTED BY IDOCK:   -4.54 KCAL/MOL
REMARK 924 INTRA-LIGAND FREE ENERGY PREDICTED BY IDOCK:   -0.80 KCAL/MOL
REMARK 927      BINDING AFFINITY PREDICTED BY RF-SCORE:    0.00 PKD
ROOT
HETATM    1  C   UNL     1     -10.135  16.998  68.430  1.00  0.00    -0.302 C  
HETATM    2  N   UNL     1     -10.473  17.468  67.094  1.00  0.00    -0.332 NA 
HETATM    3  C   UNL     1      -9.633  18.586  66.688  1.00  0.00    -0.321 C  
ENDROOT
BRANCH   2   4
HETATM    4  C   UNL     1     -10.634  16.399  66.090  1.00  0.00    -0.255 C  
BRANCH   4   5
HETATM    5  C   UNL     1     -11.144  14.978  66.462  1.00  0.00    -0.329 C  
BRANCH   5   6
HETATM    6  O   UNL     1     -10.111  14.039  66.098  1.00  0.00    -0.290 OA 
BRANCH   6   7
HETATM    7  C   UNL     1      -9.392  13.354  67.045  1.00  0.00    -0.243 A  
HETATM    8  C   UNL     1      -8.232  14.033  67.449  1.00  0.00    -0.203 A  
HETATM    9  C   UNL     1      -7.285  13.449  68.303  1.00  0.00    -0.111 A  
HETATM   10  C   UNL     1      -7.506  12.174  68.810  1.00  0.00    -0.075 A  
HETATM   11  C   UNL     1      -8.645  11.482  68.415  1.00  0.00    -0.159 A  
HETATM   12  C   UNL     1      -9.568  12.030  67.484  1.00  0.00    -0.177 A  
BRANCH  12  13
HETATM   13  C   UNL     1     -10.543  11.042  66.887  1.00  0.00    -0.307 C  
BRANCH  13  14
HETATM   14  C   UNL     1      -9.897   9.765  66.367  1.00  0.00    -0.298 A  
HETATM   15  C   UNL     1      -8.911   9.842  65.374  1.00  0.00    -0.229 A  
HETATM   16  C   UNL     1      -8.198   8.702  64.991  1.00  0.00    -0.159 A  
HETATM   17  C   UNL     1      -8.469   7.472  65.587  1.00  0.00    -0.141 A  
HETATM   18  C   UNL     1      -9.483   7.371  66.534  1.00  0.00    -0.229 A  
HETATM   19  C   UNL     1     -10.191   8.508  66.924  1.00  0.00    -0.375 A  
ENDBRANCH  13  14
ENDBRANCH  12  13
ENDBRANCH   6   7
ENDBRANCH   5   6
ENDBRANCH   4   5
ENDBRANCH   2   4
TORSDOF 6
ENDMDL
MODEL      210
REMARK 921   NORMALIZED FREE ENERGY PREDICTED BY IDOCK:   -3.33 KCAL/MOL
REMARK 922        TOTAL FREE ENERGY PREDICTED BY IDOCK:   -5.34 KCAL/MOL
REMARK 923 INTER-LIGAND FREE ENERGY PREDICTED BY IDOCK:   -4.52 KCAL/MOL
REMARK 924 INTRA-LIGAND FREE ENERGY PREDICTED BY IDOCK:   -0.82 KCAL/MOL
REMARK 927      BINDING AFFINITY PREDICTED BY RF-SCORE:    0.00 PKD
ROOT
HETATM    1  C   UNL     1      -7.811  10.086  68.368  1.00  0.00    -0.089 C  
HETATM    2  N   UNL     1      -7.099  10.782  69.431  1.00  0.00    -0.109 NA 
HETATM    3  C   UNL     1      -5.806  10.171  69.704  1.00  0.00    -0.042 C  
ENDROOT
BRANCH   2   4
HETATM    4  C   UNL     1      -7.090  12.252  69.302  1.00  0.00     0.061 C  
BRANCH   4   5
HETATM    5  C   UNL     1      -6.427  12.978  68.098  1.00  0.00    -0.100 C  
BRANCH   5   6
HETATM    6  O   UNL     1      -7.487  13.447  67.239  1.00  0.00    -0.146 OA 
BRANCH   6   7
HETATM    7  C   UNL     1      -8.417  14.358  67.671  1.00  0.00    -0.185 A  
HETATM    8  C   UNL     1      -7.837  15.526  68.192  1.00  0.00    -0.129 A  
HETATM    9  C   UNL     1      -8.602  16.524  68.815  1.00  0.00    -0.262 A  
HETATM   10  C   UNL     1      -9.983  16.390  68.888  1.00  0.00    -0.257 A  
HETATM   11  C   UNL     1     -10.575  15.236  68.386  1.00  0.00    -0.246 A  
HETATM   12  C   UNL     1      -9.802  14.182  67.830  1.00  0.00    -0.231 A  
BRANCH  12  13
HETATM   13  C   UNL     1     -10.533  12.870  67.659  1.00  0.00    -0.228 C  
BRANCH  13  14
HETATM   14  C   UNL     1     -10.938  12.563  66.224  1.00  0.00    -0.311 A  
HETATM   15  C   UNL     1     -10.099  11.777  65.421  1.00  0.00    -0.291 A  
HETATM   16  C   UNL     1     -10.518  11.356  64.156  1.00  0.00    -0.421 A  
HETATM   17  C   UNL     1     -11.772  11.723  63.674  1.00  0.00    -0.517 A  
HETATM   18  C   UNL     1     -12.592  12.548  64.437  1.00  0.00    -0.497 A  
HETATM   19  C   UNL     1     -12.180  12.965  65.703  1.00  0.00    -0.519 A  
ENDBRANCH  13  14
ENDBRANCH  12  13
ENDBRANCH   6   7
ENDBRANCH   5   6
ENDBRANCH   4   5
ENDBRANCH   2   4
TORSDOF 6
ENDMDL
MODEL      211
REMARK 921   NORMALIZED FREE ENERGY PREDICTED BY IDOCK:   -3.31 KCAL/MOL
REMARK 922        TOTAL FREE ENERGY PREDICTED BY IDOCK:   -5.31 KCAL/MOL
REMARK 923 INTER-LIGAND FREE ENERGY PREDICTED BY IDOCK:   -4.57 KCAL/MOL
REMARK 924 INTRA-LIGAND FREE ENERGY PREDICTED BY IDOCK:   -0.74 KCAL/MOL
REMARK 927      BINDING AFFINITY PREDICTED BY RF-SCORE:    0.00 PKD
ROOT
HETATM    1  C   UNL     1     -11.807   6.416  71.484  1.00  0.00    -0.298 C  
HETATM    2  N   UNL     1     -11.178   7.223  72.521  1.00  0.00    -0.284 NA 
HETATM    3  C   UNL     1      -9.907   6.655  72.947  1.00  0.00    -0.164 C  
ENDROOT
BRANCH   2   4
HETATM    4  C   UNL     1     -11.165   8.672  72.246  1.00  0.00    -0.328 C  
BRANCH   4   5
HETATM    5  C   UNL     1     -10.126   9.329  71.294  1.00  0.00    -0.291 C  
BRANCH   5   6
HETATM    6  O   UNL     1     -10.791  10.411  70.609  1.00  0.00    -0.249 OA 
BRANCH   6   7
HETATM    7  C   UNL     1     -10.526  10.705  69.295  1.00  0.00    -0.227 A  
HETATM    8  C   UNL     1      -9.244  10.301  68.892  1.00  0.00    -0.176 A  
HETATM    9  C   UNL     1      -8.721  10.629  67.632  1.00  0.00    -0.121 A  
HETATM   10  C   UNL     1      -9.499  11.338  66.725  1.00  0.00    -0.196 A  
HETATM   11  C   UNL     1     -10.768  11.754  67.109  1.00  0.00    -0.283 A  
HETATM   12  C   UNL     1     -11.275  11.501  68.412  1.00  0.00    -0.314 A  
BRANCH  12  13
HETATM   13  C   UNL     1     -12.494  12.308  68.795  1.00  0.00     0.548 C  
BRANCH  13  14
HETATM   14  C   UNL     1     -12.224  13.394  69.828  1.00  0.00    -0.307 A  
HETATM   15  C   UNL     1     -11.347  14.442  69.517  1.00  0.00    -0.318 A  
HETATM   16  C   UNL     1     -11.201  15.528  70.386  1.00  0.00    -0.356 A  
HETATM   17  C   UNL     1     -11.921  15.574  71.578  1.00  0.00    -0.463 A  
HETATM   18  C   UNL     1     -12.753  14.514  71.925  1.00  0.00    -0.410 A  
HETATM   19  C   UNL     1     -12.906  13.432  71.056  1.00  0.00    -0.329 A  
ENDBRANCH  13  14
ENDBRANCH  12  13
ENDBRANCH   6   7
ENDBRANCH   5   6
ENDBRANCH   4   5
ENDBRANCH   2   4
TORSDOF 6
ENDMDL
MODEL      212
REMARK 921   NORMALIZED FREE ENERGY PREDICTED BY IDOCK:   -3.30 KCAL/MOL
REMARK 922        TOTAL FREE ENERGY PREDICTED BY IDOCK:   -5.30 KCAL/MOL
REMARK 923 INTER-LIGAND FREE ENERGY PREDICTED BY IDOCK:   -4.70 KCAL/MOL
REMARK 924 INTRA-LIGAND FREE ENERGY PREDICTED BY IDOCK:   -0.60 KCAL/MOL
REMARK 927      BINDING AFFINITY PREDICTED BY RF-SCORE:    0.00 PKD
ROOT
HETATM    1  C   UNL     1      -6.608  16.269  68.158  1.00  0.00    -0.126 C  
HETATM    2  N   UNL     1      -7.351  15.068  68.515  1.00  0.00    -0.112 NA 
HETATM    3  C   UNL     1      -8.689  15.385  68.993  1.00  0.00    -0.231 C  
ENDROOT
BRANCH   2   4
HETATM    4  C   UNL     1      -7.274  13.981  67.520  1.00  0.00    -0.165 C  
BRANCH   4   5
HETATM    5  C   UNL     1      -7.135  12.487  67.929  1.00  0.00    -0.111 C  
BRANCH   5   6
HETATM    6  O   UNL     1      -8.426  11.869  67.753  1.00  0.00    -0.139 OA 
BRANCH   6   7
HETATM    7  C   UNL     1      -8.576  10.694  67.059  1.00  0.00    -0.128 A  
HETATM    8  C   UNL     1      -7.555  10.479  66.120  1.00  0.00    -0.135 A  
HETATM    9  C   UNL     1      -7.591   9.411  65.211  1.00  0.00    -0.107 A  
HETATM   10  C   UNL     1      -8.641   8.502  65.255  1.00  0.00    -0.192 A  
HETATM   11  C   UNL     1      -9.666   8.703  66.173  1.00  0.00    -0.292 A  
HETATM   12  C   UNL     1      -9.683   9.828  67.040  1.00  0.00    -0.233 A  
BRANCH  12  13
HETATM   13  C   UNL     1     -11.007  10.101  67.714  1.00  0.00    -0.338 C  
BRANCH  13  14
HETATM   14  C   UNL     1     -11.490  11.540  67.580  1.00  0.00    -0.357 A  
HETATM   15  C   UNL     1     -11.701  12.309  68.733  1.00  0.00    -0.390 A  
HETATM   16  C   UNL     1     -11.995  13.672  68.634  1.00  0.00    -0.395 A  
HETATM   17  C   UNL     1     -12.093  14.279  67.383  1.00  0.00    -0.371 A  
HETATM   18  C   UNL     1     -11.941  13.516  66.230  1.00  0.00    -0.457 A  
HETATM   19  C   UNL     1     -11.641  12.156  66.326  1.00  0.00    -0.424 A  
ENDBRANCH  13  14
ENDBRANCH  12  13
ENDBRANCH   6   7
ENDBRANCH   5   6
ENDBRANCH   4   5
ENDBRANCH   2   4
TORSDOF 6
ENDMDL
MODEL      213
REMARK 921   NORMALIZED FREE ENERGY PREDICTED BY IDOCK:   -3.30 KCAL/MOL
REMARK 922        TOTAL FREE ENERGY PREDICTED BY IDOCK:   -5.29 KCAL/MOL
REMARK 923 INTER-LIGAND FREE ENERGY PREDICTED BY IDOCK:   -4.85 KCAL/MOL
REMARK 924 INTRA-LIGAND FREE ENERGY PREDICTED BY IDOCK:   -0.45 KCAL/MOL
REMARK 927      BINDING AFFINITY PREDICTED BY RF-SCORE:    0.00 PKD
ROOT
HETATM    1  C   UNL     1     -10.795   4.172  64.618  1.00  0.00    -0.101 C  
HETATM    2  N   UNL     1     -10.087   4.123  65.890  1.00  0.00    -0.189 NA 
HETATM    3  C   UNL     1      -8.763   3.533  65.746  1.00  0.00    -0.121 C  
ENDROOT
BRANCH   2   4
HETATM    4  C   UNL     1     -10.142   5.373  66.671  1.00  0.00    -0.216 C  
BRANCH   4   5
HETATM    5  C   UNL     1      -9.053   6.476  66.554  1.00  0.00    -0.152 C  
BRANCH   5   6
HETATM    6  O   UNL     1      -9.724   7.753  66.610  1.00  0.00    -0.204 OA 
BRANCH   6   7
HETATM    7  C   UNL     1      -9.037   8.921  66.829  1.00  0.00    -0.143 A  
HETATM    8  C   UNL     1      -8.369   8.940  68.063  1.00  0.00    -0.121 A  
HETATM    9  C   UNL     1      -7.724  10.089  68.544  1.00  0.00    -0.089 A  
HETATM   10  C   UNL     1      -7.697  11.241  67.768  1.00  0.00    -0.113 A  
HETATM   11  C   UNL     1      -8.361  11.245  66.546  1.00  0.00    -0.168 A  
HETATM   12  C   UNL     1      -9.089  10.114  66.088  1.00  0.00    -0.184 A  
BRANCH  12  13
HETATM   13  C   UNL     1     -10.035  10.380  64.941  1.00  0.00    -0.409 C  
BRANCH  13  14
HETATM   14  C   UNL     1     -10.831  11.672  65.075  1.00  0.00    -0.346 A  
HETATM   15  C   UNL     1     -11.079  12.453  63.938  1.00  0.00    -0.475 A  
HETATM   16  C   UNL     1     -11.933  13.558  64.008  1.00  0.00    -0.501 A  
HETATM   17  C   UNL     1     -12.539  13.901  65.214  1.00  0.00    -0.508 A  
HETATM   18  C   UNL     1     -12.258  13.167  66.362  1.00  0.00    -0.396 A  
HETATM   19  C   UNL     1     -11.412  12.060  66.294  1.00  0.00    -0.408 A  
ENDBRANCH  13  14
ENDBRANCH  12  13
ENDBRANCH   6   7
ENDBRANCH   5   6
ENDBRANCH   4   5
ENDBRANCH   2   4
TORSDOF 6
ENDMDL
MODEL      214
REMARK 921   NORMALIZED FREE ENERGY PREDICTED BY IDOCK:   -3.29 KCAL/MOL
REMARK 922        TOTAL FREE ENERGY PREDICTED BY IDOCK:   -5.28 KCAL/MOL
REMARK 923 INTER-LIGAND FREE ENERGY PREDICTED BY IDOCK:   -4.62 KCAL/MOL
REMARK 924 INTRA-LIGAND FREE ENERGY PREDICTED BY IDOCK:   -0.66 KCAL/MOL
REMARK 927      BINDING AFFINITY PREDICTED BY RF-SCORE:    0.00 PKD
ROOT
HETATM    1  C   UNL     1      -8.129   8.282  63.097  1.00  0.00    -0.142 C  
HETATM    2  N   UNL     1      -8.176   9.683  63.493  1.00  0.00    -0.145 NA 
HETATM    3  C   UNL     1      -9.300  10.378  62.882  1.00  0.00    -0.319 C  
ENDROOT
BRANCH   2   4
HETATM    4  C   UNL     1      -7.995   9.918  64.938  1.00  0.00    -0.138 C  
BRANCH   4   5
HETATM    5  C   UNL     1      -9.126   9.654  65.972  1.00  0.00    -0.171 C  
BRANCH   5   6
HETATM    6  O   UNL     1      -8.991  10.636  67.020  1.00  0.00    -0.137 OA 
BRANCH   6   7
HETATM    7  C   UNL     1      -8.478  10.312  68.251  1.00  0.00    -0.121 A  
HETATM    8  C   UNL     1      -7.082  10.449  68.314  1.00  0.00    -0.078 A  
HETATM    9  C   UNL     1      -6.342  10.038  69.433  1.00  0.00    -0.046 A  
HETATM   10  C   UNL     1      -6.998   9.517  70.541  1.00  0.00    -0.124 A  
HETATM   11  C   UNL     1      -8.380   9.365  70.494  1.00  0.00    -0.233 A  
HETATM   12  C   UNL     1      -9.129   9.699  69.334  1.00  0.00    -0.194 A  
BRANCH  12  13
HETATM   13  C   UNL     1     -10.539   9.155  69.301  1.00  0.00    -0.229 C  
BRANCH  13  14
HETATM   14  C   UNL     1     -11.529   9.935  70.155  1.00  0.00    -0.309 A  
HETATM   15  C   UNL     1     -12.261   9.269  71.149  1.00  0.00    -0.373 A  
HETATM   16  C   UNL     1     -13.059   9.987  72.044  1.00  0.00    -0.541 A  
HETATM   17  C   UNL     1     -13.146  11.374  71.949  1.00  0.00    -0.505 A  
HETATM   18  C   UNL     1     -12.469  12.042  70.934  1.00  0.00    -0.384 A  
HETATM   19  C   UNL     1     -11.665  11.329  70.043  1.00  0.00    -0.428 A  
ENDBRANCH  13  14
ENDBRANCH  12  13
ENDBRANCH   6   7
ENDBRANCH   5   6
ENDBRANCH   4   5
ENDBRANCH   2   4
TORSDOF 6
ENDMDL
MODEL      215
REMARK 921   NORMALIZED FREE ENERGY PREDICTED BY IDOCK:   -3.27 KCAL/MOL
REMARK 922        TOTAL FREE ENERGY PREDICTED BY IDOCK:   -5.25 KCAL/MOL
REMARK 923 INTER-LIGAND FREE ENERGY PREDICTED BY IDOCK:   -4.76 KCAL/MOL
REMARK 924 INTRA-LIGAND FREE ENERGY PREDICTED BY IDOCK:   -0.49 KCAL/MOL
REMARK 927      BINDING AFFINITY PREDICTED BY RF-SCORE:    0.00 PKD
ROOT
HETATM    1  C   UNL     1     -12.833   8.771  72.155  1.00  0.00    -0.400 C  
HETATM    2  N   UNL     1     -11.552   8.297  71.648  1.00  0.00    -0.270 NA 
HETATM    3  C   UNL     1     -11.632   6.918  71.188  1.00  0.00    -0.319 C  
ENDROOT
BRANCH   2   4
HETATM    4  C   UNL     1     -10.872   9.233  70.731  1.00  0.00    -0.284 C  
BRANCH   4   5
HETATM    5  C   UNL     1     -10.165   8.757  69.430  1.00  0.00    -0.210 C  
BRANCH   5   6
HETATM    6  O   UNL     1     -10.425   9.745  68.411  1.00  0.00    -0.199 OA 
BRANCH   6   7
HETATM    7  C   UNL     1      -9.439  10.577  67.944  1.00  0.00    -0.147 A  
HETATM    8  C   UNL     1      -8.171   9.975  67.941  1.00  0.00    -0.113 A  
HETATM    9  C   UNL     1      -7.006  10.693  67.634  1.00  0.00    -0.079 A  
HETATM   10  C   UNL     1      -7.094  12.033  67.277  1.00  0.00    -0.149 A  
HETATM   11  C   UNL     1      -8.341  12.649  67.282  1.00  0.00    -0.189 A  
HETATM   12  C   UNL     1      -9.516  11.954  67.673  1.00  0.00    -0.182 A  
BRANCH  12  13
HETATM   13  C   UNL     1     -10.712  12.829  67.970  1.00  0.00    -0.246 C  
BRANCH  13  14
HETATM   14  C   UNL     1     -10.890  13.991  67.003  1.00  0.00    -0.291 A  
HETATM   15  C   UNL     1     -10.302  15.230  67.294  1.00  0.00    -0.264 A  
HETATM   16  C   UNL     1     -10.322  16.264  66.353  1.00  0.00    -0.319 A  
HETATM   17  C   UNL     1     -10.939  16.077  65.118  1.00  0.00    -0.360 A  
HETATM   18  C   UNL     1     -11.575  14.872  64.839  1.00  0.00    -0.395 A  
HETATM   19  C   UNL     1     -11.551  13.835  65.773  1.00  0.00    -0.342 A  
ENDBRANCH  13  14
ENDBRANCH  12  13
ENDBRANCH   6   7
ENDBRANCH   5   6
ENDBRANCH   4   5
ENDBRANCH   2   4
TORSDOF 6
ENDMDL
MODEL      216
REMARK 921   NORMALIZED FREE ENERGY PREDICTED BY IDOCK:   -3.27 KCAL/MOL
REMARK 922        TOTAL FREE ENERGY PREDICTED BY IDOCK:   -5.25 KCAL/MOL
REMARK 923 INTER-LIGAND FREE ENERGY PREDICTED BY IDOCK:   -4.45 KCAL/MOL
REMARK 924 INTRA-LIGAND FREE ENERGY PREDICTED BY IDOCK:   -0.80 KCAL/MOL
REMARK 927      BINDING AFFINITY PREDICTED BY RF-SCORE:    0.00 PKD
ROOT
HETATM    1  C   UNL     1     -12.119   9.724  71.342  1.00  0.00    -0.400 C  
HETATM    2  N   UNL     1     -12.227   8.485  72.101  1.00  0.00    -0.358 NA 
HETATM    3  C   UNL     1     -13.064   7.508  71.419  1.00  0.00    -0.325 C  
ENDROOT
BRANCH   2   4
HETATM    4  C   UNL     1     -10.946   7.970  72.620  1.00  0.00    -0.382 C  
BRANCH   4   5
HETATM    5  C   UNL     1     -10.866   6.738  73.565  1.00  0.00    -0.214 C  
BRANCH   5   6
HETATM    6  O   UNL     1      -9.663   6.014  73.230  1.00  0.00    -0.153 OA 
BRANCH   6   7
HETATM    7  C   UNL     1      -9.697   4.864  72.483  1.00  0.00    -0.150 A  
HETATM    8  C   UNL     1     -10.175   3.758  73.204  1.00  0.00    -0.228 A  
HETATM    9  C   UNL     1     -10.160   2.459  72.673  1.00  0.00    -0.224 A  
HETATM   10  C   UNL     1      -9.702   2.247  71.379  1.00  0.00    -0.216 A  
HETATM   11  C   UNL     1      -9.216   3.329  70.652  1.00  0.00    -0.207 A  
HETATM   12  C   UNL     1      -9.148   4.634  71.210  1.00  0.00    -0.179 A  
BRANCH  12  13
HETATM   13  C   UNL     1      -8.283   5.613  70.451  1.00  0.00    -0.105 C  
BRANCH  13  14
HETATM   14  C   UNL     1      -8.973   6.260  69.257  1.00  0.00    -0.125 A  
HETATM   15  C   UNL     1      -8.200   6.837  68.240  1.00  0.00    -0.115 A  
HETATM   16  C   UNL     1      -8.802   7.298  67.066  1.00  0.00    -0.130 A  
HETATM   17  C   UNL     1     -10.182   7.199  66.899  1.00  0.00    -0.330 A  
HETATM   18  C   UNL     1     -10.967   6.680  67.923  1.00  0.00    -0.342 A  
HETATM   19  C   UNL     1     -10.368   6.211  69.094  1.00  0.00    -0.271 A  
ENDBRANCH  13  14
ENDBRANCH  12  13
ENDBRANCH   6   7
ENDBRANCH   5   6
ENDBRANCH   4   5
ENDBRANCH   2   4
TORSDOF 6
ENDMDL
MODEL      217
REMARK 921   NORMALIZED FREE ENERGY PREDICTED BY IDOCK:   -3.27 KCAL/MOL
REMARK 922        TOTAL FREE ENERGY PREDICTED BY IDOCK:   -5.25 KCAL/MOL
REMARK 923 INTER-LIGAND FREE ENERGY PREDICTED BY IDOCK:   -4.51 KCAL/MOL
REMARK 924 INTRA-LIGAND FREE ENERGY PREDICTED BY IDOCK:   -0.74 KCAL/MOL
REMARK 927      BINDING AFFINITY PREDICTED BY RF-SCORE:    0.00 PKD
ROOT
HETATM    1  C   UNL     1     -12.705   7.494  71.160  1.00  0.00    -0.241 C  
HETATM    2  N   UNL     1     -11.996   8.399  72.054  1.00  0.00    -0.332 NA 
HETATM    3  C   UNL     1     -10.980   7.703  72.831  1.00  0.00    -0.400 C  
ENDROOT
BRANCH   2   4
HETATM    4  C   UNL     1     -11.560   9.662  71.428  1.00  0.00    -0.400 C  
BRANCH   4   5
HETATM    5  C   UNL     1     -11.255   9.775  69.908  1.00  0.00    -0.229 C  
BRANCH   5   6
HETATM    6  O   UNL     1     -10.710  11.090  69.673  1.00  0.00    -0.224 OA 
BRANCH   6   7
HETATM    7  C   UNL     1     -10.534  11.583  68.404  1.00  0.00    -0.207 A  
HETATM    8  C   UNL     1     -11.725  12.059  67.832  1.00  0.00    -0.393 A  
HETATM    9  C   UNL     1     -11.794  12.476  66.495  1.00  0.00    -0.434 A  
HETATM   10  C   UNL     1     -10.650  12.465  65.708  1.00  0.00    -0.288 A  
HETATM   11  C   UNL     1      -9.463  11.989  66.253  1.00  0.00    -0.237 A  
HETATM   12  C   UNL     1      -9.400  11.485  67.580  1.00  0.00    -0.171 A  
BRANCH  12  13
HETATM   13  C   UNL     1      -8.159  10.686  67.907  1.00  0.00    -0.111 C  
BRANCH  13  14
HETATM   14  C   UNL     1      -8.355   9.177  67.847  1.00  0.00    -0.117 A  
HETATM   15  C   UNL     1      -9.215   8.628  66.885  1.00  0.00    -0.198 A  
HETATM   16  C   UNL     1      -9.293   7.243  66.711  1.00  0.00    -0.203 A  
HETATM   17  C   UNL     1      -8.524   6.392  67.500  1.00  0.00    -0.116 A  
HETATM   18  C   UNL     1      -7.708   6.921  68.495  1.00  0.00    -0.113 A  
HETATM   19  C   UNL     1      -7.622   8.303  68.667  1.00  0.00    -0.099 A  
ENDBRANCH  13  14
ENDBRANCH  12  13
ENDBRANCH   6   7
ENDBRANCH   5   6
ENDBRANCH   4   5
ENDBRANCH   2   4
TORSDOF 6
ENDMDL
MODEL      218
REMARK 921   NORMALIZED FREE ENERGY PREDICTED BY IDOCK:   -3.26 KCAL/MOL
REMARK 922        TOTAL FREE ENERGY PREDICTED BY IDOCK:   -5.25 KCAL/MOL
REMARK 923 INTER-LIGAND FREE ENERGY PREDICTED BY IDOCK:   -4.82 KCAL/MOL
REMARK 924 INTRA-LIGAND FREE ENERGY PREDICTED BY IDOCK:   -0.42 KCAL/MOL
REMARK 927      BINDING AFFINITY PREDICTED BY RF-SCORE:    0.00 PKD
ROOT
HETATM    1  C   UNL     1     -13.554  14.821  71.285  1.00  0.00    -0.412 C  
HETATM    2  N   UNL     1     -12.418  15.578  70.778  1.00  0.00    -0.417 NA 
HETATM    3  C   UNL     1     -11.257  15.454  71.648  1.00  0.00    -0.315 C  
ENDROOT
BRANCH   2   4
HETATM    4  C   UNL     1     -12.154  15.396  69.338  1.00  0.00    -0.280 C  
BRANCH   4   5
HETATM    5  C   UNL     1     -11.185  14.304  68.801  1.00  0.00    -0.262 C  
BRANCH   5   6
HETATM    6  O   UNL     1     -11.968  13.120  68.545  1.00  0.00    -0.337 OA 
BRANCH   6   7
HETATM    7  C   UNL     1     -11.795  11.969  69.272  1.00  0.00    -0.318 A  
HETATM    8  C   UNL     1     -12.262  12.079  70.592  1.00  0.00    -0.409 A  
HETATM    9  C   UNL     1     -12.056  11.069  71.542  1.00  0.00    -0.046 A  
HETATM   10  C   UNL     1     -11.409   9.895  71.174  1.00  0.00    -0.443 A  
HETATM   11  C   UNL     1     -10.931   9.771  69.874  1.00  0.00    -0.299 A  
HETATM   12  C   UNL     1     -11.059  10.822  68.927  1.00  0.00    -0.307 A  
BRANCH  12  13
HETATM   13  C   UNL     1     -10.194  10.687  67.696  1.00  0.00    -0.229 C  
BRANCH  13  14
HETATM   14  C   UNL     1      -8.820  11.331  67.824  1.00  0.00    -0.141 A  
HETATM   15  C   UNL     1      -8.624  12.641  67.366  1.00  0.00    -0.189 A  
HETATM   16  C   UNL     1      -7.419  13.306  67.610  1.00  0.00    -0.173 A  
HETATM   17  C   UNL     1      -6.394  12.667  68.304  1.00  0.00    -0.072 A  
HETATM   18  C   UNL     1      -6.554  11.348  68.715  1.00  0.00    -0.064 A  
HETATM   19  C   UNL     1      -7.759  10.684  68.479  1.00  0.00    -0.107 A  
ENDBRANCH  13  14
ENDBRANCH  12  13
ENDBRANCH   6   7
ENDBRANCH   5   6
ENDBRANCH   4   5
ENDBRANCH   2   4
TORSDOF 6
ENDMDL
MODEL      219
REMARK 921   NORMALIZED FREE ENERGY PREDICTED BY IDOCK:   -3.25 KCAL/MOL
REMARK 922        TOTAL FREE ENERGY PREDICTED BY IDOCK:   -5.22 KCAL/MOL
REMARK 923 INTER-LIGAND FREE ENERGY PREDICTED BY IDOCK:   -4.54 KCAL/MOL
REMARK 924 INTRA-LIGAND FREE ENERGY PREDICTED BY IDOCK:   -0.68 KCAL/MOL
REMARK 927      BINDING AFFINITY PREDICTED BY RF-SCORE:    0.00 PKD
ROOT
HETATM    1  C   UNL     1     -12.234  12.524  70.514  1.00  0.00    -0.297 C  
HETATM    2  N   UNL     1     -12.058  11.212  69.906  1.00  0.00    -0.330 NA 
HETATM    3  C   UNL     1     -10.732  11.063  69.323  1.00  0.00    -0.222 C  
ENDROOT
BRANCH   2   4
HETATM    4  C   UNL     1     -12.514  10.084  70.740  1.00  0.00    -0.295 C  
BRANCH   4   5
HETATM    5  C   UNL     1     -11.629   9.465  71.859  1.00  0.00    -0.278 C  
BRANCH   5   6
HETATM    6  O   UNL     1     -11.369   8.094  71.496  1.00  0.00    -0.248 OA 
BRANCH   6   7
HETATM    7  C   UNL     1     -10.440   7.334  72.161  1.00  0.00    -0.203 A  
HETATM    8  C   UNL     1     -10.752   7.153  73.518  1.00  0.00    -0.375 A  
HETATM    9  C   UNL     1      -9.867   6.528  74.410  1.00  0.00    -0.355 A  
HETATM   10  C   UNL     1      -8.658   6.027  73.944  1.00  0.00    -0.120 A  
HETATM   11  C   UNL     1      -8.327   6.204  72.605  1.00  0.00    -0.121 A  
HETATM   12  C   UNL     1      -9.177   6.910  71.713  1.00  0.00    -0.143 A  
BRANCH  12  13
HETATM   13  C   UNL     1      -8.537   7.327  70.409  1.00  0.00    -0.144 C  
BRANCH  13  14
HETATM   14  C   UNL     1      -9.337   6.945  69.171  1.00  0.00    -0.140 A  
HETATM   15  C   UNL     1      -9.668   5.602  68.948  1.00  0.00    -0.181 A  
HETATM   16  C   UNL     1     -10.528   5.246  67.904  1.00  0.00    -0.154 A  
HETATM   17  C   UNL     1     -11.056   6.225  67.066  1.00  0.00    -0.379 A  
HETATM   18  C   UNL     1     -10.692   7.556  67.242  1.00  0.00    -0.365 A  
HETATM   19  C   UNL     1      -9.840   7.915  68.287  1.00  0.00    -0.187 A  
ENDBRANCH  13  14
ENDBRANCH  12  13
ENDBRANCH   6   7
ENDBRANCH   5   6
ENDBRANCH   4   5
ENDBRANCH   2   4
TORSDOF 6
ENDMDL
MODEL      220
REMARK 921   NORMALIZED FREE ENERGY PREDICTED BY IDOCK:   -3.22 KCAL/MOL
REMARK 922        TOTAL FREE ENERGY PREDICTED BY IDOCK:   -5.19 KCAL/MOL
REMARK 923 INTER-LIGAND FREE ENERGY PREDICTED BY IDOCK:   -4.40 KCAL/MOL
REMARK 924 INTRA-LIGAND FREE ENERGY PREDICTED BY IDOCK:   -0.79 KCAL/MOL
REMARK 927      BINDING AFFINITY PREDICTED BY RF-SCORE:    0.00 PKD
ROOT
HETATM    1  C   UNL     1     -10.878   6.050  68.181  1.00  0.00    -0.281 C  
HETATM    2  N   UNL     1     -11.160   7.154  69.089  1.00  0.00    -0.104 NA 
HETATM    3  C   UNL     1     -11.718   6.686  70.349  1.00  0.00    -0.386 C  
ENDROOT
BRANCH   2   4
HETATM    4  C   UNL     1     -10.072   8.144  69.206  1.00  0.00    -0.202 C  
BRANCH   4   5
HETATM    5  C   UNL     1      -8.574   7.756  69.056  1.00  0.00    -0.135 C  
BRANCH   5   6
HETATM    6  O   UNL     1      -8.244   7.841  67.654  1.00  0.00    -0.122 OA 
BRANCH   6   7
HETATM    7  C   UNL     1      -7.506   8.881  67.148  1.00  0.00    -0.084 A  
HETATM    8  C   UNL     1      -6.582   9.397  68.071  1.00  0.00    -0.063 A  
HETATM    9  C   UNL     1      -5.827  10.549  67.805  1.00  0.00    -0.044 A  
HETATM   10  C   UNL     1      -5.952  11.189  66.579  1.00  0.00    -0.143 A  
HETATM   11  C   UNL     1      -6.868  10.699  65.655  1.00  0.00    -0.075 A  
HETATM   12  C   UNL     1      -7.699   9.583  65.946  1.00  0.00    -0.100 A  
BRANCH  12  13
HETATM   13  C   UNL     1      -8.870   9.392  65.010  1.00  0.00    -0.234 C  
BRANCH  13  14
HETATM   14  C   UNL     1      -9.972  10.430  65.170  1.00  0.00    -0.390 A  
HETATM   15  C   UNL     1     -10.412  10.781  66.454  1.00  0.00    -0.293 A  
HETATM   16  C   UNL     1     -11.311  11.837  66.633  1.00  0.00    -0.381 A  
HETATM   17  C   UNL     1     -11.788  12.546  65.533  1.00  0.00    -0.491 A  
HETATM   18  C   UNL     1     -11.403  12.173  64.250  1.00  0.00    -0.426 A  
HETATM   19  C   UNL     1     -10.501  11.124  64.068  1.00  0.00    -0.447 A  
ENDBRANCH  13  14
ENDBRANCH  12  13
ENDBRANCH   6   7
ENDBRANCH   5   6
ENDBRANCH   4   5
ENDBRANCH   2   4
TORSDOF 6
ENDMDL
MODEL      221
REMARK 921   NORMALIZED FREE ENERGY PREDICTED BY IDOCK:   -3.22 KCAL/MOL
REMARK 922        TOTAL FREE ENERGY PREDICTED BY IDOCK:   -5.19 KCAL/MOL
REMARK 923 INTER-LIGAND FREE ENERGY PREDICTED BY IDOCK:   -4.58 KCAL/MOL
REMARK 924 INTRA-LIGAND FREE ENERGY PREDICTED BY IDOCK:   -0.60 KCAL/MOL
REMARK 927      BINDING AFFINITY PREDICTED BY RF-SCORE:    0.00 PKD
ROOT
HETATM    1  C   UNL     1     -13.182   8.159  71.777  1.00  0.00    -0.341 C  
HETATM    2  N   UNL     1     -12.371   9.310  71.404  1.00  0.00    -0.326 NA 
HETATM    3  C   UNL     1     -12.977  10.560  71.839  1.00  0.00    -0.447 C  
ENDROOT
BRANCH   2   4
HETATM    4  C   UNL     1     -10.932   9.166  71.699  1.00  0.00    -0.374 C  
BRANCH   4   5
HETATM    5  C   UNL     1      -9.850   9.156  70.582  1.00  0.00    -0.249 C  
BRANCH   5   6
HETATM    6  O   UNL     1     -10.410   8.465  69.445  1.00  0.00    -0.208 OA 
BRANCH   6   7
HETATM    7  C   UNL     1     -10.002   7.203  69.094  1.00  0.00    -0.168 A  
HETATM    8  C   UNL     1     -10.644   6.196  69.831  1.00  0.00    -0.328 A  
HETATM    9  C   UNL     1     -10.274   4.846  69.728  1.00  0.00    -0.284 A  
HETATM   10  C   UNL     1      -9.272   4.471  68.843  1.00  0.00    -0.190 A  
HETATM   11  C   UNL     1      -8.617   5.455  68.111  1.00  0.00    -0.096 A  
HETATM   12  C   UNL     1      -8.926   6.833  68.269  1.00  0.00    -0.123 A  
BRANCH  12  13
HETATM   13  C   UNL     1      -7.910   7.790  67.690  1.00  0.00    -0.123 C  
BRANCH  13  14
HETATM   14  C   UNL     1      -8.513   9.056  67.097  1.00  0.00    -0.113 A  
HETATM   15  C   UNL     1      -8.023  10.309  67.494  1.00  0.00    -0.106 A  
HETATM   16  C   UNL     1      -8.452  11.475  66.855  1.00  0.00    -0.165 A  
HETATM   17  C   UNL     1      -9.382  11.406  65.820  1.00  0.00    -0.247 A  
HETATM   18  C   UNL     1      -9.918  10.175  65.453  1.00  0.00    -0.377 A  
HETATM   19  C   UNL     1      -9.486   9.008  66.085  1.00  0.00    -0.318 A  
ENDBRANCH  13  14
ENDBRANCH  12  13
ENDBRANCH   6   7
ENDBRANCH   5   6
ENDBRANCH   4   5
ENDBRANCH   2   4
TORSDOF 6
ENDMDL
MODEL      222
REMARK 921   NORMALIZED FREE ENERGY PREDICTED BY IDOCK:   -3.22 KCAL/MOL
REMARK 922        TOTAL FREE ENERGY PREDICTED BY IDOCK:   -5.18 KCAL/MOL
REMARK 923 INTER-LIGAND FREE ENERGY PREDICTED BY IDOCK:   -4.35 KCAL/MOL
REMARK 924 INTRA-LIGAND FREE ENERGY PREDICTED BY IDOCK:   -0.83 KCAL/MOL
REMARK 927      BINDING AFFINITY PREDICTED BY RF-SCORE:    0.00 PKD
ROOT
HETATM    1  C   UNL     1     -10.778  11.742  64.810  1.00  0.00    -0.302 C  
HETATM    2  N   UNL     1     -10.952  13.166  64.558  1.00  0.00    -0.352 NA 
HETATM    3  C   UNL     1     -12.091  13.423  63.688  1.00  0.00    -0.450 C  
ENDROOT
BRANCH   2   4
HETATM    4  C   UNL     1     -10.870  14.016  65.761  1.00  0.00    -0.291 C  
BRANCH   4   5
HETATM    5  C   UNL     1     -11.691  13.719  67.048  1.00  0.00    -0.390 C  
BRANCH   5   6
HETATM    6  O   UNL     1     -11.780  14.949  67.797  1.00  0.00    -0.347 OA 
BRANCH   6   7
HETATM    7  C   UNL     1     -11.624  14.976  69.161  1.00  0.00    -0.310 A  
HETATM    8  C   UNL     1     -12.837  14.836  69.853  1.00  0.00    -0.023 A  
HETATM    9  C   UNL     1     -12.920  14.976  71.246  1.00  0.00    -0.448 A  
HETATM   10  C   UNL     1     -11.770  15.219  71.986  1.00  0.00    -0.529 A  
HETATM   11  C   UNL     1     -10.560  15.370  71.317  1.00  0.00     0.258 A  
HETATM   12  C   UNL     1     -10.477  15.314  69.900  1.00  0.00    -0.277 A  
BRANCH  12  13
HETATM   13  C   UNL     1      -9.191  15.842  69.310  1.00  0.00    -0.254 C  
BRANCH  13  14
HETATM   14  C   UNL     1      -8.066  14.818  69.247  1.00  0.00    -0.088 A  
HETATM   15  C   UNL     1      -6.862  15.070  69.920  1.00  0.00    -0.162 A  
HETATM   16  C   UNL     1      -5.875  14.083  70.004  1.00  0.00    -0.133 A  
HETATM   17  C   UNL     1      -6.075  12.840  69.409  1.00  0.00    -0.107 A  
HETATM   18  C   UNL     1      -7.241  12.595  68.692  1.00  0.00    -0.108 A  
HETATM   19  C   UNL     1      -8.231  13.576  68.611  1.00  0.00    -0.040 A  
ENDBRANCH  13  14
ENDBRANCH  12  13
ENDBRANCH   6   7
ENDBRANCH   5   6
ENDBRANCH   4   5
ENDBRANCH   2   4
TORSDOF 6
ENDMDL
MODEL      223
REMARK 921   NORMALIZED FREE ENERGY PREDICTED BY IDOCK:   -3.21 KCAL/MOL
REMARK 922        TOTAL FREE ENERGY PREDICTED BY IDOCK:   -5.17 KCAL/MOL
REMARK 923 INTER-LIGAND FREE ENERGY PREDICTED BY IDOCK:   -4.95 KCAL/MOL
REMARK 924 INTRA-LIGAND FREE ENERGY PREDICTED BY IDOCK:   -0.22 KCAL/MOL
REMARK 927      BINDING AFFINITY PREDICTED BY RF-SCORE:    0.00 PKD
ROOT
HETATM    1  C   UNL     1     -12.525  14.731  69.774  1.00  0.00    -0.191 C  
HETATM    2  N   UNL     1     -11.420  14.589  68.836  1.00  0.00    -0.282 NA 
HETATM    3  C   UNL     1     -10.819  13.265  68.907  1.00  0.00    -0.210 C  
ENDROOT
BRANCH   2   4
HETATM    4  C   UNL     1     -11.703  15.084  67.475  1.00  0.00    -0.253 C  
BRANCH   4   5
HETATM    5  C   UNL     1     -10.575  15.483  66.482  1.00  0.00    -0.307 C  
BRANCH   5   6
HETATM    6  O   UNL     1      -9.541  16.139  67.244  1.00  0.00    -0.226 OA 
BRANCH   6   7
HETATM    7  C   UNL     1      -9.487  17.506  67.361  1.00  0.00    -0.255 A  
HETATM    8  C   UNL     1     -10.746  18.115  67.233  1.00  0.00    -0.336 A  
HETATM    9  C   UNL     1     -10.897  19.509  67.182  1.00  0.00    -0.555 A  
HETATM   10  C   UNL     1      -9.783  20.329  67.304  1.00  0.00    -0.590 A  
HETATM   11  C   UNL     1      -8.527  19.744  67.423  1.00  0.00    -0.360 A  
HETATM   12  C   UNL     1      -8.353  18.335  67.390  1.00  0.00    -0.245 A  
BRANCH  12  13
HETATM   13  C   UNL     1      -6.933  17.867  67.172  1.00  0.00    -0.202 C  
BRANCH  13  14
HETATM   14  C   UNL     1      -6.364  17.042  68.318  1.00  0.00    -0.143 A  
HETATM   15  C   UNL     1      -5.547  17.660  69.276  1.00  0.00    -0.200 A  
HETATM   16  C   UNL     1      -5.139  16.963  70.417  1.00  0.00    -0.219 A  
HETATM   17  C   UNL     1      -5.532  15.640  70.609  1.00  0.00    -0.120 A  
HETATM   18  C   UNL     1      -6.296  14.998  69.640  1.00  0.00    -0.142 A  
HETATM   19  C   UNL     1      -6.711  15.693  68.503  1.00  0.00    -0.114 A  
ENDBRANCH  13  14
ENDBRANCH  12  13
ENDBRANCH   6   7
ENDBRANCH   5   6
ENDBRANCH   4   5
ENDBRANCH   2   4
TORSDOF 6
ENDMDL
MODEL      224
REMARK 921   NORMALIZED FREE ENERGY PREDICTED BY IDOCK:   -3.20 KCAL/MOL
REMARK 922        TOTAL FREE ENERGY PREDICTED BY IDOCK:   -5.16 KCAL/MOL
REMARK 923 INTER-LIGAND FREE ENERGY PREDICTED BY IDOCK:   -4.57 KCAL/MOL
REMARK 924 INTRA-LIGAND FREE ENERGY PREDICTED BY IDOCK:   -0.59 KCAL/MOL
REMARK 927      BINDING AFFINITY PREDICTED BY RF-SCORE:    0.00 PKD
ROOT
HETATM    1  C   UNL     1     -12.452  13.589  64.784  1.00  0.00    -0.355 C  
HETATM    2  N   UNL     1     -11.062  14.013  64.688  1.00  0.00    -0.384 NA 
HETATM    3  C   UNL     1     -10.937  15.463  64.735  1.00  0.00    -0.393 C  
ENDROOT
BRANCH   2   4
HETATM    4  C   UNL     1     -10.132  13.268  65.558  1.00  0.00    -0.263 C  
BRANCH   4   5
HETATM    5  C   UNL     1      -9.706  13.790  66.959  1.00  0.00    -0.251 C  
BRANCH   5   6
HETATM    6  O   UNL     1      -8.527  14.602  66.778  1.00  0.00    -0.208 OA 
BRANCH   6   7
HETATM    7  C   UNL     1      -7.688  14.901  67.822  1.00  0.00    -0.161 A  
HETATM    8  C   UNL     1      -7.240  13.760  68.507  1.00  0.00    -0.108 A  
HETATM    9  C   UNL     1      -6.488  13.848  69.688  1.00  0.00    -0.108 A  
HETATM   10  C   UNL     1      -6.128  15.093  70.187  1.00  0.00    -0.148 A  
HETATM   11  C   UNL     1      -6.570  16.235  69.528  1.00  0.00    -0.202 A  
HETATM   12  C   UNL     1      -7.403  16.159  68.379  1.00  0.00    -0.140 A  
BRANCH  12  13
HETATM   13  C   UNL     1      -8.084  17.451  67.992  1.00  0.00    -0.227 C  
BRANCH  13  14
HETATM   14  C   UNL     1      -7.454  18.156  66.799  1.00  0.00    -0.242 A  
HETATM   15  C   UNL     1      -7.927  19.418  66.412  1.00  0.00    -0.318 A  
HETATM   16  C   UNL     1      -7.267  20.150  65.420  1.00  0.00    -0.247 A  
HETATM   17  C   UNL     1      -6.136  19.627  64.798  1.00  0.00    -0.316 A  
HETATM   18  C   UNL     1      -5.688  18.353  65.133  1.00  0.00    -0.222 A  
HETATM   19  C   UNL     1      -6.341  17.622  66.128  1.00  0.00    -0.274 A  
ENDBRANCH  13  14
ENDBRANCH  12  13
ENDBRANCH   6   7
ENDBRANCH   5   6
ENDBRANCH   4   5
ENDBRANCH   2   4
TORSDOF 6
ENDMDL
MODEL      225
REMARK 921   NORMALIZED FREE ENERGY PREDICTED BY IDOCK:   -3.20 KCAL/MOL
REMARK 922        TOTAL FREE ENERGY PREDICTED BY IDOCK:   -5.16 KCAL/MOL
REMARK 923 INTER-LIGAND FREE ENERGY PREDICTED BY IDOCK:   -4.48 KCAL/MOL
REMARK 924 INTRA-LIGAND FREE ENERGY PREDICTED BY IDOCK:   -0.67 KCAL/MOL
REMARK 927      BINDING AFFINITY PREDICTED BY RF-SCORE:    0.00 PKD
ROOT
HETATM    1  C   UNL     1      -8.462   6.594  72.236  1.00  0.00    -0.111 C  
HETATM    2  N   UNL     1      -9.750   7.272  72.303  1.00  0.00    -0.149 NA 
HETATM    3  C   UNL     1     -10.463   6.951  73.531  1.00  0.00    -0.352 C  
ENDROOT
BRANCH   2   4
HETATM    4  C   UNL     1      -9.708   8.703  71.949  1.00  0.00    -0.313 C  
BRANCH   4   5
HETATM    5  C   UNL     1     -10.611   9.313  70.839  1.00  0.00    -0.296 C  
BRANCH   5   6
HETATM    6  O   UNL     1      -9.741   9.859  69.826  1.00  0.00    -0.214 OA 
BRANCH   6   7
HETATM    7  C   UNL     1      -9.832   9.475  68.512  1.00  0.00    -0.158 A  
HETATM    8  C   UNL     1     -10.132   8.112  68.360  1.00  0.00    -0.226 A  
HETATM    9  C   UNL     1     -10.133   7.484  67.105  1.00  0.00    -0.317 A  
HETATM   10  C   UNL     1      -9.874   8.228  65.961  1.00  0.00    -0.025 A  
HETATM   11  C   UNL     1      -9.566   9.578  66.092  1.00  0.00    -0.302 A  
HETATM   12  C   UNL     1      -9.479  10.204  67.364  1.00  0.00    -0.175 A  
BRANCH  12  13
HETATM   13  C   UNL     1      -8.798  11.553  67.371  1.00  0.00    -0.157 C  
BRANCH  13  14
HETATM   14  C   UNL     1      -9.742  12.728  67.589  1.00  0.00    -0.205 A  
HETATM   15  C   UNL     1     -10.949  12.788  66.879  1.00  0.00    -0.291 A  
HETATM   16  C   UNL     1     -11.898  13.771  67.172  1.00  0.00    -0.441 A  
HETATM   17  C   UNL     1     -11.648  14.712  68.169  1.00  0.00    -0.362 A  
HETATM   18  C   UNL     1     -10.431  14.699  68.843  1.00  0.00    -0.248 A  
HETATM   19  C   UNL     1      -9.484  13.714  68.557  1.00  0.00    -0.143 A  
ENDBRANCH  13  14
ENDBRANCH  12  13
ENDBRANCH   6   7
ENDBRANCH   5   6
ENDBRANCH   4   5
ENDBRANCH   2   4
TORSDOF 6
ENDMDL
MODEL      226
REMARK 921   NORMALIZED FREE ENERGY PREDICTED BY IDOCK:   -3.19 KCAL/MOL
REMARK 922        TOTAL FREE ENERGY PREDICTED BY IDOCK:   -5.14 KCAL/MOL
REMARK 923 INTER-LIGAND FREE ENERGY PREDICTED BY IDOCK:   -4.37 KCAL/MOL
REMARK 924 INTRA-LIGAND FREE ENERGY PREDICTED BY IDOCK:   -0.77 KCAL/MOL
REMARK 927      BINDING AFFINITY PREDICTED BY RF-SCORE:    0.00 PKD
ROOT
HETATM    1  C   UNL     1      -6.556   6.721  65.907  1.00  0.00    -0.051 C  
HETATM    2  N   UNL     1      -7.582   7.651  66.359  1.00  0.00    -0.087 NA 
HETATM    3  C   UNL     1      -8.918   7.091  66.213  1.00  0.00    -0.151 C  
ENDROOT
BRANCH   2   4
HETATM    4  C   UNL     1      -7.301   8.289  67.659  1.00  0.00    -0.093 C  
BRANCH   4   5
HETATM    5  C   UNL     1      -7.873   7.740  68.997  1.00  0.00    -0.118 C  
BRANCH   5   6
HETATM    6  O   UNL     1      -8.179   8.875  69.834  1.00  0.00    -0.105 OA 
BRANCH   6   7
HETATM    7  C   UNL     1      -9.471   9.208  70.156  1.00  0.00    -0.208 A  
HETATM    8  C   UNL     1     -10.012  10.184  69.304  1.00  0.00    -0.234 A  
HETATM    9  C   UNL     1     -11.266  10.766  69.540  1.00  0.00    -0.342 A  
HETATM   10  C   UNL     1     -12.030  10.346  70.621  1.00  0.00    -0.448 A  
HETATM   11  C   UNL     1     -11.507   9.387  71.482  1.00  0.00    -0.467 A  
HETATM   12  C   UNL     1     -10.204   8.852  71.301  1.00  0.00    -0.361 A  
BRANCH  12  13
HETATM   13  C   UNL     1      -9.644   8.106  72.489  1.00  0.00    -0.347 C  
BRANCH  13  14
HETATM   14  C   UNL     1      -9.919   6.609  72.473  1.00  0.00    -0.184 A  
HETATM   15  C   UNL     1      -8.956   5.733  71.953  1.00  0.00    -0.142 A  
HETATM   16  C   UNL     1      -9.119   4.349  72.066  1.00  0.00    -0.159 A  
HETATM   17  C   UNL     1     -10.249   3.825  72.689  1.00  0.00    -0.238 A  
HETATM   18  C   UNL     1     -11.240   4.681  73.159  1.00  0.00    -0.367 A  
HETATM   19  C   UNL     1     -11.076   6.063  73.054  1.00  0.00    -0.271 A  
ENDBRANCH  13  14
ENDBRANCH  12  13
ENDBRANCH   6   7
ENDBRANCH   5   6
ENDBRANCH   4   5
ENDBRANCH   2   4
TORSDOF 6
ENDMDL
MODEL      227
REMARK 921   NORMALIZED FREE ENERGY PREDICTED BY IDOCK:   -3.17 KCAL/MOL
REMARK 922        TOTAL FREE ENERGY PREDICTED BY IDOCK:   -5.12 KCAL/MOL
REMARK 923 INTER-LIGAND FREE ENERGY PREDICTED BY IDOCK:   -4.47 KCAL/MOL
REMARK 924 INTRA-LIGAND FREE ENERGY PREDICTED BY IDOCK:   -0.65 KCAL/MOL
REMARK 927      BINDING AFFINITY PREDICTED BY RF-SCORE:    0.00 PKD
ROOT
HETATM    1  C   UNL     1     -13.091  11.892  63.803  1.00  0.00    -0.027 C  
HETATM    2  N   UNL     1     -12.287  13.106  63.809  1.00  0.00    -0.680 NA 
HETATM    3  C   UNL     1     -12.731  14.041  64.833  1.00  0.00    -0.273 C  
ENDROOT
BRANCH   2   4
HETATM    4  C   UNL     1     -10.831  12.876  63.749  1.00  0.00    -0.314 C  
BRANCH   4   5
HETATM    5  C   UNL     1     -10.086  11.979  64.779  1.00  0.00    -0.257 C  
BRANCH   5   6
HETATM    6  O   UNL     1     -10.275  12.570  66.082  1.00  0.00    -0.242 OA 
BRANCH   6   7
HETATM    7  C   UNL     1      -9.268  13.250  66.720  1.00  0.00    -0.233 A  
HETATM    8  C   UNL     1      -9.373  14.642  66.576  1.00  0.00    -0.313 A  
HETATM    9  C   UNL     1      -8.373  15.515  67.031  1.00  0.00    -0.265 A  
HETATM   10  C   UNL     1      -7.257  15.007  67.684  1.00  0.00    -0.208 A  
HETATM   11  C   UNL     1      -7.131  13.630  67.827  1.00  0.00    -0.167 A  
HETATM   12  C   UNL     1      -8.096  12.732  67.296  1.00  0.00    -0.172 A  
BRANCH  12  13
HETATM   13  C   UNL     1      -7.655  11.290  67.214  1.00  0.00    -0.130 C  
BRANCH  13  14
HETATM   14  C   UNL     1      -8.541  10.321  67.986  1.00  0.00    -0.118 A  
HETATM   15  C   UNL     1      -8.641  10.434  69.380  1.00  0.00    -0.143 A  
HETATM   16  C   UNL     1      -9.562   9.659  70.091  1.00  0.00    -0.300 A  
HETATM   17  C   UNL     1     -10.383   8.755  69.421  1.00  0.00    -0.217 A  
HETATM   18  C   UNL     1     -10.255   8.592  68.045  1.00  0.00    -0.261 A  
HETATM   19  C   UNL     1      -9.342   9.370  67.331  1.00  0.00    -0.151 A  
ENDBRANCH  13  14
ENDBRANCH  12  13
ENDBRANCH   6   7
ENDBRANCH   5   6
ENDBRANCH   4   5
ENDBRANCH   2   4
TORSDOF 6
ENDMDL
MODEL      228
REMARK 921   NORMALIZED FREE ENERGY PREDICTED BY IDOCK:   -3.16 KCAL/MOL
REMARK 922        TOTAL FREE ENERGY PREDICTED BY IDOCK:   -5.11 KCAL/MOL
REMARK 923 INTER-LIGAND FREE ENERGY PREDICTED BY IDOCK:   -4.44 KCAL/MOL
REMARK 924 INTRA-LIGAND FREE ENERGY PREDICTED BY IDOCK:   -0.67 KCAL/MOL
REMARK 927      BINDING AFFINITY PREDICTED BY RF-SCORE:    0.00 PKD
ROOT
HETATM    1  C   UNL     1     -10.447   3.658  62.384  1.00  0.00    -0.185 C  
HETATM    2  N   UNL     1     -10.233   3.160  63.736  1.00  0.00    -0.183 NA 
HETATM    3  C   UNL     1      -9.119   2.224  63.795  1.00  0.00    -0.098 C  
ENDROOT
BRANCH   2   4
HETATM    4  C   UNL     1     -10.242   4.201  64.781  1.00  0.00    -0.195 C  
BRANCH   4   5
HETATM    5  C   UNL     1      -9.602   3.980  66.181  1.00  0.00    -0.197 C  
BRANCH   5   6
HETATM    6  O   UNL     1      -8.770   5.125  66.461  1.00  0.00    -0.111 OA 
BRANCH   6   7
HETATM    7  C   UNL     1      -9.270   6.403  66.441  1.00  0.00    -0.155 A  
HETATM    8  C   UNL     1      -8.432   7.308  65.771  1.00  0.00    -0.148 A  
HETATM    9  C   UNL     1      -8.685   8.687  65.755  1.00  0.00    -0.212 A  
HETATM   10  C   UNL     1      -9.820   9.188  66.380  1.00  0.00    -0.350 A  
HETATM   11  C   UNL     1     -10.658   8.309  67.057  1.00  0.00    -0.328 A  
HETATM   12  C   UNL     1     -10.366   6.922  67.151  1.00  0.00    -0.339 A  
BRANCH  12  13
HETATM   13  C   UNL     1     -11.155   6.169  68.197  1.00  0.00    -0.328 C  
BRANCH  13  14
HETATM   14  C   UNL     1     -10.845   6.582  69.630  1.00  0.00    -0.359 A  
HETATM   15  C   UNL     1     -11.891   6.967  70.481  1.00  0.00    -0.385 A  
HETATM   16  C   UNL     1     -11.653   7.203  71.838  1.00  0.00    -0.314 A  
HETATM   17  C   UNL     1     -10.367   7.069  72.358  1.00  0.00    -0.227 A  
HETATM   18  C   UNL     1      -9.310   6.742  71.514  1.00  0.00    -0.153 A  
HETATM   19  C   UNL     1      -9.547   6.499  70.160  1.00  0.00    -0.171 A  
ENDBRANCH  13  14
ENDBRANCH  12  13
ENDBRANCH   6   7
ENDBRANCH   5   6
ENDBRANCH   4   5
ENDBRANCH   2   4
TORSDOF 6
ENDMDL
MODEL      229
REMARK 921   NORMALIZED FREE ENERGY PREDICTED BY IDOCK:   -3.15 KCAL/MOL
REMARK 922        TOTAL FREE ENERGY PREDICTED BY IDOCK:   -5.09 KCAL/MOL
REMARK 923 INTER-LIGAND FREE ENERGY PREDICTED BY IDOCK:   -4.25 KCAL/MOL
REMARK 924 INTRA-LIGAND FREE ENERGY PREDICTED BY IDOCK:   -0.84 KCAL/MOL
REMARK 927      BINDING AFFINITY PREDICTED BY RF-SCORE:    0.00 PKD
ROOT
HETATM    1  C   UNL     1     -14.389   7.627  71.575  1.00  0.00    -0.452 C  
HETATM    2  N   UNL     1     -13.110   8.310  71.717  1.00  0.00    -0.337 NA 
HETATM    3  C   UNL     1     -13.284   9.740  71.926  1.00  0.00    -0.449 C  
ENDROOT
BRANCH   2   4
HETATM    4  C   UNL     1     -12.160   7.647  72.631  1.00  0.00    -0.091 C  
BRANCH   4   5
HETATM    5  C   UNL     1     -10.650   8.017  72.673  1.00  0.00    -0.350 C  
BRANCH   5   6
HETATM    6  O   UNL     1     -10.056   7.283  73.765  1.00  0.00    -0.326 OA 
BRANCH   6   7
HETATM    7  C   UNL     1      -8.904   6.556  73.604  1.00  0.00    -0.125 A  
HETATM    8  C   UNL     1      -7.745   7.302  73.872  1.00  0.00    -0.131 A  
HETATM    9  C   UNL     1      -6.459   6.792  73.635  1.00  0.00    -0.067 A  
HETATM   10  C   UNL     1      -6.307   5.495  73.160  1.00  0.00    -0.061 A  
HETATM   11  C   UNL     1      -7.444   4.744  72.880  1.00  0.00    -0.090 A  
HETATM   12  C   UNL     1      -8.750   5.280  73.036  1.00  0.00    -0.117 A  
BRANCH  12  13
HETATM   13  C   UNL     1      -9.852   4.492  72.366  1.00  0.00    -0.220 C  
BRANCH  13  14
HETATM   14  C   UNL     1      -9.757   4.454  70.847  1.00  0.00    -0.267 A  
HETATM   15  C   UNL     1      -9.332   3.280  70.209  1.00  0.00    -0.242 A  
HETATM   16  C   UNL     1      -9.382   3.170  68.816  1.00  0.00    -0.231 A  
HETATM   17  C   UNL     1      -9.845   4.234  68.045  1.00  0.00    -0.111 A  
HETATM   18  C   UNL     1     -10.218   5.424  68.661  1.00  0.00    -0.246 A  
HETATM   19  C   UNL     1     -10.175   5.534  70.052  1.00  0.00    -0.337 A  
ENDBRANCH  13  14
ENDBRANCH  12  13
ENDBRANCH   6   7
ENDBRANCH   5   6
ENDBRANCH   4   5
ENDBRANCH   2   4
TORSDOF 6
ENDMDL
MODEL      230
REMARK 921   NORMALIZED FREE ENERGY PREDICTED BY IDOCK:   -3.15 KCAL/MOL
REMARK 922        TOTAL FREE ENERGY PREDICTED BY IDOCK:   -5.09 KCAL/MOL
REMARK 923 INTER-LIGAND FREE ENERGY PREDICTED BY IDOCK:   -5.17 KCAL/MOL
REMARK 924 INTRA-LIGAND FREE ENERGY PREDICTED BY IDOCK:    0.08 KCAL/MOL
REMARK 927      BINDING AFFINITY PREDICTED BY RF-SCORE:    0.00 PKD
ROOT
HETATM    1  C   UNL     1      -7.413  17.666  65.850  1.00  0.00    -0.150 C  
HETATM    2  N   UNL     1      -6.135  17.287  66.438  1.00  0.00    -0.213 NA 
HETATM    3  C   UNL     1      -5.126  18.319  66.243  1.00  0.00    -0.151 C  
ENDROOT
BRANCH   2   4
HETATM    4  C   UNL     1      -6.227  16.741  67.805  1.00  0.00    -0.144 C  
BRANCH   4   5
HETATM    5  C   UNL     1      -6.996  15.428  68.127  1.00  0.00    -0.124 C  
BRANCH   5   6
HETATM    6  O   UNL     1      -7.972  15.233  67.083  1.00  0.00    -0.188 OA 
BRANCH   6   7
HETATM    7  C   UNL     1      -9.268  14.875  67.362  1.00  0.00    -0.194 A  
HETATM    8  C   UNL     1      -9.800  13.973  66.428  1.00  0.00    -0.306 A  
HETATM    9  C   UNL     1     -11.149  13.588  66.448  1.00  0.00    -0.311 A  
HETATM   10  C   UNL     1     -11.990  14.071  67.443  1.00  0.00    -0.439 A  
HETATM   11  C   UNL     1     -11.483  14.973  68.372  1.00  0.00    -0.340 A  
HETATM   12  C   UNL     1     -10.141  15.435  68.311  1.00  0.00    -0.218 A  
BRANCH  12  13
HETATM   13  C   UNL     1      -9.843  16.657  69.147  1.00  0.00    -0.244 C  
BRANCH  13  14
HETATM   14  C   UNL     1      -9.920  17.971  68.382  1.00  0.00    -0.382 A  
HETATM   15  C   UNL     1     -10.557  18.009  67.134  1.00  0.00    -0.337 A  
HETATM   16  C   UNL     1     -10.775  19.228  66.485  1.00  0.00    -0.487 A  
HETATM   17  C   UNL     1     -10.351  20.419  67.068  1.00  0.00    -0.317 A  
HETATM   18  C   UNL     1      -9.669  20.391  68.280  1.00  0.00    -0.205 A  
HETATM   19  C   UNL     1      -9.456  19.177  68.934  1.00  0.00    -0.420 A  
ENDBRANCH  13  14
ENDBRANCH  12  13
ENDBRANCH   6   7
ENDBRANCH   5   6
ENDBRANCH   4   5
ENDBRANCH   2   4
TORSDOF 6
ENDMDL
MODEL      231
REMARK 921   NORMALIZED FREE ENERGY PREDICTED BY IDOCK:   -3.15 KCAL/MOL
REMARK 922        TOTAL FREE ENERGY PREDICTED BY IDOCK:   -5.08 KCAL/MOL
REMARK 923 INTER-LIGAND FREE ENERGY PREDICTED BY IDOCK:   -4.58 KCAL/MOL
REMARK 924 INTRA-LIGAND FREE ENERGY PREDICTED BY IDOCK:   -0.50 KCAL/MOL
REMARK 927      BINDING AFFINITY PREDICTED BY RF-SCORE:    0.00 PKD
ROOT
HETATM    1  C   UNL     1      -6.367   5.254  66.078  1.00  0.00    -0.035 C  
HETATM    2  N   UNL     1      -7.248   6.174  65.372  1.00  0.00    -0.068 NA 
HETATM    3  C   UNL     1      -8.378   5.480  64.769  1.00  0.00    -0.136 C  
ENDROOT
BRANCH   2   4
HETATM    4  C   UNL     1      -7.584   7.399  66.122  1.00  0.00    -0.088 C  
BRANCH   4   5
HETATM    5  C   UNL     1      -9.020   7.993  66.145  1.00  0.00    -0.175 C  
BRANCH   5   6
HETATM    6  O   UNL     1      -8.909   9.378  66.536  1.00  0.00    -0.131 OA 
BRANCH   6   7
HETATM    7  C   UNL     1      -9.925  10.274  66.317  1.00  0.00    -0.235 A  
HETATM    8  C   UNL     1     -10.239  10.423  64.957  1.00  0.00    -0.334 A  
HETATM    9  C   UNL     1     -11.150  11.390  64.504  1.00  0.00    -0.302 A  
HETATM   10  C   UNL     1     -11.803  12.206  65.419  1.00  0.00    -0.357 A  
HETATM   11  C   UNL     1     -11.498  12.079  66.770  1.00  0.00    -0.410 A  
HETATM   12  C   UNL     1     -10.516  11.163  67.232  1.00  0.00    -0.263 A  
BRANCH  12  13
HETATM   13  C   UNL     1     -10.043  11.386  68.650  1.00  0.00    -0.217 C  
BRANCH  13  14
HETATM   14  C   UNL     1     -11.142  11.816  69.613  1.00  0.00    -0.139 A  
HETATM   15  C   UNL     1     -11.935  10.843  70.238  1.00  0.00    -0.448 A  
HETATM   16  C   UNL     1     -12.843  11.203  71.238  1.00  0.00    -0.515 A  
HETATM   17  C   UNL     1     -12.978  12.536  71.616  1.00  0.00    -0.405 A  
HETATM   18  C   UNL     1     -12.238  13.518  70.966  1.00  0.00    -0.348 A  
HETATM   19  C   UNL     1     -11.325  13.162  69.972  1.00  0.00     0.025 A  
ENDBRANCH  13  14
ENDBRANCH  12  13
ENDBRANCH   6   7
ENDBRANCH   5   6
ENDBRANCH   4   5
ENDBRANCH   2   4
TORSDOF 6
ENDMDL
MODEL      232
REMARK 921   NORMALIZED FREE ENERGY PREDICTED BY IDOCK:   -3.14 KCAL/MOL
REMARK 922        TOTAL FREE ENERGY PREDICTED BY IDOCK:   -5.08 KCAL/MOL
REMARK 923 INTER-LIGAND FREE ENERGY PREDICTED BY IDOCK:   -4.27 KCAL/MOL
REMARK 924 INTRA-LIGAND FREE ENERGY PREDICTED BY IDOCK:   -0.81 KCAL/MOL
REMARK 927      BINDING AFFINITY PREDICTED BY RF-SCORE:    0.00 PKD
ROOT
HETATM    1  C   UNL     1      -6.568   6.329  65.280  1.00  0.00    -0.043 C  
HETATM    2  N   UNL     1      -7.543   6.040  66.323  1.00  0.00    -0.089 NA 
HETATM    3  C   UNL     1      -7.129   4.916  67.151  1.00  0.00    -0.066 C  
ENDROOT
BRANCH   2   4
HETATM    4  C   UNL     1      -8.023   7.226  67.059  1.00  0.00    -0.109 C  
BRANCH   4   5
HETATM    5  C   UNL     1      -8.866   7.113  68.361  1.00  0.00    -0.127 C  
BRANCH   5   6
HETATM    6  O   UNL     1      -8.295   8.022  69.325  1.00  0.00    -0.130 OA 
BRANCH   6   7
HETATM    7  C   UNL     1      -8.464   7.842  70.675  1.00  0.00    -0.125 A  
HETATM    8  C   UNL     1      -7.753   6.738  71.172  1.00  0.00    -0.093 A  
HETATM    9  C   UNL     1      -7.896   6.295  72.495  1.00  0.00    -0.102 A  
HETATM   10  C   UNL     1      -8.730   6.983  73.368  1.00  0.00    -0.159 A  
HETATM   11  C   UNL     1      -9.449   8.073  72.892  1.00  0.00    -0.346 A  
HETATM   12  C   UNL     1      -9.377   8.480  71.532  1.00  0.00    -0.289 A  
BRANCH  12  13
HETATM   13  C   UNL     1     -10.462   9.431  71.087  1.00  0.00    -0.392 C  
BRANCH  13  14
HETATM   14  C   UNL     1     -11.874   8.878  71.228  1.00  0.00    -0.371 A  
HETATM   15  C   UNL     1     -12.148   7.566  70.815  1.00  0.00    -0.190 A  
HETATM   16  C   UNL     1     -13.393   6.985  71.074  1.00  0.00    -0.079 A  
HETATM   17  C   UNL     1     -14.381   7.711  71.736  1.00  0.00    -0.586 A  
HETATM   18  C   UNL     1     -14.142   9.032  72.101  1.00  0.00    -0.461 A  
HETATM   19  C   UNL     1     -12.898   9.612  71.851  1.00  0.00    -0.515 A  
ENDBRANCH  13  14
ENDBRANCH  12  13
ENDBRANCH   6   7
ENDBRANCH   5   6
ENDBRANCH   4   5
ENDBRANCH   2   4
TORSDOF 6
ENDMDL
MODEL      233
REMARK 921   NORMALIZED FREE ENERGY PREDICTED BY IDOCK:   -3.13 KCAL/MOL
REMARK 922        TOTAL FREE ENERGY PREDICTED BY IDOCK:   -5.06 KCAL/MOL
REMARK 923 INTER-LIGAND FREE ENERGY PREDICTED BY IDOCK:   -4.51 KCAL/MOL
REMARK 924 INTRA-LIGAND FREE ENERGY PREDICTED BY IDOCK:   -0.55 KCAL/MOL
REMARK 927      BINDING AFFINITY PREDICTED BY RF-SCORE:    0.00 PKD
ROOT
HETATM    1  C   UNL     1      -8.942   5.751  73.852  1.00  0.00    -0.126 C  
HETATM    2  N   UNL     1     -10.135   5.939  73.038  1.00  0.00    -0.175 NA 
HETATM    3  C   UNL     1     -10.847   4.687  72.829  1.00  0.00    -0.185 C  
ENDROOT
BRANCH   2   4
HETATM    4  C   UNL     1     -10.974   7.086  73.436  1.00  0.00    -0.216 C  
BRANCH   4   5
HETATM    5  C   UNL     1     -11.670   8.009  72.397  1.00  0.00    -0.386 C  
BRANCH   5   6
HETATM    6  O   UNL     1     -10.743   9.066  72.068  1.00  0.00    -0.349 OA 
BRANCH   6   7
HETATM    7  C   UNL     1     -10.771   9.699  70.851  1.00  0.00    -0.332 A  
HETATM    8  C   UNL     1     -11.970  10.393  70.623  1.00  0.00    -0.448 A  
HETATM    9  C   UNL     1     -12.262  10.991  69.388  1.00  0.00    -0.329 A  
HETATM   10  C   UNL     1     -11.329  10.943  68.360  1.00  0.00    -0.370 A  
HETATM   11  C   UNL     1     -10.139  10.252  68.564  1.00  0.00    -0.181 A  
HETATM   12  C   UNL     1      -9.870   9.571  69.781  1.00  0.00    -0.236 A  
BRANCH  12  13
HETATM   13  C   UNL     1      -8.724   8.587  69.727  1.00  0.00    -0.132 C  
BRANCH  13  14
HETATM   14  C   UNL     1      -9.046   7.295  68.987  1.00  0.00    -0.133 A  
HETATM   15  C   UNL     1     -10.344   7.078  68.503  1.00  0.00    -0.204 A  
HETATM   16  C   UNL     1     -10.625   5.975  67.692  1.00  0.00    -0.336 A  
HETATM   17  C   UNL     1      -9.617   5.071  67.365  1.00  0.00    -0.164 A  
HETATM   18  C   UNL     1      -8.338   5.243  67.884  1.00  0.00    -0.098 A  
HETATM   19  C   UNL     1      -8.052   6.347  68.688  1.00  0.00    -0.113 A  
ENDBRANCH  13  14
ENDBRANCH  12  13
ENDBRANCH   6   7
ENDBRANCH   5   6
ENDBRANCH   4   5
ENDBRANCH   2   4
TORSDOF 6
ENDMDL
MODEL      234
REMARK 921   NORMALIZED FREE ENERGY PREDICTED BY IDOCK:   -3.11 KCAL/MOL
REMARK 922        TOTAL FREE ENERGY PREDICTED BY IDOCK:   -5.04 KCAL/MOL
REMARK 923 INTER-LIGAND FREE ENERGY PREDICTED BY IDOCK:   -4.04 KCAL/MOL
REMARK 924 INTRA-LIGAND FREE ENERGY PREDICTED BY IDOCK:   -1.00 KCAL/MOL
REMARK 927      BINDING AFFINITY PREDICTED BY RF-SCORE:    0.00 PKD
ROOT
HETATM    1  C   UNL     1      -6.928   4.319  70.975  1.00  0.00    -0.036 C  
HETATM    2  N   UNL     1      -6.922   5.027  69.702  1.00  0.00    -0.052 NA 
HETATM    3  C   UNL     1      -7.672   4.307  68.682  1.00  0.00    -0.066 C  
ENDROOT
BRANCH   2   4
HETATM    4  C   UNL     1      -7.211   6.470  69.802  1.00  0.00    -0.078 C  
BRANCH   4   5
HETATM    5  C   UNL     1      -6.456   7.403  70.790  1.00  0.00    -0.039 C  
BRANCH   5   6
HETATM    6  O   UNL     1      -7.420   8.330  71.331  1.00  0.00    -0.070 OA 
BRANCH   6   7
HETATM    7  C   UNL     1      -8.386   7.930  72.221  1.00  0.00    -0.131 A  
HETATM    8  C   UNL     1      -7.906   7.018  73.175  1.00  0.00    -0.107 A  
HETATM    9  C   UNL     1      -8.757   6.379  74.088  1.00  0.00    -0.141 A  
HETATM   10  C   UNL     1     -10.114   6.677  74.094  1.00  0.00    -0.390 A  
HETATM   11  C   UNL     1     -10.609   7.571  73.151  1.00  0.00    -0.442 A  
HETATM   12  C   UNL     1      -9.771   8.160  72.167  1.00  0.00    -0.311 A  
BRANCH  12  13
HETATM   13  C   UNL     1     -10.495   8.814  71.013  1.00  0.00    -0.293 C  
BRANCH  13  14
HETATM   14  C   UNL     1     -10.449   8.018  69.716  1.00  0.00    -0.227 A  
HETATM   15  C   UNL     1     -10.913   6.695  69.698  1.00  0.00    -0.367 A  
HETATM   16  C   UNL     1     -11.024   5.996  68.492  1.00  0.00    -0.350 A  
HETATM   17  C   UNL     1     -10.662   6.606  67.293  1.00  0.00    -0.427 A  
HETATM   18  C   UNL     1     -10.148   7.899  67.302  1.00  0.00    -0.307 A  
HETATM   19  C   UNL     1     -10.043   8.601  68.503  1.00  0.00    -0.211 A  
ENDBRANCH  13  14
ENDBRANCH  12  13
ENDBRANCH   6   7
ENDBRANCH   5   6
ENDBRANCH   4   5
ENDBRANCH   2   4
TORSDOF 6
ENDMDL
MODEL      235
REMARK 921   NORMALIZED FREE ENERGY PREDICTED BY IDOCK:   -3.10 KCAL/MOL
REMARK 922        TOTAL FREE ENERGY PREDICTED BY IDOCK:   -5.03 KCAL/MOL
REMARK 923 INTER-LIGAND FREE ENERGY PREDICTED BY IDOCK:   -4.22 KCAL/MOL
REMARK 924 INTRA-LIGAND FREE ENERGY PREDICTED BY IDOCK:   -0.80 KCAL/MOL
REMARK 927      BINDING AFFINITY PREDICTED BY RF-SCORE:    0.00 PKD
ROOT
HETATM    1  C   UNL     1     -14.396   8.361  71.461  1.00  0.00    -0.408 C  
HETATM    2  N   UNL     1     -13.134   9.089  71.461  1.00  0.00    -0.337 NA 
HETATM    3  C   UNL     1     -13.278  10.416  72.042  1.00  0.00    -0.392 C  
ENDROOT
BRANCH   2   4
HETATM    4  C   UNL     1     -11.977   8.309  71.939  1.00  0.00    -0.330 C  
BRANCH   4   5
HETATM    5  C   UNL     1     -10.510   8.775  71.719  1.00  0.00    -0.346 C  
BRANCH   5   6
HETATM    6  O   UNL     1      -9.648   7.787  72.320  1.00  0.00    -0.155 OA 
BRANCH   6   7
HETATM    7  C   UNL     1      -8.446   7.438  71.756  1.00  0.00    -0.107 A  
HETATM    8  C   UNL     1      -7.499   8.473  71.802  1.00  0.00    -0.127 A  
HETATM    9  C   UNL     1      -6.256   8.374  71.160  1.00  0.00    -0.038 A  
HETATM   10  C   UNL     1      -5.916   7.207  70.488  1.00  0.00    -0.027 A  
HETATM   11  C   UNL     1      -6.845   6.174  70.423  1.00  0.00    -0.054 A  
HETATM   12  C   UNL     1      -8.138   6.295  70.997  1.00  0.00    -0.121 A  
BRANCH  12  13
HETATM   13  C   UNL     1      -9.142   5.260  70.546  1.00  0.00    -0.174 C  
BRANCH  13  14
HETATM   14  C   UNL     1      -9.553   5.384  69.086  1.00  0.00    -0.193 A  
HETATM   15  C   UNL     1      -8.996   4.518  68.133  1.00  0.00    -0.140 A  
HETATM   16  C   UNL     1      -9.469   4.510  66.818  1.00  0.00    -0.187 A  
HETATM   17  C   UNL     1     -10.494   5.373  66.436  1.00  0.00    -0.324 A  
HETATM   18  C   UNL     1     -11.018   6.275  67.356  1.00  0.00    -0.447 A  
HETATM   19  C   UNL     1     -10.553   6.281  68.672  1.00  0.00    -0.314 A  
ENDBRANCH  13  14
ENDBRANCH  12  13
ENDBRANCH   6   7
ENDBRANCH   5   6
ENDBRANCH   4   5
ENDBRANCH   2   4
TORSDOF 6
ENDMDL
MODEL      236
REMARK 921   NORMALIZED FREE ENERGY PREDICTED BY IDOCK:   -3.10 KCAL/MOL
REMARK 922        TOTAL FREE ENERGY PREDICTED BY IDOCK:   -5.02 KCAL/MOL
REMARK 923 INTER-LIGAND FREE ENERGY PREDICTED BY IDOCK:   -5.07 KCAL/MOL
REMARK 924 INTRA-LIGAND FREE ENERGY PREDICTED BY IDOCK:    0.05 KCAL/MOL
REMARK 927      BINDING AFFINITY PREDICTED BY RF-SCORE:    0.00 PKD
ROOT
HETATM    1  C   UNL     1     -10.021  17.887  68.555  1.00  0.00    -0.379 C  
HETATM    2  N   UNL     1      -9.130  16.880  69.115  1.00  0.00    -0.161 NA 
HETATM    3  C   UNL     1      -9.819  16.022  70.069  1.00  0.00     0.144 C  
ENDROOT
BRANCH   2   4
HETATM    4  C   UNL     1      -8.294  16.180  68.122  1.00  0.00    -0.166 C  
BRANCH   4   5
HETATM    5  C   UNL     1      -8.141  14.633  68.105  1.00  0.00    -0.137 C  
BRANCH   5   6
HETATM    6  O   UNL     1      -9.178  14.105  67.252  1.00  0.00    -0.201 OA 
BRANCH   6   7
HETATM    7  C   UNL     1      -9.847  12.947  67.560  1.00  0.00    -0.208 A  
HETATM    8  C   UNL     1      -9.248  11.805  67.005  1.00  0.00    -0.187 A  
HETATM    9  C   UNL     1      -9.846  10.539  67.081  1.00  0.00    -0.213 A  
HETATM   10  C   UNL     1     -11.049  10.382  67.760  1.00  0.00    -0.365 A  
HETATM   11  C   UNL     1     -11.662  11.503  68.307  1.00  0.00    -0.371 A  
HETATM   12  C   UNL     1     -11.108  12.803  68.164  1.00  0.00    -0.288 A  
BRANCH  12  13
HETATM   13  C   UNL     1     -12.046  13.942  68.490  1.00  0.00    -0.331 C  
BRANCH  13  14
HETATM   14  C   UNL     1     -12.625  13.889  69.898  1.00  0.00    -0.172 A  
HETATM   15  C   UNL     1     -12.408  12.756  70.694  1.00  0.00    -0.381 A  
HETATM   16  C   UNL     1     -12.797  12.747  72.037  1.00  0.00    -0.269 A  
HETATM   17  C   UNL     1     -13.416  13.862  72.595  1.00  0.00    -0.652 A  
HETATM   18  C   UNL     1     -13.688  14.972  71.802  1.00  0.00    -0.551 A  
HETATM   19  C   UNL     1     -13.295  14.988  70.463  1.00  0.00    -0.177 A  
ENDBRANCH  13  14
ENDBRANCH  12  13
ENDBRANCH   6   7
ENDBRANCH   5   6
ENDBRANCH   4   5
ENDBRANCH   2   4
TORSDOF 6
ENDMDL
MODEL      237
REMARK 921   NORMALIZED FREE ENERGY PREDICTED BY IDOCK:   -3.09 KCAL/MOL
REMARK 922        TOTAL FREE ENERGY PREDICTED BY IDOCK:   -5.02 KCAL/MOL
REMARK 923 INTER-LIGAND FREE ENERGY PREDICTED BY IDOCK:   -4.20 KCAL/MOL
REMARK 924 INTRA-LIGAND FREE ENERGY PREDICTED BY IDOCK:   -0.82 KCAL/MOL
REMARK 927      BINDING AFFINITY PREDICTED BY RF-SCORE:    0.00 PKD
ROOT
HETATM    1  C   UNL     1      -9.019  10.113  68.795  1.00  0.00    -0.147 C  
HETATM    2  N   UNL     1      -9.969  10.324  69.879  1.00  0.00    -0.193 NA 
HETATM    3  C   UNL     1     -11.311  10.581  69.376  1.00  0.00    -0.269 C  
ENDROOT
BRANCH   2   4
HETATM    4  C   UNL     1      -9.881   9.337  70.972  1.00  0.00    -0.285 C  
BRANCH   4   5
HETATM    5  C   UNL     1     -11.118   8.544  71.479  1.00  0.00    -0.275 C  
BRANCH   5   6
HETATM    6  O   UNL     1     -11.183   7.315  70.726  1.00  0.00    -0.259 OA 
BRANCH   6   7
HETATM    7  C   UNL     1     -10.814   6.112  71.274  1.00  0.00    -0.266 A  
HETATM    8  C   UNL     1     -11.521   5.805  72.447  1.00  0.00    -0.343 A  
HETATM    9  C   UNL     1     -11.202   4.693  73.240  1.00  0.00    -0.411 A  
HETATM   10  C   UNL     1     -10.186   3.832  72.845  1.00  0.00    -0.233 A  
HETATM   11  C   UNL     1      -9.468   4.124  71.690  1.00  0.00    -0.216 A  
HETATM   12  C   UNL     1      -9.726   5.293  70.926  1.00  0.00    -0.244 A  
BRANCH  12  13
HETATM   13  C   UNL     1      -8.654   5.657  69.926  1.00  0.00    -0.125 C  
BRANCH  13  14
HETATM   14  C   UNL     1      -8.994   5.296  68.486  1.00  0.00    -0.118 A  
HETATM   15  C   UNL     1      -9.055   6.305  67.515  1.00  0.00    -0.110 A  
HETATM   16  C   UNL     1      -9.214   5.982  66.164  1.00  0.00    -0.154 A  
HETATM   17  C   UNL     1      -9.326   4.651  65.770  1.00  0.00    -0.158 A  
HETATM   18  C   UNL     1      -9.323   3.643  66.728  1.00  0.00    -0.210 A  
HETATM   19  C   UNL     1      -9.157   3.961  68.077  1.00  0.00    -0.183 A  
ENDBRANCH  13  14
ENDBRANCH  12  13
ENDBRANCH   6   7
ENDBRANCH   5   6
ENDBRANCH   4   5
ENDBRANCH   2   4
TORSDOF 6
ENDMDL
MODEL      238
REMARK 921   NORMALIZED FREE ENERGY PREDICTED BY IDOCK:   -3.08 KCAL/MOL
REMARK 922        TOTAL FREE ENERGY PREDICTED BY IDOCK:   -4.99 KCAL/MOL
REMARK 923 INTER-LIGAND FREE ENERGY PREDICTED BY IDOCK:   -4.16 KCAL/MOL
REMARK 924 INTRA-LIGAND FREE ENERGY PREDICTED BY IDOCK:   -0.83 KCAL/MOL
REMARK 927      BINDING AFFINITY PREDICTED BY RF-SCORE:    0.00 PKD
ROOT
HETATM    1  C   UNL     1      -8.687   9.760  68.229  1.00  0.00    -0.119 C  
HETATM    2  N   UNL     1      -7.535  10.638  68.382  1.00  0.00    -0.089 NA 
HETATM    3  C   UNL     1      -6.472  10.299  67.447  1.00  0.00    -0.067 C  
ENDROOT
BRANCH   2   4
HETATM    4  C   UNL     1      -7.866  12.073  68.473  1.00  0.00    -0.129 C  
BRANCH   4   5
HETATM    5  C   UNL     1      -6.773  13.177  68.531  1.00  0.00    -0.092 C  
BRANCH   5   6
HETATM    6  O   UNL     1      -7.108  14.170  67.539  1.00  0.00    -0.177 OA 
BRANCH   6   7
HETATM    7  C   UNL     1      -7.028  15.514  67.807  1.00  0.00    -0.164 A  
HETATM    8  C   UNL     1      -6.324  15.795  68.988  1.00  0.00    -0.126 A  
HETATM    9  C   UNL     1      -6.245  17.092  69.517  1.00  0.00    -0.237 A  
HETATM   10  C   UNL     1      -6.839  18.151  68.843  1.00  0.00    -0.263 A  
HETATM   11  C   UNL     1      -7.549  17.891  67.676  1.00  0.00    -0.215 A  
HETATM   12  C   UNL     1      -7.707  16.570  67.176  1.00  0.00    -0.214 A  
BRANCH  12  13
HETATM   13  C   UNL     1      -8.781  16.404  66.126  1.00  0.00    -0.347 C  
BRANCH  13  14
HETATM   14  C   UNL     1     -10.021  15.666  66.612  1.00  0.00    -0.269 A  
HETATM   15  C   UNL     1     -10.449  14.514  65.937  1.00  0.00    -0.322 A  
HETATM   16  C   UNL     1     -11.490  13.735  66.452  1.00  0.00    -0.351 A  
HETATM   17  C   UNL     1     -12.120  14.103  67.639  1.00  0.00    -0.337 A  
HETATM   18  C   UNL     1     -11.743  15.273  68.289  1.00  0.00    -0.320 A  
HETATM   19  C   UNL     1     -10.700  16.049  67.781  1.00  0.00    -0.323 A  
ENDBRANCH  13  14
ENDBRANCH  12  13
ENDBRANCH   6   7
ENDBRANCH   5   6
ENDBRANCH   4   5
ENDBRANCH   2   4
TORSDOF 6
ENDMDL
MODEL      239
REMARK 921   NORMALIZED FREE ENERGY PREDICTED BY IDOCK:   -3.07 KCAL/MOL
REMARK 922        TOTAL FREE ENERGY PREDICTED BY IDOCK:   -4.98 KCAL/MOL
REMARK 923 INTER-LIGAND FREE ENERGY PREDICTED BY IDOCK:   -4.30 KCAL/MOL
REMARK 924 INTRA-LIGAND FREE ENERGY PREDICTED BY IDOCK:   -0.68 KCAL/MOL
REMARK 927      BINDING AFFINITY PREDICTED BY RF-SCORE:    0.00 PKD
ROOT
HETATM    1  C   UNL     1     -13.490  13.738  72.429  1.00  0.00    -0.571 C  
HETATM    2  N   UNL     1     -12.823  15.012  72.199  1.00  0.00    -0.316 NA 
HETATM    3  C   UNL     1     -11.770  15.253  73.174  1.00  0.00    -0.308 C  
ENDROOT
BRANCH   2   4
HETATM    4  C   UNL     1     -12.455  15.266  70.793  1.00  0.00    -0.402 C  
BRANCH   4   5
HETATM    5  C   UNL     1     -11.145  16.002  70.395  1.00  0.00    -0.364 C  
BRANCH   5   6
HETATM    6  O   UNL     1     -10.787  15.563  69.068  1.00  0.00    -0.227 OA 
BRANCH   6   7
HETATM    7  C   UNL     1      -9.489  15.589  68.624  1.00  0.00    -0.204 A  
HETATM    8  C   UNL     1      -8.865  16.829  68.832  1.00  0.00    -0.228 A  
HETATM    9  C   UNL     1      -7.587  17.113  68.328  1.00  0.00    -0.224 A  
HETATM   10  C   UNL     1      -6.884  16.136  67.635  1.00  0.00    -0.176 A  
HETATM   11  C   UNL     1      -7.489  14.904  67.411  1.00  0.00    -0.228 A  
HETATM   12  C   UNL     1      -8.815  14.634  67.843  1.00  0.00    -0.170 A  
BRANCH  12  13
HETATM   13  C   UNL     1      -9.456  13.411  67.228  1.00  0.00    -0.234 C  
BRANCH  13  14
HETATM   14  C   UNL     1      -8.669  12.124  67.433  1.00  0.00    -0.177 A  
HETATM   15  C   UNL     1      -7.993  11.545  66.350  1.00  0.00    -0.046 A  
HETATM   16  C   UNL     1      -7.142  10.454  66.544  1.00  0.00    -0.114 A  
HETATM   17  C   UNL     1      -6.966   9.920  67.819  1.00  0.00    -0.085 A  
HETATM   18  C   UNL     1      -7.673  10.449  68.894  1.00  0.00    -0.111 A  
HETATM   19  C   UNL     1      -8.518  11.544  68.704  1.00  0.00    -0.115 A  
ENDBRANCH  13  14
ENDBRANCH  12  13
ENDBRANCH   6   7
ENDBRANCH   5   6
ENDBRANCH   4   5
ENDBRANCH   2   4
TORSDOF 6
ENDMDL
MODEL      240
REMARK 921   NORMALIZED FREE ENERGY PREDICTED BY IDOCK:   -3.07 KCAL/MOL
REMARK 922        TOTAL FREE ENERGY PREDICTED BY IDOCK:   -4.98 KCAL/MOL
REMARK 923 INTER-LIGAND FREE ENERGY PREDICTED BY IDOCK:   -4.13 KCAL/MOL
REMARK 924 INTRA-LIGAND FREE ENERGY PREDICTED BY IDOCK:   -0.85 KCAL/MOL
REMARK 927      BINDING AFFINITY PREDICTED BY RF-SCORE:    0.00 PKD
ROOT
HETATM    1  C   UNL     1     -12.996  12.537  71.541  1.00  0.00    -0.280 C  
HETATM    2  N   UNL     1     -12.890  11.418  70.615  1.00  0.00    -0.167 NA 
HETATM    3  C   UNL     1     -11.706  11.524  69.775  1.00  0.00    -0.353 C  
ENDROOT
BRANCH   2   4
HETATM    4  C   UNL     1     -13.118  10.094  71.225  1.00  0.00    -0.396 C  
BRANCH   4   5
HETATM    5  C   UNL     1     -11.999   9.321  71.978  1.00  0.00    -0.321 C  
BRANCH   5   6
HETATM    6  O   UNL     1     -11.552   8.256  71.113  1.00  0.00    -0.272 OA 
BRANCH   6   7
HETATM    7  C   UNL     1     -10.922   7.142  71.606  1.00  0.00    -0.228 A  
HETATM    8  C   UNL     1     -11.814   6.208  72.156  1.00  0.00    -0.339 A  
HETATM    9  C   UNL     1     -11.370   5.065  72.838  1.00  0.00    -0.329 A  
HETATM   10  C   UNL     1     -10.008   4.810  72.944  1.00  0.00    -0.195 A  
HETATM   11  C   UNL     1      -9.109   5.728  72.413  1.00  0.00    -0.142 A  
HETATM   12  C   UNL     1      -9.545   6.930  71.796  1.00  0.00    -0.162 A  
BRANCH  12  13
HETATM   13  C   UNL     1      -8.473   7.976  71.594  1.00  0.00    -0.155 C  
BRANCH  13  14
HETATM   14  C   UNL     1      -8.283   8.404  70.145  1.00  0.00    -0.117 A  
HETATM   15  C   UNL     1      -7.996   7.439  69.170  1.00  0.00    -0.118 A  
HETATM   16  C   UNL     1      -7.969   7.784  67.815  1.00  0.00    -0.124 A  
HETATM   17  C   UNL     1      -8.217   9.096  67.421  1.00  0.00    -0.107 A  
HETATM   18  C   UNL     1      -8.448  10.075  68.382  1.00  0.00    -0.112 A  
HETATM   19  C   UNL     1      -8.483   9.733  69.734  1.00  0.00    -0.206 A  
ENDBRANCH  13  14
ENDBRANCH  12  13
ENDBRANCH   6   7
ENDBRANCH   5   6
ENDBRANCH   4   5
ENDBRANCH   2   4
TORSDOF 6
ENDMDL
MODEL      241
REMARK 921   NORMALIZED FREE ENERGY PREDICTED BY IDOCK:   -3.06 KCAL/MOL
REMARK 922        TOTAL FREE ENERGY PREDICTED BY IDOCK:   -4.97 KCAL/MOL
REMARK 923 INTER-LIGAND FREE ENERGY PREDICTED BY IDOCK:   -4.20 KCAL/MOL
REMARK 924 INTRA-LIGAND FREE ENERGY PREDICTED BY IDOCK:   -0.76 KCAL/MOL
REMARK 927      BINDING AFFINITY PREDICTED BY RF-SCORE:    0.00 PKD
ROOT
HETATM    1  C   UNL     1      -9.155   9.587  68.517  1.00  0.00    -0.131 C  
HETATM    2  N   UNL     1      -8.063   9.731  69.470  1.00  0.00    -0.125 NA 
HETATM    3  C   UNL     1      -7.230   8.538  69.519  1.00  0.00    -0.060 C  
ENDROOT
BRANCH   2   4
HETATM    4  C   UNL     1      -7.334  11.010  69.377  1.00  0.00    -0.092 C  
BRANCH   4   5
HETATM    5  C   UNL     1      -6.413  11.357  68.173  1.00  0.00    -0.056 C  
BRANCH   5   6
HETATM    6  O   UNL     1      -7.062  12.403  67.420  1.00  0.00    -0.135 OA 
BRANCH   6   7
HETATM    7  C   UNL     1      -7.179  13.680  67.910  1.00  0.00    -0.148 A  
HETATM    8  C   UNL     1      -5.947  14.235  68.290  1.00  0.00    -0.120 A  
HETATM    9  C   UNL     1      -5.857  15.473  68.943  1.00  0.00    -0.102 A  
HETATM   10  C   UNL     1      -7.009  16.208  69.192  1.00  0.00    -0.201 A  
HETATM   11  C   UNL     1      -8.240  15.671  68.831  1.00  0.00    -0.204 A  
HETATM   12  C   UNL     1      -8.350  14.381  68.246  1.00  0.00    -0.158 A  
BRANCH  12  13
HETATM   13  C   UNL     1      -9.742  13.794  68.240  1.00  0.00    -0.231 C  
BRANCH  13  14
HETATM   14  C   UNL     1     -10.510  14.022  66.945  1.00  0.00    -0.276 A  
HETATM   15  C   UNL     1     -11.813  13.520  66.815  1.00  0.00    -0.450 A  
HETATM   16  C   UNL     1     -12.592  13.846  65.701  1.00  0.00    -0.553 A  
HETATM   17  C   UNL     1     -12.075  14.665  64.700  1.00  0.00    -0.466 A  
HETATM   18  C   UNL     1     -10.765  15.124  64.788  1.00  0.00    -0.344 A  
HETATM   19  C   UNL     1      -9.987  14.806  65.903  1.00  0.00    -0.351 A  
ENDBRANCH  13  14
ENDBRANCH  12  13
ENDBRANCH   6   7
ENDBRANCH   5   6
ENDBRANCH   4   5
ENDBRANCH   2   4
TORSDOF 6
ENDMDL
MODEL      242
REMARK 921   NORMALIZED FREE ENERGY PREDICTED BY IDOCK:   -3.04 KCAL/MOL
REMARK 922        TOTAL FREE ENERGY PREDICTED BY IDOCK:   -4.94 KCAL/MOL
REMARK 923 INTER-LIGAND FREE ENERGY PREDICTED BY IDOCK:   -4.48 KCAL/MOL
REMARK 924 INTRA-LIGAND FREE ENERGY PREDICTED BY IDOCK:   -0.46 KCAL/MOL
REMARK 927      BINDING AFFINITY PREDICTED BY RF-SCORE:    0.00 PKD
ROOT
HETATM    1  C   UNL     1      -7.482   4.815  69.036  1.00  0.00    -0.057 C  
HETATM    2  N   UNL     1      -7.119   6.171  68.648  1.00  0.00    -0.079 NA 
HETATM    3  C   UNL     1      -7.092   6.328  67.201  1.00  0.00    -0.073 C  
ENDROOT
BRANCH   2   4
HETATM    4  C   UNL     1      -7.830   7.231  69.388  1.00  0.00    -0.122 C  
BRANCH   4   5
HETATM    5  C   UNL     1      -7.085   8.276  70.266  1.00  0.00    -0.040 C  
BRANCH   5   6
HETATM    6  O   UNL     1      -8.048   9.277  70.656  1.00  0.00    -0.153 OA 
BRANCH   6   7
HETATM    7  C   UNL     1      -9.270   8.938  71.181  1.00  0.00    -0.256 A  
HETATM    8  C   UNL     1      -9.175   8.345  72.450  1.00  0.00    -0.345 A  
HETATM    9  C   UNL     1     -10.290   7.799  73.103  1.00  0.00    -0.403 A  
HETATM   10  C   UNL     1     -11.544   7.876  72.509  1.00  0.00    -0.443 A  
HETATM   11  C   UNL     1     -11.657   8.451  71.248  1.00  0.00    -0.326 A  
HETATM   12  C   UNL     1     -10.522   8.931  70.542  1.00  0.00    -0.257 A  
BRANCH  12  13
HETATM   13  C   UNL     1     -10.744   9.193  69.070  1.00  0.00    -0.176 C  
BRANCH  13  14
HETATM   14  C   UNL     1     -10.829  10.668  68.705  1.00  0.00    -0.266 A  
HETATM   15  C   UNL     1     -10.047  11.168  67.654  1.00  0.00    -0.203 A  
HETATM   16  C   UNL     1     -10.220  12.479  67.200  1.00  0.00    -0.225 A  
HETATM   17  C   UNL     1     -11.166  13.308  67.798  1.00  0.00    -0.308 A  
HETATM   18  C   UNL     1     -11.910  12.844  68.878  1.00  0.00    -0.352 A  
HETATM   19  C   UNL     1     -11.745  11.533  69.328  1.00  0.00    -0.397 A  
ENDBRANCH  13  14
ENDBRANCH  12  13
ENDBRANCH   6   7
ENDBRANCH   5   6
ENDBRANCH   4   5
ENDBRANCH   2   4
TORSDOF 6
ENDMDL
MODEL      243
REMARK 921   NORMALIZED FREE ENERGY PREDICTED BY IDOCK:   -3.04 KCAL/MOL
REMARK 922        TOTAL FREE ENERGY PREDICTED BY IDOCK:   -4.94 KCAL/MOL
REMARK 923 INTER-LIGAND FREE ENERGY PREDICTED BY IDOCK:   -4.15 KCAL/MOL
REMARK 924 INTRA-LIGAND FREE ENERGY PREDICTED BY IDOCK:   -0.79 KCAL/MOL
REMARK 927      BINDING AFFINITY PREDICTED BY RF-SCORE:    0.00 PKD
ROOT
HETATM    1  C   UNL     1     -10.316  12.366  65.391  1.00  0.00    -0.277 C  
HETATM    2  N   UNL     1     -10.964  13.480  64.712  1.00  0.00    -0.352 NA 
HETATM    3  C   UNL     1     -11.788  13.027  63.601  1.00  0.00    -0.516 C  
ENDROOT
BRANCH   2   4
HETATM    4  C   UNL     1     -11.599  14.460  65.613  1.00  0.00    -0.347 C  
BRANCH   4   5
HETATM    5  C   UNL     1     -10.919  15.808  65.989  1.00  0.00    -0.177 C  
BRANCH   5   6
HETATM    6  O   UNL     1      -9.606  15.501  66.502  1.00  0.00    -0.239 OA 
BRANCH   6   7
HETATM    7  C   UNL     1      -8.845  16.442  67.148  1.00  0.00    -0.195 A  
HETATM    8  C   UNL     1      -8.520  17.537  66.330  1.00  0.00    -0.287 A  
HETATM    9  C   UNL     1      -7.636  18.542  66.748  1.00  0.00    -0.246 A  
HETATM   10  C   UNL     1      -7.088  18.494  68.024  1.00  0.00    -0.246 A  
HETATM   11  C   UNL     1      -7.391  17.413  68.845  1.00  0.00    -0.244 A  
HETATM   12  C   UNL     1      -8.218  16.347  68.402  1.00  0.00    -0.190 A  
BRANCH  12  13
HETATM   13  C   UNL     1      -8.166  15.098  69.250  1.00  0.00    -0.216 C  
BRANCH  13  14
HETATM   14  C   UNL     1      -7.431  13.932  68.602  1.00  0.00    -0.122 A  
HETATM   15  C   UNL     1      -6.105  14.099  68.179  1.00  0.00    -0.133 A  
HETATM   16  C   UNL     1      -5.363  13.006  67.723  1.00  0.00    -0.111 A  
HETATM   17  C   UNL     1      -5.938  11.738  67.674  1.00  0.00    -0.072 A  
HETATM   18  C   UNL     1      -7.270  11.569  68.038  1.00  0.00    -0.085 A  
HETATM   19  C   UNL     1      -8.012  12.656  68.501  1.00  0.00    -0.093 A  
ENDBRANCH  13  14
ENDBRANCH  12  13
ENDBRANCH   6   7
ENDBRANCH   5   6
ENDBRANCH   4   5
ENDBRANCH   2   4
TORSDOF 6
ENDMDL
MODEL      244
REMARK 921   NORMALIZED FREE ENERGY PREDICTED BY IDOCK:   -3.02 KCAL/MOL
REMARK 922        TOTAL FREE ENERGY PREDICTED BY IDOCK:   -4.91 KCAL/MOL
REMARK 923 INTER-LIGAND FREE ENERGY PREDICTED BY IDOCK:   -4.16 KCAL/MOL
REMARK 924 INTRA-LIGAND FREE ENERGY PREDICTED BY IDOCK:   -0.75 KCAL/MOL
REMARK 927      BINDING AFFINITY PREDICTED BY RF-SCORE:    0.00 PKD
ROOT
HETATM    1  C   UNL     1      -9.804   7.597  73.442  1.00  0.00    -0.303 C  
HETATM    2  N   UNL     1      -8.847   8.628  73.066  1.00  0.00    -0.339 NA 
HETATM    3  C   UNL     1      -7.618   8.531  73.840  1.00  0.00    -0.056 C  
ENDROOT
BRANCH   2   4
HETATM    4  C   UNL     1      -8.668   8.796  71.611  1.00  0.00    -0.185 C  
BRANCH   4   5
HETATM    5  C   UNL     1      -9.683   9.580  70.732  1.00  0.00    -0.219 C  
BRANCH   5   6
HETATM    6  O   UNL     1     -10.113   8.696  69.676  1.00  0.00    -0.191 OA 
BRANCH   6   7
HETATM    7  C   UNL     1      -9.717   8.880  68.374  1.00  0.00    -0.161 A  
HETATM    8  C   UNL     1      -9.039  10.093  68.175  1.00  0.00    -0.128 A  
HETATM    9  C   UNL     1      -8.673  10.541  66.897  1.00  0.00    -0.130 A  
HETATM   10  C   UNL     1      -8.942   9.752  65.786  1.00  0.00    -0.195 A  
HETATM   11  C   UNL     1      -9.621   8.552  65.962  1.00  0.00    -0.236 A  
HETATM   12  C   UNL     1     -10.072   8.129  67.241  1.00  0.00    -0.309 A  
BRANCH  12  13
HETATM   13  C   UNL     1     -11.086   7.009  67.227  1.00  0.00    -0.302 C  
BRANCH  13  14
HETATM   14  C   UNL     1     -10.480   5.617  67.347  1.00  0.00    -0.306 A  
HETATM   15  C   UNL     1     -10.174   4.892  66.186  1.00  0.00    -0.309 A  
HETATM   16  C   UNL     1      -9.480   3.682  66.266  1.00  0.00    -0.177 A  
HETATM   17  C   UNL     1      -9.093   3.176  67.505  1.00  0.00    -0.210 A  
HETATM   18  C   UNL     1      -9.438   3.857  68.669  1.00  0.00    -0.217 A  
HETATM   19  C   UNL     1     -10.125   5.069  68.591  1.00  0.00    -0.191 A  
ENDBRANCH  13  14
ENDBRANCH  12  13
ENDBRANCH   6   7
ENDBRANCH   5   6
ENDBRANCH   4   5
ENDBRANCH   2   4
TORSDOF 6
ENDMDL
MODEL      245
REMARK 921   NORMALIZED FREE ENERGY PREDICTED BY IDOCK:   -3.01 KCAL/MOL
REMARK 922        TOTAL FREE ENERGY PREDICTED BY IDOCK:   -4.90 KCAL/MOL
REMARK 923 INTER-LIGAND FREE ENERGY PREDICTED BY IDOCK:   -5.04 KCAL/MOL
REMARK 924 INTRA-LIGAND FREE ENERGY PREDICTED BY IDOCK:    0.13 KCAL/MOL
REMARK 927      BINDING AFFINITY PREDICTED BY RF-SCORE:    0.00 PKD
ROOT
HETATM    1  C   UNL     1      -7.582  17.613  65.892  1.00  0.00    -0.125 C  
HETATM    2  N   UNL     1      -6.573  16.977  66.728  1.00  0.00    -0.209 NA 
HETATM    3  C   UNL     1      -5.454  17.869  66.995  1.00  0.00    -0.138 C  
ENDROOT
BRANCH   2   4
HETATM    4  C   UNL     1      -7.111  16.266  67.904  1.00  0.00    -0.133 C  
BRANCH   4   5
HETATM    5  C   UNL     1      -7.927  14.948  67.778  1.00  0.00    -0.150 C  
BRANCH   5   6
HETATM    6  O   UNL     1      -8.435  14.882  66.429  1.00  0.00    -0.116 OA 
BRANCH   6   7
HETATM    7  C   UNL     1      -9.665  14.343  66.147  1.00  0.00    -0.312 A  
HETATM    8  C   UNL     1      -9.710  13.708  64.895  1.00  0.00     0.143 A  
HETATM    9  C   UNL     1     -10.906  13.214  64.353  1.00  0.00    -0.417 A  
HETATM   10  C   UNL     1     -12.085  13.309  65.080  1.00  0.00    -0.447 A  
HETATM   11  C   UNL     1     -12.063  13.943  66.317  1.00  0.00    -0.484 A  
HETATM   12  C   UNL     1     -10.875  14.522  66.839  1.00  0.00    -0.305 A  
BRANCH  12  13
HETATM   13  C   UNL     1     -11.077  15.469  67.999  1.00  0.00    -0.322 C  
BRANCH  13  14
HETATM   14  C   UNL     1     -11.891  14.887  69.146  1.00  0.00    -0.340 A  
HETATM   15  C   UNL     1     -11.687  13.555  69.534  1.00  0.00    -0.382 A  
HETATM   16  C   UNL     1     -12.309  13.045  70.678  1.00  0.00    -0.391 A  
HETATM   17  C   UNL     1     -13.148  13.855  71.439  1.00  0.00    -0.413 A  
HETATM   18  C   UNL     1     -13.403  15.161  71.035  1.00  0.00    -0.504 A  
HETATM   19  C   UNL     1     -12.779  15.676  69.898  1.00  0.00     0.006 A  
ENDBRANCH  13  14
ENDBRANCH  12  13
ENDBRANCH   6   7
ENDBRANCH   5   6
ENDBRANCH   4   5
ENDBRANCH   2   4
TORSDOF 6
ENDMDL
MODEL      246
REMARK 921   NORMALIZED FREE ENERGY PREDICTED BY IDOCK:   -3.01 KCAL/MOL
REMARK 922        TOTAL FREE ENERGY PREDICTED BY IDOCK:   -4.90 KCAL/MOL
REMARK 923 INTER-LIGAND FREE ENERGY PREDICTED BY IDOCK:   -4.34 KCAL/MOL
REMARK 924 INTRA-LIGAND FREE ENERGY PREDICTED BY IDOCK:   -0.56 KCAL/MOL
REMARK 927      BINDING AFFINITY PREDICTED BY RF-SCORE:    0.00 PKD
ROOT
HETATM    1  C   UNL     1      -7.709   5.907  64.837  1.00  0.00    -0.097 C  
HETATM    2  N   UNL     1      -8.550   4.719  64.774  1.00  0.00    -0.141 NA 
HETATM    3  C   UNL     1      -7.842   3.589  64.190  1.00  0.00    -0.081 C  
ENDROOT
BRANCH   2   4
HETATM    4  C   UNL     1      -9.295   4.429  66.014  1.00  0.00    -0.160 C  
BRANCH   4   5
HETATM    5  C   UNL     1     -10.646   5.119  66.354  1.00  0.00    -0.276 C  
BRANCH   5   6
HETATM    6  O   UNL     1     -10.360   6.498  66.669  1.00  0.00    -0.195 OA 
BRANCH   6   7
HETATM    7  C   UNL     1     -10.326   6.951  67.964  1.00  0.00    -0.192 A  
HETATM    8  C   UNL     1     -11.111   6.177  68.835  1.00  0.00    -0.417 A  
HETATM    9  C   UNL     1     -11.327   6.546  70.171  1.00  0.00    -0.463 A  
HETATM   10  C   UNL     1     -10.719   7.688  70.678  1.00  0.00    -0.237 A  
HETATM   11  C   UNL     1      -9.946   8.472  69.829  1.00  0.00    -0.191 A  
HETATM   12  C   UNL     1      -9.790   8.153  68.454  1.00  0.00    -0.186 A  
BRANCH  12  13
HETATM   13  C   UNL     1      -9.234   9.266  67.596  1.00  0.00    -0.139 C  
BRANCH  13  14
HETATM   14  C   UNL     1      -9.884  10.622  67.833  1.00  0.00    -0.181 A  
HETATM   15  C   UNL     1     -11.280  10.715  67.919  1.00  0.00    -0.376 A  
HETATM   16  C   UNL     1     -11.890  11.918  68.288  1.00  0.00    -0.343 A  
HETATM   17  C   UNL     1     -11.115  13.042  68.562  1.00  0.00    -0.298 A  
HETATM   18  C   UNL     1      -9.732  12.979  68.426  1.00  0.00    -0.192 A  
HETATM   19  C   UNL     1      -9.119  11.778  68.066  1.00  0.00    -0.180 A  
ENDBRANCH  13  14
ENDBRANCH  12  13
ENDBRANCH   6   7
ENDBRANCH   5   6
ENDBRANCH   4   5
ENDBRANCH   2   4
TORSDOF 6
ENDMDL
MODEL      247
REMARK 921   NORMALIZED FREE ENERGY PREDICTED BY IDOCK:   -2.99 KCAL/MOL
REMARK 922        TOTAL FREE ENERGY PREDICTED BY IDOCK:   -4.88 KCAL/MOL
REMARK 923 INTER-LIGAND FREE ENERGY PREDICTED BY IDOCK:   -4.11 KCAL/MOL
REMARK 924 INTRA-LIGAND FREE ENERGY PREDICTED BY IDOCK:   -0.77 KCAL/MOL
REMARK 927      BINDING AFFINITY PREDICTED BY RF-SCORE:    0.00 PKD
ROOT
HETATM    1  C   UNL     1      -7.022   8.218  64.718  1.00  0.00    -0.075 C  
HETATM    2  N   UNL     1      -6.052   8.885  65.576  1.00  0.00    -0.055 NA 
HETATM    3  C   UNL     1      -6.188  10.334  65.517  1.00  0.00    -0.114 C  
ENDROOT
BRANCH   2   4
HETATM    4  C   UNL     1      -5.939   8.314  66.932  1.00  0.00    -0.053 C  
BRANCH   4   5
HETATM    5  C   UNL     1      -6.996   8.586  68.041  1.00  0.00    -0.074 C  
BRANCH   5   6
HETATM    6  O   UNL     1      -7.495   7.308  68.484  1.00  0.00    -0.100 OA 
BRANCH   6   7
HETATM    7  C   UNL     1      -8.649   6.766  67.974  1.00  0.00    -0.122 A  
HETATM    8  C   UNL     1      -8.407   5.728  67.060  1.00  0.00    -0.108 A  
HETATM    9  C   UNL     1      -9.439   5.134  66.318  1.00  0.00    -0.164 A  
HETATM   10  C   UNL     1     -10.753   5.542  66.513  1.00  0.00    -0.309 A  
HETATM   11  C   UNL     1     -11.011   6.574  67.407  1.00  0.00    -0.458 A  
HETATM   12  C   UNL     1      -9.965   7.241  68.100  1.00  0.00    -0.181 A  
BRANCH  12  13
HETATM   13  C   UNL     1     -10.355   8.550  68.747  1.00  0.00    -0.233 C  
BRANCH  13  14
HETATM   14  C   UNL     1     -10.614   9.681  67.762  1.00  0.00    -0.320 A  
HETATM   15  C   UNL     1     -11.340  10.807  68.175  1.00  0.00    -0.377 A  
HETATM   16  C   UNL     1     -11.460  11.921  67.339  1.00  0.00    -0.393 A  
HETATM   17  C   UNL     1     -10.867  11.919  66.078  1.00  0.00    -0.342 A  
HETATM   18  C   UNL     1     -10.191  10.787  65.634  1.00  0.00    -0.320 A  
HETATM   19  C   UNL     1     -10.063   9.676  66.469  1.00  0.00    -0.314 A  
ENDBRANCH  13  14
ENDBRANCH  12  13
ENDBRANCH   6   7
ENDBRANCH   5   6
ENDBRANCH   4   5
ENDBRANCH   2   4
TORSDOF 6
ENDMDL
MODEL      248
REMARK 921   NORMALIZED FREE ENERGY PREDICTED BY IDOCK:   -2.98 KCAL/MOL
REMARK 922        TOTAL FREE ENERGY PREDICTED BY IDOCK:   -4.86 KCAL/MOL
REMARK 923 INTER-LIGAND FREE ENERGY PREDICTED BY IDOCK:   -4.53 KCAL/MOL
REMARK 924 INTRA-LIGAND FREE ENERGY PREDICTED BY IDOCK:   -0.33 KCAL/MOL
REMARK 927      BINDING AFFINITY PREDICTED BY RF-SCORE:    0.00 PKD
ROOT
HETATM    1  C   UNL     1     -10.686   8.022  70.004  1.00  0.00    -0.244 C  
HETATM    2  N   UNL     1     -11.314   9.334  70.081  1.00  0.00    -0.210 NA 
HETATM    3  C   UNL     1     -11.877   9.584  71.401  1.00  0.00    -0.389 C  
ENDROOT
BRANCH   2   4
HETATM    4  C   UNL     1     -10.508  10.434  69.518  1.00  0.00    -0.247 C  
BRANCH   4   5
HETATM    5  C   UNL     1     -11.139  11.781  69.066  1.00  0.00    -0.246 C  
BRANCH   5   6
HETATM    6  O   UNL     1     -11.791  11.551  67.800  1.00  0.00    -0.584 OA 
BRANCH   6   7
HETATM    7  C   UNL     1     -11.432  12.238  66.667  1.00  0.00    -0.373 A  
HETATM    8  C   UNL     1     -12.482  12.354  65.742  1.00  0.00     0.114 A  
HETATM    9  C   UNL     1     -12.291  12.896  64.463  1.00  0.00    -0.483 A  
HETATM   10  C   UNL     1     -11.041  13.379  64.097  1.00  0.00    -0.353 A  
HETATM   11  C   UNL     1      -9.987  13.265  64.996  1.00  0.00    -0.168 A  
HETATM   12  C   UNL     1     -10.148  12.641  66.262  1.00  0.00    -0.264 A  
BRANCH  12  13
HETATM   13  C   UNL     1      -8.863  12.275  66.967  1.00  0.00    -0.205 C  
BRANCH  13  14
HETATM   14  C   UNL     1      -8.061  13.470  67.464  1.00  0.00    -0.190 A  
HETATM   15  C   UNL     1      -8.733  14.590  67.975  1.00  0.00    -0.167 A  
HETATM   16  C   UNL     1      -8.020  15.632  68.576  1.00  0.00    -0.138 A  
HETATM   17  C   UNL     1      -6.631  15.573  68.664  1.00  0.00    -0.103 A  
HETATM   18  C   UNL     1      -5.949  14.493  68.112  1.00  0.00    -0.139 A  
HETATM   19  C   UNL     1      -6.657  13.448  67.517  1.00  0.00    -0.143 A  
ENDBRANCH  13  14
ENDBRANCH  12  13
ENDBRANCH   6   7
ENDBRANCH   5   6
ENDBRANCH   4   5
ENDBRANCH   2   4
TORSDOF 6
ENDMDL
MODEL      249
REMARK 921   NORMALIZED FREE ENERGY PREDICTED BY IDOCK:   -2.98 KCAL/MOL
REMARK 922        TOTAL FREE ENERGY PREDICTED BY IDOCK:   -4.86 KCAL/MOL
REMARK 923 INTER-LIGAND FREE ENERGY PREDICTED BY IDOCK:   -3.90 KCAL/MOL
REMARK 924 INTRA-LIGAND FREE ENERGY PREDICTED BY IDOCK:   -0.95 KCAL/MOL
REMARK 927      BINDING AFFINITY PREDICTED BY RF-SCORE:    0.00 PKD
ROOT
HETATM    1  C   UNL     1      -5.983   4.092  67.075  1.00  0.00    -0.024 C  
HETATM    2  N   UNL     1      -6.903   5.032  67.700  1.00  0.00    -0.059 NA 
HETATM    3  C   UNL     1      -6.698   5.108  69.140  1.00  0.00    -0.052 C  
ENDROOT
BRANCH   2   4
HETATM    4  C   UNL     1      -7.019   6.329  67.007  1.00  0.00    -0.071 C  
BRANCH   4   5
HETATM    5  C   UNL     1      -7.378   7.644  67.756  1.00  0.00    -0.099 C  
BRANCH   5   6
HETATM    6  O   UNL     1      -8.813   7.787  67.714  1.00  0.00    -0.126 OA 
BRANCH   6   7
HETATM    7  C   UNL     1      -9.589   7.618  68.833  1.00  0.00    -0.150 A  
HETATM    8  C   UNL     1     -10.421   6.490  68.757  1.00  0.00    -0.245 A  
HETATM    9  C   UNL     1     -11.392   6.212  69.731  1.00  0.00    -0.452 A  
HETATM   10  C   UNL     1     -11.519   7.045  70.835  1.00  0.00    -0.349 A  
HETATM   11  C   UNL     1     -10.710   8.172  70.924  1.00  0.00    -0.246 A  
HETATM   12  C   UNL     1      -9.783   8.509  69.903  1.00  0.00    -0.179 A  
BRANCH  12  13
HETATM   13  C   UNL     1      -9.244   9.919  69.962  1.00  0.00    -0.224 C  
BRANCH  13  14
HETATM   14  C   UNL     1      -9.859  10.866  68.939  1.00  0.00    -0.203 A  
HETATM   15  C   UNL     1      -9.119  11.238  67.808  1.00  0.00    -0.152 A  
HETATM   16  C   UNL     1      -9.714  11.979  66.783  1.00  0.00    -0.218 A  
HETATM   17  C   UNL     1     -11.048  12.367  66.881  1.00  0.00    -0.335 A  
HETATM   18  C   UNL     1     -11.778  12.052  68.023  1.00  0.00    -0.398 A  
HETATM   19  C   UNL     1     -11.189  11.306  69.045  1.00  0.00    -0.321 A  
ENDBRANCH  13  14
ENDBRANCH  12  13
ENDBRANCH   6   7
ENDBRANCH   5   6
ENDBRANCH   4   5
ENDBRANCH   2   4
TORSDOF 6
ENDMDL
MODEL      250
REMARK 921   NORMALIZED FREE ENERGY PREDICTED BY IDOCK:   -2.97 KCAL/MOL
REMARK 922        TOTAL FREE ENERGY PREDICTED BY IDOCK:   -4.85 KCAL/MOL
REMARK 923 INTER-LIGAND FREE ENERGY PREDICTED BY IDOCK:   -4.04 KCAL/MOL
REMARK 924 INTRA-LIGAND FREE ENERGY PREDICTED BY IDOCK:   -0.81 KCAL/MOL
REMARK 927      BINDING AFFINITY PREDICTED BY RF-SCORE:    0.00 PKD
ROOT
HETATM    1  C   UNL     1      -7.819   9.382  67.033  1.00  0.00    -0.098 C  
HETATM    2  N   UNL     1      -9.045   9.938  67.591  1.00  0.00    -0.131 NA 
HETATM    3  C   UNL     1     -10.023  10.234  66.554  1.00  0.00    -0.224 C  
ENDROOT
BRANCH   2   4
HETATM    4  C   UNL     1      -9.566   9.214  68.766  1.00  0.00    -0.159 C  
BRANCH   4   5
HETATM    5  C   UNL     1      -9.540   9.821  70.197  1.00  0.00    -0.237 C  
BRANCH   5   6
HETATM    6  O   UNL     1     -10.347   8.974  71.041  1.00  0.00    -0.231 OA 
BRANCH   6   7
HETATM    7  C   UNL     1      -9.787   8.160  71.994  1.00  0.00    -0.232 A  
HETATM    8  C   UNL     1      -8.563   8.649  72.480  1.00  0.00    -0.115 A  
HETATM    9  C   UNL     1      -7.759   7.904  73.355  1.00  0.00    -0.194 A  
HETATM   10  C   UNL     1      -8.189   6.661  73.801  1.00  0.00    -0.116 A  
HETATM   11  C   UNL     1      -9.394   6.156  73.324  1.00  0.00    -0.135 A  
HETATM   12  C   UNL     1     -10.176   6.864  72.372  1.00  0.00    -0.208 A  
BRANCH  12  13
HETATM   13  C   UNL     1     -11.251   6.050  71.691  1.00  0.00    -0.328 C  
BRANCH  13  14
HETATM   14  C   UNL     1     -10.849   5.500  70.329  1.00  0.00    -0.285 A  
HETATM   15  C   UNL     1     -11.235   6.180  69.165  1.00  0.00    -0.409 A  
HETATM   16  C   UNL     1     -10.750   5.782  67.916  1.00  0.00    -0.295 A  
HETATM   17  C   UNL     1      -9.886   4.694  67.813  1.00  0.00    -0.183 A  
HETATM   18  C   UNL     1      -9.539   3.976  68.953  1.00  0.00    -0.213 A  
HETATM   19  C   UNL     1     -10.015   4.376  70.203  1.00  0.00    -0.249 A  
ENDBRANCH  13  14
ENDBRANCH  12  13
ENDBRANCH   6   7
ENDBRANCH   5   6
ENDBRANCH   4   5
ENDBRANCH   2   4
TORSDOF 6
ENDMDL
MODEL      251
REMARK 921   NORMALIZED FREE ENERGY PREDICTED BY IDOCK:   -2.95 KCAL/MOL
REMARK 922        TOTAL FREE ENERGY PREDICTED BY IDOCK:   -4.82 KCAL/MOL
REMARK 923 INTER-LIGAND FREE ENERGY PREDICTED BY IDOCK:   -3.92 KCAL/MOL
REMARK 924 INTRA-LIGAND FREE ENERGY PREDICTED BY IDOCK:   -0.90 KCAL/MOL
REMARK 927      BINDING AFFINITY PREDICTED BY RF-SCORE:    0.00 PKD
ROOT
HETATM    1  C   UNL     1     -10.141  14.286  65.732  1.00  0.00    -0.335 C  
HETATM    2  N   UNL     1     -11.301  13.785  66.458  1.00  0.00    -0.316 NA 
HETATM    3  C   UNL     1     -11.953  12.696  65.745  1.00  0.00    -0.446 C  
ENDROOT
BRANCH   2   4
HETATM    4  C   UNL     1     -11.069  13.553  67.896  1.00  0.00    -0.265 C  
BRANCH   4   5
HETATM    5  C   UNL     1      -9.778  12.872  68.432  1.00  0.00    -0.186 C  
BRANCH   5   6
HETATM    6  O   UNL     1      -9.742  11.532  67.897  1.00  0.00    -0.173 OA 
BRANCH   6   7
HETATM    7  C   UNL     1      -8.585  10.981  67.406  1.00  0.00    -0.132 A  
HETATM    8  C   UNL     1      -8.497  11.051  66.006  1.00  0.00    -0.158 A  
HETATM    9  C   UNL     1      -7.464  10.425  65.292  1.00  0.00    -0.113 A  
HETATM   10  C   UNL     1      -6.464   9.746  65.977  1.00  0.00    -0.080 A  
HETATM   11  C   UNL     1      -6.539   9.658  67.363  1.00  0.00    -0.070 A  
HETATM   12  C   UNL     1      -7.625  10.215  68.089  1.00  0.00    -0.087 A  
BRANCH  12  13
HETATM   13  C   UNL     1      -7.755   9.740  69.518  1.00  0.00    -0.120 C  
BRANCH  13  14
HETATM   14  C   UNL     1      -8.999   8.905  69.787  1.00  0.00    -0.149 A  
HETATM   15  C   UNL     1      -9.158   7.671  69.142  1.00  0.00    -0.141 A  
HETATM   16  C   UNL     1     -10.211   6.819  69.486  1.00  0.00    -0.202 A  
HETATM   17  C   UNL     1     -11.123   7.194  70.470  1.00  0.00    -0.299 A  
HETATM   18  C   UNL     1     -11.010   8.439  71.080  1.00  0.00    -0.288 A  
HETATM   19  C   UNL     1      -9.955   9.289  70.743  1.00  0.00    -0.357 A  
ENDBRANCH  13  14
ENDBRANCH  12  13
ENDBRANCH   6   7
ENDBRANCH   5   6
ENDBRANCH   4   5
ENDBRANCH   2   4
TORSDOF 6
ENDMDL
MODEL      252
REMARK 921   NORMALIZED FREE ENERGY PREDICTED BY IDOCK:   -2.93 KCAL/MOL
REMARK 922        TOTAL FREE ENERGY PREDICTED BY IDOCK:   -4.79 KCAL/MOL
REMARK 923 INTER-LIGAND FREE ENERGY PREDICTED BY IDOCK:   -4.21 KCAL/MOL
REMARK 924 INTRA-LIGAND FREE ENERGY PREDICTED BY IDOCK:   -0.58 KCAL/MOL
REMARK 927      BINDING AFFINITY PREDICTED BY RF-SCORE:    0.00 PKD
ROOT
HETATM    1  C   UNL     1     -12.815   8.842  72.075  1.00  0.00    -0.390 C  
HETATM    2  N   UNL     1     -11.602   8.696  71.282  1.00  0.00    -0.273 NA 
HETATM    3  C   UNL     1     -11.538   7.396  70.631  1.00  0.00    -0.268 C  
ENDROOT
BRANCH   2   4
HETATM    4  C   UNL     1     -11.292   9.853  70.419  1.00  0.00    -0.307 C  
BRANCH   4   5
HETATM    5  C   UNL     1     -10.854   9.691  68.936  1.00  0.00    -0.174 C  
BRANCH   5   6
HETATM    6  O   UNL     1     -10.775  11.012  68.362  1.00  0.00    -0.179 OA 
BRANCH   6   7
HETATM    7  C   UNL     1      -9.580  11.557  67.964  1.00  0.00    -0.180 A  
HETATM    8  C   UNL     1      -8.642  10.590  67.572  1.00  0.00    -0.121 A  
HETATM    9  C   UNL     1      -7.314  10.921  67.263  1.00  0.00    -0.103 A  
HETATM   10  C   UNL     1      -6.908  12.249  67.300  1.00  0.00    -0.140 A  
HETATM   11  C   UNL     1      -7.820  13.221  67.695  1.00  0.00    -0.168 A  
HETATM   12  C   UNL     1      -9.143  12.887  68.091  1.00  0.00    -0.207 A  
BRANCH  12  13
HETATM   13  C   UNL     1      -9.890  13.977  68.822  1.00  0.00    -0.141 C  
BRANCH  13  14
HETATM   14  C   UNL     1      -9.599  15.383  68.314  1.00  0.00    -0.205 A  
HETATM   15  C   UNL     1     -10.183  15.821  67.117  1.00  0.00    -0.279 A  
HETATM   16  C   UNL     1     -10.054  17.152  66.710  1.00  0.00    -0.303 A  
HETATM   17  C   UNL     1      -9.333  18.056  67.486  1.00  0.00    -0.257 A  
HETATM   18  C   UNL     1      -8.702  17.622  68.647  1.00  0.00    -0.266 A  
HETATM   19  C   UNL     1      -8.834  16.296  69.060  1.00  0.00    -0.243 A  
ENDBRANCH  13  14
ENDBRANCH  12  13
ENDBRANCH   6   7
ENDBRANCH   5   6
ENDBRANCH   4   5
ENDBRANCH   2   4
TORSDOF 6
ENDMDL
MODEL      253
REMARK 921   NORMALIZED FREE ENERGY PREDICTED BY IDOCK:   -2.92 KCAL/MOL
REMARK 922        TOTAL FREE ENERGY PREDICTED BY IDOCK:   -4.78 KCAL/MOL
REMARK 923 INTER-LIGAND FREE ENERGY PREDICTED BY IDOCK:   -4.41 KCAL/MOL
REMARK 924 INTRA-LIGAND FREE ENERGY PREDICTED BY IDOCK:   -0.37 KCAL/MOL
REMARK 927      BINDING AFFINITY PREDICTED BY RF-SCORE:    0.00 PKD
ROOT
HETATM    1  C   UNL     1     -12.483  11.879  63.251  1.00  0.00    -0.384 C  
HETATM    2  N   UNL     1     -11.235  11.943  63.999  1.00  0.00    -0.368 NA 
HETATM    3  C   UNL     1     -10.283  10.941  63.544  1.00  0.00    -0.317 C  
ENDROOT
BRANCH   2   4
HETATM    4  C   UNL     1     -10.691  13.304  64.168  1.00  0.00    -0.326 C  
BRANCH   4   5
HETATM    5  C   UNL     1     -10.656  14.022  65.547  1.00  0.00    -0.318 C  
BRANCH   5   6
HETATM    6  O   UNL     1     -10.538  13.003  66.562  1.00  0.00    -0.277 OA 
BRANCH   6   7
HETATM    7  C   UNL     1      -9.431  12.912  67.368  1.00  0.00    -0.198 A  
HETATM    8  C   UNL     1      -8.879  11.621  67.396  1.00  0.00    -0.160 A  
HETATM    9  C   UNL     1      -7.831  11.278  68.263  1.00  0.00    -0.130 A  
HETATM   10  C   UNL     1      -7.279  12.243  69.096  1.00  0.00     0.041 A  
HETATM   11  C   UNL     1      -7.819  13.525  69.089  1.00  0.00     0.276 A  
HETATM   12  C   UNL     1      -8.935  13.861  68.278  1.00  0.00    -0.187 A  
BRANCH  12  13
HETATM   13  C   UNL     1      -9.622  15.159  68.635  1.00  0.00    -0.213 C  
BRANCH  13  14
HETATM   14  C   UNL     1     -10.843  14.993  69.528  1.00  0.00    -0.272 A  
HETATM   15  C   UNL     1     -11.796  14.011  69.224  1.00  0.00    -0.389 A  
HETATM   16  C   UNL     1     -12.842  13.737  70.109  1.00  0.00    -0.017 A  
HETATM   17  C   UNL     1     -12.956  14.449  71.302  1.00  0.00    -0.414 A  
HETATM   18  C   UNL     1     -12.051  15.465  71.590  1.00  0.00    -0.449 A  
HETATM   19  C   UNL     1     -11.000  15.735  70.712  1.00  0.00    -0.311 A  
ENDBRANCH  13  14
ENDBRANCH  12  13
ENDBRANCH   6   7
ENDBRANCH   5   6
ENDBRANCH   4   5
ENDBRANCH   2   4
TORSDOF 6
ENDMDL
MODEL      254
REMARK 921   NORMALIZED FREE ENERGY PREDICTED BY IDOCK:   -2.90 KCAL/MOL
REMARK 922        TOTAL FREE ENERGY PREDICTED BY IDOCK:   -4.75 KCAL/MOL
REMARK 923 INTER-LIGAND FREE ENERGY PREDICTED BY IDOCK:   -4.08 KCAL/MOL
REMARK 924 INTRA-LIGAND FREE ENERGY PREDICTED BY IDOCK:   -0.67 KCAL/MOL
REMARK 927      BINDING AFFINITY PREDICTED BY RF-SCORE:    0.00 PKD
ROOT
HETATM    1  C   UNL     1      -9.162   4.778  68.325  1.00  0.00    -0.124 C  
HETATM    2  N   UNL     1      -8.537   5.546  67.258  1.00  0.00    -0.110 NA 
HETATM    3  C   UNL     1      -8.865   5.010  65.945  1.00  0.00    -0.134 C  
ENDROOT
BRANCH   2   4
HETATM    4  C   UNL     1      -8.671   7.009  67.396  1.00  0.00    -0.120 C  
BRANCH   4   5
HETATM    5  C   UNL     1      -8.255   7.764  68.690  1.00  0.00    -0.128 C  
BRANCH   5   6
HETATM    6  O   UNL     1      -8.444   9.174  68.448  1.00  0.00    -0.126 OA 
BRANCH   6   7
HETATM    7  C   UNL     1      -9.560   9.839  68.889  1.00  0.00    -0.167 A  
HETATM    8  C   UNL     1     -10.521   8.983  69.452  1.00  0.00    -0.229 A  
HETATM    9  C   UNL     1     -11.790   9.438  69.837  1.00  0.00     0.201 A  
HETATM   10  C   UNL     1     -12.111  10.784  69.706  1.00  0.00    -0.389 A  
HETATM   11  C   UNL     1     -11.176  11.646  69.142  1.00  0.00    -0.325 A  
HETATM   12  C   UNL     1      -9.920  11.180  68.671  1.00  0.00    -0.210 A  
BRANCH  12  13
HETATM   13  C   UNL     1      -9.172  12.142  67.777  1.00  0.00    -0.189 C  
BRANCH  13  14
HETATM   14  C   UNL     1      -9.665  12.166  66.336  1.00  0.00    -0.243 A  
HETATM   15  C   UNL     1      -9.415  11.070  65.499  1.00  0.00    -0.250 A  
HETATM   16  C   UNL     1      -9.987  11.003  64.226  1.00  0.00    -0.373 A  
HETATM   17  C   UNL     1     -10.805  12.034  63.769  1.00  0.00    -0.481 A  
HETATM   18  C   UNL     1     -11.017  13.153  64.567  1.00  0.00    -0.392 A  
HETATM   19  C   UNL     1     -10.453  13.220  65.842  1.00  0.00    -0.289 A  
ENDBRANCH  13  14
ENDBRANCH  12  13
ENDBRANCH   6   7
ENDBRANCH   5   6
ENDBRANCH   4   5
ENDBRANCH   2   4
TORSDOF 6
ENDMDL
MODEL      255
REMARK 921   NORMALIZED FREE ENERGY PREDICTED BY IDOCK:   -2.88 KCAL/MOL
REMARK 922        TOTAL FREE ENERGY PREDICTED BY IDOCK:   -4.72 KCAL/MOL
REMARK 923 INTER-LIGAND FREE ENERGY PREDICTED BY IDOCK:   -4.01 KCAL/MOL
REMARK 924 INTRA-LIGAND FREE ENERGY PREDICTED BY IDOCK:   -0.71 KCAL/MOL
REMARK 927      BINDING AFFINITY PREDICTED BY RF-SCORE:    0.00 PKD
ROOT
HETATM    1  C   UNL     1     -10.732   5.774  70.863  1.00  0.00    -0.264 C  
HETATM    2  N   UNL     1     -11.411   7.061  70.793  1.00  0.00    -0.301 NA 
HETATM    3  C   UNL     1     -11.368   7.763  72.068  1.00  0.00    -0.284 C  
ENDROOT
BRANCH   2   4
HETATM    4  C   UNL     1     -11.065   7.872  69.611  1.00  0.00    -0.026 C  
BRANCH   4   5
HETATM    5  C   UNL     1      -9.662   7.812  68.942  1.00  0.00    -0.160 C  
BRANCH   5   6
HETATM    6  O   UNL     1      -9.476   9.046  68.218  1.00  0.00    -0.145 OA 
BRANCH   6   7
HETATM    7  C   UNL     1      -8.379   9.845  68.423  1.00  0.00    -0.107 A  
HETATM    8  C   UNL     1      -7.874   9.755  69.730  1.00  0.00    -0.159 A  
HETATM    9  C   UNL     1      -6.845  10.590  70.190  1.00  0.00    -0.145 A  
HETATM   10  C   UNL     1      -6.266  11.512  69.328  1.00  0.00    -0.079 A  
HETATM   11  C   UNL     1      -6.759  11.623  68.033  1.00  0.00    -0.064 A  
HETATM   12  C   UNL     1      -7.856  10.842  67.582  1.00  0.00    -0.113 A  
BRANCH  12  13
HETATM   13  C   UNL     1      -8.499  11.316  66.299  1.00  0.00    -0.156 C  
BRANCH  13  14
HETATM   14  C   UNL     1      -9.733  12.185  66.503  1.00  0.00    -0.234 A  
HETATM   15  C   UNL     1      -9.613  13.415  67.165  1.00  0.00    -0.241 A  
HETATM   16  C   UNL     1     -10.696  14.296  67.230  1.00  0.00    -0.277 A  
HETATM   17  C   UNL     1     -11.913  13.954  66.646  1.00  0.00    -0.474 A  
HETATM   18  C   UNL     1     -12.064  12.714  66.034  1.00  0.00    -0.429 A  
HETATM   19  C   UNL     1     -10.982  11.835  65.961  1.00  0.00    -0.355 A  
ENDBRANCH  13  14
ENDBRANCH  12  13
ENDBRANCH   6   7
ENDBRANCH   5   6
ENDBRANCH   4   5
ENDBRANCH   2   4
TORSDOF 6
ENDMDL
MODEL      256
REMARK 921   NORMALIZED FREE ENERGY PREDICTED BY IDOCK:   -2.88 KCAL/MOL
REMARK 922        TOTAL FREE ENERGY PREDICTED BY IDOCK:   -4.72 KCAL/MOL
REMARK 923 INTER-LIGAND FREE ENERGY PREDICTED BY IDOCK:   -4.38 KCAL/MOL
REMARK 924 INTRA-LIGAND FREE ENERGY PREDICTED BY IDOCK:   -0.34 KCAL/MOL
REMARK 927      BINDING AFFINITY PREDICTED BY RF-SCORE:    0.00 PKD
ROOT
HETATM    1  C   UNL     1      -8.881  13.673  67.167  1.00  0.00    -0.230 C  
HETATM    2  N   UNL     1     -10.267  13.420  67.537  1.00  0.00    -0.225 NA 
HETATM    3  C   UNL     1     -11.154  13.494  66.385  1.00  0.00    -0.302 C  
ENDROOT
BRANCH   2   4
HETATM    4  C   UNL     1     -10.463  12.249  68.413  1.00  0.00    -0.233 C  
BRANCH   4   5
HETATM    5  C   UNL     1     -11.622  11.235  68.201  1.00  0.00    -0.289 C  
BRANCH   5   6
HETATM    6  O   UNL     1     -11.545  10.261  69.262  1.00  0.00    -0.206 OA 
BRANCH   6   7
HETATM    7  C   UNL     1     -10.477   9.407  69.382  1.00  0.00    -0.220 A  
HETATM    8  C   UNL     1      -9.676   9.688  70.500  1.00  0.00    -0.280 A  
HETATM    9  C   UNL     1      -8.460   9.026  70.731  1.00  0.00    -0.238 A  
HETATM   10  C   UNL     1      -8.041   8.029  69.860  1.00  0.00    -0.117 A  
HETATM   11  C   UNL     1      -8.816   7.743  68.741  1.00  0.00    -0.134 A  
HETATM   12  C   UNL     1     -10.005   8.465  68.453  1.00  0.00    -0.208 A  
BRANCH  12  13
HETATM   13  C   UNL     1     -10.536   8.294  67.048  1.00  0.00    -0.384 C  
BRANCH  13  14
HETATM   14  C   UNL     1      -9.661   8.919  65.970  1.00  0.00    -0.308 A  
HETATM   15  C   UNL     1     -10.053  10.126  65.374  1.00  0.00    -0.342 A  
HETATM   16  C   UNL     1      -9.196  10.795  64.496  1.00  0.00    -0.250 A  
HETATM   17  C   UNL     1      -7.945  10.262  64.194  1.00  0.00    -0.126 A  
HETATM   18  C   UNL     1      -7.566   9.038  64.734  1.00  0.00    -0.105 A  
HETATM   19  C   UNL     1      -8.417   8.370  65.617  1.00  0.00    -0.179 A  
ENDBRANCH  13  14
ENDBRANCH  12  13
ENDBRANCH   6   7
ENDBRANCH   5   6
ENDBRANCH   4   5
ENDBRANCH   2   4
TORSDOF 6
ENDMDL
MODEL      257
REMARK 921   NORMALIZED FREE ENERGY PREDICTED BY IDOCK:   -2.88 KCAL/MOL
REMARK 922        TOTAL FREE ENERGY PREDICTED BY IDOCK:   -4.72 KCAL/MOL
REMARK 923 INTER-LIGAND FREE ENERGY PREDICTED BY IDOCK:   -4.58 KCAL/MOL
REMARK 924 INTRA-LIGAND FREE ENERGY PREDICTED BY IDOCK:   -0.14 KCAL/MOL
REMARK 927      BINDING AFFINITY PREDICTED BY RF-SCORE:    0.00 PKD
ROOT
HETATM    1  C   UNL     1      -8.008   9.959  65.808  1.00  0.00    -0.120 C  
HETATM    2  N   UNL     1      -9.106  10.258  66.718  1.00  0.00    -0.142 NA 
HETATM    3  C   UNL     1      -9.663   9.049  67.305  1.00  0.00    -0.179 C  
ENDROOT
BRANCH   2   4
HETATM    4  C   UNL     1      -8.834  11.356  67.665  1.00  0.00    -0.139 C  
BRANCH   4   5
HETATM    5  C   UNL     1      -9.230  12.830  67.368  1.00  0.00    -0.193 C  
BRANCH   5   6
HETATM    6  O   UNL     1      -8.036  13.520  66.943  1.00  0.00    -0.058 OA 
BRANCH   6   7
HETATM    7  C   UNL     1      -7.535  14.592  67.639  1.00  0.00    -0.177 A  
HETATM    8  C   UNL     1      -6.325  14.302  68.290  1.00  0.00    -0.118 A  
HETATM    9  C   UNL     1      -5.716  15.211  69.168  1.00  0.00    -0.098 A  
HETATM   10  C   UNL     1      -6.290  16.458  69.380  1.00  0.00    -0.200 A  
HETATM   11  C   UNL     1      -7.493  16.760  68.751  1.00  0.00    -0.231 A  
HETATM   12  C   UNL     1      -8.162  15.816  67.926  1.00  0.00    -0.151 A  
BRANCH  12  13
HETATM   13  C   UNL     1      -9.602  16.146  67.610  1.00  0.00    -0.222 C  
BRANCH  13  14
HETATM   14  C   UNL     1      -9.874  17.631  67.415  1.00  0.00    -0.305 A  
HETATM   15  C   UNL     1     -10.031  18.459  68.535  1.00  0.00    -0.415 A  
HETATM   16  C   UNL     1     -10.129  19.846  68.385  1.00  0.00    -0.557 A  
HETATM   17  C   UNL     1     -10.082  20.419  67.116  1.00  0.00    -0.502 A  
HETATM   18  C   UNL     1      -9.982  19.605  65.993  1.00  0.00    -0.508 A  
HETATM   19  C   UNL     1      -9.878  18.221  66.139  1.00  0.00    -0.264 A  
ENDBRANCH  13  14
ENDBRANCH  12  13
ENDBRANCH   6   7
ENDBRANCH   5   6
ENDBRANCH   4   5
ENDBRANCH   2   4
TORSDOF 6
ENDMDL
MODEL      258
REMARK 921   NORMALIZED FREE ENERGY PREDICTED BY IDOCK:   -2.84 KCAL/MOL
REMARK 922        TOTAL FREE ENERGY PREDICTED BY IDOCK:   -4.67 KCAL/MOL
REMARK 923 INTER-LIGAND FREE ENERGY PREDICTED BY IDOCK:   -4.04 KCAL/MOL
REMARK 924 INTRA-LIGAND FREE ENERGY PREDICTED BY IDOCK:   -0.63 KCAL/MOL
REMARK 927      BINDING AFFINITY PREDICTED BY RF-SCORE:    0.00 PKD
ROOT
HETATM    1  C   UNL     1     -10.949  14.119  68.972  1.00  0.00    -0.261 C  
HETATM    2  N   UNL     1     -10.071  13.991  67.816  1.00  0.00    -0.236 NA 
HETATM    3  C   UNL     1      -8.723  13.604  68.205  1.00  0.00    -0.177 C  
ENDROOT
BRANCH   2   4
HETATM    4  C   UNL     1     -10.648  13.234  66.690  1.00  0.00    -0.281 C  
BRANCH   4   5
HETATM    5  C   UNL     1     -11.721  12.127  66.894  1.00  0.00    -0.301 C  
BRANCH   5   6
HETATM    6  O   UNL     1     -11.035  10.935  67.329  1.00  0.00    -0.274 OA 
BRANCH   6   7
HETATM    7  C   UNL     1     -11.247  10.392  68.571  1.00  0.00    -0.251 A  
HETATM    8  C   UNL     1     -12.244  11.062  69.298  1.00  0.00    -0.280 A  
HETATM    9  C   UNL     1     -12.521  10.758  70.639  1.00  0.00    -0.461 A  
HETATM   10  C   UNL     1     -11.825   9.736  71.273  1.00  0.00    -0.481 A  
HETATM   11  C   UNL     1     -10.827   9.067  70.573  1.00  0.00    -0.296 A  
HETATM   12  C   UNL     1     -10.481   9.423  69.242  1.00  0.00    -0.230 A  
BRANCH  12  13
HETATM   13  C   UNL     1      -9.167   8.865  68.748  1.00  0.00    -0.140 C  
BRANCH  13  14
HETATM   14  C   UNL     1      -7.953   9.336  69.537  1.00  0.00    -0.098 A  
HETATM   15  C   UNL     1      -7.240  10.463  69.103  1.00  0.00    -0.089 A  
HETATM   16  C   UNL     1      -6.219  11.004  69.890  1.00  0.00    -0.127 A  
HETATM   17  C   UNL     1      -5.891  10.420  71.112  1.00  0.00     0.026 A  
HETATM   18  C   UNL     1      -6.552   9.269  71.528  1.00  0.00     0.013 A  
HETATM   19  C   UNL     1      -7.577   8.731  70.748  1.00  0.00    -0.097 A  
ENDBRANCH  13  14
ENDBRANCH  12  13
ENDBRANCH   6   7
ENDBRANCH   5   6
ENDBRANCH   4   5
ENDBRANCH   2   4
TORSDOF 6
ENDMDL
MODEL      259
REMARK 921   NORMALIZED FREE ENERGY PREDICTED BY IDOCK:   -2.82 KCAL/MOL
REMARK 922        TOTAL FREE ENERGY PREDICTED BY IDOCK:   -4.64 KCAL/MOL
REMARK 923 INTER-LIGAND FREE ENERGY PREDICTED BY IDOCK:   -4.09 KCAL/MOL
REMARK 924 INTRA-LIGAND FREE ENERGY PREDICTED BY IDOCK:   -0.55 KCAL/MOL
REMARK 927      BINDING AFFINITY PREDICTED BY RF-SCORE:    0.00 PKD
ROOT
HETATM    1  C   UNL     1     -10.048   3.690  64.598  1.00  0.00    -0.162 C  
HETATM    2  N   UNL     1      -9.704   3.608  66.011  1.00  0.00    -0.132 NA 
HETATM    3  C   UNL     1      -8.609   2.677  66.245  1.00  0.00    -0.112 C  
ENDROOT
BRANCH   2   4
HETATM    4  C   UNL     1      -9.582   4.913  66.689  1.00  0.00    -0.163 C  
BRANCH   4   5
HETATM    5  C   UNL     1     -10.699   5.993  66.622  1.00  0.00    -0.244 C  
BRANCH   5   6
HETATM    6  O   UNL     1     -11.019   6.369  67.977  1.00  0.00    -0.293 OA 
BRANCH   6   7
HETATM    7  C   UNL     1     -10.235   7.242  68.689  1.00  0.00    -0.182 A  
HETATM    8  C   UNL     1      -9.825   6.724  69.928  1.00  0.00    -0.174 A  
HETATM    9  C   UNL     1      -9.135   7.503  70.869  1.00  0.00    -0.153 A  
HETATM   10  C   UNL     1      -8.801   8.817  70.567  1.00  0.00    -0.200 A  
HETATM   11  C   UNL     1      -9.207   9.350  69.349  1.00  0.00    -0.167 A  
HETATM   12  C   UNL     1      -9.979   8.598  68.423  1.00  0.00    -0.204 A  
BRANCH  12  13
HETATM   13  C   UNL     1     -10.638   9.406  67.330  1.00  0.00    -0.314 C  
BRANCH  13  14
HETATM   14  C   UNL     1      -9.791   9.563  66.074  1.00  0.00    -0.353 A  
HETATM   15  C   UNL     1      -8.760   8.650  65.815  1.00  0.00    -0.212 A  
HETATM   16  C   UNL     1      -8.071   8.682  64.598  1.00  0.00    -0.156 A  
HETATM   17  C   UNL     1      -8.397   9.631  63.633  1.00  0.00    -0.172 A  
HETATM   18  C   UNL     1      -9.381  10.579  63.899  1.00  0.00    -0.314 A  
HETATM   19  C   UNL     1     -10.075  10.545  65.109  1.00  0.00    -0.383 A  
ENDBRANCH  13  14
ENDBRANCH  12  13
ENDBRANCH   6   7
ENDBRANCH   5   6
ENDBRANCH   4   5
ENDBRANCH   2   4
TORSDOF 6
ENDMDL
MODEL      260
REMARK 921   NORMALIZED FREE ENERGY PREDICTED BY IDOCK:   -2.80 KCAL/MOL
REMARK 922        TOTAL FREE ENERGY PREDICTED BY IDOCK:   -4.62 KCAL/MOL
REMARK 923 INTER-LIGAND FREE ENERGY PREDICTED BY IDOCK:   -4.83 KCAL/MOL
REMARK 924 INTRA-LIGAND FREE ENERGY PREDICTED BY IDOCK:    0.21 KCAL/MOL
REMARK 927      BINDING AFFINITY PREDICTED BY RF-SCORE:    0.00 PKD
ROOT
HETATM    1  C   UNL     1      -9.434  11.435  65.062  1.00  0.00    -0.185 C  
HETATM    2  N   UNL     1     -10.773  11.754  64.584  1.00  0.00    -0.295 NA 
HETATM    3  C   UNL     1     -11.755  11.695  65.656  1.00  0.00     0.108 C  
ENDROOT
BRANCH   2   4
HETATM    4  C   UNL     1     -10.846  12.949  63.721  1.00  0.00    -0.314 C  
BRANCH   4   5
HETATM    5  C   UNL     1     -11.105  14.372  64.291  1.00  0.00    -0.044 C  
BRANCH   5   6
HETATM    6  O   UNL     1     -11.115  14.266  65.730  1.00  0.00    -0.300 OA 
BRANCH   6   7
HETATM    7  C   UNL     1     -10.847  15.345  66.535  1.00  0.00    -0.298 A  
HETATM    8  C   UNL     1      -9.957  16.258  65.948  1.00  0.00    -0.366 A  
HETATM    9  C   UNL     1      -9.443  17.356  66.653  1.00  0.00    -0.285 A  
HETATM   10  C   UNL     1      -9.849  17.588  67.961  1.00  0.00    -0.299 A  
HETATM   11  C   UNL     1     -10.723  16.690  68.563  1.00  0.00    -0.351 A  
HETATM   12  C   UNL     1     -11.183  15.528  67.887  1.00  0.00    -0.325 A  
BRANCH  12  13
HETATM   13  C   UNL     1     -11.824  14.482  68.769  1.00  0.00    -0.350 C  
BRANCH  13  14
HETATM   14  C   UNL     1     -11.015  13.200  68.905  1.00  0.00    -0.270 A  
HETATM   15  C   UNL     1     -11.627  12.044  69.411  1.00  0.00    -0.393 A  
HETATM   16  C   UNL     1     -10.952  10.820  69.403  1.00  0.00    -0.305 A  
HETATM   17  C   UNL     1      -9.655  10.738  68.900  1.00  0.00    -0.204 A  
HETATM   18  C   UNL     1      -9.015  11.887  68.446  1.00  0.00    -0.163 A  
HETATM   19  C   UNL     1      -9.689  13.109  68.447  1.00  0.00    -0.196 A  
ENDBRANCH  13  14
ENDBRANCH  12  13
ENDBRANCH   6   7
ENDBRANCH   5   6
ENDBRANCH   4   5
ENDBRANCH   2   4
TORSDOF 6
ENDMDL
MODEL      261
REMARK 921   NORMALIZED FREE ENERGY PREDICTED BY IDOCK:   -2.75 KCAL/MOL
REMARK 922        TOTAL FREE ENERGY PREDICTED BY IDOCK:   -4.55 KCAL/MOL
REMARK 923 INTER-LIGAND FREE ENERGY PREDICTED BY IDOCK:   -3.53 KCAL/MOL
REMARK 924 INTRA-LIGAND FREE ENERGY PREDICTED BY IDOCK:   -1.02 KCAL/MOL
REMARK 927      BINDING AFFINITY PREDICTED BY RF-SCORE:    0.00 PKD
ROOT
HETATM    1  C   UNL     1      -9.935   6.714  66.806  1.00  0.00    -0.176 C  
HETATM    2  N   UNL     1      -9.918   6.968  68.240  1.00  0.00    -0.148 NA 
HETATM    3  C   UNL     1      -9.047   6.035  68.941  1.00  0.00    -0.121 C  
ENDROOT
BRANCH   2   4
HETATM    4  C   UNL     1      -9.755   8.387  68.610  1.00  0.00    -0.164 C  
BRANCH   4   5
HETATM    5  C   UNL     1     -10.753   9.487  68.148  1.00  0.00    -0.197 C  
BRANCH   5   6
HETATM    6  O   UNL     1     -10.441  10.689  68.882  1.00  0.00    -0.187 OA 
BRANCH   6   7
HETATM    7  C   UNL     1     -10.450  11.924  68.283  1.00  0.00    -0.205 A  
HETATM    8  C   UNL     1     -11.719  12.290  67.806  1.00  0.00    -0.403 A  
HETATM    9  C   UNL     1     -11.921  13.448  67.040  1.00  0.00    -0.429 A  
HETATM   10  C   UNL     1     -10.852  14.294  66.771  1.00  0.00    -0.298 A  
HETATM   11  C   UNL     1      -9.586  13.943  67.228  1.00  0.00    -0.243 A  
HETATM   12  C   UNL     1      -9.355  12.731  67.931  1.00  0.00    -0.208 A  
BRANCH  12  13
HETATM   13  C   UNL     1      -7.905  12.320  68.045  1.00  0.00    -0.147 C  
BRANCH  13  14
HETATM   14  C   UNL     1      -7.538  11.092  67.222  1.00  0.00    -0.126 A  
HETATM   15  C   UNL     1      -6.657  10.141  67.753  1.00  0.00    -0.067 A  
HETATM   16  C   UNL     1      -6.424   8.936  67.084  1.00  0.00    -0.061 A  
HETATM   17  C   UNL     1      -7.060   8.673  65.872  1.00  0.00    -0.076 A  
HETATM   18  C   UNL     1      -7.894   9.631  65.306  1.00  0.00    -0.115 A  
HETATM   19  C   UNL     1      -8.133  10.832  65.976  1.00  0.00    -0.158 A  
ENDBRANCH  13  14
ENDBRANCH  12  13
ENDBRANCH   6   7
ENDBRANCH   5   6
ENDBRANCH   4   5
ENDBRANCH   2   4
TORSDOF 6
ENDMDL
MODEL      262
REMARK 921   NORMALIZED FREE ENERGY PREDICTED BY IDOCK:   -2.72 KCAL/MOL
REMARK 922        TOTAL FREE ENERGY PREDICTED BY IDOCK:   -4.52 KCAL/MOL
REMARK 923 INTER-LIGAND FREE ENERGY PREDICTED BY IDOCK:   -3.92 KCAL/MOL
REMARK 924 INTRA-LIGAND FREE ENERGY PREDICTED BY IDOCK:   -0.60 KCAL/MOL
REMARK 927      BINDING AFFINITY PREDICTED BY RF-SCORE:    0.00 PKD
ROOT
HETATM    1  C   UNL     1     -12.253  12.670  70.525  1.00  0.00    -0.299 C  
HETATM    2  N   UNL     1     -12.033  11.446  69.767  1.00  0.00    -0.334 NA 
HETATM    3  C   UNL     1     -10.683  11.385  69.224  1.00  0.00    -0.151 C  
ENDROOT
BRANCH   2   4
HETATM    4  C   UNL     1     -12.503  10.218  70.435  1.00  0.00    -0.219 C  
BRANCH   4   5
HETATM    5  C   UNL     1     -11.566   9.332  71.304  1.00  0.00    -0.349 C  
BRANCH   5   6
HETATM    6  O   UNL     1     -11.656   7.984  70.799  1.00  0.00    -0.284 OA 
BRANCH   6   7
HETATM    7  C   UNL     1     -11.070   6.928  71.451  1.00  0.00    -0.250 A  
HETATM    8  C   UNL     1     -11.980   6.189  72.223  1.00  0.00    -0.285 A  
HETATM    9  C   UNL     1     -11.565   5.155  73.077  1.00  0.00    -0.301 A  
HETATM   10  C   UNL     1     -10.221   4.810  73.141  1.00  0.00    -0.216 A  
HETATM   11  C   UNL     1      -9.304   5.537  72.390  1.00  0.00    -0.156 A  
HETATM   12  C   UNL     1      -9.701   6.639  71.588  1.00  0.00    -0.170 A  
BRANCH  12  13
HETATM   13  C   UNL     1      -8.577   7.536  71.125  1.00  0.00    -0.121 C  
BRANCH  13  14
HETATM   14  C   UNL     1      -7.622   7.961  72.232  1.00  0.00    -0.116 A  
HETATM   15  C   UNL     1      -8.133   8.333  73.483  1.00  0.00    -0.237 A  
HETATM   16  C   UNL     1      -7.273   8.579  74.558  1.00  0.00    -0.220 A  
HETATM   17  C   UNL     1      -5.895   8.468  74.392  1.00  0.00    -0.125 A  
HETATM   18  C   UNL     1      -5.371   8.154  73.142  1.00  0.00    -0.046 A  
HETATM   19  C   UNL     1      -6.227   7.901  72.069  1.00  0.00    -0.041 A  
ENDBRANCH  13  14
ENDBRANCH  12  13
ENDBRANCH   6   7
ENDBRANCH   5   6
ENDBRANCH   4   5
ENDBRANCH   2   4
TORSDOF 6
ENDMDL
MODEL      263
REMARK 921   NORMALIZED FREE ENERGY PREDICTED BY IDOCK:   -2.70 KCAL/MOL
REMARK 922        TOTAL FREE ENERGY PREDICTED BY IDOCK:   -4.49 KCAL/MOL
REMARK 923 INTER-LIGAND FREE ENERGY PREDICTED BY IDOCK:   -3.56 KCAL/MOL
REMARK 924 INTRA-LIGAND FREE ENERGY PREDICTED BY IDOCK:   -0.93 KCAL/MOL
REMARK 927      BINDING AFFINITY PREDICTED BY RF-SCORE:    0.00 PKD
ROOT
HETATM    1  C   UNL     1     -11.653   9.009  71.688  1.00  0.00    -0.356 C  
HETATM    2  N   UNL     1     -11.630   7.892  72.623  1.00  0.00    -0.388 NA 
HETATM    3  C   UNL     1     -12.155   6.675  72.021  1.00  0.00    -0.310 C  
ENDROOT
BRANCH   2   4
HETATM    4  C   UNL     1     -10.363   7.739  73.363  1.00  0.00    -0.228 C  
BRANCH   4   5
HETATM    5  C   UNL     1     -10.108   6.556  74.340  1.00  0.00    -0.348 C  
BRANCH   5   6
HETATM    6  O   UNL     1      -8.994   5.800  73.821  1.00  0.00    -0.127 OA 
BRANCH   6   7
HETATM    7  C   UNL     1      -9.162   4.835  72.859  1.00  0.00    -0.124 A  
HETATM    8  C   UNL     1     -10.036   3.812  73.257  1.00  0.00    -0.207 A  
HETATM    9  C   UNL     1     -10.238   2.661  72.481  1.00  0.00    -0.230 A  
HETATM   10  C   UNL     1      -9.594   2.531  71.257  1.00  0.00    -0.224 A  
HETATM   11  C   UNL     1      -8.717   3.530  70.850  1.00  0.00    -0.123 A  
HETATM   12  C   UNL     1      -8.440   4.660  71.666  1.00  0.00    -0.117 A  
BRANCH  12  13
HETATM   13  C   UNL     1      -7.223   5.460  71.265  1.00  0.00    -0.075 C  
BRANCH  13  14
HETATM   14  C   UNL     1      -7.542   6.832  70.685  1.00  0.00    -0.095 A  
HETATM   15  C   UNL     1      -8.727   7.019  69.960  1.00  0.00    -0.142 A  
HETATM   16  C   UNL     1      -9.115   8.298  69.550  1.00  0.00    -0.154 A  
HETATM   17  C   UNL     1      -8.319   9.402  69.850  1.00  0.00    -0.174 A  
HETATM   18  C   UNL     1      -7.113   9.224  70.521  1.00  0.00    -0.100 A  
HETATM   19  C   UNL     1      -6.727   7.949  70.937  1.00  0.00    -0.037 A  
ENDBRANCH  13  14
ENDBRANCH  12  13
ENDBRANCH   6   7
ENDBRANCH   5   6
ENDBRANCH   4   5
ENDBRANCH   2   4
TORSDOF 6
ENDMDL
MODEL      264
REMARK 921   NORMALIZED FREE ENERGY PREDICTED BY IDOCK:   -2.68 KCAL/MOL
REMARK 922        TOTAL FREE ENERGY PREDICTED BY IDOCK:   -4.45 KCAL/MOL
REMARK 923 INTER-LIGAND FREE ENERGY PREDICTED BY IDOCK:   -4.01 KCAL/MOL
REMARK 924 INTRA-LIGAND FREE ENERGY PREDICTED BY IDOCK:   -0.44 KCAL/MOL
REMARK 927      BINDING AFFINITY PREDICTED BY RF-SCORE:    0.00 PKD
ROOT
HETATM    1  C   UNL     1      -9.533   4.080  64.088  1.00  0.00    -0.160 C  
HETATM    2  N   UNL     1      -8.748   4.695  65.150  1.00  0.00    -0.134 NA 
HETATM    3  C   UNL     1      -7.761   5.625  64.621  1.00  0.00    -0.099 C  
ENDROOT
BRANCH   2   4
HETATM    4  C   UNL     1      -9.543   5.195  66.288  1.00  0.00    -0.164 C  
BRANCH   4   5
HETATM    5  C   UNL     1      -8.922   6.058  67.422  1.00  0.00    -0.108 C  
BRANCH   5   6
HETATM    6  O   UNL     1      -9.914   7.028  67.820  1.00  0.00    -0.140 OA 
BRANCH   6   7
HETATM    7  C   UNL     1     -10.258   7.211  69.135  1.00  0.00    -0.194 A  
HETATM    8  C   UNL     1     -11.327   6.396  69.540  1.00  0.00    -0.460 A  
HETATM    9  C   UNL     1     -11.926   6.524  70.802  1.00  0.00    -0.351 A  
HETATM   10  C   UNL     1     -11.432   7.452  71.710  1.00  0.00    -0.297 A  
HETATM   11  C   UNL     1     -10.379   8.275  71.324  1.00  0.00    -0.256 A  
HETATM   12  C   UNL     1      -9.821   8.212  70.020  1.00  0.00    -0.182 A  
BRANCH  12  13
HETATM   13  C   UNL     1      -8.948   9.385  69.637  1.00  0.00    -0.181 C  
BRANCH  13  14
HETATM   14  C   UNL     1      -9.274   9.987  68.277  1.00  0.00    -0.129 A  
HETATM   15  C   UNL     1      -8.437   9.721  67.184  1.00  0.00    -0.125 A  
HETATM   16  C   UNL     1      -8.796  10.134  65.897  1.00  0.00    -0.167 A  
HETATM   17  C   UNL     1      -9.987  10.826  65.690  1.00  0.00    -0.317 A  
HETATM   18  C   UNL     1     -10.800  11.145  66.773  1.00  0.00    -0.322 A  
HETATM   19  C   UNL     1     -10.447  10.728  68.057  1.00  0.00    -0.225 A  
ENDBRANCH  13  14
ENDBRANCH  12  13
ENDBRANCH   6   7
ENDBRANCH   5   6
ENDBRANCH   4   5
ENDBRANCH   2   4
TORSDOF 6
ENDMDL
MODEL      265
REMARK 921   NORMALIZED FREE ENERGY PREDICTED BY IDOCK:   -2.63 KCAL/MOL
REMARK 922        TOTAL FREE ENERGY PREDICTED BY IDOCK:   -4.38 KCAL/MOL
REMARK 923 INTER-LIGAND FREE ENERGY PREDICTED BY IDOCK:   -3.41 KCAL/MOL
REMARK 924 INTRA-LIGAND FREE ENERGY PREDICTED BY IDOCK:   -0.97 KCAL/MOL
REMARK 927      BINDING AFFINITY PREDICTED BY RF-SCORE:    0.00 PKD
ROOT
HETATM    1  C   UNL     1     -11.003   9.028  71.688  1.00  0.00    -0.365 C  
HETATM    2  N   UNL     1     -10.126   8.147  72.446  1.00  0.00    -0.257 NA 
HETATM    3  C   UNL     1     -10.776   6.883  72.762  1.00  0.00    -0.255 C  
ENDROOT
BRANCH   2   4
HETATM    4  C   UNL     1      -8.755   8.038  71.912  1.00  0.00    -0.138 C  
BRANCH   4   5
HETATM    5  C   UNL     1      -8.210   6.727  71.278  1.00  0.00    -0.119 C  
BRANCH   5   6
HETATM    6  O   UNL     1      -7.939   6.999  69.887  1.00  0.00    -0.118 OA 
BRANCH   6   7
HETATM    7  C   UNL     1      -8.946   7.090  68.960  1.00  0.00    -0.133 A  
HETATM    8  C   UNL     1      -9.690   5.904  68.842  1.00  0.00    -0.168 A  
HETATM    9  C   UNL     1     -10.673   5.736  67.855  1.00  0.00    -0.295 A  
HETATM   10  C   UNL     1     -10.965   6.780  66.986  1.00  0.00    -0.439 A  
HETATM   11  C   UNL     1     -10.233   7.959  67.081  1.00  0.00    -0.360 A  
HETATM   12  C   UNL     1      -9.178   8.109  68.021  1.00  0.00    -0.137 A  
BRANCH  12  13
HETATM   13  C   UNL     1      -8.257   9.281  67.771  1.00  0.00    -0.115 C  
BRANCH  13  14
HETATM   14  C   UNL     1      -7.424   9.161  66.502  1.00  0.00    -0.093 A  
HETATM   15  C   UNL     1      -7.475  10.181  65.541  1.00  0.00    -0.146 A  
HETATM   16  C   UNL     1      -6.608  10.168  64.445  1.00  0.00    -0.116 A  
HETATM   17  C   UNL     1      -5.689   9.132  64.290  1.00  0.00    -0.069 A  
HETATM   18  C   UNL     1      -5.666   8.085  65.205  1.00  0.00    -0.041 A  
HETATM   19  C   UNL     1      -6.526   8.099  66.305  1.00  0.00    -0.047 A  
ENDBRANCH  13  14
ENDBRANCH  12  13
ENDBRANCH   6   7
ENDBRANCH   5   6
ENDBRANCH   4   5
ENDBRANCH   2   4
TORSDOF 6
ENDMDL
MODEL      266
REMARK 921   NORMALIZED FREE ENERGY PREDICTED BY IDOCK:   -2.61 KCAL/MOL
REMARK 922        TOTAL FREE ENERGY PREDICTED BY IDOCK:   -4.36 KCAL/MOL
REMARK 923 INTER-LIGAND FREE ENERGY PREDICTED BY IDOCK:   -3.93 KCAL/MOL
REMARK 924 INTRA-LIGAND FREE ENERGY PREDICTED BY IDOCK:   -0.42 KCAL/MOL
REMARK 927      BINDING AFFINITY PREDICTED BY RF-SCORE:    0.00 PKD
ROOT
HETATM    1  C   UNL     1      -8.224   9.715  63.365  1.00  0.00    -0.160 C  
HETATM    2  N   UNL     1      -7.199   8.681  63.347  1.00  0.00    -0.093 NA 
HETATM    3  C   UNL     1      -6.029   9.097  62.586  1.00  0.00    -0.093 C  
ENDROOT
BRANCH   2   4
HETATM    4  C   UNL     1      -6.918   8.073  64.661  1.00  0.00    -0.071 C  
BRANCH   4   5
HETATM    5  C   UNL     1      -7.377   8.727  65.995  1.00  0.00    -0.089 C  
BRANCH   5   6
HETATM    6  O   UNL     1      -7.553   7.667  66.958  1.00  0.00    -0.099 OA 
BRANCH   6   7
HETATM    7  C   UNL     1      -8.614   6.799  66.891  1.00  0.00    -0.116 A  
HETATM    8  C   UNL     1      -8.233   5.497  66.528  1.00  0.00    -0.105 A  
HETATM    9  C   UNL     1      -9.175   4.491  66.267  1.00  0.00    -0.137 A  
HETATM   10  C   UNL     1     -10.530   4.760  66.408  1.00  0.00    -0.283 A  
HETATM   11  C   UNL     1     -10.927   6.046  66.758  1.00  0.00    -0.305 A  
HETATM   12  C   UNL     1      -9.986   7.094  66.943  1.00  0.00    -0.293 A  
BRANCH  12  13
HETATM   13  C   UNL     1     -10.572   8.487  66.964  1.00  0.00    -0.305 C  
BRANCH  13  14
HETATM   14  C   UNL     1     -10.720   9.080  68.359  1.00  0.00    -0.145 A  
HETATM   15  C   UNL     1     -11.263  10.364  68.511  1.00  0.00    -0.308 A  
HETATM   16  C   UNL     1     -11.550  10.867  69.783  1.00  0.00    -0.399 A  
HETATM   17  C   UNL     1     -11.287  10.100  70.916  1.00  0.00    -0.420 A  
HETATM   18  C   UNL     1     -10.697   8.848  70.783  1.00  0.00    -0.287 A  
HETATM   19  C   UNL     1     -10.416   8.340  69.514  1.00  0.00    -0.228 A  
ENDBRANCH  13  14
ENDBRANCH  12  13
ENDBRANCH   6   7
ENDBRANCH   5   6
ENDBRANCH   4   5
ENDBRANCH   2   4
TORSDOF 6
ENDMDL
MODEL      267
REMARK 921   NORMALIZED FREE ENERGY PREDICTED BY IDOCK:   -2.58 KCAL/MOL
REMARK 922        TOTAL FREE ENERGY PREDICTED BY IDOCK:   -4.32 KCAL/MOL
REMARK 923 INTER-LIGAND FREE ENERGY PREDICTED BY IDOCK:   -3.74 KCAL/MOL
REMARK 924 INTRA-LIGAND FREE ENERGY PREDICTED BY IDOCK:   -0.59 KCAL/MOL
REMARK 927      BINDING AFFINITY PREDICTED BY RF-SCORE:    0.00 PKD
ROOT
HETATM    1  C   UNL     1      -9.057   2.603  69.466  1.00  0.00    -0.121 C  
HETATM    2  N   UNL     1      -8.154   3.560  68.841  1.00  0.00    -0.061 NA 
HETATM    3  C   UNL     1      -8.600   3.928  67.505  1.00  0.00    -0.101 C  
ENDROOT
BRANCH   2   4
HETATM    4  C   UNL     1      -7.756   4.685  69.708  1.00  0.00    -0.058 C  
BRANCH   4   5
HETATM    5  C   UNL     1      -8.367   6.107  69.559  1.00  0.00    -0.120 C  
BRANCH   5   6
HETATM    6  O   UNL     1      -8.412   6.698  70.875  1.00  0.00    -0.131 OA 
BRANCH   6   7
HETATM    7  C   UNL     1      -9.393   7.588  71.233  1.00  0.00    -0.149 A  
HETATM    8  C   UNL     1     -10.510   6.967  71.813  1.00  0.00    -0.223 A  
HETATM    9  C   UNL     1     -11.680   7.677  72.124  1.00  0.00    -0.355 A  
HETATM   10  C   UNL     1     -11.738   9.046  71.897  1.00  0.00    -0.445 A  
HETATM   11  C   UNL     1     -10.644   9.678  71.315  1.00  0.00    -0.269 A  
HETATM   12  C   UNL     1      -9.487   8.955  70.919  1.00  0.00    -0.295 A  
BRANCH  12  13
HETATM   13  C   UNL     1      -8.551   9.696  69.993  1.00  0.00    -0.237 C  
BRANCH  13  14
HETATM   14  C   UNL     1      -8.921   9.596  68.519  1.00  0.00    -0.124 A  
HETATM   15  C   UNL     1     -10.120   8.973  68.147  1.00  0.00    -0.229 A  
HETATM   16  C   UNL     1     -10.554   9.003  66.819  1.00  0.00    -0.201 A  
HETATM   17  C   UNL     1      -9.791   9.646  65.846  1.00  0.00    -0.358 A  
HETATM   18  C   UNL     1      -8.572  10.220  66.191  1.00  0.00    -0.146 A  
HETATM   19  C   UNL     1      -8.140  10.198  67.518  1.00  0.00    -0.113 A  
ENDBRANCH  13  14
ENDBRANCH  12  13
ENDBRANCH   6   7
ENDBRANCH   5   6
ENDBRANCH   4   5
ENDBRANCH   2   4
TORSDOF 6
ENDMDL
MODEL      268
REMARK 921   NORMALIZED FREE ENERGY PREDICTED BY IDOCK:   -2.57 KCAL/MOL
REMARK 922        TOTAL FREE ENERGY PREDICTED BY IDOCK:   -4.31 KCAL/MOL
REMARK 923 INTER-LIGAND FREE ENERGY PREDICTED BY IDOCK:   -3.38 KCAL/MOL
REMARK 924 INTRA-LIGAND FREE ENERGY PREDICTED BY IDOCK:   -0.92 KCAL/MOL
REMARK 927      BINDING AFFINITY PREDICTED BY RF-SCORE:    0.00 PKD
ROOT
HETATM    1  C   UNL     1      -6.699   6.999  66.223  1.00  0.00    -0.053 C  
HETATM    2  N   UNL     1      -6.155   6.420  67.443  1.00  0.00    -0.023 NA 
HETATM    3  C   UNL     1      -6.528   7.194  68.619  1.00  0.00    -0.036 C  
ENDROOT
BRANCH   2   4
HETATM    4  C   UNL     1      -6.334   4.961  67.562  1.00  0.00    -0.040 C  
BRANCH   4   5
HETATM    5  C   UNL     1      -7.062   4.307  68.770  1.00  0.00    -0.052 C  
BRANCH   5   6
HETATM    6  O   UNL     1      -8.386   3.939  68.330  1.00  0.00    -0.089 OA 
BRANCH   6   7
HETATM    7  C   UNL     1      -9.473   4.744  68.559  1.00  0.00    -0.145 A  
HETATM    8  C   UNL     1      -9.831   5.512  67.440  1.00  0.00    -0.167 A  
HETATM    9  C   UNL     1     -10.825   6.500  67.501  1.00  0.00    -0.433 A  
HETATM   10  C   UNL     1     -11.517   6.712  68.687  1.00  0.00    -0.011 A  
HETATM   11  C   UNL     1     -11.170   5.967  69.809  1.00  0.00    -0.440 A  
HETATM   12  C   UNL     1     -10.109   5.023  69.781  1.00  0.00    -0.337 A  
BRANCH  12  13
HETATM   13  C   UNL     1      -9.622   4.563  71.135  1.00  0.00    -0.245 C  
BRANCH  13  14
HETATM   14  C   UNL     1      -9.376   5.693  72.127  1.00  0.00    -0.160 A  
HETATM   15  C   UNL     1      -8.441   6.691  71.821  1.00  0.00    -0.119 A  
HETATM   16  C   UNL     1      -8.308   7.816  72.641  1.00  0.00    -0.177 A  
HETATM   17  C   UNL     1      -9.099   7.950  73.780  1.00  0.00    -0.306 A  
HETATM   18  C   UNL     1      -9.991   6.940  74.126  1.00  0.00    -0.351 A  
HETATM   19  C   UNL     1     -10.131   5.820  73.305  1.00  0.00    -0.202 A  
ENDBRANCH  13  14
ENDBRANCH  12  13
ENDBRANCH   6   7
ENDBRANCH   5   6
ENDBRANCH   4   5
ENDBRANCH   2   4
TORSDOF 6
ENDMDL
MODEL      269
REMARK 921   NORMALIZED FREE ENERGY PREDICTED BY IDOCK:   -2.55 KCAL/MOL
REMARK 922        TOTAL FREE ENERGY PREDICTED BY IDOCK:   -4.28 KCAL/MOL
REMARK 923 INTER-LIGAND FREE ENERGY PREDICTED BY IDOCK:   -3.74 KCAL/MOL
REMARK 924 INTRA-LIGAND FREE ENERGY PREDICTED BY IDOCK:   -0.54 KCAL/MOL
REMARK 927      BINDING AFFINITY PREDICTED BY RF-SCORE:    0.00 PKD
ROOT
HETATM    1  C   UNL     1     -10.603   5.619  66.267  1.00  0.00    -0.111 C  
HETATM    2  N   UNL     1      -9.890   4.578  66.995  1.00  0.00    -0.205 NA 
HETATM    3  C   UNL     1      -8.567   4.340  66.438  1.00  0.00    -0.112 C  
ENDROOT
BRANCH   2   4
HETATM    4  C   UNL     1      -9.946   4.710  68.463  1.00  0.00    -0.060 C  
BRANCH   4   5
HETATM    5  C   UNL     1      -8.685   4.556  69.361  1.00  0.00    -0.086 C  
BRANCH   5   6
HETATM    6  O   UNL     1      -8.824   5.476  70.463  1.00  0.00    -0.131 OA 
BRANCH   6   7
HETATM    7  C   UNL     1      -9.552   5.158  71.582  1.00  0.00    -0.154 A  
HETATM    8  C   UNL     1      -9.136   3.958  72.181  1.00  0.00    -0.156 A  
HETATM    9  C   UNL     1      -9.833   3.379  73.252  1.00  0.00    -0.170 A  
HETATM   10  C   UNL     1     -10.947   4.021  73.779  1.00  0.00    -0.326 A  
HETATM   11  C   UNL     1     -11.379   5.205  73.193  1.00  0.00    -0.385 A  
HETATM   12  C   UNL     1     -10.732   5.756  72.055  1.00  0.00    -0.285 A  
BRANCH  12  13
HETATM   13  C   UNL     1     -11.512   6.826  71.326  1.00  0.00    -0.347 C  
BRANCH  13  14
HETATM   14  C   UNL     1     -10.649   7.923  70.718  1.00  0.00    -0.222 A  
HETATM   15  C   UNL     1      -9.666   8.545  71.501  1.00  0.00    -0.303 A  
HETATM   16  C   UNL     1      -8.763   9.443  70.926  1.00  0.00    -0.145 A  
HETATM   17  C   UNL     1      -8.837   9.739  69.567  1.00  0.00    -0.202 A  
HETATM   18  C   UNL     1      -9.841   9.171  68.789  1.00  0.00    -0.175 A  
HETATM   19  C   UNL     1     -10.740   8.268  69.359  1.00  0.00    -0.160 A  
ENDBRANCH  13  14
ENDBRANCH  12  13
ENDBRANCH   6   7
ENDBRANCH   5   6
ENDBRANCH   4   5
ENDBRANCH   2   4
TORSDOF 6
ENDMDL
MODEL      270
REMARK 921   NORMALIZED FREE ENERGY PREDICTED BY IDOCK:   -2.54 KCAL/MOL
REMARK 922        TOTAL FREE ENERGY PREDICTED BY IDOCK:   -4.26 KCAL/MOL
REMARK 923 INTER-LIGAND FREE ENERGY PREDICTED BY IDOCK:   -3.54 KCAL/MOL
REMARK 924 INTRA-LIGAND FREE ENERGY PREDICTED BY IDOCK:   -0.72 KCAL/MOL
REMARK 927      BINDING AFFINITY PREDICTED BY RF-SCORE:    0.00 PKD
ROOT
HETATM    1  C   UNL     1     -11.652  12.362  67.295  1.00  0.00    -0.365 C  
HETATM    2  N   UNL     1     -10.381  11.892  66.761  1.00  0.00    -0.206 NA 
HETATM    3  C   UNL     1      -9.256  12.363  67.556  1.00  0.00    -0.183 C  
ENDROOT
BRANCH   2   4
HETATM    4  C   UNL     1     -10.355  10.458  66.413  1.00  0.00    -0.213 C  
BRANCH   4   5
HETATM    5  C   UNL     1     -10.498   9.340  67.484  1.00  0.00    -0.274 C  
BRANCH   5   6
HETATM    6  O   UNL     1     -10.422   8.073  66.797  1.00  0.00    -0.330 OA 
BRANCH   6   7
HETATM    7  C   UNL     1     -10.067   6.918  67.450  1.00  0.00    -0.183 A  
HETATM    8  C   UNL     1     -10.868   6.657  68.573  1.00  0.00    -0.319 A  
HETATM    9  C   UNL     1     -10.588   5.606  69.459  1.00  0.00    -0.384 A  
HETATM   10  C   UNL     1      -9.515   4.759  69.210  1.00  0.00    -0.221 A  
HETATM   11  C   UNL     1      -8.705   5.008  68.107  1.00  0.00    -0.106 A  
HETATM   12  C   UNL     1      -8.928   6.119  67.251  1.00  0.00    -0.112 A  
BRANCH  12  13
HETATM   13  C   UNL     1      -7.782   6.461  66.329  1.00  0.00    -0.099 C  
BRANCH  13  14
HETATM   14  C   UNL     1      -7.387   7.931  66.341  1.00  0.00    -0.086 A  
HETATM   15  C   UNL     1      -7.024   8.541  67.550  1.00  0.00    -0.079 A  
HETATM   16  C   UNL     1      -6.513   9.842  67.564  1.00  0.00    -0.068 A  
HETATM   17  C   UNL     1      -6.371  10.552  66.374  1.00  0.00    -0.100 A  
HETATM   18  C   UNL     1      -6.779   9.981  65.174  1.00  0.00    -0.126 A  
HETATM   19  C   UNL     1      -7.283   8.679  65.155  1.00  0.00    -0.087 A  
ENDBRANCH  13  14
ENDBRANCH  12  13
ENDBRANCH   6   7
ENDBRANCH   5   6
ENDBRANCH   4   5
ENDBRANCH   2   4
TORSDOF 6
ENDMDL
MODEL      271
REMARK 921   NORMALIZED FREE ENERGY PREDICTED BY IDOCK:   -2.53 KCAL/MOL
REMARK 922        TOTAL FREE ENERGY PREDICTED BY IDOCK:   -4.25 KCAL/MOL
REMARK 923 INTER-LIGAND FREE ENERGY PREDICTED BY IDOCK:   -3.63 KCAL/MOL
REMARK 924 INTRA-LIGAND FREE ENERGY PREDICTED BY IDOCK:   -0.62 KCAL/MOL
REMARK 927      BINDING AFFINITY PREDICTED BY RF-SCORE:    0.00 PKD
ROOT
HETATM    1  C   UNL     1      -9.372   3.246  68.339  1.00  0.00    -0.180 C  
HETATM    2  N   UNL     1      -8.432   3.818  69.294  1.00  0.00    -0.067 NA 
HETATM    3  C   UNL     1      -7.356   2.890  69.611  1.00  0.00    -0.044 C  
ENDROOT
BRANCH   2   4
HETATM    4  C   UNL     1      -8.010   5.198  68.986  1.00  0.00    -0.085 C  
BRANCH   4   5
HETATM    5  C   UNL     1      -8.459   5.937  67.694  1.00  0.00    -0.103 C  
BRANCH   5   6
HETATM    6  O   UNL     1      -9.621   6.724  68.027  1.00  0.00    -0.120 OA 
BRANCH   6   7
HETATM    7  C   UNL     1      -9.550   8.086  68.185  1.00  0.00    -0.153 A  
HETATM    8  C   UNL     1      -8.504   8.667  67.451  1.00  0.00    -0.123 A  
HETATM    9  C   UNL     1      -8.168  10.023  67.579  1.00  0.00    -0.114 A  
HETATM   10  C   UNL     1      -8.910  10.842  68.421  1.00  0.00    -0.147 A  
HETATM   11  C   UNL     1      -9.944  10.282  69.163  1.00  0.00    -0.235 A  
HETATM   12  C   UNL     1     -10.238   8.894  69.106  1.00  0.00    -0.214 A  
BRANCH  12  13
HETATM   13  C   UNL     1     -11.130   8.379  70.212  1.00  0.00    -0.216 C  
BRANCH  13  14
HETATM   14  C   UNL     1     -10.387   7.995  71.485  1.00  0.00    -0.258 A  
HETATM   15  C   UNL     1      -9.071   8.437  71.679  1.00  0.00    -0.268 A  
HETATM   16  C   UNL     1      -8.424   8.228  72.900  1.00  0.00    -0.260 A  
HETATM   17  C   UNL     1      -9.079   7.566  73.936  1.00  0.00    -0.315 A  
HETATM   18  C   UNL     1     -10.364   7.073  73.738  1.00  0.00    -0.408 A  
HETATM   19  C   UNL     1     -11.016   7.286  72.523  1.00  0.00    -0.322 A  
ENDBRANCH  13  14
ENDBRANCH  12  13
ENDBRANCH   6   7
ENDBRANCH   5   6
ENDBRANCH   4   5
ENDBRANCH   2   4
TORSDOF 6
ENDMDL
MODEL      272
REMARK 921   NORMALIZED FREE ENERGY PREDICTED BY IDOCK:   -2.52 KCAL/MOL
REMARK 922        TOTAL FREE ENERGY PREDICTED BY IDOCK:   -4.24 KCAL/MOL
REMARK 923 INTER-LIGAND FREE ENERGY PREDICTED BY IDOCK:   -3.98 KCAL/MOL
REMARK 924 INTRA-LIGAND FREE ENERGY PREDICTED BY IDOCK:   -0.25 KCAL/MOL
REMARK 927      BINDING AFFINITY PREDICTED BY RF-SCORE:    0.00 PKD
ROOT
HETATM    1  C   UNL     1     -13.366   9.506  71.903  1.00  0.00    -0.437 C  
HETATM    2  N   UNL     1     -12.154   8.767  71.576  1.00  0.00    -0.312 NA 
HETATM    3  C   UNL     1     -12.446   7.387  71.215  1.00  0.00    -0.346 C  
ENDROOT
BRANCH   2   4
HETATM    4  C   UNL     1     -11.228   9.477  70.673  1.00  0.00    -0.302 C  
BRANCH   4   5
HETATM    5  C   UNL     1     -10.441   8.748  69.548  1.00  0.00    -0.220 C  
BRANCH   5   6
HETATM    6  O   UNL     1     -10.942   9.235  68.285  1.00  0.00    -0.128 OA 
BRANCH   6   7
HETATM    7  C   UNL     1     -10.335  10.269  67.618  1.00  0.00    -0.220 A  
HETATM    8  C   UNL     1     -10.657  11.527  68.152  1.00  0.00    -0.226 A  
HETATM    9  C   UNL     1     -10.256  12.723  67.536  1.00  0.00    -0.216 A  
HETATM   10  C   UNL     1      -9.480  12.680  66.385  1.00  0.00    -0.231 A  
HETATM   11  C   UNL     1      -9.159  11.443  65.836  1.00  0.00    -0.209 A  
HETATM   12  C   UNL     1      -9.630  10.229  66.403  1.00  0.00    -0.233 A  
BRANCH  12  13
HETATM   13  C   UNL     1      -9.506   9.014  65.514  1.00  0.00    -0.220 C  
BRANCH  13  14
HETATM   14  C   UNL     1      -8.248   8.994  64.656  1.00  0.00    -0.160 A  
HETATM   15  C   UNL     1      -8.362   8.874  63.264  1.00  0.00    -0.180 A  
HETATM   16  C   UNL     1      -7.237   9.007  62.445  1.00  0.00    -0.097 A  
HETATM   17  C   UNL     1      -5.985   9.248  63.007  1.00  0.00    -0.089 A  
HETATM   18  C   UNL     1      -5.849   9.314  64.390  1.00  0.00    -0.070 A  
HETATM   19  C   UNL     1      -6.972   9.189  65.210  1.00  0.00    -0.084 A  
ENDBRANCH  13  14
ENDBRANCH  12  13
ENDBRANCH   6   7
ENDBRANCH   5   6
ENDBRANCH   4   5
ENDBRANCH   2   4
TORSDOF 6
ENDMDL
MODEL      273
REMARK 921   NORMALIZED FREE ENERGY PREDICTED BY IDOCK:   -2.51 KCAL/MOL
REMARK 922        TOTAL FREE ENERGY PREDICTED BY IDOCK:   -4.22 KCAL/MOL
REMARK 923 INTER-LIGAND FREE ENERGY PREDICTED BY IDOCK:   -3.76 KCAL/MOL
REMARK 924 INTRA-LIGAND FREE ENERGY PREDICTED BY IDOCK:   -0.46 KCAL/MOL
REMARK 927      BINDING AFFINITY PREDICTED BY RF-SCORE:    0.00 PKD
ROOT
HETATM    1  C   UNL     1      -9.496   6.369  73.400  1.00  0.00    -0.140 C  
HETATM    2  N   UNL     1      -8.372   7.285  73.264  1.00  0.00    -0.115 NA 
HETATM    3  C   UNL     1      -8.088   7.977  74.513  1.00  0.00    -0.225 C  
ENDROOT
BRANCH   2   4
HETATM    4  C   UNL     1      -7.199   6.718  72.573  1.00  0.00    -0.075 C  
BRANCH   4   5
HETATM    5  C   UNL     1      -6.593   7.365  71.295  1.00  0.00    -0.043 C  
BRANCH   5   6
HETATM    6  O   UNL     1      -7.160   6.686  70.156  1.00  0.00    -0.070 OA 
BRANCH   6   7
HETATM    7  C   UNL     1      -8.497   6.770  69.857  1.00  0.00    -0.140 A  
HETATM    8  C   UNL     1      -9.108   5.513  69.730  1.00  0.00    -0.157 A  
HETATM    9  C   UNL     1     -10.434   5.369  69.292  1.00  0.00    -0.309 A  
HETATM   10  C   UNL     1     -11.195   6.498  69.013  1.00  0.00    -0.354 A  
HETATM   11  C   UNL     1     -10.604   7.751  69.125  1.00  0.00    -0.193 A  
HETATM   12  C   UNL     1      -9.238   7.905  69.485  1.00  0.00    -0.152 A  
BRANCH  12  13
HETATM   13  C   UNL     1      -8.653   9.272  69.221  1.00  0.00    -0.139 C  
BRANCH  13  14
HETATM   14  C   UNL     1      -9.598  10.228  68.504  1.00  0.00    -0.165 A  
HETATM   15  C   UNL     1      -9.569  10.311  67.105  1.00  0.00    -0.199 A  
HETATM   16  C   UNL     1     -10.526  11.063  66.418  1.00  0.00    -0.312 A  
HETATM   17  C   UNL     1     -11.514  11.749  67.120  1.00  0.00    -0.366 A  
HETATM   18  C   UNL     1     -11.522  11.720  68.511  1.00  0.00    -0.353 A  
HETATM   19  C   UNL     1     -10.572  10.965  69.199  1.00  0.00    -0.253 A  
ENDBRANCH  13  14
ENDBRANCH  12  13
ENDBRANCH   6   7
ENDBRANCH   5   6
ENDBRANCH   4   5
ENDBRANCH   2   4
TORSDOF 6
ENDMDL
MODEL      274
REMARK 921   NORMALIZED FREE ENERGY PREDICTED BY IDOCK:   -2.47 KCAL/MOL
REMARK 922        TOTAL FREE ENERGY PREDICTED BY IDOCK:   -4.17 KCAL/MOL
REMARK 923 INTER-LIGAND FREE ENERGY PREDICTED BY IDOCK:   -3.54 KCAL/MOL
REMARK 924 INTRA-LIGAND FREE ENERGY PREDICTED BY IDOCK:   -0.63 KCAL/MOL
REMARK 927      BINDING AFFINITY PREDICTED BY RF-SCORE:    0.00 PKD
ROOT
HETATM    1  C   UNL     1      -9.275  12.061  66.299  1.00  0.00    -0.206 C  
HETATM    2  N   UNL     1      -8.333  11.389  67.184  1.00  0.00    -0.149 NA 
HETATM    3  C   UNL     1      -7.021  12.019  67.151  1.00  0.00    -0.134 C  
ENDROOT
BRANCH   2   4
HETATM    4  C   UNL     1      -8.861  11.094  68.530  1.00  0.00    -0.161 C  
BRANCH   4   5
HETATM    5  C   UNL     1     -10.374  11.204  68.873  1.00  0.00    -0.201 C  
BRANCH   5   6
HETATM    6  O   UNL     1     -10.952   9.893  68.703  1.00  0.00    -0.225 OA 
BRANCH   6   7
HETATM    7  C   UNL     1     -10.878   8.937  69.685  1.00  0.00    -0.178 A  
HETATM    8  C   UNL     1     -10.737   9.485  70.971  1.00  0.00    -0.411 A  
HETATM    9  C   UNL     1     -10.505   8.686  72.100  1.00  0.00    -0.411 A  
HETATM   10  C   UNL     1     -10.451   7.304  71.969  1.00  0.00    -0.228 A  
HETATM   11  C   UNL     1     -10.579   6.743  70.702  1.00  0.00    -0.257 A  
HETATM   12  C   UNL     1     -10.731   7.547  69.541  1.00  0.00    -0.222 A  
BRANCH  12  13
HETATM   13  C   UNL     1     -10.499   6.833  68.230  1.00  0.00    -0.243 C  
BRANCH  13  14
HETATM   14  C   UNL     1      -9.038   6.764  67.806  1.00  0.00    -0.117 A  
HETATM   15  C   UNL     1      -8.094   7.585  68.438  1.00  0.00    -0.125 A  
HETATM   16  C   UNL     1      -6.730   7.431  68.175  1.00  0.00    -0.055 A  
HETATM   17  C   UNL     1      -6.295   6.466  67.270  1.00  0.00    -0.037 A  
HETATM   18  C   UNL     1      -7.224   5.682  66.594  1.00  0.00    -0.074 A  
HETATM   19  C   UNL     1      -8.586   5.828  66.860  1.00  0.00    -0.111 A  
ENDBRANCH  13  14
ENDBRANCH  12  13
ENDBRANCH   6   7
ENDBRANCH   5   6
ENDBRANCH   4   5
ENDBRANCH   2   4
TORSDOF 6
ENDMDL
MODEL      275
REMARK 921   NORMALIZED FREE ENERGY PREDICTED BY IDOCK:   -2.47 KCAL/MOL
REMARK 922        TOTAL FREE ENERGY PREDICTED BY IDOCK:   -4.17 KCAL/MOL
REMARK 923 INTER-LIGAND FREE ENERGY PREDICTED BY IDOCK:   -3.79 KCAL/MOL
REMARK 924 INTRA-LIGAND FREE ENERGY PREDICTED BY IDOCK:   -0.39 KCAL/MOL
REMARK 927      BINDING AFFINITY PREDICTED BY RF-SCORE:    0.00 PKD
ROOT
HETATM    1  C   UNL     1      -8.332  10.006  63.420  1.00  0.00    -0.170 C  
HETATM    2  N   UNL     1      -7.977   8.906  64.306  1.00  0.00    -0.138 NA 
HETATM    3  C   UNL     1      -6.767   8.228  63.865  1.00  0.00    -0.075 C  
ENDROOT
BRANCH   2   4
HETATM    4  C   UNL     1      -8.031   9.235  65.744  1.00  0.00    -0.109 C  
BRANCH   4   5
HETATM    5  C   UNL     1      -7.555  10.605  66.302  1.00  0.00    -0.137 C  
BRANCH   5   6
HETATM    6  O   UNL     1      -7.849  10.622  67.714  1.00  0.00    -0.106 OA 
BRANCH   6   7
HETATM    7  C   UNL     1      -9.106  10.905  68.187  1.00  0.00    -0.155 A  
HETATM    8  C   UNL     1      -9.542   9.994  69.162  1.00  0.00    -0.217 A  
HETATM    9  C   UNL     1     -10.847  10.017  69.674  1.00  0.00    -0.292 A  
HETATM   10  C   UNL     1     -11.739  10.993  69.246  1.00  0.00    -0.397 A  
HETATM   11  C   UNL     1     -11.330  11.898  68.274  1.00  0.00    -0.335 A  
HETATM   12  C   UNL     1     -10.038  11.831  67.687  1.00  0.00    -0.206 A  
BRANCH  12  13
HETATM   13  C   UNL     1      -9.865  12.634  66.419  1.00  0.00    -0.263 C  
BRANCH  13  14
HETATM   14  C   UNL     1      -9.956  14.141  66.616  1.00  0.00    -0.280 A  
HETATM   15  C   UNL     1     -10.948  14.869  65.944  1.00  0.00    -0.338 A  
HETATM   16  C   UNL     1     -11.148  16.223  66.226  1.00  0.00     0.137 A  
HETATM   17  C   UNL     1     -10.354  16.868  67.171  1.00  0.00    -0.304 A  
HETATM   18  C   UNL     1      -9.329  16.172  67.805  1.00  0.00    -0.211 A  
HETATM   19  C   UNL     1      -9.132  14.818  67.531  1.00  0.00    -0.191 A  
ENDBRANCH  13  14
ENDBRANCH  12  13
ENDBRANCH   6   7
ENDBRANCH   5   6
ENDBRANCH   4   5
ENDBRANCH   2   4
TORSDOF 6
ENDMDL
MODEL      276
REMARK 921   NORMALIZED FREE ENERGY PREDICTED BY IDOCK:   -2.47 KCAL/MOL
REMARK 922        TOTAL FREE ENERGY PREDICTED BY IDOCK:   -4.17 KCAL/MOL
REMARK 923 INTER-LIGAND FREE ENERGY PREDICTED BY IDOCK:   -3.69 KCAL/MOL
REMARK 924 INTRA-LIGAND FREE ENERGY PREDICTED BY IDOCK:   -0.48 KCAL/MOL
REMARK 927      BINDING AFFINITY PREDICTED BY RF-SCORE:    0.00 PKD
ROOT
HETATM    1  C   UNL     1     -10.607   3.228  63.406  1.00  0.00    -0.250 C  
HETATM    2  N   UNL     1      -9.841   2.993  64.623  1.00  0.00    -0.110 NA 
HETATM    3  C   UNL     1      -8.546   2.392  64.336  1.00  0.00    -0.090 C  
ENDROOT
BRANCH   2   4
HETATM    4  C   UNL     1      -9.818   4.130  65.561  1.00  0.00    -0.207 C  
BRANCH   4   5
HETATM    5  C   UNL     1     -10.941   5.206  65.593  1.00  0.00     0.235 C  
BRANCH   5   6
HETATM    6  O   UNL     1     -11.012   5.717  66.940  1.00  0.00    -0.249 OA 
BRANCH   6   7
HETATM    7  C   UNL     1      -9.925   6.284  67.557  1.00  0.00    -0.134 A  
HETATM    8  C   UNL     1      -9.702   5.777  68.847  1.00  0.00    -0.174 A  
HETATM    9  C   UNL     1      -8.729   6.318  69.702  1.00  0.00    -0.136 A  
HETATM   10  C   UNL     1      -7.923   7.359  69.260  1.00  0.00    -0.118 A  
HETATM   11  C   UNL     1      -8.136   7.881  67.988  1.00  0.00    -0.126 A  
HETATM   12  C   UNL     1      -9.173   7.398  67.146  1.00  0.00    -0.159 A  
BRANCH  12  13
HETATM   13  C   UNL     1      -9.508   8.281  65.967  1.00  0.00    -0.189 C  
BRANCH  13  14
HETATM   14  C   UNL     1     -10.184   9.593  66.342  1.00  0.00    -0.288 A  
HETATM   15  C   UNL     1     -10.797   9.722  67.596  1.00  0.00    -0.301 A  
HETATM   16  C   UNL     1     -11.288  10.960  68.022  1.00  0.00    -0.382 A  
HETATM   17  C   UNL     1     -11.184  12.077  67.198  1.00  0.00    -0.374 A  
HETATM   18  C   UNL     1     -10.629  11.951  65.928  1.00  0.00    -0.306 A  
HETATM   19  C   UNL     1     -10.131  10.719  65.503  1.00  0.00    -0.335 A  
ENDBRANCH  13  14
ENDBRANCH  12  13
ENDBRANCH   6   7
ENDBRANCH   5   6
ENDBRANCH   4   5
ENDBRANCH   2   4
TORSDOF 6
ENDMDL
MODEL      277
REMARK 921   NORMALIZED FREE ENERGY PREDICTED BY IDOCK:   -2.43 KCAL/MOL
REMARK 922        TOTAL FREE ENERGY PREDICTED BY IDOCK:   -4.11 KCAL/MOL
REMARK 923 INTER-LIGAND FREE ENERGY PREDICTED BY IDOCK:   -3.17 KCAL/MOL
REMARK 924 INTRA-LIGAND FREE ENERGY PREDICTED BY IDOCK:   -0.94 KCAL/MOL
REMARK 927      BINDING AFFINITY PREDICTED BY RF-SCORE:    0.00 PKD
ROOT
HETATM    1  C   UNL     1      -6.992   5.131  70.149  1.00  0.00    -0.053 C  
HETATM    2  N   UNL     1      -7.401   4.895  68.771  1.00  0.00    -0.061 NA 
HETATM    3  C   UNL     1      -6.692   3.767  68.185  1.00  0.00    -0.046 C  
ENDROOT
BRANCH   2   4
HETATM    4  C   UNL     1      -8.861   4.908  68.554  1.00  0.00    -0.102 C  
BRANCH   4   5
HETATM    5  C   UNL     1      -9.585   6.082  67.836  1.00  0.00    -0.116 C  
BRANCH   5   6
HETATM    6  O   UNL     1     -10.151   6.929  68.858  1.00  0.00    -0.160 OA 
BRANCH   6   7
HETATM    7  C   UNL     1      -9.396   7.865  69.520  1.00  0.00    -0.156 A  
HETATM    8  C   UNL     1      -8.471   8.512  68.686  1.00  0.00    -0.131 A  
HETATM    9  C   UNL     1      -7.509   9.401  69.188  1.00  0.00    -0.073 A  
HETATM   10  C   UNL     1      -7.483   9.696  70.545  1.00  0.00    -0.147 A  
HETATM   11  C   UNL     1      -8.386   9.058  71.389  1.00  0.00    -0.135 A  
HETATM   12  C   UNL     1      -9.308   8.093  70.904  1.00  0.00    -0.173 A  
BRANCH  12  13
HETATM   13  C   UNL     1      -9.964   7.240  71.965  1.00  0.00    -0.184 C  
BRANCH  13  14
HETATM   14  C   UNL     1     -11.469   7.435  72.082  1.00  0.00    -0.322 A  
HETATM   15  C   UNL     1     -12.012   8.722  71.959  1.00  0.00    -0.446 A  
HETATM   16  C   UNL     1     -13.397   8.907  71.909  1.00  0.00    -0.455 A  
HETATM   17  C   UNL     1     -14.254   7.813  71.993  1.00  0.00    -0.424 A  
HETATM   18  C   UNL     1     -13.731   6.536  72.171  1.00  0.00     0.173 A  
HETATM   19  C   UNL     1     -12.349   6.347  72.214  1.00  0.00    -0.159 A  
ENDBRANCH  13  14
ENDBRANCH  12  13
ENDBRANCH   6   7
ENDBRANCH   5   6
ENDBRANCH   4   5
ENDBRANCH   2   4
TORSDOF 6
ENDMDL
MODEL      278
REMARK 921   NORMALIZED FREE ENERGY PREDICTED BY IDOCK:   -2.42 KCAL/MOL
REMARK 922        TOTAL FREE ENERGY PREDICTED BY IDOCK:   -4.10 KCAL/MOL
REMARK 923 INTER-LIGAND FREE ENERGY PREDICTED BY IDOCK:   -3.64 KCAL/MOL
REMARK 924 INTRA-LIGAND FREE ENERGY PREDICTED BY IDOCK:   -0.46 KCAL/MOL
REMARK 927      BINDING AFFINITY PREDICTED BY RF-SCORE:    0.00 PKD
ROOT
HETATM    1  C   UNL     1     -10.938   6.330  68.564  1.00  0.00    -0.340 C  
HETATM    2  N   UNL     1     -10.689   7.606  69.222  1.00  0.00    -0.200 NA 
HETATM    3  C   UNL     1     -10.135   7.425  70.556  1.00  0.00    -0.191 C  
ENDROOT
BRANCH   2   4
HETATM    4  C   UNL     1     -10.003   8.605  68.381  1.00  0.00    -0.184 C  
BRANCH   4   5
HETATM    5  C   UNL     1     -10.759   9.473  67.335  1.00  0.00    -0.227 C  
BRANCH   5   6
HETATM    6  O   UNL     1     -10.713  10.840  67.794  1.00  0.00    -0.212 OA 
BRANCH   6   7
HETATM    7  C   UNL     1     -11.062  11.887  66.979  1.00  0.00    -0.302 A  
HETATM    8  C   UNL     1     -11.388  11.481  65.676  1.00  0.00    -0.151 A  
HETATM    9  C   UNL     1     -11.638  12.403  64.648  1.00  0.00    -0.400 A  
HETATM   10  C   UNL     1     -11.608  13.765  64.920  1.00  0.00    -0.362 A  
HETATM   11  C   UNL     1     -11.277  14.187  66.203  1.00  0.00    -0.326 A  
HETATM   12  C   UNL     1     -10.940  13.265  67.229  1.00  0.00    -0.284 A  
BRANCH  12  13
HETATM   13  C   UNL     1     -10.268  13.868  68.441  1.00  0.00    -0.243 C  
BRANCH  13  14
HETATM   14  C   UNL     1      -8.762  13.651  68.492  1.00  0.00    -0.102 A  
HETATM   15  C   UNL     1      -8.117  13.016  67.422  1.00  0.00    -0.180 A  
HETATM   16  C   UNL     1      -6.722  12.942  67.376  1.00  0.00    -0.131 A  
HETATM   17  C   UNL     1      -5.957  13.491  68.402  1.00  0.00    -0.095 A  
HETATM   18  C   UNL     1      -6.585  14.075  69.497  1.00  0.00    -0.115 A  
HETATM   19  C   UNL     1      -7.977  14.157  69.542  1.00  0.00     0.402 A  
ENDBRANCH  13  14
ENDBRANCH  12  13
ENDBRANCH   6   7
ENDBRANCH   5   6
ENDBRANCH   4   5
ENDBRANCH   2   4
TORSDOF 6
ENDMDL
MODEL      279
REMARK 921   NORMALIZED FREE ENERGY PREDICTED BY IDOCK:   -2.41 KCAL/MOL
REMARK 922        TOTAL FREE ENERGY PREDICTED BY IDOCK:   -4.10 KCAL/MOL
REMARK 923 INTER-LIGAND FREE ENERGY PREDICTED BY IDOCK:   -3.66 KCAL/MOL
REMARK 924 INTRA-LIGAND FREE ENERGY PREDICTED BY IDOCK:   -0.43 KCAL/MOL
REMARK 927      BINDING AFFINITY PREDICTED BY RF-SCORE:    0.00 PKD
ROOT
HETATM    1  C   UNL     1      -9.613   4.835  68.938  1.00  0.00    -0.162 C  
HETATM    2  N   UNL     1      -8.670   5.153  67.875  1.00  0.00    -0.103 NA 
HETATM    3  C   UNL     1      -8.600   4.090  66.882  1.00  0.00    -0.105 C  
ENDROOT
BRANCH   2   4
HETATM    4  C   UNL     1      -8.795   6.519  67.334  1.00  0.00    -0.115 C  
BRANCH   4   5
HETATM    5  C   UNL     1      -7.962   7.012  66.116  1.00  0.00    -0.110 C  
BRANCH   5   6
HETATM    6  O   UNL     1      -8.293   8.399  65.899  1.00  0.00    -0.118 OA 
BRANCH   6   7
HETATM    7  C   UNL     1      -8.219   9.326  66.908  1.00  0.00    -0.119 A  
HETATM    8  C   UNL     1      -7.050   9.207  67.676  1.00  0.00    -0.082 A  
HETATM    9  C   UNL     1      -6.842   9.963  68.839  1.00  0.00    -0.057 A  
HETATM   10  C   UNL     1      -7.792  10.896  69.236  1.00  0.00    -0.096 A  
HETATM   11  C   UNL     1      -8.960  11.022  68.493  1.00  0.00    -0.163 A  
HETATM   12  C   UNL     1      -9.220  10.202  67.362  1.00  0.00    -0.156 A  
BRANCH  12  13
HETATM   13  C   UNL     1     -10.653  10.202  66.883  1.00  0.00    -0.267 C  
BRANCH  13  14
HETATM   14  C   UNL     1     -10.961  11.265  65.837  1.00  0.00    -0.221 A  
HETATM   15  C   UNL     1     -11.294  12.564  66.246  1.00  0.00    -0.386 A  
HETATM   16  C   UNL     1     -11.430  13.591  65.307  1.00  0.00    -0.315 A  
HETATM   17  C   UNL     1     -11.247  13.331  63.951  1.00  0.00    -0.313 A  
HETATM   18  C   UNL     1     -10.971  12.035  63.526  1.00  0.00    -0.514 A  
HETATM   19  C   UNL     1     -10.827  11.009  64.461  1.00  0.00    -0.257 A  
ENDBRANCH  13  14
ENDBRANCH  12  13
ENDBRANCH   6   7
ENDBRANCH   5   6
ENDBRANCH   4   5
ENDBRANCH   2   4
TORSDOF 6
ENDMDL
MODEL      280
REMARK 921   NORMALIZED FREE ENERGY PREDICTED BY IDOCK:   -2.39 KCAL/MOL
REMARK 922        TOTAL FREE ENERGY PREDICTED BY IDOCK:   -4.07 KCAL/MOL
REMARK 923 INTER-LIGAND FREE ENERGY PREDICTED BY IDOCK:   -3.38 KCAL/MOL
REMARK 924 INTRA-LIGAND FREE ENERGY PREDICTED BY IDOCK:   -0.69 KCAL/MOL
REMARK 927      BINDING AFFINITY PREDICTED BY RF-SCORE:    0.00 PKD
ROOT
HETATM    1  C   UNL     1     -10.980  13.538  68.653  1.00  0.00    -0.263 C  
HETATM    2  N   UNL     1      -9.803  12.902  68.079  1.00  0.00    -0.218 NA 
HETATM    3  C   UNL     1      -8.619  13.738  68.215  1.00  0.00    -0.175 C  
ENDROOT
BRANCH   2   4
HETATM    4  C   UNL     1      -9.626  11.486  68.454  1.00  0.00    -0.195 C  
BRANCH   4   5
HETATM    5  C   UNL     1      -8.287  10.936  69.020  1.00  0.00    -0.114 C  
BRANCH   5   6
HETATM    6  O   UNL     1      -7.535  10.402  67.910  1.00  0.00    -0.086 OA 
BRANCH   6   7
HETATM    7  C   UNL     1      -7.826   9.177  67.364  1.00  0.00    -0.099 A  
HETATM    8  C   UNL     1      -8.298   9.265  66.045  1.00  0.00    -0.117 A  
HETATM    9  C   UNL     1      -8.783   8.146  65.351  1.00  0.00    -0.128 A  
HETATM   10  C   UNL     1      -8.763   6.896  65.957  1.00  0.00    -0.151 A  
HETATM   11  C   UNL     1      -8.307   6.791  67.266  1.00  0.00    -0.121 A  
HETATM   12  C   UNL     1      -7.893   7.930  68.007  1.00  0.00    -0.127 A  
BRANCH  12  13
HETATM   13  C   UNL     1      -7.769   7.717  69.498  1.00  0.00    -0.103 C  
BRANCH  13  14
HETATM   14  C   UNL     1      -9.043   7.216  70.165  1.00  0.00    -0.152 A  
HETATM   15  C   UNL     1     -10.182   8.034  70.186  1.00  0.00    -0.203 A  
HETATM   16  C   UNL     1     -11.403   7.540  70.654  1.00  0.00    -0.301 A  
HETATM   17  C   UNL     1     -11.498   6.229  71.117  1.00  0.00    -0.362 A  
HETATM   18  C   UNL     1     -10.364   5.424  71.153  1.00  0.00    -0.304 A  
HETATM   19  C   UNL     1      -9.145   5.912  70.680  1.00  0.00    -0.159 A  
ENDBRANCH  13  14
ENDBRANCH  12  13
ENDBRANCH   6   7
ENDBRANCH   5   6
ENDBRANCH   4   5
ENDBRANCH   2   4
TORSDOF 6
ENDMDL
MODEL      281
REMARK 921   NORMALIZED FREE ENERGY PREDICTED BY IDOCK:   -2.38 KCAL/MOL
REMARK 922        TOTAL FREE ENERGY PREDICTED BY IDOCK:   -4.05 KCAL/MOL
REMARK 923 INTER-LIGAND FREE ENERGY PREDICTED BY IDOCK:   -3.34 KCAL/MOL
REMARK 924 INTRA-LIGAND FREE ENERGY PREDICTED BY IDOCK:   -0.71 KCAL/MOL
REMARK 927      BINDING AFFINITY PREDICTED BY RF-SCORE:    0.00 PKD
ROOT
HETATM    1  C   UNL     1      -9.293   3.422  64.770  1.00  0.00    -0.148 C  
HETATM    2  N   UNL     1      -9.329   3.215  66.211  1.00  0.00    -0.135 NA 
HETATM    3  C   UNL     1      -8.340   2.236  66.639  1.00  0.00    -0.093 C  
ENDROOT
BRANCH   2   4
HETATM    4  C   UNL     1      -9.377   4.457  67.007  1.00  0.00    -0.154 C  
BRANCH   4   5
HETATM    5  C   UNL     1      -9.131   4.471  68.542  1.00  0.00    -0.121 C  
BRANCH   5   6
HETATM    6  O   UNL     1      -7.851   5.096  68.769  1.00  0.00    -0.078 OA 
BRANCH   6   7
HETATM    7  C   UNL     1      -7.712   6.461  68.819  1.00  0.00    -0.101 A  
HETATM    8  C   UNL     1      -6.847   6.959  67.831  1.00  0.00    -0.081 A  
HETATM    9  C   UNL     1      -6.458   8.306  67.792  1.00  0.00    -0.057 A  
HETATM   10  C   UNL     1      -6.967   9.199  68.726  1.00  0.00    -0.062 A  
HETATM   11  C   UNL     1      -7.817   8.723  69.717  1.00  0.00    -0.090 A  
HETATM   12  C   UNL     1      -8.151   7.346  69.818  1.00  0.00    -0.127 A  
BRANCH  12  13
HETATM   13  C   UNL     1      -8.778   6.930  71.128  1.00  0.00    -0.135 C  
BRANCH  13  14
HETATM   14  C   UNL     1     -10.246   7.312  71.266  1.00  0.00    -0.198 A  
HETATM   15  C   UNL     1     -11.230   6.509  70.672  1.00  0.00    -0.386 A  
HETATM   16  C   UNL     1     -12.585   6.752  70.912  1.00  0.00    -0.199 A  
HETATM   17  C   UNL     1     -12.974   7.804  71.738  1.00  0.00    -0.351 A  
HETATM   18  C   UNL     1     -12.010   8.642  72.291  1.00  0.00    -0.438 A  
HETATM   19  C   UNL     1     -10.656   8.398  72.058  1.00  0.00    -0.387 A  
ENDBRANCH  13  14
ENDBRANCH  12  13
ENDBRANCH   6   7
ENDBRANCH   5   6
ENDBRANCH   4   5
ENDBRANCH   2   4
TORSDOF 6
ENDMDL
MODEL      282
REMARK 921   NORMALIZED FREE ENERGY PREDICTED BY IDOCK:   -2.37 KCAL/MOL
REMARK 922        TOTAL FREE ENERGY PREDICTED BY IDOCK:   -4.04 KCAL/MOL
REMARK 923 INTER-LIGAND FREE ENERGY PREDICTED BY IDOCK:   -3.21 KCAL/MOL
REMARK 924 INTRA-LIGAND FREE ENERGY PREDICTED BY IDOCK:   -0.83 KCAL/MOL
REMARK 927      BINDING AFFINITY PREDICTED BY RF-SCORE:    0.00 PKD
ROOT
HETATM    1  C   UNL     1      -9.498  12.157  67.183  1.00  0.00    -0.190 C  
HETATM    2  N   UNL     1      -8.417  11.285  67.622  1.00  0.00    -0.122 NA 
HETATM    3  C   UNL     1      -7.112  11.892  67.401  1.00  0.00    -0.129 C  
ENDROOT
BRANCH   2   4
HETATM    4  C   UNL     1      -8.619  10.682  68.953  1.00  0.00    -0.158 C  
BRANCH   4   5
HETATM    5  C   UNL     1     -10.029  10.315  69.496  1.00  0.00    -0.228 C  
BRANCH   5   6
HETATM    6  O   UNL     1     -10.302   8.953  69.103  1.00  0.00    -0.212 OA 
BRANCH   6   7
HETATM    7  C   UNL     1     -10.712   8.009  70.010  1.00  0.00    -0.244 A  
HETATM    8  C   UNL     1     -11.996   8.261  70.520  1.00  0.00     0.070 A  
HETATM    9  C   UNL     1     -12.548   7.498  71.560  1.00  0.00    -0.385 A  
HETATM   10  C   UNL     1     -11.835   6.428  72.086  1.00  0.00    -0.361 A  
HETATM   11  C   UNL     1     -10.558   6.169  71.600  1.00  0.00    -0.276 A  
HETATM   12  C   UNL     1      -9.955   6.986  70.607  1.00  0.00    -0.194 A  
BRANCH  12  13
HETATM   13  C   UNL     1      -8.464   6.804  70.442  1.00  0.00    -0.135 C  
BRANCH  13  14
HETATM   14  C   UNL     1      -7.683   6.838  71.749  1.00  0.00    -0.096 A  
HETATM   15  C   UNL     1      -7.700   7.999  72.536  1.00  0.00    -0.155 A  
HETATM   16  C   UNL     1      -7.119   8.003  73.807  1.00  0.00    -0.164 A  
HETATM   17  C   UNL     1      -6.506   6.855  74.302  1.00  0.00    -0.075 A  
HETATM   18  C   UNL     1      -6.433   5.713  73.510  1.00  0.00    -0.072 A  
HETATM   19  C   UNL     1      -7.018   5.703  72.243  1.00  0.00    -0.082 A  
ENDBRANCH  13  14
ENDBRANCH  12  13
ENDBRANCH   6   7
ENDBRANCH   5   6
ENDBRANCH   4   5
ENDBRANCH   2   4
TORSDOF 6
ENDMDL
MODEL      283
REMARK 921   NORMALIZED FREE ENERGY PREDICTED BY IDOCK:   -2.32 KCAL/MOL
REMARK 922        TOTAL FREE ENERGY PREDICTED BY IDOCK:   -3.97 KCAL/MOL
REMARK 923 INTER-LIGAND FREE ENERGY PREDICTED BY IDOCK:   -3.07 KCAL/MOL
REMARK 924 INTRA-LIGAND FREE ENERGY PREDICTED BY IDOCK:   -0.91 KCAL/MOL
REMARK 927      BINDING AFFINITY PREDICTED BY RF-SCORE:    0.00 PKD
ROOT
HETATM    1  C   UNL     1     -12.046  12.079  68.984  1.00  0.00    -0.166 C  
HETATM    2  N   UNL     1     -12.172  13.221  68.089  1.00  0.00    -0.182 NA 
HETATM    3  C   UNL     1     -11.745  14.457  68.729  1.00  0.00    -0.337 C  
ENDROOT
BRANCH   2   4
HETATM    4  C   UNL     1     -11.645  12.996  66.729  1.00  0.00    -0.368 C  
BRANCH   4   5
HETATM    5  C   UNL     1     -10.998  11.648  66.300  1.00  0.00    -0.289 C  
BRANCH   5   6
HETATM    6  O   UNL     1      -9.696  11.948  65.756  1.00  0.00    -0.233 OA 
BRANCH   6   7
HETATM    7  C   UNL     1      -8.920  10.982  65.166  1.00  0.00    -0.145 A  
HETATM    8  C   UNL     1      -9.621  10.224  64.215  1.00  0.00    -0.375 A  
HETATM    9  C   UNL     1      -9.056   9.098  63.596  1.00  0.00     0.149 A  
HETATM   10  C   UNL     1      -7.748   8.732  63.890  1.00  0.00    -0.132 A  
HETATM   11  C   UNL     1      -7.041   9.466  64.836  1.00  0.00    -0.105 A  
HETATM   12  C   UNL     1      -7.632  10.556  65.530  1.00  0.00    -0.120 A  
BRANCH  12  13
HETATM   13  C   UNL     1      -6.882  11.018  66.758  1.00  0.00    -0.128 C  
BRANCH  13  14
HETATM   14  C   UNL     1      -7.269  10.288  68.037  1.00  0.00    -0.085 A  
HETATM   15  C   UNL     1      -8.300  10.796  68.840  1.00  0.00    -0.147 A  
HETATM   16  C   UNL     1      -8.775  10.065  69.933  1.00  0.00    -0.169 A  
HETATM   17  C   UNL     1      -8.218   8.827  70.244  1.00  0.00    -0.120 A  
HETATM   18  C   UNL     1      -7.157   8.336  69.489  1.00  0.00    -0.053 A  
HETATM   19  C   UNL     1      -6.686   9.060  68.393  1.00  0.00    -0.060 A  
ENDBRANCH  13  14
ENDBRANCH  12  13
ENDBRANCH   6   7
ENDBRANCH   5   6
ENDBRANCH   4   5
ENDBRANCH   2   4
TORSDOF 6
ENDMDL
MODEL      284
REMARK 921   NORMALIZED FREE ENERGY PREDICTED BY IDOCK:   -2.32 KCAL/MOL
REMARK 922        TOTAL FREE ENERGY PREDICTED BY IDOCK:   -3.97 KCAL/MOL
REMARK 923 INTER-LIGAND FREE ENERGY PREDICTED BY IDOCK:   -3.59 KCAL/MOL
REMARK 924 INTRA-LIGAND FREE ENERGY PREDICTED BY IDOCK:   -0.38 KCAL/MOL
REMARK 927      BINDING AFFINITY PREDICTED BY RF-SCORE:    0.00 PKD
ROOT
HETATM    1  C   UNL     1     -10.003  10.954  64.320  1.00  0.00    -0.333 C  
HETATM    2  N   UNL     1      -9.225   9.723  64.365  1.00  0.00    -0.257 NA 
HETATM    3  C   UNL     1      -8.008   9.827  63.571  1.00  0.00    -0.145 C  
ENDROOT
BRANCH   2   4
HETATM    4  C   UNL     1      -9.054   9.155  65.715  1.00  0.00    -0.213 C  
BRANCH   4   5
HETATM    5  C   UNL     1     -10.262   8.822  66.637  1.00  0.00    -0.270 C  
BRANCH   5   6
HETATM    6  O   UNL     1     -10.294   9.815  67.683  1.00  0.00    -0.198 OA 
BRANCH   6   7
HETATM    7  C   UNL     1      -9.330   9.868  68.658  1.00  0.00    -0.149 A  
HETATM    8  C   UNL     1      -8.259  10.711  68.322  1.00  0.00    -0.120 A  
HETATM    9  C   UNL     1      -7.104  10.801  69.115  1.00  0.00    -0.101 A  
HETATM   10  C   UNL     1      -7.018  10.073  70.295  1.00  0.00    -0.153 A  
HETATM   11  C   UNL     1      -8.066   9.226  70.640  1.00  0.00    -0.207 A  
HETATM   12  C   UNL     1      -9.202   9.063  69.802  1.00  0.00    -0.172 A  
BRANCH  12  13
HETATM   13  C   UNL     1     -10.068   7.867  70.120  1.00  0.00    -0.194 C  
BRANCH  13  14
HETATM   14  C   UNL     1      -9.499   6.538  69.642  1.00  0.00    -0.149 A  
HETATM   15  C   UNL     1     -10.116   5.340  70.029  1.00  0.00    -0.336 A  
HETATM   16  C   UNL     1      -9.706   4.121  69.482  1.00  0.00    -0.254 A  
HETATM   17  C   UNL     1      -8.670   4.082  68.552  1.00  0.00    -0.128 A  
HETATM   18  C   UNL     1      -8.012   5.257  68.200  1.00  0.00    -0.091 A  
HETATM   19  C   UNL     1      -8.423   6.476  68.739  1.00  0.00    -0.122 A  
ENDBRANCH  13  14
ENDBRANCH  12  13
ENDBRANCH   6   7
ENDBRANCH   5   6
ENDBRANCH   4   5
ENDBRANCH   2   4
TORSDOF 6
ENDMDL
MODEL      285
REMARK 921   NORMALIZED FREE ENERGY PREDICTED BY IDOCK:   -2.28 KCAL/MOL
REMARK 922        TOTAL FREE ENERGY PREDICTED BY IDOCK:   -3.92 KCAL/MOL
REMARK 923 INTER-LIGAND FREE ENERGY PREDICTED BY IDOCK:   -3.25 KCAL/MOL
REMARK 924 INTRA-LIGAND FREE ENERGY PREDICTED BY IDOCK:   -0.67 KCAL/MOL
REMARK 927      BINDING AFFINITY PREDICTED BY RF-SCORE:    0.00 PKD
ROOT
HETATM    1  C   UNL     1      -9.942   7.437  73.762  1.00  0.00    -0.282 C  
HETATM    2  N   UNL     1      -8.879   8.417  73.586  1.00  0.00    -0.249 NA 
HETATM    3  C   UNL     1      -7.774   8.183  74.505  1.00  0.00    -0.235 C  
ENDROOT
BRANCH   2   4
HETATM    4  C   UNL     1      -8.496   8.660  72.183  1.00  0.00    -0.101 C  
BRANCH   4   5
HETATM    5  C   UNL     1      -9.515   9.146  71.114  1.00  0.00    -0.261 C  
BRANCH   5   6
HETATM    6  O   UNL     1      -9.989   7.980  70.407  1.00  0.00    -0.187 OA 
BRANCH   6   7
HETATM    7  C   UNL     1      -9.748   7.800  69.068  1.00  0.00    -0.157 A  
HETATM    8  C   UNL     1      -9.664   9.009  68.360  1.00  0.00    -0.170 A  
HETATM    9  C   UNL     1      -9.561   9.047  66.961  1.00  0.00    -0.231 A  
HETATM   10  C   UNL     1      -9.495   7.861  66.241  1.00  0.00    -0.220 A  
HETATM   11  C   UNL     1      -9.586   6.653  66.924  1.00  0.00    -0.194 A  
HETATM   12  C   UNL     1      -9.775   6.604  68.331  1.00  0.00    -0.126 A  
BRANCH  12  13
HETATM   13  C   UNL     1     -10.208   5.262  68.875  1.00  0.00    -0.248 C  
BRANCH  13  14
HETATM   14  C   UNL     1      -9.058   4.368  69.319  1.00  0.00    -0.174 A  
HETATM   15  C   UNL     1      -7.838   4.945  69.698  1.00  0.00    -0.067 A  
HETATM   16  C   UNL     1      -6.823   4.161  70.253  1.00  0.00    -0.034 A  
HETATM   17  C   UNL     1      -7.009   2.791  70.424  1.00  0.00    -0.033 A  
HETATM   18  C   UNL     1      -8.193   2.196  70.001  1.00  0.00    -0.062 A  
HETATM   19  C   UNL     1      -9.212   2.977  69.453  1.00  0.00    -0.214 A  
ENDBRANCH  13  14
ENDBRANCH  12  13
ENDBRANCH   6   7
ENDBRANCH   5   6
ENDBRANCH   4   5
ENDBRANCH   2   4
TORSDOF 6
ENDMDL
MODEL      286
REMARK 921   NORMALIZED FREE ENERGY PREDICTED BY IDOCK:   -2.27 KCAL/MOL
REMARK 922        TOTAL FREE ENERGY PREDICTED BY IDOCK:   -3.90 KCAL/MOL
REMARK 923 INTER-LIGAND FREE ENERGY PREDICTED BY IDOCK:   -3.29 KCAL/MOL
REMARK 924 INTRA-LIGAND FREE ENERGY PREDICTED BY IDOCK:   -0.61 KCAL/MOL
REMARK 927      BINDING AFFINITY PREDICTED BY RF-SCORE:    0.00 PKD
ROOT
HETATM    1  C   UNL     1      -9.244   2.782  69.312  1.00  0.00    -0.141 C  
HETATM    2  N   UNL     1      -8.228   3.660  68.746  1.00  0.00    -0.072 NA 
HETATM    3  C   UNL     1      -8.482   3.940  67.340  1.00  0.00    -0.099 C  
ENDROOT
BRANCH   2   4
HETATM    4  C   UNL     1      -7.902   4.835  69.577  1.00  0.00    -0.066 C  
BRANCH   4   5
HETATM    5  C   UNL     1      -8.404   6.265  69.230  1.00  0.00    -0.117 C  
BRANCH   5   6
HETATM    6  O   UNL     1      -7.277   7.006  68.717  1.00  0.00    -0.085 OA 
BRANCH   6   7
HETATM    7  C   UNL     1      -6.830   8.153  69.323  1.00  0.00    -0.051 A  
HETATM    8  C   UNL     1      -5.786   7.919  70.232  1.00  0.00    -0.023 A  
HETATM    9  C   UNL     1      -5.279   8.932  71.060  1.00  0.00    -0.029 A  
HETATM   10  C   UNL     1      -5.783  10.222  70.962  1.00  0.00    -0.068 A  
HETATM   11  C   UNL     1      -6.824  10.471  70.074  1.00  0.00    -0.154 A  
HETATM   12  C   UNL     1      -7.403   9.436  69.292  1.00  0.00    -0.071 A  
BRANCH  12  13
HETATM   13  C   UNL     1      -8.731   9.776  68.657  1.00  0.00    -0.122 C  
BRANCH  13  14
HETATM   14  C   UNL     1      -9.910   9.741  69.619  1.00  0.00    -0.241 A  
HETATM   15  C   UNL     1      -9.827   8.973  70.789  1.00  0.00    -0.304 A  
HETATM   16  C   UNL     1     -10.831   9.045  71.759  1.00  0.00    -0.437 A  
HETATM   17  C   UNL     1     -11.933   9.875  71.567  1.00  0.00    -0.473 A  
HETATM   18  C   UNL     1     -12.056  10.600  70.387  1.00  0.00    -0.430 A  
HETATM   19  C   UNL     1     -11.052  10.536  69.419  1.00  0.00    -0.310 A  
ENDBRANCH  13  14
ENDBRANCH  12  13
ENDBRANCH   6   7
ENDBRANCH   5   6
ENDBRANCH   4   5
ENDBRANCH   2   4
TORSDOF 6
ENDMDL
MODEL      287
REMARK 921   NORMALIZED FREE ENERGY PREDICTED BY IDOCK:   -2.25 KCAL/MOL
REMARK 922        TOTAL FREE ENERGY PREDICTED BY IDOCK:   -3.87 KCAL/MOL
REMARK 923 INTER-LIGAND FREE ENERGY PREDICTED BY IDOCK:   -3.36 KCAL/MOL
REMARK 924 INTRA-LIGAND FREE ENERGY PREDICTED BY IDOCK:   -0.51 KCAL/MOL
REMARK 927      BINDING AFFINITY PREDICTED BY RF-SCORE:    0.00 PKD
ROOT
HETATM    1  C   UNL     1      -6.503   7.086  66.463  1.00  0.00    -0.051 C  
HETATM    2  N   UNL     1      -6.007   7.130  67.832  1.00  0.00    -0.028 NA 
HETATM    3  C   UNL     1      -6.205   8.440  68.434  1.00  0.00    -0.054 C  
ENDROOT
BRANCH   2   4
HETATM    4  C   UNL     1      -6.408   5.981  68.666  1.00  0.00    -0.040 C  
BRANCH   4   5
HETATM    5  C   UNL     1      -7.704   5.989  69.526  1.00  0.00    -0.098 C  
BRANCH   5   6
HETATM    6  O   UNL     1      -8.449   4.798  69.196  1.00  0.00    -0.080 OA 
BRANCH   6   7
HETATM    7  C   UNL     1      -9.014   4.619  67.958  1.00  0.00    -0.114 A  
HETATM    8  C   UNL     1      -8.183   3.911  67.075  1.00  0.00    -0.099 A  
HETATM    9  C   UNL     1      -8.508   3.740  65.721  1.00  0.00    -0.110 A  
HETATM   10  C   UNL     1      -9.706   4.243  65.230  1.00  0.00    -0.201 A  
HETATM   11  C   UNL     1     -10.538   4.955  66.087  1.00  0.00    -0.322 A  
HETATM   12  C   UNL     1     -10.179   5.207  67.438  1.00  0.00    -0.224 A  
BRANCH  12  13
HETATM   13  C   UNL     1     -10.992   6.276  68.131  1.00  0.00    -0.412 C  
BRANCH  13  14
HETATM   14  C   UNL     1     -10.461   7.690  67.935  1.00  0.00    -0.270 A  
HETATM   15  C   UNL     1     -10.262   8.181  66.637  1.00  0.00    -0.329 A  
HETATM   16  C   UNL     1      -9.922   9.521  66.428  1.00  0.00    -0.339 A  
HETATM   17  C   UNL     1      -9.767  10.381  67.513  1.00  0.00    -0.195 A  
HETATM   18  C   UNL     1      -9.907   9.894  68.808  1.00  0.00    -0.177 A  
HETATM   19  C   UNL     1     -10.253   8.559  69.019  1.00  0.00    -0.218 A  
ENDBRANCH  13  14
ENDBRANCH  12  13
ENDBRANCH   6   7
ENDBRANCH   5   6
ENDBRANCH   4   5
ENDBRANCH   2   4
TORSDOF 6
ENDMDL
MODEL      288
REMARK 921   NORMALIZED FREE ENERGY PREDICTED BY IDOCK:   -2.19 KCAL/MOL
REMARK 922        TOTAL FREE ENERGY PREDICTED BY IDOCK:   -3.79 KCAL/MOL
REMARK 923 INTER-LIGAND FREE ENERGY PREDICTED BY IDOCK:   -3.44 KCAL/MOL
REMARK 924 INTRA-LIGAND FREE ENERGY PREDICTED BY IDOCK:   -0.35 KCAL/MOL
REMARK 927      BINDING AFFINITY PREDICTED BY RF-SCORE:    0.00 PKD
ROOT
HETATM    1  C   UNL     1     -12.041   8.985  71.993  1.00  0.00    -0.370 C  
HETATM    2  N   UNL     1     -10.991   8.109  71.491  1.00  0.00    -0.235 NA 
HETATM    3  C   UNL     1     -10.845   6.918  72.316  1.00  0.00    -0.230 C  
ENDROOT
BRANCH   2   4
HETATM    4  C   UNL     1     -11.034   7.871  70.036  1.00  0.00    -0.207 C  
BRANCH   4   5
HETATM    5  C   UNL     1     -11.090   6.442  69.427  1.00  0.00    -0.387 C  
BRANCH   5   6
HETATM    6  O   UNL     1     -10.035   6.347  68.448  1.00  0.00    -0.133 OA 
BRANCH   6   7
HETATM    7  C   UNL     1      -8.884   7.086  68.552  1.00  0.00    -0.124 A  
HETATM    8  C   UNL     1      -8.045   6.648  69.590  1.00  0.00    -0.126 A  
HETATM    9  C   UNL     1      -6.887   7.349  69.958  1.00  0.00    -0.055 A  
HETATM   10  C   UNL     1      -6.519   8.491  69.258  1.00  0.00    -0.042 A  
HETATM   11  C   UNL     1      -7.342   8.946  68.233  1.00  0.00    -0.083 A  
HETATM   12  C   UNL     1      -8.560   8.292  67.908  1.00  0.00    -0.132 A  
BRANCH  12  13
HETATM   13  C   UNL     1      -9.504   9.089  67.037  1.00  0.00    -0.212 C  
BRANCH  13  14
HETATM   14  C   UNL     1      -9.008   9.304  65.613  1.00  0.00    -0.243 A  
HETATM   15  C   UNL     1      -8.419   8.240  64.916  1.00  0.00    -0.115 A  
HETATM   16  C   UNL     1      -8.097   8.369  63.562  1.00  0.00    -0.143 A  
HETATM   17  C   UNL     1      -8.348   9.565  62.893  1.00  0.00    -0.172 A  
HETATM   18  C   UNL     1      -8.880  10.647  63.586  1.00  0.00    -0.183 A  
HETATM   19  C   UNL     1      -9.210  10.519  64.936  1.00  0.00    -0.254 A  
ENDBRANCH  13  14
ENDBRANCH  12  13
ENDBRANCH   6   7
ENDBRANCH   5   6
ENDBRANCH   4   5
ENDBRANCH   2   4
TORSDOF 6
ENDMDL
MODEL      289
REMARK 921   NORMALIZED FREE ENERGY PREDICTED BY IDOCK:   -2.16 KCAL/MOL
REMARK 922        TOTAL FREE ENERGY PREDICTED BY IDOCK:   -3.76 KCAL/MOL
REMARK 923 INTER-LIGAND FREE ENERGY PREDICTED BY IDOCK:   -3.08 KCAL/MOL
REMARK 924 INTRA-LIGAND FREE ENERGY PREDICTED BY IDOCK:   -0.67 KCAL/MOL
REMARK 927      BINDING AFFINITY PREDICTED BY RF-SCORE:    0.00 PKD
ROOT
HETATM    1  C   UNL     1      -9.615   4.838  68.947  1.00  0.00    -0.162 C  
HETATM    2  N   UNL     1      -8.660   5.218  67.915  1.00  0.00    -0.104 NA 
HETATM    3  C   UNL     1      -8.542   4.193  66.888  1.00  0.00    -0.108 C  
ENDROOT
BRANCH   2   4
HETATM    4  C   UNL     1      -8.811   6.599  67.419  1.00  0.00    -0.116 C  
BRANCH   4   5
HETATM    5  C   UNL     1      -7.947   7.165  66.256  1.00  0.00    -0.110 C  
BRANCH   5   6
HETATM    6  O   UNL     1      -8.329   8.543  66.066  1.00  0.00    -0.117 OA 
BRANCH   6   7
HETATM    7  C   UNL     1      -7.400   9.553  66.034  1.00  0.00    -0.097 A  
HETATM    8  C   UNL     1      -6.266   9.228  65.273  1.00  0.00    -0.064 A  
HETATM    9  C   UNL     1      -5.138  10.061  65.225  1.00  0.00    -0.054 A  
HETATM   10  C   UNL     1      -5.142  11.270  65.910  1.00  0.00    -0.055 A  
HETATM   11  C   UNL     1      -6.253  11.604  66.676  1.00  0.00    -0.079 A  
HETATM   12  C   UNL     1      -7.366  10.730  66.801  1.00  0.00    -0.129 A  
BRANCH  12  13
HETATM   13  C   UNL     1      -8.318  11.058  67.927  1.00  0.00    -0.124 C  
BRANCH  13  14
HETATM   14  C   UNL     1      -9.456  11.988  67.531  1.00  0.00    -0.178 A  
HETATM   15  C   UNL     1      -9.250  13.375  67.533  1.00  0.00    -0.219 A  
HETATM   16  C   UNL     1     -10.227  14.239  67.029  1.00  0.00    -0.260 A  
HETATM   17  C   UNL     1     -11.423  13.730  66.528  1.00  0.00    -0.364 A  
HETATM   18  C   UNL     1     -11.664  12.361  66.571  1.00  0.00    -0.443 A  
HETATM   19  C   UNL     1     -10.688  11.495  67.067  1.00  0.00    -0.300 A  
ENDBRANCH  13  14
ENDBRANCH  12  13
ENDBRANCH   6   7
ENDBRANCH   5   6
ENDBRANCH   4   5
ENDBRANCH   2   4
TORSDOF 6
ENDMDL
MODEL      290
REMARK 921   NORMALIZED FREE ENERGY PREDICTED BY IDOCK:   -2.13 KCAL/MOL
REMARK 922        TOTAL FREE ENERGY PREDICTED BY IDOCK:   -3.72 KCAL/MOL
REMARK 923 INTER-LIGAND FREE ENERGY PREDICTED BY IDOCK:   -3.20 KCAL/MOL
REMARK 924 INTRA-LIGAND FREE ENERGY PREDICTED BY IDOCK:   -0.52 KCAL/MOL
REMARK 927      BINDING AFFINITY PREDICTED BY RF-SCORE:    0.00 PKD
ROOT
HETATM    1  C   UNL     1     -11.013   6.252  67.599  1.00  0.00    -0.342 C  
HETATM    2  N   UNL     1     -10.441   6.015  68.918  1.00  0.00    -0.220 NA 
HETATM    3  C   UNL     1     -11.405   6.276  69.977  1.00  0.00    -0.416 C  
ENDROOT
BRANCH   2   4
HETATM    4  C   UNL     1      -9.689   4.752  69.042  1.00  0.00    -0.178 C  
BRANCH   4   5
HETATM    5  C   UNL     1      -8.466   4.601  69.990  1.00  0.00    -0.073 C  
BRANCH   5   6
HETATM    6  O   UNL     1      -7.335   5.216  69.338  1.00  0.00    -0.056 OA 
BRANCH   6   7
HETATM    7  C   UNL     1      -7.345   6.539  68.970  1.00  0.00    -0.093 A  
HETATM    8  C   UNL     1      -7.265   6.721  67.580  1.00  0.00    -0.094 A  
HETATM    9  C   UNL     1      -7.121   7.991  67.002  1.00  0.00    -0.082 A  
HETATM   10  C   UNL     1      -7.098   9.119  67.812  1.00  0.00    -0.079 A  
HETATM   11  C   UNL     1      -7.166   8.959  69.191  1.00  0.00    -0.067 A  
HETATM   12  C   UNL     1      -7.227   7.673  69.792  1.00  0.00    -0.079 A  
BRANCH  12  13
HETATM   13  C   UNL     1      -6.939   7.641  71.274  1.00  0.00    -0.050 C  
BRANCH  13  14
HETATM   14  C   UNL     1      -8.165   7.395  72.144  1.00  0.00    -0.109 A  
HETATM   15  C   UNL     1      -8.142   6.368  73.098  1.00  0.00    -0.108 A  
HETATM   16  C   UNL     1      -9.192   6.221  74.009  1.00  0.00    -0.150 A  
HETATM   17  C   UNL     1     -10.281   7.089  73.969  1.00  0.00    -0.346 A  
HETATM   18  C   UNL     1     -10.343   8.077  72.991  1.00  0.00    -0.351 A  
HETATM   19  C   UNL     1      -9.293   8.231  72.086  1.00  0.00    -0.303 A  
ENDBRANCH  13  14
ENDBRANCH  12  13
ENDBRANCH   6   7
ENDBRANCH   5   6
ENDBRANCH   4   5
ENDBRANCH   2   4
TORSDOF 6
ENDMDL
MODEL      291
REMARK 921   NORMALIZED FREE ENERGY PREDICTED BY IDOCK:   -2.13 KCAL/MOL
REMARK 922        TOTAL FREE ENERGY PREDICTED BY IDOCK:   -3.72 KCAL/MOL
REMARK 923 INTER-LIGAND FREE ENERGY PREDICTED BY IDOCK:   -3.40 KCAL/MOL
REMARK 924 INTRA-LIGAND FREE ENERGY PREDICTED BY IDOCK:   -0.32 KCAL/MOL
REMARK 927      BINDING AFFINITY PREDICTED BY RF-SCORE:    0.00 PKD
ROOT
HETATM    1  C   UNL     1     -11.690   9.422  71.592  1.00  0.00    -0.398 C  
HETATM    2  N   UNL     1     -10.506   8.574  71.613  1.00  0.00    -0.250 NA 
HETATM    3  C   UNL     1     -10.509   7.674  72.758  1.00  0.00    -0.311 C  
ENDROOT
BRANCH   2   4
HETATM    4  C   UNL     1     -10.176   7.950  70.318  1.00  0.00    -0.200 C  
BRANCH   4   5
HETATM    5  C   UNL     1     -11.269   7.417  69.348  1.00  0.00     0.061 C  
BRANCH   5   6
HETATM    6  O   UNL     1     -11.515   6.037  69.690  1.00  0.00    -0.394 OA 
BRANCH   6   7
HETATM    7  C   UNL     1     -10.624   5.044  69.368  1.00  0.00     0.103 A  
HETATM    8  C   UNL     1      -9.986   4.496  70.492  1.00  0.00    -0.278 A  
HETATM    9  C   UNL     1      -8.941   3.568  70.377  1.00  0.00    -0.168 A  
HETATM   10  C   UNL     1      -8.539   3.132  69.121  1.00  0.00    -0.115 A  
HETATM   11  C   UNL     1      -9.153   3.670  67.995  1.00  0.00    -0.198 A  
HETATM   12  C   UNL     1     -10.154   4.673  68.097  1.00  0.00    -0.072 A  
BRANCH  12  13
HETATM   13  C   UNL     1     -10.464   5.404  66.812  1.00  0.00    -0.347 C  
BRANCH  13  14
HETATM   14  C   UNL     1      -9.711   4.880  65.597  1.00  0.00    -0.161 A  
HETATM   15  C   UNL     1     -10.300   3.900  64.786  1.00  0.00    -0.184 A  
HETATM   16  C   UNL     1      -9.697   3.515  63.585  1.00  0.00    -0.149 A  
HETATM   17  C   UNL     1      -8.495   4.094  63.187  1.00  0.00    -0.095 A  
HETATM   18  C   UNL     1      -7.871   5.028  64.008  1.00  0.00    -0.095 A  
HETATM   19  C   UNL     1      -8.474   5.420  65.204  1.00  0.00    -0.150 A  
ENDBRANCH  13  14
ENDBRANCH  12  13
ENDBRANCH   6   7
ENDBRANCH   5   6
ENDBRANCH   4   5
ENDBRANCH   2   4
TORSDOF 6
ENDMDL
MODEL      292
REMARK 921   NORMALIZED FREE ENERGY PREDICTED BY IDOCK:   -2.12 KCAL/MOL
REMARK 922        TOTAL FREE ENERGY PREDICTED BY IDOCK:   -3.70 KCAL/MOL
REMARK 923 INTER-LIGAND FREE ENERGY PREDICTED BY IDOCK:   -3.05 KCAL/MOL
REMARK 924 INTRA-LIGAND FREE ENERGY PREDICTED BY IDOCK:   -0.65 KCAL/MOL
REMARK 927      BINDING AFFINITY PREDICTED BY RF-SCORE:    0.00 PKD
ROOT
HETATM    1  C   UNL     1     -10.926   5.830  68.456  1.00  0.00    -0.098 C  
HETATM    2  N   UNL     1     -10.747   7.275  68.506  1.00  0.00    -0.167 NA 
HETATM    3  C   UNL     1     -10.200   7.706  69.785  1.00  0.00    -0.210 C  
ENDROOT
BRANCH   2   4
HETATM    4  C   UNL     1     -10.100   7.854  67.313  1.00  0.00    -0.238 C  
BRANCH   4   5
HETATM    5  C   UNL     1      -9.080   7.058  66.451  1.00  0.00    -0.160 C  
BRANCH   5   6
HETATM    6  O   UNL     1      -8.255   8.019  65.760  1.00  0.00    -0.116 OA 
BRANCH   6   7
HETATM    7  C   UNL     1      -7.360   8.817  66.428  1.00  0.00    -0.084 A  
HETATM    8  C   UNL     1      -6.672   8.133  67.443  1.00  0.00    -0.066 A  
HETATM    9  C   UNL     1      -5.815   8.793  68.337  1.00  0.00    -0.042 A  
HETATM   10  C   UNL     1      -5.595  10.158  68.203  1.00  0.00    -0.038 A  
HETATM   11  C   UNL     1      -6.276  10.854  67.209  1.00  0.00    -0.064 A  
HETATM   12  C   UNL     1      -7.209  10.212  66.353  1.00  0.00    -0.108 A  
BRANCH  12  13
HETATM   13  C   UNL     1      -8.117  11.140  65.580  1.00  0.00     0.085 C  
BRANCH  13  14
HETATM   14  C   UNL     1      -9.348  11.595  66.353  1.00  0.00    -0.224 A  
HETATM   15  C   UNL     1     -10.481  12.035  65.654  1.00  0.00    -0.293 A  
HETATM   16  C   UNL     1     -11.672  12.311  66.333  1.00  0.00    -0.431 A  
HETATM   17  C   UNL     1     -11.741  12.163  67.716  1.00  0.00    -0.390 A  
HETATM   18  C   UNL     1     -10.609  11.781  68.428  1.00  0.00    -0.239 A  
HETATM   19  C   UNL     1      -9.421  11.498  67.753  1.00  0.00    -0.168 A  
ENDBRANCH  13  14
ENDBRANCH  12  13
ENDBRANCH   6   7
ENDBRANCH   5   6
ENDBRANCH   4   5
ENDBRANCH   2   4
TORSDOF 6
ENDMDL
MODEL      293
REMARK 921   NORMALIZED FREE ENERGY PREDICTED BY IDOCK:   -2.10 KCAL/MOL
REMARK 922        TOTAL FREE ENERGY PREDICTED BY IDOCK:   -3.67 KCAL/MOL
REMARK 923 INTER-LIGAND FREE ENERGY PREDICTED BY IDOCK:   -3.55 KCAL/MOL
REMARK 924 INTRA-LIGAND FREE ENERGY PREDICTED BY IDOCK:   -0.12 KCAL/MOL
REMARK 927      BINDING AFFINITY PREDICTED BY RF-SCORE:    0.00 PKD
ROOT
HETATM    1  C   UNL     1     -10.065  15.069  67.097  1.00  0.00    -0.239 C  
HETATM    2  N   UNL     1      -8.710  14.756  67.529  1.00  0.00    -0.176 NA 
HETATM    3  C   UNL     1      -7.955  15.960  67.848  1.00  0.00    -0.138 C  
ENDROOT
BRANCH   2   4
HETATM    4  C   UNL     1      -8.620  13.670  68.523  1.00  0.00    -0.103 C  
BRANCH   4   5
HETATM    5  C   UNL     1      -8.634  12.169  68.119  1.00  0.00    -0.177 C  
BRANCH   5   6
HETATM    6  O   UNL     1      -9.981  11.685  68.299  1.00  0.00    -0.188 OA 
BRANCH   6   7
HETATM    7  C   UNL     1     -10.239  10.418  68.758  1.00  0.00    -0.187 A  
HETATM    8  C   UNL     1     -11.209  10.391  69.773  1.00  0.00    -0.353 A  
HETATM    9  C   UNL     1     -11.519   9.218  70.476  1.00  0.00    -0.296 A  
HETATM   10  C   UNL     1     -10.888   8.026  70.143  1.00  0.00    -0.242 A  
HETATM   11  C   UNL     1      -9.918   8.034  69.147  1.00  0.00    -0.188 A  
HETATM   12  C   UNL     1      -9.536   9.232  68.487  1.00  0.00    -0.150 A  
BRANCH  12  13
HETATM   13  C   UNL     1      -8.247   9.151  67.702  1.00  0.00    -0.108 C  
BRANCH  13  14
HETATM   14  C   UNL     1      -8.439   8.981  66.201  1.00  0.00    -0.135 A  
HETATM   15  C   UNL     1      -9.327   9.823  65.517  1.00  0.00    -0.299 A  
HETATM   16  C   UNL     1      -9.406   9.789  64.122  1.00  0.00    -0.237 A  
HETATM   17  C   UNL     1      -8.609   8.906  63.396  1.00  0.00    -0.104 A  
HETATM   18  C   UNL     1      -7.765   8.026  64.065  1.00  0.00    -0.137 A  
HETATM   19  C   UNL     1      -7.678   8.063  65.458  1.00  0.00    -0.093 A  
ENDBRANCH  13  14
ENDBRANCH  12  13
ENDBRANCH   6   7
ENDBRANCH   5   6
ENDBRANCH   4   5
ENDBRANCH   2   4
TORSDOF 6
ENDMDL
MODEL      294
REMARK 921   NORMALIZED FREE ENERGY PREDICTED BY IDOCK:   -2.00 KCAL/MOL
REMARK 922        TOTAL FREE ENERGY PREDICTED BY IDOCK:   -3.54 KCAL/MOL
REMARK 923 INTER-LIGAND FREE ENERGY PREDICTED BY IDOCK:   -2.62 KCAL/MOL
REMARK 924 INTRA-LIGAND FREE ENERGY PREDICTED BY IDOCK:   -0.92 KCAL/MOL
REMARK 927      BINDING AFFINITY PREDICTED BY RF-SCORE:    0.00 PKD
ROOT
HETATM    1  C   UNL     1     -11.038   9.073  71.713  1.00  0.00    -0.374 C  
HETATM    2  N   UNL     1     -10.183   8.187  72.491  1.00  0.00    -0.290 NA 
HETATM    3  C   UNL     1     -10.884   6.974  72.887  1.00  0.00    -0.301 C  
ENDROOT
BRANCH   2   4
HETATM    4  C   UNL     1      -8.835   7.984  71.926  1.00  0.00    -0.142 C  
BRANCH   4   5
HETATM    5  C   UNL     1      -7.854   6.912  72.477  1.00  0.00    -0.095 C  
BRANCH   5   6
HETATM    6  O   UNL     1      -7.691   5.908  71.453  1.00  0.00    -0.102 OA 
BRANCH   6   7
HETATM    7  C   UNL     1      -8.477   4.785  71.411  1.00  0.00    -0.108 A  
HETATM    8  C   UNL     1      -8.327   3.969  72.543  1.00  0.00    -0.099 A  
HETATM    9  C   UNL     1      -8.933   2.707  72.638  1.00  0.00    -0.103 A  
HETATM   10  C   UNL     1      -9.745   2.251  71.607  1.00  0.00    -0.218 A  
HETATM   11  C   UNL     1      -9.898   3.041  70.473  1.00  0.00     0.045 A  
HETATM   12  C   UNL     1      -9.223   4.283  70.330  1.00  0.00    -0.191 A  
BRANCH  12  13
HETATM   13  C   UNL     1      -9.201   4.845  68.928  1.00  0.00    -0.164 C  
BRANCH  13  14
HETATM   14  C   UNL     1      -8.403   4.012  67.934  1.00  0.00    -0.098 A  
HETATM   15  C   UNL     1      -9.017   3.561  66.757  1.00  0.00    -0.162 A  
HETATM   16  C   UNL     1      -8.267   2.929  65.762  1.00  0.00    -0.089 A  
HETATM   17  C   UNL     1      -6.900   2.729  65.934  1.00  0.00    -0.044 A  
HETATM   18  C   UNL     1      -6.287   3.121  67.120  1.00  0.00    -0.036 A  
HETATM   19  C   UNL     1      -7.032   3.760  68.113  1.00  0.00    -0.051 A  
ENDBRANCH  13  14
ENDBRANCH  12  13
ENDBRANCH   6   7
ENDBRANCH   5   6
ENDBRANCH   4   5
ENDBRANCH   2   4
TORSDOF 6
ENDMDL
MODEL      295
REMARK 921   NORMALIZED FREE ENERGY PREDICTED BY IDOCK:   -2.00 KCAL/MOL
REMARK 922        TOTAL FREE ENERGY PREDICTED BY IDOCK:   -3.54 KCAL/MOL
REMARK 923 INTER-LIGAND FREE ENERGY PREDICTED BY IDOCK:   -3.31 KCAL/MOL
REMARK 924 INTRA-LIGAND FREE ENERGY PREDICTED BY IDOCK:   -0.22 KCAL/MOL
REMARK 927      BINDING AFFINITY PREDICTED BY RF-SCORE:    0.00 PKD
ROOT
HETATM    1  C   UNL     1      -8.633  10.223  64.416  1.00  0.00    -0.187 C  
HETATM    2  N   UNL     1      -8.618   8.768  64.348  1.00  0.00    -0.134 NA 
HETATM    3  C   UNL     1      -7.915   8.292  63.165  1.00  0.00    -0.158 C  
ENDROOT
BRANCH   2   4
HETATM    4  C   UNL     1      -8.255   8.099  65.612  1.00  0.00    -0.133 C  
BRANCH   4   5
HETATM    5  C   UNL     1      -6.974   8.468  66.412  1.00  0.00    -0.078 C  
BRANCH   5   6
HETATM    6  O   UNL     1      -6.674   7.359  67.284  1.00  0.00    -0.064 OA 
BRANCH   6   7
HETATM    7  C   UNL     1      -7.666   6.624  67.885  1.00  0.00    -0.108 A  
HETATM    8  C   UNL     1      -8.011   5.474  67.157  1.00  0.00    -0.102 A  
HETATM    9  C   UNL     1      -9.093   4.659  67.520  1.00  0.00    -0.134 A  
HETATM   10  C   UNL     1      -9.833   4.959  68.657  1.00  0.00    -0.221 A  
HETATM   11  C   UNL     1      -9.513   6.100  69.385  1.00  0.00    -0.153 A  
HETATM   12  C   UNL     1      -8.473   6.978  68.979  1.00  0.00    -0.129 A  
BRANCH  12  13
HETATM   13  C   UNL     1      -8.477   8.332  69.649  1.00  0.00    -0.125 C  
BRANCH  13  14
HETATM   14  C   UNL     1      -9.690   9.190  69.315  1.00  0.00    -0.164 A  
HETATM   15  C   UNL     1     -10.199  10.074  70.277  1.00  0.00    -0.266 A  
HETATM   16  C   UNL     1     -11.212  10.979  69.945  1.00  0.00    -0.327 A  
HETATM   17  C   UNL     1     -11.736  11.002  68.654  1.00  0.00    -0.367 A  
HETATM   18  C   UNL     1     -11.279  10.093  67.706  1.00  0.00    -0.205 A  
HETATM   19  C   UNL     1     -10.263   9.194  68.032  1.00  0.00    -0.258 A  
ENDBRANCH  13  14
ENDBRANCH  12  13
ENDBRANCH   6   7
ENDBRANCH   5   6
ENDBRANCH   4   5
ENDBRANCH   2   4
TORSDOF 6
ENDMDL
MODEL      296
REMARK 921   NORMALIZED FREE ENERGY PREDICTED BY IDOCK:   -1.97 KCAL/MOL
REMARK 922        TOTAL FREE ENERGY PREDICTED BY IDOCK:   -3.50 KCAL/MOL
REMARK 923 INTER-LIGAND FREE ENERGY PREDICTED BY IDOCK:   -2.59 KCAL/MOL
REMARK 924 INTRA-LIGAND FREE ENERGY PREDICTED BY IDOCK:   -0.91 KCAL/MOL
REMARK 927      BINDING AFFINITY PREDICTED BY RF-SCORE:    0.00 PKD
ROOT
HETATM    1  C   UNL     1      -9.021   6.146  73.136  1.00  0.00    -0.130 C  
HETATM    2  N   UNL     1      -7.753   6.864  73.155  1.00  0.00    -0.091 NA 
HETATM    3  C   UNL     1      -7.544   7.552  74.421  1.00  0.00    -0.140 C  
ENDROOT
BRANCH   2   4
HETATM    4  C   UNL     1      -6.602   6.087  72.658  1.00  0.00    -0.068 C  
BRANCH   4   5
HETATM    5  C   UNL     1      -5.828   6.479  71.368  1.00  0.00    -0.032 C  
BRANCH   5   6
HETATM    6  O   UNL     1      -6.014   5.415  70.412  1.00  0.00    -0.019 OA 
BRANCH   6   7
HETATM    7  C   UNL     1      -7.263   5.034  69.989  1.00  0.00    -0.058 A  
HETATM    8  C   UNL     1      -7.536   3.680  70.239  1.00  0.00    -0.041 A  
HETATM    9  C   UNL     1      -8.697   3.054  69.763  1.00  0.00    -0.130 A  
HETATM   10  C   UNL     1      -9.640   3.791  69.058  1.00  0.00    -0.190 A  
HETATM   11  C   UNL     1      -9.384   5.132  68.793  1.00  0.00    -0.166 A  
HETATM   12  C   UNL     1      -8.173   5.755  69.196  1.00  0.00    -0.101 A  
BRANCH  12  13
HETATM   13  C   UNL     1      -7.884   7.085  68.540  1.00  0.00    -0.122 C  
BRANCH  13  14
HETATM   14  C   UNL     1      -8.916   8.164  68.836  1.00  0.00    -0.141 A  
HETATM   15  C   UNL     1      -9.024   8.683  70.134  1.00  0.00    -0.157 A  
HETATM   16  C   UNL     1      -9.854   9.777  70.395  1.00  0.00    -0.269 A  
HETATM   17  C   UNL     1     -10.594  10.357  69.368  1.00  0.00    -0.267 A  
HETATM   18  C   UNL     1     -10.540   9.818  68.086  1.00  0.00    -0.276 A  
HETATM   19  C   UNL     1      -9.706   8.730  67.821  1.00  0.00    -0.194 A  
ENDBRANCH  13  14
ENDBRANCH  12  13
ENDBRANCH   6   7
ENDBRANCH   5   6
ENDBRANCH   4   5
ENDBRANCH   2   4
TORSDOF 6
ENDMDL
MODEL      297
REMARK 921   NORMALIZED FREE ENERGY PREDICTED BY IDOCK:   -1.86 KCAL/MOL
REMARK 922        TOTAL FREE ENERGY PREDICTED BY IDOCK:   -3.35 KCAL/MOL
REMARK 923 INTER-LIGAND FREE ENERGY PREDICTED BY IDOCK:   -3.52 KCAL/MOL
REMARK 924 INTRA-LIGAND FREE ENERGY PREDICTED BY IDOCK:    0.17 KCAL/MOL
REMARK 927      BINDING AFFINITY PREDICTED BY RF-SCORE:    0.00 PKD
ROOT
HETATM    1  C   UNL     1      -9.341   3.340  69.057  1.00  0.00    -0.163 C  
HETATM    2  N   UNL     1      -8.102   3.904  68.539  1.00  0.00    -0.074 NA 
HETATM    3  C   UNL     1      -8.075   3.897  67.083  1.00  0.00    -0.095 C  
ENDROOT
BRANCH   2   4
HETATM    4  C   UNL     1      -7.693   5.171  69.174  1.00  0.00    -0.080 C  
BRANCH   4   5
HETATM    5  C   UNL     1      -7.680   6.522  68.404  1.00  0.00    -0.105 C  
BRANCH   5   6
HETATM    6  O   UNL     1      -8.597   6.397  67.297  1.00  0.00    -0.111 OA 
BRANCH   6   7
HETATM    7  C   UNL     1      -8.745   7.394  66.366  1.00  0.00    -0.142 A  
HETATM    8  C   UNL     1      -7.744   7.378  65.382  1.00  0.00    -0.110 A  
HETATM    9  C   UNL     1      -7.629   8.391  64.419  1.00  0.00    -0.115 A  
HETATM   10  C   UNL     1      -8.552   9.430  64.396  1.00  0.00    -0.214 A  
HETATM   11  C   UNL     1      -9.545   9.468  65.368  1.00  0.00    -0.342 A  
HETATM   12  C   UNL     1      -9.620   8.494  66.399  1.00  0.00    -0.314 A  
BRANCH  12  13
HETATM   13  C   UNL     1     -10.509   8.858  67.565  1.00  0.00    -0.337 C  
BRANCH  13  14
HETATM   14  C   UNL     1     -10.471  10.333  67.941  1.00  0.00    -0.253 A  
HETATM   15  C   UNL     1      -9.296  10.883  68.472  1.00  0.00    -0.181 A  
HETATM   16  C   UNL     1      -9.188  12.261  68.681  1.00  0.00    -0.005 A  
HETATM   17  C   UNL     1     -10.254  13.103  68.374  1.00  0.00    -0.247 A  
HETATM   18  C   UNL     1     -11.446  12.565  67.898  1.00  0.00    -0.369 A  
HETATM   19  C   UNL     1     -11.555  11.190  67.682  1.00  0.00    -0.266 A  
ENDBRANCH  13  14
ENDBRANCH  12  13
ENDBRANCH   6   7
ENDBRANCH   5   6
ENDBRANCH   4   5
ENDBRANCH   2   4
TORSDOF 6
ENDMDL
MODEL      298
REMARK 921   NORMALIZED FREE ENERGY PREDICTED BY IDOCK:   -1.83 KCAL/MOL
REMARK 922        TOTAL FREE ENERGY PREDICTED BY IDOCK:   -3.31 KCAL/MOL
REMARK 923 INTER-LIGAND FREE ENERGY PREDICTED BY IDOCK:   -3.14 KCAL/MOL
REMARK 924 INTRA-LIGAND FREE ENERGY PREDICTED BY IDOCK:   -0.17 KCAL/MOL
REMARK 927      BINDING AFFINITY PREDICTED BY RF-SCORE:    0.00 PKD
ROOT
HETATM    1  C   UNL     1     -10.635   4.078  62.383  1.00  0.00    -0.183 C  
HETATM    2  N   UNL     1     -10.369   3.650  63.750  1.00  0.00    -0.227 NA 
HETATM    3  C   UNL     1      -9.153   2.855  63.838  1.00  0.00    -0.103 C  
ENDROOT
BRANCH   2   4
HETATM    4  C   UNL     1     -10.505   4.714  64.762  1.00  0.00     0.169 C  
BRANCH   4   5
HETATM    5  C   UNL     1      -9.930   4.573  66.200  1.00  0.00    -0.248 C  
BRANCH   5   6
HETATM    6  O   UNL     1      -8.763   5.417  66.284  1.00  0.00    -0.119 OA 
BRANCH   6   7
HETATM    7  C   UNL     1      -8.786   6.618  66.947  1.00  0.00    -0.116 A  
HETATM    8  C   UNL     1      -9.232   6.502  68.273  1.00  0.00    -0.116 A  
HETATM    9  C   UNL     1      -9.463   7.624  69.083  1.00  0.00    -0.154 A  
HETATM   10  C   UNL     1      -9.207   8.897  68.589  1.00  0.00    -0.137 A  
HETATM   11  C   UNL     1      -8.773   9.033  67.275  1.00  0.00    -0.122 A  
HETATM   12  C   UNL     1      -8.617   7.909  66.419  1.00  0.00    -0.156 A  
BRANCH  12  13
HETATM   13  C   UNL     1      -8.491   8.233  64.949  1.00  0.00    -0.115 C  
BRANCH  13  14
HETATM   14  C   UNL     1      -9.151   9.543  64.539  1.00  0.00    -0.250 A  
HETATM   15  C   UNL     1      -8.620  10.282  63.473  1.00  0.00    -0.195 A  
HETATM   16  C   UNL     1      -9.293  11.404  62.981  1.00  0.00    -0.344 A  
HETATM   17  C   UNL     1     -10.498  11.806  63.555  1.00  0.00    -0.500 A  
HETATM   18  C   UNL     1     -11.008  11.114  64.649  1.00  0.00    -0.238 A  
HETATM   19  C   UNL     1     -10.341   9.990  65.138  1.00  0.00     0.010 A  
ENDBRANCH  13  14
ENDBRANCH  12  13
ENDBRANCH   6   7
ENDBRANCH   5   6
ENDBRANCH   4   5
ENDBRANCH   2   4
TORSDOF 6
ENDMDL
MODEL      299
REMARK 921   NORMALIZED FREE ENERGY PREDICTED BY IDOCK:   -1.82 KCAL/MOL
REMARK 922        TOTAL FREE ENERGY PREDICTED BY IDOCK:   -3.30 KCAL/MOL
REMARK 923 INTER-LIGAND FREE ENERGY PREDICTED BY IDOCK:   -2.58 KCAL/MOL
REMARK 924 INTRA-LIGAND FREE ENERGY PREDICTED BY IDOCK:   -0.72 KCAL/MOL
REMARK 927      BINDING AFFINITY PREDICTED BY RF-SCORE:    0.00 PKD
ROOT
HETATM    1  C   UNL     1      -9.609   6.431  73.551  1.00  0.00    -0.153 C  
HETATM    2  N   UNL     1      -8.454   7.273  73.271  1.00  0.00    -0.123 NA 
HETATM    3  C   UNL     1      -8.020   8.002  74.454  1.00  0.00    -0.248 C  
ENDROOT
BRANCH   2   4
HETATM    4  C   UNL     1      -7.381   6.608  72.507  1.00  0.00    -0.088 C  
BRANCH   4   5
HETATM    5  C   UNL     1      -6.805   7.201  71.191  1.00  0.00    -0.060 C  
BRANCH   5   6
HETATM    6  O   UNL     1      -7.316   6.407  70.099  1.00  0.00    -0.081 OA 
BRANCH   6   7
HETATM    7  C   UNL     1      -8.540   6.659  69.533  1.00  0.00    -0.132 A  
HETATM    8  C   UNL     1      -9.466   5.627  69.751  1.00  0.00    -0.189 A  
HETATM    9  C   UNL     1     -10.730   5.619  69.143  1.00  0.00    -0.325 A  
HETATM   10  C   UNL     1     -11.112   6.679  68.330  1.00  0.00    -0.281 A  
HETATM   11  C   UNL     1     -10.206   7.707  68.096  1.00  0.00    -0.236 A  
HETATM   12  C   UNL     1      -8.893   7.684  68.638  1.00  0.00    -0.127 A  
BRANCH  12  13
HETATM   13  C   UNL     1      -7.924   8.663  68.018  1.00  0.00    -0.107 C  
BRANCH  13  14
HETATM   14  C   UNL     1      -7.345   8.210  66.685  1.00  0.00    -0.082 A  
HETATM   15  C   UNL     1      -6.082   7.602  66.648  1.00  0.00    -0.044 A  
HETATM   16  C   UNL     1      -5.598   7.042  65.462  1.00  0.00    -0.031 A  
HETATM   17  C   UNL     1      -6.363   7.091  64.299  1.00  0.00    -0.036 A  
HETATM   18  C   UNL     1      -7.594   7.740  64.308  1.00  0.00    -0.111 A  
HETATM   19  C   UNL     1      -8.083   8.294  65.492  1.00  0.00    -0.128 A  
ENDBRANCH  13  14
ENDBRANCH  12  13
ENDBRANCH   6   7
ENDBRANCH   5   6
ENDBRANCH   4   5
ENDBRANCH   2   4
TORSDOF 6
ENDMDL
MODEL      300
REMARK 921   NORMALIZED FREE ENERGY PREDICTED BY IDOCK:   -1.80 KCAL/MOL
REMARK 922        TOTAL FREE ENERGY PREDICTED BY IDOCK:   -3.27 KCAL/MOL
REMARK 923 INTER-LIGAND FREE ENERGY PREDICTED BY IDOCK:   -3.15 KCAL/MOL
REMARK 924 INTRA-LIGAND FREE ENERGY PREDICTED BY IDOCK:   -0.13 KCAL/MOL
REMARK 927      BINDING AFFINITY PREDICTED BY RF-SCORE:    0.00 PKD
ROOT
HETATM    1  C   UNL     1     -11.035   6.440  67.365  1.00  0.00    -0.376 C  
HETATM    2  N   UNL     1     -10.391   5.871  68.541  1.00  0.00    -0.192 NA 
HETATM    3  C   UNL     1     -11.213   6.026  69.733  1.00  0.00    -0.369 C  
ENDROOT
BRANCH   2   4
HETATM    4  C   UNL     1      -9.819   4.526  68.337  1.00  0.00    -0.084 C  
BRANCH   4   5
HETATM    5  C   UNL     1      -8.601   4.007  69.152  1.00  0.00    -0.079 C  
BRANCH   5   6
HETATM    6  O   UNL     1      -7.670   5.102  69.283  1.00  0.00    -0.074 OA 
BRANCH   6   7
HETATM    7  C   UNL     1      -7.843   6.089  70.220  1.00  0.00    -0.102 A  
HETATM    8  C   UNL     1      -7.714   7.381  69.683  1.00  0.00    -0.107 A  
HETATM    9  C   UNL     1      -7.716   8.527  70.492  1.00  0.00    -0.084 A  
HETATM   10  C   UNL     1      -7.893   8.404  71.864  1.00  0.00    -0.165 A  
HETATM   11  C   UNL     1      -8.014   7.133  72.415  1.00  0.00    -0.102 A  
HETATM   12  C   UNL     1      -7.928   5.961  71.616  1.00  0.00    -0.113 A  
BRANCH  12  13
HETATM   13  C   UNL     1      -7.720   4.675  72.382  1.00  0.00    -0.086 C  
BRANCH  13  14
HETATM   14  C   UNL     1      -8.997   3.887  72.639  1.00  0.00    -0.121 A  
HETATM   15  C   UNL     1      -8.993   2.493  72.489  1.00  0.00    -0.107 A  
HETATM   16  C   UNL     1     -10.106   1.735  72.866  1.00  0.00    -0.183 A  
HETATM   17  C   UNL     1     -11.237   2.360  73.384  1.00  0.00    -0.285 A  
HETATM   18  C   UNL     1     -11.276   3.747  73.486  1.00  0.00    -0.299 A  
HETATM   19  C   UNL     1     -10.164   4.506  73.117  1.00  0.00    -0.217 A  
ENDBRANCH  13  14
ENDBRANCH  12  13
ENDBRANCH   6   7
ENDBRANCH   5   6
ENDBRANCH   4   5
ENDBRANCH   2   4
TORSDOF 6
ENDMDL
MODEL      301
REMARK 921   NORMALIZED FREE ENERGY PREDICTED BY IDOCK:   -1.80 KCAL/MOL
REMARK 922        TOTAL FREE ENERGY PREDICTED BY IDOCK:   -3.26 KCAL/MOL
REMARK 923 INTER-LIGAND FREE ENERGY PREDICTED BY IDOCK:   -2.73 KCAL/MOL
REMARK 924 INTRA-LIGAND FREE ENERGY PREDICTED BY IDOCK:   -0.53 KCAL/MOL
REMARK 927      BINDING AFFINITY PREDICTED BY RF-SCORE:    0.00 PKD
ROOT
HETATM    1  C   UNL     1      -9.288   7.351  73.177  1.00  0.00    -0.188 C  
HETATM    2  N   UNL     1      -8.118   8.218  73.145  1.00  0.00    -0.281 NA 
HETATM    3  C   UNL     1      -7.666   8.562  74.486  1.00  0.00    -0.153 C  
ENDROOT
BRANCH   2   4
HETATM    4  C   UNL     1      -7.060   7.786  72.212  1.00  0.00    -0.075 C  
BRANCH   4   5
HETATM    5  C   UNL     1      -6.911   8.390  70.786  1.00  0.00    -0.045 C  
BRANCH   5   6
HETATM    6  O   UNL     1      -7.230   7.348  69.840  1.00  0.00    -0.076 OA 
BRANCH   6   7
HETATM    7  C   UNL     1      -8.528   7.022  69.535  1.00  0.00    -0.134 A  
HETATM    8  C   UNL     1      -9.437   8.045  69.849  1.00  0.00    -0.160 A  
HETATM    9  C   UNL     1     -10.824   7.866  69.747  1.00  0.00    -0.202 A  
HETATM   10  C   UNL     1     -11.333   6.660  69.281  1.00  0.00    -0.301 A  
HETATM   11  C   UNL     1     -10.449   5.632  68.974  1.00  0.00    -0.321 A  
HETATM   12  C   UNL     1      -9.047   5.773  69.154  1.00  0.00    -0.126 A  
BRANCH  12  13
HETATM   13  C   UNL     1      -8.261   4.483  69.123  1.00  0.00    -0.082 C  
BRANCH  13  14
HETATM   14  C   UNL     1      -8.069   3.902  67.728  1.00  0.00    -0.089 A  
HETATM   15  C   UNL     1      -8.896   2.857  67.293  1.00  0.00    -0.162 A  
HETATM   16  C   UNL     1      -8.841   2.412  65.969  1.00  0.00    -0.125 A  
HETATM   17  C   UNL     1      -7.955   2.997  65.068  1.00  0.00    -0.082 A  
HETATM   18  C   UNL     1      -7.090   3.998  65.500  1.00  0.00    -0.063 A  
HETATM   19  C   UNL     1      -7.147   4.449  66.820  1.00  0.00    -0.067 A  
ENDBRANCH  13  14
ENDBRANCH  12  13
ENDBRANCH   6   7
ENDBRANCH   5   6
ENDBRANCH   4   5
ENDBRANCH   2   4
TORSDOF 6
ENDMDL
MODEL      302
REMARK 921   NORMALIZED FREE ENERGY PREDICTED BY IDOCK:   -1.76 KCAL/MOL
REMARK 922        TOTAL FREE ENERGY PREDICTED BY IDOCK:   -3.22 KCAL/MOL
REMARK 923 INTER-LIGAND FREE ENERGY PREDICTED BY IDOCK:   -2.50 KCAL/MOL
REMARK 924 INTRA-LIGAND FREE ENERGY PREDICTED BY IDOCK:   -0.72 KCAL/MOL
REMARK 927      BINDING AFFINITY PREDICTED BY RF-SCORE:    0.00 PKD
ROOT
HETATM    1  C   UNL     1      -6.689   4.272  70.677  1.00  0.00    -0.032 C  
HETATM    2  N   UNL     1      -6.249   5.579  70.206  1.00  0.00    -0.025 NA 
HETATM    3  C   UNL     1      -6.104   5.608  68.758  1.00  0.00    -0.025 C  
ENDROOT
BRANCH   2   4
HETATM    4  C   UNL     1      -6.979   6.719  70.793  1.00  0.00    -0.067 C  
BRANCH   4   5
HETATM    5  C   UNL     1      -7.023   6.978  72.326  1.00  0.00    -0.065 C  
BRANCH   5   6
HETATM    6  O   UNL     1      -8.407   7.142  72.697  1.00  0.00    -0.107 OA 
BRANCH   6   7
HETATM    7  C   UNL     1      -9.218   6.065  72.955  1.00  0.00    -0.134 A  
HETATM    8  C   UNL     1      -8.635   5.140  73.836  1.00  0.00    -0.113 A  
HETATM    9  C   UNL     1      -9.234   3.904  74.123  1.00  0.00    -0.102 A  
HETATM   10  C   UNL     1     -10.464   3.586  73.560  1.00  0.00    -0.263 A  
HETATM   11  C   UNL     1     -11.053   4.485  72.678  1.00  0.00    -0.091 A  
HETATM   12  C   UNL     1     -10.415   5.702  72.315  1.00  0.00    -0.260 A  
BRANCH  12  13
HETATM   13  C   UNL     1     -10.991   6.391  71.100  1.00  0.00    -0.327 C  
BRANCH  13  14
HETATM   14  C   UNL     1     -10.388   5.935  69.778  1.00  0.00    -0.309 A  
HETATM   15  C   UNL     1      -9.898   6.888  68.874  1.00  0.00    -0.147 A  
HETATM   16  C   UNL     1      -9.204   6.489  67.728  1.00  0.00    -0.113 A  
HETATM   17  C   UNL     1      -9.002   5.136  67.466  1.00  0.00    -0.110 A  
HETATM   18  C   UNL     1      -9.530   4.178  68.326  1.00  0.00    -0.213 A  
HETATM   19  C   UNL     1     -10.217   4.573  69.475  1.00  0.00     0.004 A  
ENDBRANCH  13  14
ENDBRANCH  12  13
ENDBRANCH   6   7
ENDBRANCH   5   6
ENDBRANCH   4   5
ENDBRANCH   2   4
TORSDOF 6
ENDMDL
MODEL      303
REMARK 921   NORMALIZED FREE ENERGY PREDICTED BY IDOCK:   -1.62 KCAL/MOL
REMARK 922        TOTAL FREE ENERGY PREDICTED BY IDOCK:   -3.02 KCAL/MOL
REMARK 923 INTER-LIGAND FREE ENERGY PREDICTED BY IDOCK:   -2.58 KCAL/MOL
REMARK 924 INTRA-LIGAND FREE ENERGY PREDICTED BY IDOCK:   -0.44 KCAL/MOL
REMARK 927      BINDING AFFINITY PREDICTED BY RF-SCORE:    0.00 PKD
ROOT
HETATM    1  C   UNL     1     -10.783   4.094  62.368  1.00  0.00    -0.103 C  
HETATM    2  N   UNL     1     -10.118   3.212  63.317  1.00  0.00    -0.128 NA 
HETATM    3  C   UNL     1      -9.052   2.448  62.686  1.00  0.00    -0.087 C  
ENDROOT
BRANCH   2   4
HETATM    4  C   UNL     1      -9.768   3.848  64.602  1.00  0.00    -0.186 C  
BRANCH   4   5
HETATM    5  C   UNL     1      -8.718   3.237  65.574  1.00  0.00    -0.123 C  
BRANCH   5   6
HETATM    6  O   UNL     1      -7.546   4.077  65.527  1.00  0.00    -0.080 OA 
BRANCH   6   7
HETATM    7  C   UNL     1      -7.237   4.943  66.545  1.00  0.00    -0.077 A  
HETATM    8  C   UNL     1      -6.607   4.311  67.629  1.00  0.00    -0.046 A  
HETATM    9  C   UNL     1      -6.333   4.985  68.828  1.00  0.00    -0.035 A  
HETATM   10  C   UNL     1      -6.648   6.332  68.951  1.00  0.00    -0.048 A  
HETATM   11  C   UNL     1      -7.281   6.973  67.892  1.00  0.00    -0.091 A  
HETATM   12  C   UNL     1      -7.640   6.280  66.706  1.00  0.00    -0.099 A  
BRANCH  12  13
HETATM   13  C   UNL     1      -8.621   7.001  65.811  1.00  0.00    -0.138 C  
BRANCH  13  14
HETATM   14  C   UNL     1      -9.198   8.274  66.415  1.00  0.00    -0.247 A  
HETATM   15  C   UNL     1     -10.114   8.186  67.473  1.00  0.00    -0.286 A  
HETATM   16  C   UNL     1     -10.538   9.337  68.143  1.00  0.00    -0.248 A  
HETATM   17  C   UNL     1     -10.063  10.588  67.758  1.00  0.00    -0.205 A  
HETATM   18  C   UNL     1      -9.197  10.696  66.674  1.00  0.00    -0.184 A  
HETATM   19  C   UNL     1      -8.765   9.548  66.008  1.00  0.00    -0.166 A  
ENDBRANCH  13  14
ENDBRANCH  12  13
ENDBRANCH   6   7
ENDBRANCH   5   6
ENDBRANCH   4   5
ENDBRANCH   2   4
TORSDOF 6
ENDMDL
MODEL      304
REMARK 921   NORMALIZED FREE ENERGY PREDICTED BY IDOCK:   -1.61 KCAL/MOL
REMARK 922        TOTAL FREE ENERGY PREDICTED BY IDOCK:   -3.02 KCAL/MOL
REMARK 923 INTER-LIGAND FREE ENERGY PREDICTED BY IDOCK:   -2.10 KCAL/MOL
REMARK 924 INTRA-LIGAND FREE ENERGY PREDICTED BY IDOCK:   -0.92 KCAL/MOL
REMARK 927      BINDING AFFINITY PREDICTED BY RF-SCORE:    0.00 PKD
ROOT
HETATM    1  C   UNL     1      -6.743   7.699  64.643  1.00  0.00    -0.050 C  
HETATM    2  N   UNL     1      -5.893   7.439  65.797  1.00  0.00    -0.036 NA 
HETATM    3  C   UNL     1      -6.124   8.403  66.864  1.00  0.00    -0.054 C  
ENDROOT
BRANCH   2   4
HETATM    4  C   UNL     1      -5.848   6.026  66.219  1.00  0.00    -0.024 C  
BRANCH   4   5
HETATM    5  C   UNL     1      -6.578   5.514  67.493  1.00  0.00    -0.053 C  
BRANCH   5   6
HETATM    6  O   UNL     1      -7.820   4.914  67.068  1.00  0.00    -0.094 OA 
BRANCH   6   7
HETATM    7  C   UNL     1      -9.033   5.370  67.519  1.00  0.00    -0.108 A  
HETATM    8  C   UNL     1      -9.446   6.550  66.880  1.00  0.00    -0.178 A  
HETATM    9  C   UNL     1     -10.587   7.258  67.288  1.00  0.00    -0.395 A  
HETATM   10  C   UNL     1     -11.369   6.768  68.326  1.00  0.00    -0.022 A  
HETATM   11  C   UNL     1     -10.971   5.606  68.977  1.00  0.00    -0.165 A  
HETATM   12  C   UNL     1      -9.773   4.927  68.629  1.00  0.00    -0.225 A  
BRANCH  12  13
HETATM   13  C   UNL     1      -9.294   3.908  69.637  1.00  0.00    -0.246 C  
BRANCH  13  14
HETATM   14  C   UNL     1      -8.325   4.462  70.672  1.00  0.00    -0.086 A  
HETATM   15  C   UNL     1      -8.737   5.496  71.524  1.00  0.00    -0.138 A  
HETATM   16  C   UNL     1      -7.921   5.915  72.579  1.00  0.00    -0.102 A  
HETATM   17  C   UNL     1      -6.682   5.315  72.788  1.00  0.00    -0.071 A  
HETATM   18  C   UNL     1      -6.236   4.326  71.917  1.00  0.00    -0.018 A  
HETATM   19  C   UNL     1      -7.051   3.900  70.867  1.00  0.00    -0.033 A  
ENDBRANCH  13  14
ENDBRANCH  12  13
ENDBRANCH   6   7
ENDBRANCH   5   6
ENDBRANCH   4   5
ENDBRANCH   2   4
TORSDOF 6
ENDMDL
MODEL      305
REMARK 921   NORMALIZED FREE ENERGY PREDICTED BY IDOCK:   -1.58 KCAL/MOL
REMARK 922        TOTAL FREE ENERGY PREDICTED BY IDOCK:   -2.97 KCAL/MOL
REMARK 923 INTER-LIGAND FREE ENERGY PREDICTED BY IDOCK:   -2.70 KCAL/MOL
REMARK 924 INTRA-LIGAND FREE ENERGY PREDICTED BY IDOCK:   -0.27 KCAL/MOL
REMARK 927      BINDING AFFINITY PREDICTED BY RF-SCORE:    0.00 PKD
ROOT
HETATM    1  C   UNL     1      -8.526  10.128  64.601  1.00  0.00    -0.173 C  
HETATM    2  N   UNL     1      -7.560   9.051  64.432  1.00  0.00    -0.108 NA 
HETATM    3  C   UNL     1      -6.569   9.371  63.415  1.00  0.00    -0.094 C  
ENDROOT
BRANCH   2   4
HETATM    4  C   UNL     1      -7.022   8.506  65.693  1.00  0.00    -0.071 C  
BRANCH   4   5
HETATM    5  C   UNL     1      -6.922   9.357  66.991  1.00  0.00    -0.085 C  
BRANCH   5   6
HETATM    6  O   UNL     1      -6.014   8.677  67.883  1.00  0.00    -0.045 OA 
BRANCH   6   7
HETATM    7  C   UNL     1      -6.403   7.582  68.613  1.00  0.00    -0.040 A  
HETATM    8  C   UNL     1      -6.001   6.368  68.033  1.00  0.00    -0.020 A  
HETATM    9  C   UNL     1      -6.413   5.127  68.541  1.00  0.00    -0.040 A  
HETATM   10  C   UNL     1      -7.210   5.076  69.678  1.00  0.00    -0.056 A  
HETATM   11  C   UNL     1      -7.627   6.268  70.261  1.00  0.00    -0.096 A  
HETATM   12  C   UNL     1      -7.285   7.530  69.706  1.00  0.00    -0.080 A  
BRANCH  12  13
HETATM   13  C   UNL     1      -8.089   8.699  70.225  1.00  0.00    -0.109 C  
BRANCH  13  14
HETATM   14  C   UNL     1      -9.418   8.311  70.860  1.00  0.00    -0.192 A  
HETATM   15  C   UNL     1      -9.616   8.517  72.232  1.00  0.00    -0.377 A  
HETATM   16  C   UNL     1     -10.874   8.312  72.807  1.00  0.00    -0.308 A  
HETATM   17  C   UNL     1     -11.943   7.888  72.021  1.00  0.00    -0.364 A  
HETATM   18  C   UNL     1     -11.747   7.626  70.669  1.00  0.00    -0.214 A  
HETATM   19  C   UNL     1     -10.494   7.837  70.091  1.00  0.00    -0.231 A  
ENDBRANCH  13  14
ENDBRANCH  12  13
ENDBRANCH   6   7
ENDBRANCH   5   6
ENDBRANCH   4   5
ENDBRANCH   2   4
TORSDOF 6
ENDMDL
MODEL      306
REMARK 921   NORMALIZED FREE ENERGY PREDICTED BY IDOCK:   -1.57 KCAL/MOL
REMARK 922        TOTAL FREE ENERGY PREDICTED BY IDOCK:   -2.95 KCAL/MOL
REMARK 923 INTER-LIGAND FREE ENERGY PREDICTED BY IDOCK:   -2.41 KCAL/MOL
REMARK 924 INTRA-LIGAND FREE ENERGY PREDICTED BY IDOCK:   -0.55 KCAL/MOL
REMARK 927      BINDING AFFINITY PREDICTED BY RF-SCORE:    0.00 PKD
ROOT
HETATM    1  C   UNL     1      -6.189   6.375  65.753  1.00  0.00    -0.038 C  
HETATM    2  N   UNL     1      -5.205   5.809  66.666  1.00  0.00    -0.005 NA 
HETATM    3  C   UNL     1      -5.274   6.426  67.983  1.00  0.00    -0.004 C  
ENDROOT
BRANCH   2   4
HETATM    4  C   UNL     1      -5.138   4.335  66.659  1.00  0.00    -0.008 C  
BRANCH   4   5
HETATM    5  C   UNL     1      -6.020   3.458  67.592  1.00  0.00    -0.027 C  
BRANCH   5   6
HETATM    6  O   UNL     1      -6.932   2.717  66.755  1.00  0.00    -0.047 OA 
BRANCH   6   7
HETATM    7  C   UNL     1      -8.097   3.273  66.288  1.00  0.00    -0.092 A  
HETATM    8  C   UNL     1      -8.126   3.387  64.888  1.00  0.00    -0.090 A  
HETATM    9  C   UNL     1      -9.161   4.053  64.216  1.00  0.00    -0.147 A  
HETATM   10  C   UNL     1     -10.222   4.586  64.938  1.00  0.00    -0.048 A  
HETATM   11  C   UNL     1     -10.206   4.492  66.325  1.00  0.00    -0.270 A  
HETATM   12  C   UNL     1      -9.122   3.894  67.021  1.00  0.00    -0.168 A  
BRANCH  12  13
HETATM   13  C   UNL     1      -9.074   4.180  68.504  1.00  0.00    -0.182 C  
BRANCH  13  14
HETATM   14  C   UNL     1      -9.652   5.533  68.898  1.00  0.00    -0.178 A  
HETATM   15  C   UNL     1     -10.985   5.618  69.327  1.00  0.00    -0.224 A  
HETATM   16  C   UNL     1     -11.491   6.816  69.837  1.00  0.00    -0.355 A  
HETATM   17  C   UNL     1     -10.678   7.945  69.915  1.00  0.00    -0.244 A  
HETATM   18  C   UNL     1      -9.371   7.890  69.442  1.00  0.00    -0.152 A  
HETATM   19  C   UNL     1      -8.860   6.693  68.938  1.00  0.00    -0.131 A  
ENDBRANCH  13  14
ENDBRANCH  12  13
ENDBRANCH   6   7
ENDBRANCH   5   6
ENDBRANCH   4   5
ENDBRANCH   2   4
TORSDOF 6
ENDMDL
MODEL      307
REMARK 921   NORMALIZED FREE ENERGY PREDICTED BY IDOCK:   -1.40 KCAL/MOL
REMARK 922        TOTAL FREE ENERGY PREDICTED BY IDOCK:   -2.72 KCAL/MOL
REMARK 923 INTER-LIGAND FREE ENERGY PREDICTED BY IDOCK:   -3.00 KCAL/MOL
REMARK 924 INTRA-LIGAND FREE ENERGY PREDICTED BY IDOCK:    0.28 KCAL/MOL
REMARK 927      BINDING AFFINITY PREDICTED BY RF-SCORE:    0.00 PKD
ROOT
HETATM    1  C   UNL     1     -10.750   4.943  62.527  1.00  0.00     0.785 C  
HETATM    2  N   UNL     1      -9.888   4.023  63.255  1.00  0.00    -0.151 NA 
HETATM    3  C   UNL     1      -8.557   3.954  62.669  1.00  0.00    -0.084 C  
ENDROOT
BRANCH   2   4
HETATM    4  C   UNL     1      -9.928   4.177  64.722  1.00  0.00    -0.187 C  
BRANCH   4   5
HETATM    5  C   UNL     1      -8.768   3.698  65.641  1.00  0.00    -0.117 C  
BRANCH   5   6
HETATM    6  O   UNL     1      -8.739   4.571  66.790  1.00  0.00    -0.111 OA 
BRANCH   6   7
HETATM    7  C   UNL     1      -8.945   4.097  68.061  1.00  0.00    -0.121 A  
HETATM    8  C   UNL     1      -8.673   2.726  68.185  1.00  0.00    -0.134 A  
HETATM    9  C   UNL     1      -8.950   2.014  69.362  1.00  0.00    -0.154 A  
HETATM   10  C   UNL     1      -9.471   2.679  70.465  1.00  0.00    -0.195 A  
HETATM   11  C   UNL     1      -9.756   4.036  70.359  1.00  0.00    -0.263 A  
HETATM   12  C   UNL     1      -9.558   4.748  69.146  1.00  0.00    -0.237 A  
BRANCH  12  13
HETATM   13  C   UNL     1     -10.235   6.098  69.074  1.00  0.00    -0.237 C  
BRANCH  13  14
HETATM   14  C   UNL     1     -10.530   6.720  70.432  1.00  0.00    -0.236 A  
HETATM   15  C   UNL     1     -10.194   8.061  70.667  1.00  0.00    -0.205 A  
HETATM   16  C   UNL     1     -10.591   8.696  71.847  1.00  0.00    -0.411 A  
HETATM   17  C   UNL     1     -11.318   7.999  72.809  1.00  0.00    -0.439 A  
HETATM   18  C   UNL     1     -11.610   6.653  72.614  1.00  0.00    -0.173 A  
HETATM   19  C   UNL     1     -11.221   6.017  71.434  1.00  0.00    -0.325 A  
ENDBRANCH  13  14
ENDBRANCH  12  13
ENDBRANCH   6   7
ENDBRANCH   5   6
ENDBRANCH   4   5
ENDBRANCH   2   4
TORSDOF 6
ENDMDL
MODEL      308
REMARK 921   NORMALIZED FREE ENERGY PREDICTED BY IDOCK:   -1.19 KCAL/MOL
REMARK 922        TOTAL FREE ENERGY PREDICTED BY IDOCK:   -2.45 KCAL/MOL
REMARK 923 INTER-LIGAND FREE ENERGY PREDICTED BY IDOCK:   -1.97 KCAL/MOL
REMARK 924 INTRA-LIGAND FREE ENERGY PREDICTED BY IDOCK:   -0.48 KCAL/MOL
REMARK 927      BINDING AFFINITY PREDICTED BY RF-SCORE:    0.00 PKD
ROOT
HETATM    1  C   UNL     1      -6.625   7.043  66.249  1.00  0.00    -0.052 C  
HETATM    2  N   UNL     1      -5.775   6.847  67.416  1.00  0.00    -0.016 NA 
HETATM    3  C   UNL     1      -5.900   7.944  68.364  1.00  0.00    -0.036 C  
ENDROOT
BRANCH   2   4
HETATM    4  C   UNL     1      -5.839   5.494  68.000  1.00  0.00    -0.017 C  
BRANCH   4   5
HETATM    5  C   UNL     1      -6.763   5.150  69.203  1.00  0.00    -0.052 C  
BRANCH   5   6
HETATM    6  O   UNL     1      -7.800   4.273  68.715  1.00  0.00    -0.072 OA 
BRANCH   6   7
HETATM    7  C   UNL     1      -8.977   4.760  68.205  1.00  0.00    -0.111 A  
HETATM    8  C   UNL     1      -9.079   4.600  66.814  1.00  0.00    -0.121 A  
HETATM    9  C   UNL     1     -10.137   5.151  66.076  1.00  0.00    -0.197 A  
HETATM   10  C   UNL     1     -11.147   5.845  66.729  1.00  0.00    -0.157 A  
HETATM   11  C   UNL     1     -11.059   6.022  68.106  1.00  0.00    -0.246 A  
HETATM   12  C   UNL     1      -9.950   5.541  68.852  1.00  0.00    -0.236 A  
BRANCH  12  13
HETATM   13  C   UNL     1      -9.818   6.108  70.246  1.00  0.00    -0.206 C  
BRANCH  13  14
HETATM   14  C   UNL     1      -9.131   7.466  70.305  1.00  0.00    -0.151 A  
HETATM   15  C   UNL     1      -9.556   8.494  69.451  1.00  0.00    -0.170 A  
HETATM   16  C   UNL     1      -9.047   9.789  69.591  1.00  0.00    -0.235 A  
HETATM   17  C   UNL     1      -8.102  10.068  70.576  1.00  0.00     0.276 A  
HETATM   18  C   UNL     1      -7.631   9.046  71.393  1.00  0.00    -0.078 A  
HETATM   19  C   UNL     1      -8.142   7.754  71.260  1.00  0.00    -0.096 A  
ENDBRANCH  13  14
ENDBRANCH  12  13
ENDBRANCH   6   7
ENDBRANCH   5   6
ENDBRANCH   4   5
ENDBRANCH   2   4
TORSDOF 6
ENDMDL
MODEL      309
REMARK 921   NORMALIZED FREE ENERGY PREDICTED BY IDOCK:   -0.71 KCAL/MOL
REMARK 922        TOTAL FREE ENERGY PREDICTED BY IDOCK:   -1.80 KCAL/MOL
REMARK 923 INTER-LIGAND FREE ENERGY PREDICTED BY IDOCK:   -3.13 KCAL/MOL
REMARK 924 INTRA-LIGAND FREE ENERGY PREDICTED BY IDOCK:    1.33 KCAL/MOL
REMARK 927      BINDING AFFINITY PREDICTED BY RF-SCORE:    0.00 PKD
ROOT
HETATM    1  C   UNL     1      -9.971   6.566  67.732  1.00  0.00    -0.131 C  
HETATM    2  N   UNL     1      -9.155   5.687  68.558  1.00  0.00    -0.114 NA 
HETATM    3  C   UNL     1      -8.255   6.440  69.419  1.00  0.00    -0.118 C  
ENDROOT
BRANCH   2   4
HETATM    4  C   UNL     1      -9.901   4.599  69.217  1.00  0.00    -0.190 C  
BRANCH   4   5
HETATM    5  C   UNL     1      -9.499   4.040  70.612  1.00  0.00    -0.170 C  
BRANCH   5   6
HETATM    6  O   UNL     1     -10.524   4.435  71.547  1.00  0.00    -0.085 OA 
BRANCH   6   7
HETATM    7  C   UNL     1     -10.843   5.753  71.755  1.00  0.00    -0.252 A  
HETATM    8  C   UNL     1     -11.721   6.263  70.785  1.00  0.00    -0.289 A  
HETATM    9  C   UNL     1     -12.064   7.622  70.730  1.00  0.00    -0.149 A  
HETATM   10  C   UNL     1     -11.563   8.499  71.684  1.00  0.00    -0.364 A  
HETATM   11  C   UNL     1     -10.684   8.015  72.647  1.00  0.00    -0.426 A  
HETATM   12  C   UNL     1     -10.264   6.658  72.660  1.00  0.00    -0.206 A  
BRANCH  12  13
HETATM   13  C   UNL     1      -9.058   6.367  73.523  1.00  0.00    -0.134 C  
BRANCH  13  14
HETATM   14  C   UNL     1      -8.686   4.893  73.599  1.00  0.00    -0.103 A  
HETATM   15  C   UNL     1      -7.536   4.434  72.942  1.00  0.00    -0.080 A  
HETATM   16  C   UNL     1      -7.091   3.121  73.122  1.00  0.00    -0.044 A  
HETATM   17  C   UNL     1      -7.795   2.249  73.949  1.00  0.00    -0.053 A  
HETATM   18  C   UNL     1      -8.969   2.674  74.563  1.00  0.00    -0.090 A  
HETATM   19  C   UNL     1      -9.412   3.987  74.391  1.00  0.00    -0.130 A  
ENDBRANCH  13  14
ENDBRANCH  12  13
ENDBRANCH   6   7
ENDBRANCH   5   6
ENDBRANCH   4   5
ENDBRANCH   2   4
TORSDOF 6
ENDMDL
MODEL      310
REMARK 921   NORMALIZED FREE ENERGY PREDICTED BY IDOCK:   -0.45 KCAL/MOL
REMARK 922        TOTAL FREE ENERGY PREDICTED BY IDOCK:   -1.44 KCAL/MOL
REMARK 923 INTER-LIGAND FREE ENERGY PREDICTED BY IDOCK:   -1.83 KCAL/MOL
REMARK 924 INTRA-LIGAND FREE ENERGY PREDICTED BY IDOCK:    0.39 KCAL/MOL
REMARK 927      BINDING AFFINITY PREDICTED BY RF-SCORE:    0.00 PKD
ROOT
HETATM    1  C   UNL     1     -10.219   4.567  68.780  1.00  0.00     0.159 C  
HETATM    2  N   UNL     1      -9.675   5.805  69.321  1.00  0.00    -0.137 NA 
HETATM    3  C   UNL     1      -9.430   5.706  70.753  1.00  0.00    -0.165 C  
ENDROOT
BRANCH   2   4
HETATM    4  C   UNL     1      -8.575   6.388  68.529  1.00  0.00    -0.122 C  
BRANCH   4   5
HETATM    5  C   UNL     1      -7.340   5.557  68.081  1.00  0.00    -0.073 C  
BRANCH   5   6
HETATM    6  O   UNL     1      -6.162   6.252  68.539  1.00  0.00    -0.029 OA 
BRANCH   6   7
HETATM    7  C   UNL     1      -6.184   7.055  69.652  1.00  0.00    -0.034 A  
HETATM    8  C   UNL     1      -6.389   6.337  70.840  1.00  0.00    -0.040 A  
HETATM    9  C   UNL     1      -6.584   6.977  72.073  1.00  0.00    -0.056 A  
HETATM   10  C   UNL     1      -6.533   8.363  72.148  1.00  0.00    -0.074 A  
HETATM   11  C   UNL     1      -6.339   9.092  70.979  1.00  0.00    -0.071 A  
HETATM   12  C   UNL     1      -6.226   8.458  69.713  1.00  0.00    -0.032 A  
BRANCH  12  13
HETATM   13  C   UNL     1      -6.378   9.373  68.520  1.00  0.00    -0.052 C  
BRANCH  13  14
HETATM   14  C   UNL     1      -7.809   9.822  68.257  1.00  0.00    -0.089 A  
HETATM   15  C   UNL     1      -8.256   9.971  66.936  1.00  0.00    -0.121 A  
HETATM   16  C   UNL     1      -9.603  10.233  66.668  1.00  0.00    -0.220 A  
HETATM   17  C   UNL     1     -10.515  10.359  67.713  1.00  0.00    -0.268 A  
HETATM   18  C   UNL     1     -10.075  10.268  69.030  1.00  0.00    -0.225 A  
HETATM   19  C   UNL     1      -8.732  10.000  69.301  1.00  0.00    -0.182 A  
ENDBRANCH  13  14
ENDBRANCH  12  13
ENDBRANCH   6   7
ENDBRANCH   5   6
ENDBRANCH   4   5
ENDBRANCH   2   4
TORSDOF 6
ENDMDL
MODEL      311
REMARK 921   NORMALIZED FREE ENERGY PREDICTED BY IDOCK:   -0.29 KCAL/MOL
REMARK 922        TOTAL FREE ENERGY PREDICTED BY IDOCK:   -1.23 KCAL/MOL
REMARK 923 INTER-LIGAND FREE ENERGY PREDICTED BY IDOCK:   -2.81 KCAL/MOL
REMARK 924 INTRA-LIGAND FREE ENERGY PREDICTED BY IDOCK:    1.58 KCAL/MOL
REMARK 927      BINDING AFFINITY PREDICTED BY RF-SCORE:    0.00 PKD
ROOT
HETATM    1  C   UNL     1      -9.876   6.685  67.772  1.00  0.00    -0.124 C  
HETATM    2  N   UNL     1      -9.010   5.746  68.473  1.00  0.00    -0.112 NA 
HETATM    3  C   UNL     1      -7.661   6.270  68.627  1.00  0.00    -0.093 C  
ENDROOT
BRANCH   2   4
HETATM    4  C   UNL     1      -9.604   5.155  69.688  1.00  0.00    -0.167 C  
BRANCH   4   5
HETATM    5  C   UNL     1      -8.770   4.875  70.970  1.00  0.00    -0.125 C  
BRANCH   5   6
HETATM    6  O   UNL     1      -9.508   5.405  72.090  1.00  0.00    -0.142 OA 
BRANCH   6   7
HETATM    7  C   UNL     1     -10.484   6.357  71.927  1.00  0.00    -0.209 A  
HETATM    8  C   UNL     1     -11.660   5.843  71.359  1.00  0.00    -0.112 A  
HETATM    9  C   UNL     1     -12.728   6.670  70.980  1.00  0.00    -0.084 A  
HETATM   10  C   UNL     1     -12.654   8.039  71.205  1.00  0.00    -0.176 A  
HETATM   11  C   UNL     1     -11.493   8.568  71.758  1.00  0.00    -0.378 A  
HETATM   12  C   UNL     1     -10.374   7.751  72.068  1.00  0.00    -0.267 A  
BRANCH  12  13
HETATM   13  C   UNL     1      -9.083   8.496  72.319  1.00  0.00    -0.318 C  
BRANCH  13  14
HETATM   14  C   UNL     1      -7.928   7.611  72.765  1.00  0.00    -0.140 A  
HETATM   15  C   UNL     1      -8.033   6.885  73.960  1.00  0.00    -0.124 A  
HETATM   16  C   UNL     1      -7.054   5.951  74.312  1.00  0.00    -0.084 A  
HETATM   17  C   UNL     1      -5.955   5.741  73.483  1.00  0.00    -0.059 A  
HETATM   18  C   UNL     1      -5.809   6.494  72.322  1.00  0.00    -0.038 A  
HETATM   19  C   UNL     1      -6.789   7.422  71.964  1.00  0.00    -0.062 A  
ENDBRANCH  13  14
ENDBRANCH  12  13
ENDBRANCH   6   7
ENDBRANCH   5   6
ENDBRANCH   4   5
ENDBRANCH   2   4
TORSDOF 6
ENDMDL
MODEL      312
REMARK 921   NORMALIZED FREE ENERGY PREDICTED BY IDOCK:   23.07 KCAL/MOL
REMARK 922        TOTAL FREE ENERGY PREDICTED BY IDOCK:   30.32 KCAL/MOL
REMARK 923 INTER-LIGAND FREE ENERGY PREDICTED BY IDOCK:   18.40 KCAL/MOL
REMARK 924 INTRA-LIGAND FREE ENERGY PREDICTED BY IDOCK:   11.92 KCAL/MOL
REMARK 927      BINDING AFFINITY PREDICTED BY RF-SCORE:    0.00 PKD
ROOT
HETATM    1  C   UNL     1      -7.432  14.085  64.693  1.00  0.00    14.534 C  
HETATM    2  N   UNL     1      -8.334  12.943  64.777  1.00  0.00     3.411 NA 
HETATM    3  C   UNL     1      -7.656  11.759  65.284  1.00  0.00     1.669 C  
ENDROOT
BRANCH   2   4
HETATM    4  C   UNL     1      -9.641  13.239  65.394  1.00  0.00     0.118 C  
BRANCH   4   5
HETATM    5  C   UNL     1      -9.896  13.082  66.920  1.00  0.00    -0.240 C  
BRANCH   5   6
HETATM    6  O   UNL     1      -8.868  13.824  67.608  1.00  0.00    -0.169 OA 
BRANCH   6   7
HETATM    7  C   UNL     1      -8.789  15.191  67.529  1.00  0.00    -0.182 A  
HETATM    8  C   UNL     1      -7.579  15.699  68.030  1.00  0.00    -0.132 A  
HETATM    9  C   UNL     1      -7.350  17.076  68.171  1.00  0.00    -0.192 A  
HETATM   10  C   UNL     1      -8.323  17.982  67.768  1.00  0.00    -0.249 A  
HETATM   11  C   UNL     1      -9.531  17.499  67.279  1.00  0.00    -0.253 A  
HETATM   12  C   UNL     1      -9.806  16.107  67.210  1.00  0.00    -0.241 A  
BRANCH  12  13
HETATM   13  C   UNL     1     -11.259  15.748  67.002  1.00  0.00    -0.082 C  
BRANCH  13  14
HETATM   14  C   UNL     1     -11.586  14.286  67.276  1.00  0.00    -0.401 A  
HETATM   15  C   UNL     1     -11.642  13.825  68.598  1.00  0.00    -0.369 A  
HETATM   16  C   UNL     1     -12.089  12.530  68.881  1.00  0.00    -0.167 A  
HETATM   17  C   UNL     1     -12.473  11.680  67.846  1.00  0.00     1.202 A  
HETATM   18  C   UNL     1     -12.369  12.105  66.526  1.00  0.00     0.606 A  
HETATM   19  C   UNL     1     -11.931  13.400  66.241  1.00  0.00    -0.460 A  
ENDBRANCH  13  14
ENDBRANCH  12  13
ENDBRANCH   6   7
ENDBRANCH   5   6
ENDBRANCH   4   5
ENDBRANCH   2   4
TORSDOF 6
ENDMDL
