MODEL        1
REMARK 921   NORMALIZED FREE ENERGY PREDICTED BY IDOCK:   -6.75 KCAL/MOL
REMARK 922        TOTAL FREE ENERGY PREDICTED BY IDOCK:   -7.34 KCAL/MOL
REMARK 923 INTER-LIGAND FREE ENERGY PREDICTED BY IDOCK:   -7.14 KCAL/MOL
REMARK 924 INTRA-LIGAND FREE ENERGY PREDICTED BY IDOCK:   -0.19 KCAL/MOL
REMARK 927      BINDING AFFINITY PREDICTED BY RF-SCORE:    0.00 PKD
ROOT
HETATM    1  O   UNL     1     -11.563  16.834  64.026  1.00  0.00    -1.195 OA 
HETATM    2  C   UNL     1     -10.942  16.119  64.793  1.00  0.00    -0.313 C  
HETATM    3  C   UNL     1      -9.696  16.467  65.597  1.00  0.00    -0.165 C  
HETATM    4  C   UNL     1     -11.301  14.729  65.066  1.00  0.00    -0.391 A  
HETATM    5  C   UNL     1      -9.347  15.148  66.268  1.00  0.00    -0.313 C  
HETATM    6  C   UNL     1     -12.394  14.017  64.604  1.00  0.00    -0.425 A  
HETATM    7  C   UNL     1     -10.365  14.158  65.915  1.00  0.00    -0.326 A  
HETATM    8  O   UNL     1      -8.400  14.900  66.994  1.00  0.00    -0.207 OA 
HETATM    9  C   UNL     1     -10.471  12.845  66.336  1.00  0.00    -0.278 A  
HETATM   10  C   UNL     1     -12.523  12.690  65.024  1.00  0.00    -0.556 A  
HETATM   11  C   UNL     1     -11.568  12.108  65.881  1.00  0.00    -0.425 A  
ENDROOT
BRANCH   3  12
HETATM   12  C   UNL     1      -9.942  17.623  66.543  1.00  0.00    -0.332 A  
HETATM   13  C   UNL     1     -10.259  18.407  68.825  1.00  0.00    -0.333 A  
HETATM   14  C   UNL     1     -10.122  20.002  67.024  1.00  0.00    -0.594 A  
HETATM   15  C   UNL     1      -9.954  18.959  66.109  1.00  0.00    -0.395 A  
HETATM   16  C   UNL     1     -10.091  17.363  67.915  1.00  0.00    -0.326 A  
HETATM   17  C   UNL     1     -10.274  19.727  68.380  1.00  0.00    -0.568 A  
ENDBRANCH   3  12
TORSDOF 1
ENDMDL
MODEL        2
REMARK 921   NORMALIZED FREE ENERGY PREDICTED BY IDOCK:   -6.74 KCAL/MOL
REMARK 922        TOTAL FREE ENERGY PREDICTED BY IDOCK:   -7.33 KCAL/MOL
REMARK 923 INTER-LIGAND FREE ENERGY PREDICTED BY IDOCK:   -7.22 KCAL/MOL
REMARK 924 INTRA-LIGAND FREE ENERGY PREDICTED BY IDOCK:   -0.11 KCAL/MOL
REMARK 927      BINDING AFFINITY PREDICTED BY RF-SCORE:    0.00 PKD
ROOT
HETATM    1  O   UNL     1     -10.066  15.403  68.888  1.00  0.00    -0.202 OA 
HETATM    2  C   UNL     1     -10.688  14.456  68.439  1.00  0.00    -0.245 C  
HETATM    3  C   UNL     1     -11.179  13.220  69.182  1.00  0.00    -0.305 C  
HETATM    4  C   UNL     1     -11.066  14.336  67.033  1.00  0.00    -0.317 A  
HETATM    5  C   UNL     1     -11.782  12.374  68.072  1.00  0.00    -0.356 C  
HETATM    6  C   UNL     1     -10.881  15.251  66.012  1.00  0.00    -0.331 A  
HETATM    7  C   UNL     1     -11.692  13.118  66.815  1.00  0.00    -0.439 A  
HETATM    8  O   UNL     1     -12.279  11.265  68.156  1.00  0.00    -0.622 OA 
HETATM    9  C   UNL     1     -12.156  12.752  65.564  1.00  0.00    -0.517 A  
HETATM   10  C   UNL     1     -11.348  14.903  64.741  1.00  0.00    -0.400 A  
HETATM   11  C   UNL     1     -11.978  13.663  64.519  1.00  0.00    -0.454 A  
ENDROOT
BRANCH   3  12
HETATM   12  C   UNL     1     -12.130  13.581  70.304  1.00  0.00    -0.425 A  
HETATM   13  C   UNL     1     -13.586  15.232  71.342  1.00  0.00    -0.598 A  
HETATM   14  C   UNL     1     -13.488  12.997  72.237  1.00  0.00    -0.645 A  
HETATM   15  C   UNL     1     -12.561  12.641  71.254  1.00  0.00    -0.339 A  
HETATM   16  C   UNL     1     -12.660  14.880  70.359  1.00  0.00    -0.394 A  
HETATM   17  C   UNL     1     -14.000  14.291  72.281  1.00  0.00    -0.629 A  
ENDBRANCH   3  12
TORSDOF 1
ENDMDL
MODEL        3
REMARK 921   NORMALIZED FREE ENERGY PREDICTED BY IDOCK:   -6.59 KCAL/MOL
REMARK 922        TOTAL FREE ENERGY PREDICTED BY IDOCK:   -7.17 KCAL/MOL
REMARK 923 INTER-LIGAND FREE ENERGY PREDICTED BY IDOCK:   -6.70 KCAL/MOL
REMARK 924 INTRA-LIGAND FREE ENERGY PREDICTED BY IDOCK:   -0.47 KCAL/MOL
REMARK 927      BINDING AFFINITY PREDICTED BY RF-SCORE:    0.00 PKD
ROOT
HETATM    1  O   UNL     1     -11.001  11.840  69.274  1.00  0.00    -0.230 OA 
HETATM    2  C   UNL     1     -11.310  13.011  69.405  1.00  0.00    -0.206 C  
HETATM    3  C   UNL     1     -10.835  14.203  68.584  1.00  0.00    -0.268 C  
HETATM    4  C   UNL     1     -12.223  13.491  70.440  1.00  0.00    -0.426 A  
HETATM    5  C   UNL     1     -11.485  15.382  69.291  1.00  0.00    -0.333 C  
HETATM    6  C   UNL     1     -12.937  12.753  71.366  1.00  0.00    -0.359 A  
HETATM    7  C   UNL     1     -12.315  14.874  70.383  1.00  0.00    -0.401 A  
HETATM    8  O   UNL     1     -11.378  16.568  69.031  1.00  0.00    -0.282 OA 
HETATM    9  C   UNL     1     -13.119  15.585  71.255  1.00  0.00    -0.581 A  
HETATM   10  C   UNL     1     -13.761  13.452  72.252  1.00  0.00    -0.705 A  
HETATM   11  C   UNL     1     -13.850  14.858  72.199  1.00  0.00    -0.576 A  
ENDROOT
BRANCH   3  12
HETATM   12  C   UNL     1     -11.192  14.056  67.120  1.00  0.00    -0.327 A  
HETATM   13  C   UNL     1     -10.452  13.941  64.804  1.00  0.00    -0.451 A  
HETATM   14  C   UNL     1     -12.775  13.581  65.333  1.00  0.00    -0.495 A  
HETATM   15  C   UNL     1     -12.498  13.772  66.690  1.00  0.00    -0.307 A  
HETATM   16  C   UNL     1     -10.172  14.132  66.158  1.00  0.00    -0.313 A  
HETATM   17  C   UNL     1     -11.753  13.665  64.392  1.00  0.00    -0.444 A  
ENDBRANCH   3  12
TORSDOF 1
ENDMDL
MODEL        4
REMARK 921   NORMALIZED FREE ENERGY PREDICTED BY IDOCK:   -6.39 KCAL/MOL
REMARK 922        TOTAL FREE ENERGY PREDICTED BY IDOCK:   -6.96 KCAL/MOL
REMARK 923 INTER-LIGAND FREE ENERGY PREDICTED BY IDOCK:   -6.49 KCAL/MOL
REMARK 924 INTRA-LIGAND FREE ENERGY PREDICTED BY IDOCK:   -0.47 KCAL/MOL
REMARK 927      BINDING AFFINITY PREDICTED BY RF-SCORE:    0.00 PKD
ROOT
HETATM    1  O   UNL     1      -7.833  15.515  67.296  1.00  0.00    -0.167 OA 
HETATM    2  C   UNL     1      -8.739  16.168  66.810  1.00  0.00    -0.240 C  
HETATM    3  C   UNL     1      -9.583  15.835  65.586  1.00  0.00    -0.299 C  
HETATM    4  C   UNL     1      -9.174  17.459  67.340  1.00  0.00    -0.236 A  
HETATM    5  C   UNL     1     -10.457  17.070  65.431  1.00  0.00    -0.112 C  
HETATM    6  C   UNL     1      -8.731  18.115  68.474  1.00  0.00    -0.309 A  
HETATM    7  C   UNL     1     -10.166  17.991  66.530  1.00  0.00    -0.383 A  
HETATM    8  O   UNL     1     -11.283  17.303  64.566  1.00  0.00    -1.083 OA 
HETATM    9  C   UNL     1     -10.757  19.210  66.809  1.00  0.00    -0.488 A  
HETATM   10  C   UNL     1      -9.320  19.346  68.778  1.00  0.00    -0.444 A  
HETATM   11  C   UNL     1     -10.323  19.890  67.951  1.00  0.00    -0.545 A  
ENDROOT
BRANCH   3  12
HETATM   12  C   UNL     1     -10.335  14.533  65.760  1.00  0.00    -0.347 A  
HETATM   13  C   UNL     1     -11.904  13.198  67.058  1.00  0.00    -0.435 A  
HETATM   14  C   UNL     1     -11.069  12.354  64.961  1.00  0.00    -0.344 A  
HETATM   15  C   UNL     1     -10.310  13.516  64.792  1.00  0.00    -0.405 A  
HETATM   16  C   UNL     1     -11.148  14.359  66.892  1.00  0.00    -0.325 A  
HETATM   17  C   UNL     1     -11.865  12.196  66.092  1.00  0.00    -0.327 A  
ENDBRANCH   3  12
TORSDOF 1
ENDMDL
MODEL        5
REMARK 921   NORMALIZED FREE ENERGY PREDICTED BY IDOCK:   -6.27 KCAL/MOL
REMARK 922        TOTAL FREE ENERGY PREDICTED BY IDOCK:   -6.83 KCAL/MOL
REMARK 923 INTER-LIGAND FREE ENERGY PREDICTED BY IDOCK:   -6.45 KCAL/MOL
REMARK 924 INTRA-LIGAND FREE ENERGY PREDICTED BY IDOCK:   -0.38 KCAL/MOL
REMARK 927      BINDING AFFINITY PREDICTED BY RF-SCORE:    0.00 PKD
ROOT
HETATM    1  O   UNL     1     -10.702  11.458  68.271  1.00  0.00    -0.184 OA 
HETATM    2  C   UNL     1     -11.137  11.992  67.267  1.00  0.00    -0.285 C  
HETATM    3  C   UNL     1     -12.157  13.119  67.171  1.00  0.00    -0.343 C  
HETATM    4  C   UNL     1     -10.743  11.604  65.914  1.00  0.00    -0.328 A  
HETATM    5  C   UNL     1     -12.359  13.268  65.672  1.00  0.00    -0.465 C  
HETATM    6  C   UNL     1      -9.798  10.670  65.529  1.00  0.00    -0.316 A  
HETATM    7  C   UNL     1     -11.464  12.338  64.984  1.00  0.00    -0.386 A  
HETATM    8  O   UNL     1     -13.114  14.024  65.085  1.00  0.00    -0.776 OA 
HETATM    9  C   UNL     1     -11.281  12.167  63.624  1.00  0.00    -0.540 A  
HETATM   10  C   UNL     1      -9.593  10.487  64.158  1.00  0.00    -0.369 A  
HETATM   11  C   UNL     1     -10.331  11.228  63.213  1.00  0.00    -0.406 A  
ENDROOT
BRANCH   3  12
HETATM   12  C   UNL     1     -11.682  14.368  67.883  1.00  0.00    -0.388 A  
HETATM   13  C   UNL     1     -11.495  15.634  69.954  1.00  0.00    -0.344 A  
HETATM   14  C   UNL     1     -10.430  16.455  67.954  1.00  0.00    -0.307 A  
HETATM   15  C   UNL     1     -10.902  15.346  67.245  1.00  0.00    -0.316 A  
HETATM   16  C   UNL     1     -11.967  14.526  69.249  1.00  0.00    -0.355 A  
HETATM   17  C   UNL     1     -10.726  16.598  69.307  1.00  0.00    -0.337 A  
ENDBRANCH   3  12
TORSDOF 1
ENDMDL
MODEL        6
REMARK 921   NORMALIZED FREE ENERGY PREDICTED BY IDOCK:   -6.27 KCAL/MOL
REMARK 922        TOTAL FREE ENERGY PREDICTED BY IDOCK:   -6.83 KCAL/MOL
REMARK 923 INTER-LIGAND FREE ENERGY PREDICTED BY IDOCK:   -6.54 KCAL/MOL
REMARK 924 INTRA-LIGAND FREE ENERGY PREDICTED BY IDOCK:   -0.29 KCAL/MOL
REMARK 927      BINDING AFFINITY PREDICTED BY RF-SCORE:    0.00 PKD
ROOT
HETATM    1  O   UNL     1     -10.709   9.700  68.344  1.00  0.00    -0.226 OA 
HETATM    2  C   UNL     1     -10.931  10.873  68.582  1.00  0.00    -0.227 C  
HETATM    3  C   UNL     1     -10.474  12.093  67.792  1.00  0.00    -0.222 C  
HETATM    4  C   UNL     1     -11.697  11.328  69.740  1.00  0.00    -0.422 A  
HETATM    5  C   UNL     1     -10.972  13.253  68.640  1.00  0.00    -0.264 C  
HETATM    6  C   UNL     1     -12.353  10.566  70.689  1.00  0.00    -0.449 A  
HETATM    7  C   UNL     1     -11.711  12.715  69.782  1.00  0.00    -0.354 A  
HETATM    8  O   UNL     1     -10.821  14.446  68.446  1.00  0.00    -0.236 OA 
HETATM    9  C   UNL     1     -12.373  13.405  70.780  1.00  0.00    -0.433 A  
HETATM   10  C   UNL     1     -13.035  11.245  71.704  1.00  0.00    -0.537 A  
HETATM   11  C   UNL     1     -13.042  12.653  71.750  1.00  0.00    -0.461 A  
ENDROOT
BRANCH   3  12
HETATM   12  C   UNL     1     -10.992  12.068  66.370  1.00  0.00    -0.337 A  
HETATM   13  C   UNL     1     -12.635  12.833  64.745  1.00  0.00    -0.518 A  
HETATM   14  C   UNL     1     -10.787  11.468  64.020  1.00  0.00    -0.453 A  
HETATM   15  C   UNL     1     -10.308  11.414  65.332  1.00  0.00    -0.331 A  
HETATM   16  C   UNL     1     -12.159  12.783  66.055  1.00  0.00    -0.458 A  
HETATM   17  C   UNL     1     -11.948  12.176  63.727  1.00  0.00    -0.607 A  
ENDBRANCH   3  12
TORSDOF 1
ENDMDL
MODEL        7
REMARK 921   NORMALIZED FREE ENERGY PREDICTED BY IDOCK:   -6.21 KCAL/MOL
REMARK 922        TOTAL FREE ENERGY PREDICTED BY IDOCK:   -6.77 KCAL/MOL
REMARK 923 INTER-LIGAND FREE ENERGY PREDICTED BY IDOCK:   -6.41 KCAL/MOL
REMARK 924 INTRA-LIGAND FREE ENERGY PREDICTED BY IDOCK:   -0.36 KCAL/MOL
REMARK 927      BINDING AFFINITY PREDICTED BY RF-SCORE:    0.00 PKD
ROOT
HETATM    1  O   UNL     1     -10.673  11.404  68.282  1.00  0.00    -0.184 OA 
HETATM    2  C   UNL     1     -11.110  11.987  67.306  1.00  0.00    -0.285 C  
HETATM    3  C   UNL     1     -12.110  13.135  67.269  1.00  0.00    -0.329 C  
HETATM    4  C   UNL     1     -10.738  11.648  65.934  1.00  0.00    -0.328 A  
HETATM    5  C   UNL     1     -12.327  13.349  65.779  1.00  0.00    -0.460 C  
HETATM    6  C   UNL     1      -9.815  10.715  65.499  1.00  0.00    -0.316 A  
HETATM    7  C   UNL     1     -11.457  12.432  65.043  1.00  0.00    -0.378 A  
HETATM    8  O   UNL     1     -13.075  14.141  65.233  1.00  0.00    -0.763 OA 
HETATM    9  C   UNL     1     -11.292  12.314  63.675  1.00  0.00    -0.547 A  
HETATM   10  C   UNL     1      -9.628  10.585  64.120  1.00  0.00    -0.369 A  
HETATM   11  C   UNL     1     -10.363  11.376  63.215  1.00  0.00    -0.422 A  
ENDROOT
BRANCH   3  12
HETATM   12  C   UNL     1     -11.605  14.345  68.025  1.00  0.00    -0.357 A  
HETATM   13  C   UNL     1     -10.423  16.473  67.988  1.00  0.00    -0.313 A  
HETATM   14  C   UNL     1     -11.488  15.736  70.019  1.00  0.00    -0.359 A  
HETATM   15  C   UNL     1     -11.921  14.574  69.374  1.00  0.00    -0.362 A  
HETATM   16  C   UNL     1     -10.855  15.314  67.340  1.00  0.00    -0.304 A  
HETATM   17  C   UNL     1     -10.740  16.683  69.327  1.00  0.00    -0.337 A  
ENDBRANCH   3  12
TORSDOF 1
ENDMDL
MODEL        8
REMARK 921   NORMALIZED FREE ENERGY PREDICTED BY IDOCK:   -6.20 KCAL/MOL
REMARK 922        TOTAL FREE ENERGY PREDICTED BY IDOCK:   -6.75 KCAL/MOL
REMARK 923 INTER-LIGAND FREE ENERGY PREDICTED BY IDOCK:   -6.36 KCAL/MOL
REMARK 924 INTRA-LIGAND FREE ENERGY PREDICTED BY IDOCK:   -0.40 KCAL/MOL
REMARK 927      BINDING AFFINITY PREDICTED BY RF-SCORE:    0.00 PKD
ROOT
HETATM    1  O   UNL     1      -8.205  15.723  66.092  1.00  0.00    -0.179 OA 
HETATM    2  C   UNL     1      -9.317  15.534  66.555  1.00  0.00    -0.283 C  
HETATM    3  C   UNL     1      -9.929  16.151  67.805  1.00  0.00    -0.237 C  
HETATM    4  C   UNL     1     -10.289  14.618  65.962  1.00  0.00    -0.317 A  
HETATM    5  C   UNL     1     -11.274  15.450  67.906  1.00  0.00    -0.329 C  
HETATM    6  C   UNL     1     -10.183  13.894  64.788  1.00  0.00    -0.353 A  
HETATM    7  C   UNL     1     -11.425  14.558  66.755  1.00  0.00    -0.376 A  
HETATM    8  O   UNL     1     -12.126  15.576  68.768  1.00  0.00    -0.291 OA 
HETATM    9  C   UNL     1     -12.506  13.765  66.418  1.00  0.00    -0.404 A  
HETATM   10  C   UNL     1     -11.268  13.090  64.426  1.00  0.00    -0.393 A  
HETATM   11  C   UNL     1     -12.419  13.024  65.236  1.00  0.00    -0.555 A  
ENDROOT
BRANCH   3  12
HETATM   12  C   UNL     1      -9.996  17.660  67.712  1.00  0.00    -0.315 A  
HETATM   13  C   UNL     1     -10.483  19.639  66.380  1.00  0.00    -0.618 A  
HETATM   14  C   UNL     1      -9.922  19.878  68.711  1.00  0.00    -0.462 A  
HETATM   15  C   UNL     1      -9.788  18.492  68.825  1.00  0.00    -0.411 A  
HETATM   16  C   UNL     1     -10.351  18.254  66.490  1.00  0.00    -0.410 A  
HETATM   17  C   UNL     1     -10.269  20.451  67.491  1.00  0.00    -0.421 A  
ENDBRANCH   3  12
TORSDOF 1
ENDMDL
MODEL        9
REMARK 921   NORMALIZED FREE ENERGY PREDICTED BY IDOCK:   -6.16 KCAL/MOL
REMARK 922        TOTAL FREE ENERGY PREDICTED BY IDOCK:   -6.71 KCAL/MOL
REMARK 923 INTER-LIGAND FREE ENERGY PREDICTED BY IDOCK:   -6.24 KCAL/MOL
REMARK 924 INTRA-LIGAND FREE ENERGY PREDICTED BY IDOCK:   -0.47 KCAL/MOL
REMARK 927      BINDING AFFINITY PREDICTED BY RF-SCORE:    0.00 PKD
ROOT
HETATM    1  O   UNL     1      -7.894  15.697  67.637  1.00  0.00    -0.134 OA 
HETATM    2  C   UNL     1      -8.791  16.262  67.037  1.00  0.00    -0.205 C  
HETATM    3  C   UNL     1      -9.582  15.755  65.839  1.00  0.00    -0.382 C  
HETATM    4  C   UNL     1      -9.264  17.603  67.376  1.00  0.00    -0.247 A  
HETATM    5  C   UNL     1     -10.468  16.940  65.490  1.00  0.00    -0.204 C  
HETATM    6  C   UNL     1      -8.875  18.411  68.428  1.00  0.00    -0.340 A  
HETATM    7  C   UNL     1     -10.233  18.004  66.467  1.00  0.00    -0.383 A  
HETATM    8  O   UNL     1     -11.265  17.042  64.574  1.00  0.00    -1.091 OA 
HETATM    9  C   UNL     1     -10.852  19.237  66.562  1.00  0.00    -0.391 A  
HETATM   10  C   UNL     1      -9.493  19.659  68.546  1.00  0.00    -0.436 A  
HETATM   11  C   UNL     1     -10.472  20.070  67.619  1.00  0.00    -0.476 A  
ENDROOT
BRANCH   3  12
HETATM   12  C   UNL     1     -10.321  14.472  66.156  1.00  0.00    -0.305 A  
HETATM   13  C   UNL     1     -10.621  12.092  65.743  1.00  0.00    -0.301 A  
HETATM   14  C   UNL     1     -11.877  13.166  67.496  1.00  0.00    -0.409 A  
HETATM   15  C   UNL     1     -11.263  14.385  67.194  1.00  0.00    -0.337 A  
HETATM   16  C   UNL     1     -10.006  13.307  65.439  1.00  0.00    -0.205 A  
HETATM   17  C   UNL     1     -11.557  12.022  66.772  1.00  0.00    -0.391 A  
ENDBRANCH   3  12
TORSDOF 1
ENDMDL
MODEL       10
REMARK 921   NORMALIZED FREE ENERGY PREDICTED BY IDOCK:   -6.15 KCAL/MOL
REMARK 922        TOTAL FREE ENERGY PREDICTED BY IDOCK:   -6.71 KCAL/MOL
REMARK 923 INTER-LIGAND FREE ENERGY PREDICTED BY IDOCK:   -6.37 KCAL/MOL
REMARK 924 INTRA-LIGAND FREE ENERGY PREDICTED BY IDOCK:   -0.33 KCAL/MOL
REMARK 927      BINDING AFFINITY PREDICTED BY RF-SCORE:    0.00 PKD
ROOT
HETATM    1  O   UNL     1      -8.240  15.729  66.082  1.00  0.00    -0.179 OA 
HETATM    2  C   UNL     1      -9.350  15.551  66.551  1.00  0.00    -0.283 C  
HETATM    3  C   UNL     1      -9.966  16.212  67.777  1.00  0.00    -0.237 C  
HETATM    4  C   UNL     1     -10.317  14.608  65.993  1.00  0.00    -0.317 A  
HETATM    5  C   UNL     1     -11.307  15.508  67.904  1.00  0.00    -0.308 C  
HETATM    6  C   UNL     1     -10.207  13.840  64.849  1.00  0.00    -0.374 A  
HETATM    7  C   UNL     1     -11.453  14.572  66.789  1.00  0.00    -0.376 A  
HETATM    8  O   UNL     1     -12.161  15.662  68.761  1.00  0.00    -0.301 OA 
HETATM    9  C   UNL     1     -12.530  13.760  66.482  1.00  0.00    -0.356 A  
HETATM   10  C   UNL     1     -11.287  13.017  64.517  1.00  0.00    -0.377 A  
HETATM   11  C   UNL     1     -12.438  12.975  65.329  1.00  0.00    -0.555 A  
ENDROOT
BRANCH   3  12
HETATM   12  C   UNL     1     -10.042  17.716  67.626  1.00  0.00    -0.339 A  
HETATM   13  C   UNL     1      -9.924  19.916  68.663  1.00  0.00    -0.492 A  
HETATM   14  C   UNL     1     -10.161  19.735  66.272  1.00  0.00    -0.615 A  
HETATM   15  C   UNL     1     -10.157  18.341  66.374  1.00  0.00    -0.406 A  
HETATM   16  C   UNL     1      -9.919  18.524  68.768  1.00  0.00    -0.417 A  
HETATM   17  C   UNL     1     -10.044  20.521  67.415  1.00  0.00    -0.441 A  
ENDBRANCH   3  12
TORSDOF 1
ENDMDL
MODEL       11
REMARK 921   NORMALIZED FREE ENERGY PREDICTED BY IDOCK:   -6.12 KCAL/MOL
REMARK 922        TOTAL FREE ENERGY PREDICTED BY IDOCK:   -6.67 KCAL/MOL
REMARK 923 INTER-LIGAND FREE ENERGY PREDICTED BY IDOCK:   -6.40 KCAL/MOL
REMARK 924 INTRA-LIGAND FREE ENERGY PREDICTED BY IDOCK:   -0.27 KCAL/MOL
REMARK 927      BINDING AFFINITY PREDICTED BY RF-SCORE:    0.00 PKD
ROOT
HETATM    1  O   UNL     1     -11.756  10.663  68.139  1.00  0.00    -0.474 OA 
HETATM    2  C   UNL     1     -12.032  11.305  69.137  1.00  0.00    -0.336 C  
HETATM    3  C   UNL     1     -12.680  10.808  70.423  1.00  0.00    -0.346 C  
HETATM    4  C   UNL     1     -11.790  12.741  69.261  1.00  0.00    -0.358 A  
HETATM    5  C   UNL     1     -12.853  12.084  71.231  1.00  0.00    -0.265 C  
HETATM    6  C   UNL     1     -11.165  13.588  68.364  1.00  0.00    -0.309 A  
HETATM    7  C   UNL     1     -12.280  13.199  70.476  1.00  0.00    -0.405 A  
HETATM    8  O   UNL     1     -13.364  12.216  72.329  1.00  0.00    -0.500 OA 
HETATM    9  C   UNL     1     -12.177  14.526  70.847  1.00  0.00    -0.409 A  
HETATM   10  C   UNL     1     -11.044  14.934  68.724  1.00  0.00    -0.274 A  
HETATM   11  C   UNL     1     -11.548  15.399  69.955  1.00  0.00    -0.342 A  
ENDROOT
BRANCH   3  12
HETATM   12  C   UNL     1     -11.850   9.732  71.091  1.00  0.00    -0.466 A  
HETATM   13  C   UNL     1      -9.658   8.754  71.498  1.00  0.00    -0.354 A  
HETATM   14  C   UNL     1     -11.588   7.876  72.642  1.00  0.00    -0.435 A  
HETATM   15  C   UNL     1     -12.400   8.814  71.999  1.00  0.00    -0.444 A  
HETATM   16  C   UNL     1     -10.466   9.692  70.854  1.00  0.00    -0.359 A  
HETATM   17  C   UNL     1     -10.219   7.846  72.393  1.00  0.00    -0.327 A  
ENDBRANCH   3  12
TORSDOF 1
ENDMDL
MODEL       12
REMARK 921   NORMALIZED FREE ENERGY PREDICTED BY IDOCK:   -6.10 KCAL/MOL
REMARK 922        TOTAL FREE ENERGY PREDICTED BY IDOCK:   -6.65 KCAL/MOL
REMARK 923 INTER-LIGAND FREE ENERGY PREDICTED BY IDOCK:   -6.18 KCAL/MOL
REMARK 924 INTRA-LIGAND FREE ENERGY PREDICTED BY IDOCK:   -0.47 KCAL/MOL
REMARK 927      BINDING AFFINITY PREDICTED BY RF-SCORE:    0.00 PKD
ROOT
HETATM    1  O   UNL     1     -12.263  11.220  68.601  1.00  0.00    -0.562 OA 
HETATM    2  C   UNL     1     -11.582  12.226  68.508  1.00  0.00    -0.310 C  
HETATM    3  C   UNL     1     -10.524  12.547  67.461  1.00  0.00    -0.231 C  
HETATM    4  C   UNL     1     -11.660  13.340  69.450  1.00  0.00    -0.364 A  
HETATM    5  C   UNL     1      -9.967  13.879  67.939  1.00  0.00    -0.242 C  
HETATM    6  C   UNL     1     -12.524  13.504  70.518  1.00  0.00    -0.373 A  
HETATM    7  C   UNL     1     -10.710  14.298  69.127  1.00  0.00    -0.239 A  
HETATM    8  O   UNL     1      -9.064  14.537  67.451  1.00  0.00    -0.181 OA 
HETATM    9  C   UNL     1     -10.573  15.462  69.861  1.00  0.00    -0.315 A  
HETATM   10  C   UNL     1     -12.406  14.677  71.269  1.00  0.00    -0.407 A  
HETATM   11  C   UNL     1     -11.437  15.647  70.945  1.00  0.00    -0.425 A  
ENDROOT
BRANCH   3  12
HETATM   12  C   UNL     1     -11.102  12.558  66.062  1.00  0.00    -0.329 A  
HETATM   13  C   UNL     1     -11.114  11.627  63.813  1.00  0.00    -0.499 A  
HETATM   14  C   UNL     1     -12.750  13.287  64.425  1.00  0.00    -0.188 A  
HETATM   15  C   UNL     1     -12.205  13.353  65.711  1.00  0.00    -0.507 A  
HETATM   16  C   UNL     1     -10.569  11.690  65.096  1.00  0.00    -0.343 A  
HETATM   17  C   UNL     1     -12.205  12.425  63.478  1.00  0.00    -0.661 A  
ENDBRANCH   3  12
TORSDOF 1
ENDMDL
MODEL       13
REMARK 921   NORMALIZED FREE ENERGY PREDICTED BY IDOCK:   -6.04 KCAL/MOL
REMARK 922        TOTAL FREE ENERGY PREDICTED BY IDOCK:   -6.58 KCAL/MOL
REMARK 923 INTER-LIGAND FREE ENERGY PREDICTED BY IDOCK:   -6.11 KCAL/MOL
REMARK 924 INTRA-LIGAND FREE ENERGY PREDICTED BY IDOCK:   -0.47 KCAL/MOL
REMARK 927      BINDING AFFINITY PREDICTED BY RF-SCORE:    0.00 PKD
ROOT
HETATM    1  O   UNL     1     -10.595  16.198  68.778  1.00  0.00    -0.248 OA 
HETATM    2  C   UNL     1     -10.781  16.047  67.584  1.00  0.00    -0.320 C  
HETATM    3  C   UNL     1     -10.694  17.094  66.482  1.00  0.00    -0.074 C  
HETATM    4  C   UNL     1     -11.160  14.768  66.985  1.00  0.00    -0.333 A  
HETATM    5  C   UNL     1     -11.130  16.323  65.246  1.00  0.00    -0.151 C  
HETATM    6  C   UNL     1     -11.292  13.537  67.600  1.00  0.00    -0.326 A  
HETATM    7  C   UNL     1     -11.376  14.931  65.624  1.00  0.00    -0.325 A  
HETATM    8  O   UNL     1     -11.260  16.737  64.107  1.00  0.00    -1.155 OA 
HETATM    9  C   UNL     1     -11.743  13.872  64.815  1.00  0.00    -0.399 A  
HETATM   10  C   UNL     1     -11.656  12.451  66.798  1.00  0.00    -0.444 A  
HETATM   11  C   UNL     1     -11.882  12.618  65.417  1.00  0.00    -0.473 A  
ENDROOT
BRANCH   3  12
HETATM   12  C   UNL     1      -9.313  17.710  66.401  1.00  0.00    -0.265 A  
HETATM   13  C   UNL     1      -6.917  17.404  66.102  1.00  0.00    -0.298 A  
HETATM   14  C   UNL     1      -7.824  19.630  66.265  1.00  0.00    -0.331 A  
HETATM   15  C   UNL     1      -9.109  19.099  66.405  1.00  0.00    -0.362 A  
HETATM   16  C   UNL     1      -8.199  16.870  66.241  1.00  0.00    -0.344 A  
HETATM   17  C   UNL     1      -6.730  18.783  66.113  1.00  0.00    -0.264 A  
ENDBRANCH   3  12
TORSDOF 1
ENDMDL
MODEL       14
REMARK 921   NORMALIZED FREE ENERGY PREDICTED BY IDOCK:   -6.01 KCAL/MOL
REMARK 922        TOTAL FREE ENERGY PREDICTED BY IDOCK:   -6.56 KCAL/MOL
REMARK 923 INTER-LIGAND FREE ENERGY PREDICTED BY IDOCK:   -6.08 KCAL/MOL
REMARK 924 INTRA-LIGAND FREE ENERGY PREDICTED BY IDOCK:   -0.47 KCAL/MOL
REMARK 927      BINDING AFFINITY PREDICTED BY RF-SCORE:    0.00 PKD
ROOT
HETATM    1  O   UNL     1     -12.251  15.878  70.765  1.00  0.00    -0.402 OA 
HETATM    2  C   UNL     1     -11.988  15.266  69.746  1.00  0.00    -0.347 C  
HETATM    3  C   UNL     1     -11.647  15.833  68.374  1.00  0.00    -0.343 C  
HETATM    4  C   UNL     1     -11.976  13.807  69.664  1.00  0.00    -0.399 A  
HETATM    5  C   UNL     1     -11.526  14.586  67.512  1.00  0.00    -0.356 C  
HETATM    6  C   UNL     1     -12.165  12.888  70.680  1.00  0.00    -0.386 A  
HETATM    7  C   UNL     1     -11.720  13.410  68.360  1.00  0.00    -0.390 A  
HETATM    8  O   UNL     1     -11.299  14.516  66.317  1.00  0.00    -0.340 OA 
HETATM    9  C   UNL     1     -11.650  12.074  68.008  1.00  0.00    -0.407 A  
HETATM   10  C   UNL     1     -12.092  11.532  70.346  1.00  0.00    -0.471 A  
HETATM   11  C   UNL     1     -11.839  11.129  69.020  1.00  0.00    -0.418 A  
ENDROOT
BRANCH   3  12
HETATM   12  C   UNL     1     -10.410  16.705  68.418  1.00  0.00    -0.299 A  
HETATM   13  C   UNL     1      -9.420  18.917  68.190  1.00  0.00    -0.377 A  
HETATM   14  C   UNL     1      -8.057  17.070  68.921  1.00  0.00    -0.210 A  
HETATM   15  C   UNL     1      -9.161  16.217  68.834  1.00  0.00    -0.250 A  
HETATM   16  C   UNL     1     -10.524  18.069  68.103  1.00  0.00    -0.373 A  
HETATM   17  C   UNL     1      -8.187  18.418  68.600  1.00  0.00    -0.316 A  
ENDBRANCH   3  12
TORSDOF 1
ENDMDL
MODEL       15
REMARK 921   NORMALIZED FREE ENERGY PREDICTED BY IDOCK:   -5.97 KCAL/MOL
REMARK 922        TOTAL FREE ENERGY PREDICTED BY IDOCK:   -6.51 KCAL/MOL
REMARK 923 INTER-LIGAND FREE ENERGY PREDICTED BY IDOCK:   -6.03 KCAL/MOL
REMARK 924 INTRA-LIGAND FREE ENERGY PREDICTED BY IDOCK:   -0.48 KCAL/MOL
REMARK 927      BINDING AFFINITY PREDICTED BY RF-SCORE:    0.00 PKD
ROOT
HETATM    1  O   UNL     1     -11.318  16.763  64.260  1.00  0.00    -1.170 OA 
HETATM    2  C   UNL     1     -11.109  16.197  65.318  1.00  0.00    -0.181 C  
HETATM    3  C   UNL     1     -11.753  14.920  65.841  1.00  0.00    -0.175 C  
HETATM    4  C   UNL     1     -10.169  16.692  66.322  1.00  0.00    -0.344 A  
HETATM    5  C   UNL     1     -11.163  14.790  67.237  1.00  0.00    -0.346 C  
HETATM    6  C   UNL     1      -9.322  17.782  66.243  1.00  0.00    -0.219 A  
HETATM    7  C   UNL     1     -10.209  15.879  67.446  1.00  0.00    -0.270 A  
HETATM    8  O   UNL     1     -11.398  13.939  68.077  1.00  0.00    -0.261 OA 
HETATM    9  C   UNL     1      -9.411  16.124  68.548  1.00  0.00    -0.209 A  
HETATM   10  C   UNL     1      -8.501  18.042  67.344  1.00  0.00    -0.240 A  
HETATM   11  C   UNL     1      -8.547  17.221  68.488  1.00  0.00    -0.270 A  
ENDROOT
BRANCH   3  12
HETATM   12  C   UNL     1     -11.496  13.744  64.923  1.00  0.00    -0.351 A  
HETATM   13  C   UNL     1      -9.911  12.160  63.972  1.00  0.00    -0.301 A  
HETATM   14  C   UNL     1     -12.261  11.932  63.489  1.00  0.00    -0.591 A  
HETATM   15  C   UNL     1     -12.535  13.052  64.280  1.00  0.00    -0.385 A  
HETATM   16  C   UNL     1     -10.181  13.278  64.762  1.00  0.00    -0.323 A  
HETATM   17  C   UNL     1     -10.951  11.487  63.336  1.00  0.00    -0.397 A  
ENDBRANCH   3  12
TORSDOF 1
ENDMDL
MODEL       16
REMARK 921   NORMALIZED FREE ENERGY PREDICTED BY IDOCK:   -5.95 KCAL/MOL
REMARK 922        TOTAL FREE ENERGY PREDICTED BY IDOCK:   -6.49 KCAL/MOL
REMARK 923 INTER-LIGAND FREE ENERGY PREDICTED BY IDOCK:   -6.63 KCAL/MOL
REMARK 924 INTRA-LIGAND FREE ENERGY PREDICTED BY IDOCK:    0.13 KCAL/MOL
REMARK 927      BINDING AFFINITY PREDICTED BY RF-SCORE:    0.00 PKD
ROOT
HETATM    1  O   UNL     1     -13.763   9.712  72.048  1.00  0.00    -0.379 OA 
HETATM    2  C   UNL     1     -12.702   9.913  71.486  1.00  0.00    -0.415 C  
HETATM    3  C   UNL     1     -12.391  10.947  70.411  1.00  0.00    -0.436 C  
HETATM    4  C   UNL     1     -11.491   9.138  71.751  1.00  0.00    -0.452 A  
HETATM    5  C   UNL     1     -10.949  10.634  70.046  1.00  0.00    -0.259 C  
HETATM    6  C   UNL     1     -11.298   8.143  72.692  1.00  0.00    -0.450 A  
HETATM    7  C   UNL     1     -10.473   9.548  70.904  1.00  0.00    -0.382 A  
HETATM    8  O   UNL     1     -10.254  11.168  69.199  1.00  0.00    -0.208 OA 
HETATM    9  C   UNL     1      -9.215   8.977  70.950  1.00  0.00    -0.320 A  
HETATM   10  C   UNL     1     -10.030   7.557  72.759  1.00  0.00    -0.280 A  
HETATM   11  C   UNL     1      -8.998   7.969  71.893  1.00  0.00    -0.200 A  
ENDROOT
BRANCH   3  12
HETATM   12  C   UNL     1     -12.638  12.358  70.901  1.00  0.00    -0.337 A  
HETATM   13  C   UNL     1     -12.507  14.753  70.486  1.00  0.00    -0.411 A  
HETATM   14  C   UNL     1     -13.578  13.946  72.488  1.00  0.00    -0.680 A  
HETATM   15  C   UNL     1     -13.314  12.629  72.102  1.00  0.00    -0.570 A  
HETATM   16  C   UNL     1     -12.243  13.439  70.097  1.00  0.00    -0.385 A  
HETATM   17  C   UNL     1     -13.175  15.006  71.681  1.00  0.00    -0.464 A  
ENDBRANCH   3  12
TORSDOF 1
ENDMDL
MODEL       17
REMARK 921   NORMALIZED FREE ENERGY PREDICTED BY IDOCK:   -5.95 KCAL/MOL
REMARK 922        TOTAL FREE ENERGY PREDICTED BY IDOCK:   -6.49 KCAL/MOL
REMARK 923 INTER-LIGAND FREE ENERGY PREDICTED BY IDOCK:   -6.09 KCAL/MOL
REMARK 924 INTRA-LIGAND FREE ENERGY PREDICTED BY IDOCK:   -0.40 KCAL/MOL
REMARK 927      BINDING AFFINITY PREDICTED BY RF-SCORE:    0.00 PKD
ROOT
HETATM    1  O   UNL     1     -12.035  12.627  69.267  1.00  0.00    -0.292 OA 
HETATM    2  C   UNL     1     -11.520  13.695  68.987  1.00  0.00    -0.301 C  
HETATM    3  C   UNL     1     -12.127  15.087  69.101  1.00  0.00    -0.261 C  
HETATM    4  C   UNL     1     -10.168  13.818  68.446  1.00  0.00    -0.248 A  
HETATM    5  C   UNL     1     -11.047  15.978  68.509  1.00  0.00    -0.347 C  
HETATM    6  C   UNL     1      -9.232  12.822  68.237  1.00  0.00    -0.186 A  
HETATM    7  C   UNL     1      -9.896  15.147  68.155  1.00  0.00    -0.218 A  
HETATM    8  O   UNL     1     -11.073  17.185  68.342  1.00  0.00    -0.291 OA 
HETATM    9  C   UNL     1      -8.678  15.541  67.632  1.00  0.00    -0.183 A  
HETATM   10  C   UNL     1      -7.992  13.201  67.715  1.00  0.00    -0.162 A  
HETATM   11  C   UNL     1      -7.718  14.549  67.413  1.00  0.00    -0.215 A  
ENDROOT
BRANCH   3  12
HETATM   12  C   UNL     1     -12.520  15.414  70.526  1.00  0.00    -0.468 A  
HETATM   13  C   UNL     1     -14.194  15.325  72.291  1.00  0.00    -0.642 A  
HETATM   14  C   UNL     1     -11.997  16.189  72.773  1.00  0.00    -0.638 A  
HETATM   15  C   UNL     1     -11.613  15.960  71.449  1.00  0.00    -0.529 A  
HETATM   16  C   UNL     1     -13.814  15.095  70.968  1.00  0.00    -0.423 A  
HETATM   17  C   UNL     1     -13.285  15.871  73.193  1.00  0.00    -0.692 A  
ENDBRANCH   3  12
TORSDOF 1
ENDMDL
MODEL       18
REMARK 921   NORMALIZED FREE ENERGY PREDICTED BY IDOCK:   -5.92 KCAL/MOL
REMARK 922        TOTAL FREE ENERGY PREDICTED BY IDOCK:   -6.46 KCAL/MOL
REMARK 923 INTER-LIGAND FREE ENERGY PREDICTED BY IDOCK:   -6.12 KCAL/MOL
REMARK 924 INTRA-LIGAND FREE ENERGY PREDICTED BY IDOCK:   -0.35 KCAL/MOL
REMARK 927      BINDING AFFINITY PREDICTED BY RF-SCORE:    0.00 PKD
ROOT
HETATM    1  O   UNL     1     -11.172  13.672  69.497  1.00  0.00    -0.228 OA 
HETATM    2  C   UNL     1     -11.085  12.778  68.674  1.00  0.00    -0.266 C  
HETATM    3  C   UNL     1     -10.470  11.396  68.852  1.00  0.00    -0.219 C  
HETATM    4  C   UNL     1     -11.567  12.901  67.300  1.00  0.00    -0.416 A  
HETATM    5  C   UNL     1     -10.572  10.797  67.458  1.00  0.00    -0.237 C  
HETATM    6  C   UNL     1     -12.249  13.955  66.719  1.00  0.00    -0.438 A  
HETATM    7  C   UNL     1     -11.257  11.753  66.587  1.00  0.00    -0.383 A  
HETATM    8  O   UNL     1     -10.179   9.709  67.075  1.00  0.00    -0.215 OA 
HETATM    9  C   UNL     1     -11.606  11.607  65.257  1.00  0.00    -0.105 A  
HETATM   10  C   UNL     1     -12.616  13.825  65.377  1.00  0.00    -0.534 A  
HETATM   11  C   UNL     1     -12.295  12.661  64.651  1.00  0.00    -0.546 A  
ENDROOT
BRANCH   3  12
HETATM   12  C   UNL     1     -11.164  10.608  69.942  1.00  0.00    -0.378 A  
HETATM   13  C   UNL     1     -11.003   9.014  71.775  1.00  0.00    -0.443 A  
HETATM   14  C   UNL     1     -13.108  10.089  71.310  1.00  0.00    -0.493 A  
HETATM   15  C   UNL     1     -12.520  10.791  70.254  1.00  0.00    -0.395 A  
HETATM   16  C   UNL     1     -10.412   9.714  70.722  1.00  0.00    -0.375 A  
HETATM   17  C   UNL     1     -12.350   9.202  72.070  1.00  0.00    -0.448 A  
ENDBRANCH   3  12
TORSDOF 1
ENDMDL
MODEL       19
REMARK 921   NORMALIZED FREE ENERGY PREDICTED BY IDOCK:   -5.91 KCAL/MOL
REMARK 922        TOTAL FREE ENERGY PREDICTED BY IDOCK:   -6.45 KCAL/MOL
REMARK 923 INTER-LIGAND FREE ENERGY PREDICTED BY IDOCK:   -6.26 KCAL/MOL
REMARK 924 INTRA-LIGAND FREE ENERGY PREDICTED BY IDOCK:   -0.19 KCAL/MOL
REMARK 927      BINDING AFFINITY PREDICTED BY RF-SCORE:    0.00 PKD
ROOT
HETATM    1  O   UNL     1     -12.427  14.530  67.496  1.00  0.00    -0.114 OA 
HETATM    2  C   UNL     1     -11.732  13.552  67.287  1.00  0.00    -0.383 C  
HETATM    3  C   UNL     1     -10.819  12.824  68.265  1.00  0.00    -0.270 C  
HETATM    4  C   UNL     1     -11.640  12.894  65.985  1.00  0.00    -0.424 A  
HETATM    5  C   UNL     1     -10.156  11.771  67.392  1.00  0.00    -0.195 C  
HETATM    6  C   UNL     1     -12.341  13.177  64.828  1.00  0.00    -0.477 A  
HETATM    7  C   UNL     1     -10.712  11.864  66.042  1.00  0.00    -0.326 A  
HETATM    8  O   UNL     1      -9.308  10.955  67.709  1.00  0.00    -0.153 OA 
HETATM    9  C   UNL     1     -10.435  11.074  64.941  1.00  0.00    -0.371 A  
HETATM   10  C   UNL     1     -12.080  12.386  63.705  1.00  0.00    -0.648 A  
HETATM   11  C   UNL     1     -11.132  11.345  63.761  1.00  0.00    -0.417 A  
ENDROOT
BRANCH   3  12
HETATM   12  C   UNL     1     -11.585  12.284  69.454  1.00  0.00    -0.378 A  
HETATM   13  C   UNL     1     -12.807  12.726  71.513  1.00  0.00    -0.369 A  
HETATM   14  C   UNL     1     -12.684  10.476  70.658  1.00  0.00    -0.441 A  
HETATM   15  C   UNL     1     -11.920  10.925  69.577  1.00  0.00    -0.401 A  
HETATM   16  C   UNL     1     -12.045  13.178  70.434  1.00  0.00    -0.392 A  
HETATM   17  C   UNL     1     -13.127  11.375  71.624  1.00  0.00    -0.498 A  
ENDBRANCH   3  12
TORSDOF 1
ENDMDL
MODEL       20
REMARK 921   NORMALIZED FREE ENERGY PREDICTED BY IDOCK:   -5.86 KCAL/MOL
REMARK 922        TOTAL FREE ENERGY PREDICTED BY IDOCK:   -6.40 KCAL/MOL
REMARK 923 INTER-LIGAND FREE ENERGY PREDICTED BY IDOCK:   -5.92 KCAL/MOL
REMARK 924 INTRA-LIGAND FREE ENERGY PREDICTED BY IDOCK:   -0.48 KCAL/MOL
REMARK 927      BINDING AFFINITY PREDICTED BY RF-SCORE:    0.00 PKD
ROOT
HETATM    1  O   UNL     1      -8.861  11.530  68.005  1.00  0.00    -0.146 OA 
HETATM    2  C   UNL     1      -9.868  11.948  68.548  1.00  0.00    -0.183 C  
HETATM    3  C   UNL     1     -10.541  13.302  68.360  1.00  0.00    -0.263 C  
HETATM    4  C   UNL     1     -10.624  11.184  69.537  1.00  0.00    -0.137 A  
HETATM    5  C   UNL     1     -11.673  13.261  69.375  1.00  0.00    -0.325 C  
HETATM    6  C   UNL     1     -10.412   9.886  69.966  1.00  0.00    -0.331 A  
HETATM    7  C   UNL     1     -11.669  11.953  70.030  1.00  0.00    -0.366 A  
HETATM    8  O   UNL     1     -12.483  14.134  69.635  1.00  0.00    -0.310 OA 
HETATM    9  C   UNL     1     -12.545  11.464  70.981  1.00  0.00    -0.487 A  
HETATM   10  C   UNL     1     -11.292   9.371  70.923  1.00  0.00    -0.386 A  
HETATM   11  C   UNL     1     -12.348  10.155  71.428  1.00  0.00    -0.515 A  
ENDROOT
BRANCH   3  12
HETATM   12  C   UNL     1     -10.973  13.521  66.926  1.00  0.00    -0.296 A  
HETATM   13  C   UNL     1     -12.467  12.939  65.095  1.00  0.00    -0.561 A  
HETATM   14  C   UNL     1     -10.903  14.751  64.827  1.00  0.00    -0.395 A  
HETATM   15  C   UNL     1     -10.433  14.542  66.127  1.00  0.00    -0.303 A  
HETATM   16  C   UNL     1     -12.001  12.727  66.393  1.00  0.00    -0.443 A  
HETATM   17  C   UNL     1     -11.919  13.951  64.312  1.00  0.00    -0.477 A  
ENDBRANCH   3  12
TORSDOF 1
ENDMDL
MODEL       21
REMARK 921   NORMALIZED FREE ENERGY PREDICTED BY IDOCK:   -5.82 KCAL/MOL
REMARK 922        TOTAL FREE ENERGY PREDICTED BY IDOCK:   -6.35 KCAL/MOL
REMARK 923 INTER-LIGAND FREE ENERGY PREDICTED BY IDOCK:   -6.06 KCAL/MOL
REMARK 924 INTRA-LIGAND FREE ENERGY PREDICTED BY IDOCK:   -0.29 KCAL/MOL
REMARK 927      BINDING AFFINITY PREDICTED BY RF-SCORE:    0.00 PKD
ROOT
HETATM    1  O   UNL     1     -11.607  15.083  65.151  1.00  0.00    -0.348 OA 
HETATM    2  C   UNL     1     -11.681  14.329  66.105  1.00  0.00    -0.390 C  
HETATM    3  C   UNL     1     -11.941  12.828  66.095  1.00  0.00    -0.476 C  
HETATM    4  C   UNL     1     -11.544  14.770  67.492  1.00  0.00    -0.379 A  
HETATM    5  C   UNL     1     -12.019  12.487  67.574  1.00  0.00    -0.219 C  
HETATM    6  C   UNL     1     -11.241  16.033  67.966  1.00  0.00    -0.303 A  
HETATM    7  C   UNL     1     -11.754  13.700  68.349  1.00  0.00    -0.393 A  
HETATM    8  O   UNL     1     -12.249  11.406  68.087  1.00  0.00    -0.602 OA 
HETATM    9  C   UNL     1     -11.679  13.844  69.722  1.00  0.00    -0.372 A  
HETATM   10  C   UNL     1     -11.154  16.198  69.351  1.00  0.00    -0.335 A  
HETATM   11  C   UNL     1     -11.374  15.113  70.223  1.00  0.00    -0.315 A  
ENDROOT
BRANCH   3  12
HETATM   12  C   UNL     1     -10.878  12.079  65.319  1.00  0.00    -0.340 A  
HETATM   13  C   UNL     1      -8.834  10.757  65.342  1.00  0.00    -0.202 A  
HETATM   14  C   UNL     1      -9.996  11.121  63.263  1.00  0.00    -0.419 A  
HETATM   15  C   UNL     1     -10.966  11.872  63.933  1.00  0.00    -0.473 A  
HETATM   16  C   UNL     1      -9.801  11.506  66.014  1.00  0.00    -0.255 A  
HETATM   17  C   UNL     1      -8.932  10.564  63.966  1.00  0.00    -0.235 A  
ENDBRANCH   3  12
TORSDOF 1
ENDMDL
MODEL       22
REMARK 921   NORMALIZED FREE ENERGY PREDICTED BY IDOCK:   -5.81 KCAL/MOL
REMARK 922        TOTAL FREE ENERGY PREDICTED BY IDOCK:   -6.34 KCAL/MOL
REMARK 923 INTER-LIGAND FREE ENERGY PREDICTED BY IDOCK:   -5.89 KCAL/MOL
REMARK 924 INTRA-LIGAND FREE ENERGY PREDICTED BY IDOCK:   -0.45 KCAL/MOL
REMARK 927      BINDING AFFINITY PREDICTED BY RF-SCORE:    0.00 PKD
ROOT
HETATM    1  O   UNL     1     -11.035   9.716  69.285  1.00  0.00    -0.224 OA 
HETATM    2  C   UNL     1     -11.804   9.901  70.212  1.00  0.00    -0.184 C  
HETATM    3  C   UNL     1     -12.494   8.858  71.080  1.00  0.00    -0.260 C  
HETATM    4  C   UNL     1     -12.227  11.229  70.653  1.00  0.00    -0.489 A  
HETATM    5  C   UNL     1     -13.389   9.699  71.976  1.00  0.00    -0.457 C  
HETATM    6  C   UNL     1     -11.804  12.463  70.192  1.00  0.00    -0.341 A  
HETATM    7  C   UNL     1     -13.161  11.112  71.672  1.00  0.00    -0.529 A  
HETATM    8  O   UNL     1     -14.175   9.319  72.826  1.00  0.00    -0.502 OA 
HETATM    9  C   UNL     1     -13.723  12.223  72.273  1.00  0.00    -0.193 A  
HETATM   10  C   UNL     1     -12.356  13.599  70.791  1.00  0.00    -0.446 A  
HETATM   11  C   UNL     1     -13.310  13.480  71.822  1.00  0.00    -0.480 A  
ENDROOT
BRANCH   3  12
HETATM   12  C   UNL     1     -11.495   7.984  71.810  1.00  0.00    -0.324 A  
HETATM   13  C   UNL     1      -9.545   7.824  73.258  1.00  0.00    -0.346 A  
HETATM   14  C   UNL     1     -10.709   5.820  72.597  1.00  0.00    -0.280 A  
HETATM   15  C   UNL     1     -11.616   6.586  71.861  1.00  0.00    -0.357 A  
HETATM   16  C   UNL     1     -10.450   8.592  72.524  1.00  0.00    -0.303 A  
HETATM   17  C   UNL     1      -9.675   6.438  73.295  1.00  0.00    -0.174 A  
ENDBRANCH   3  12
TORSDOF 1
ENDMDL
MODEL       23
REMARK 921   NORMALIZED FREE ENERGY PREDICTED BY IDOCK:   -5.81 KCAL/MOL
REMARK 922        TOTAL FREE ENERGY PREDICTED BY IDOCK:   -6.34 KCAL/MOL
REMARK 923 INTER-LIGAND FREE ENERGY PREDICTED BY IDOCK:   -5.89 KCAL/MOL
REMARK 924 INTRA-LIGAND FREE ENERGY PREDICTED BY IDOCK:   -0.45 KCAL/MOL
REMARK 927      BINDING AFFINITY PREDICTED BY RF-SCORE:    0.00 PKD
ROOT
HETATM    1  O   UNL     1     -10.150  18.620  69.003  1.00  0.00    -0.394 OA 
HETATM    2  C   UNL     1     -10.308  17.813  68.104  1.00  0.00    -0.391 C  
HETATM    3  C   UNL     1     -10.029  17.998  66.619  1.00  0.00    -0.362 C  
HETATM    4  C   UNL     1     -10.840  16.468  68.315  1.00  0.00    -0.352 A  
HETATM    5  C   UNL     1     -10.521  16.692  66.016  1.00  0.00    -0.298 C  
HETATM    6  C   UNL     1     -11.169  15.851  69.509  1.00  0.00    -0.325 A  
HETATM    7  C   UNL     1     -10.976  15.818  67.097  1.00  0.00    -0.244 A  
HETATM    8  O   UNL     1     -10.546  16.367  64.841  1.00  0.00    -0.677 OA 
HETATM    9  C   UNL     1     -11.457  14.524  67.014  1.00  0.00    -0.383 A  
HETATM   10  C   UNL     1     -11.652  14.541  69.447  1.00  0.00    -0.343 A  
HETATM   11  C   UNL     1     -11.797  13.883  68.209  1.00  0.00    -0.412 A  
ENDROOT
BRANCH   3  12
HETATM   12  C   UNL     1      -8.573  18.319  66.356  1.00  0.00    -0.262 A  
HETATM   13  C   UNL     1      -6.857  19.998  65.954  1.00  0.00    -0.285 A  
HETATM   14  C   UNL     1      -6.228  17.686  66.207  1.00  0.00    -0.272 A  
HETATM   15  C   UNL     1      -7.569  17.338  66.393  1.00  0.00    -0.349 A  
HETATM   16  C   UNL     1      -8.197  19.655  66.140  1.00  0.00    -0.355 A  
HETATM   17  C   UNL     1      -5.873  19.014  65.989  1.00  0.00    -0.186 A  
ENDBRANCH   3  12
TORSDOF 1
ENDMDL
MODEL       24
REMARK 921   NORMALIZED FREE ENERGY PREDICTED BY IDOCK:   -5.79 KCAL/MOL
REMARK 922        TOTAL FREE ENERGY PREDICTED BY IDOCK:   -6.32 KCAL/MOL
REMARK 923 INTER-LIGAND FREE ENERGY PREDICTED BY IDOCK:   -5.85 KCAL/MOL
REMARK 924 INTRA-LIGAND FREE ENERGY PREDICTED BY IDOCK:   -0.47 KCAL/MOL
REMARK 927      BINDING AFFINITY PREDICTED BY RF-SCORE:    0.00 PKD
ROOT
HETATM    1  O   UNL     1     -10.893   8.213  69.579  1.00  0.00    -0.213 OA 
HETATM    2  C   UNL     1     -11.646   8.718  70.392  1.00  0.00    -0.088 C  
HETATM    3  C   UNL     1     -12.490   8.019  71.449  1.00  0.00    -0.320 C  
HETATM    4  C   UNL     1     -11.890  10.157  70.475  1.00  0.00    -0.408 A  
HETATM    5  C   UNL     1     -13.277   9.164  72.066  1.00  0.00    -0.441 C  
HETATM    6  C   UNL     1     -11.292  11.174  69.753  1.00  0.00    -0.354 A  
HETATM    7  C   UNL     1     -12.850  10.417  71.442  1.00  0.00    -0.556 A  
HETATM    8  O   UNL     1     -14.124   9.110  72.941  1.00  0.00    -0.478 OA 
HETATM    9  C   UNL     1     -13.265  11.705  71.726  1.00  0.00    -0.438 A  
HETATM   10  C   UNL     1     -11.693  12.484  70.030  1.00  0.00    -0.297 A  
HETATM   11  C   UNL     1     -12.674  12.747  71.007  1.00  0.00    -0.331 A  
ENDROOT
BRANCH   3  12
HETATM   12  C   UNL     1     -11.635   7.231  72.419  1.00  0.00    -0.307 A  
HETATM   13  C   UNL     1     -11.061   5.082  73.409  1.00  0.00    -0.404 A  
HETATM   14  C   UNL     1      -9.763   7.036  73.963  1.00  0.00    -0.332 A  
HETATM   15  C   UNL     1     -10.568   7.812  73.124  1.00  0.00    -0.415 A  
HETATM   16  C   UNL     1     -11.866   5.854  72.570  1.00  0.00    -0.238 A  
HETATM   17  C   UNL     1     -10.009   5.673  74.104  1.00  0.00    -0.232 A  
ENDBRANCH   3  12
TORSDOF 1
ENDMDL
MODEL       25
REMARK 921   NORMALIZED FREE ENERGY PREDICTED BY IDOCK:   -5.78 KCAL/MOL
REMARK 922        TOTAL FREE ENERGY PREDICTED BY IDOCK:   -6.31 KCAL/MOL
REMARK 923 INTER-LIGAND FREE ENERGY PREDICTED BY IDOCK:   -5.85 KCAL/MOL
REMARK 924 INTRA-LIGAND FREE ENERGY PREDICTED BY IDOCK:   -0.46 KCAL/MOL
REMARK 927      BINDING AFFINITY PREDICTED BY RF-SCORE:    0.00 PKD
ROOT
HETATM    1  O   UNL     1     -11.085  10.511  68.742  1.00  0.00    -0.234 OA 
HETATM    2  C   UNL     1     -11.741  10.549  69.768  1.00  0.00    -0.281 C  
HETATM    3  C   UNL     1     -12.280   9.380  70.581  1.00  0.00    -0.147 C  
HETATM    4  C   UNL     1     -12.158  11.795  70.409  1.00  0.00    -0.440 A  
HETATM    5  C   UNL     1     -13.091  10.066  71.668  1.00  0.00    -0.445 C  
HETATM    6  C   UNL     1     -11.843  13.093  70.052  1.00  0.00    -0.360 A  
HETATM    7  C   UNL     1     -12.956  11.515  71.509  1.00  0.00    -0.485 A  
HETATM    8  O   UNL     1     -13.752   9.552  72.553  1.00  0.00    -0.424 OA 
HETATM    9  C   UNL     1     -13.483  12.520  72.299  1.00  0.00    -0.490 A  
HETATM   10  C   UNL     1     -12.360  14.124  70.842  1.00  0.00    -0.438 A  
HETATM   11  C   UNL     1     -13.176  13.839  71.955  1.00  0.00    -0.486 A  
ENDROOT
BRANCH   3  12
HETATM   12  C   UNL     1     -11.167   8.483  71.079  1.00  0.00    -0.312 A  
HETATM   13  C   UNL     1     -10.187   6.257  71.194  1.00  0.00    -0.238 A  
HETATM   14  C   UNL     1      -9.003   8.132  72.136  1.00  0.00    -0.246 A  
HETATM   15  C   UNL     1     -10.039   8.985  71.747  1.00  0.00    -0.373 A  
HETATM   16  C   UNL     1     -11.223   7.107  70.804  1.00  0.00    -0.309 A  
HETATM   17  C   UNL     1      -9.077   6.770  71.860  1.00  0.00    -0.142 A  
ENDBRANCH   3  12
TORSDOF 1
ENDMDL
MODEL       26
REMARK 921   NORMALIZED FREE ENERGY PREDICTED BY IDOCK:   -5.78 KCAL/MOL
REMARK 922        TOTAL FREE ENERGY PREDICTED BY IDOCK:   -6.31 KCAL/MOL
REMARK 923 INTER-LIGAND FREE ENERGY PREDICTED BY IDOCK:   -5.95 KCAL/MOL
REMARK 924 INTRA-LIGAND FREE ENERGY PREDICTED BY IDOCK:   -0.36 KCAL/MOL
REMARK 927      BINDING AFFINITY PREDICTED BY RF-SCORE:    0.00 PKD
ROOT
HETATM    1  O   UNL     1     -11.044  13.834  69.342  1.00  0.00    -0.231 OA 
HETATM    2  C   UNL     1     -10.992  12.943  68.513  1.00  0.00    -0.259 C  
HETATM    3  C   UNL     1     -10.389  11.553  68.669  1.00  0.00    -0.226 C  
HETATM    4  C   UNL     1     -11.509  13.078  67.153  1.00  0.00    -0.379 A  
HETATM    5  C   UNL     1     -10.537  10.961  67.276  1.00  0.00    -0.251 C  
HETATM    6  C   UNL     1     -12.192  14.143  66.595  1.00  0.00    -0.450 A  
HETATM    7  C   UNL     1     -11.233  11.929  66.427  1.00  0.00    -0.387 A  
HETATM    8  O   UNL     1     -10.169   9.870  66.879  1.00  0.00    -0.218 OA 
HETATM    9  C   UNL     1     -11.620  11.793  65.107  1.00  0.00    -0.211 A  
HETATM   10  C   UNL     1     -12.598  14.023  65.263  1.00  0.00    -0.495 A  
HETATM   11  C   UNL     1     -12.311  12.858  64.524  1.00  0.00    -0.483 A  
ENDROOT
BRANCH   3  12
HETATM   12  C   UNL     1     -11.063  10.769  69.775  1.00  0.00    -0.346 A  
HETATM   13  C   UNL     1     -13.109  10.191  70.961  1.00  0.00    -0.458 A  
HETATM   14  C   UNL     1     -11.050   9.071  71.518  1.00  0.00    -0.419 A  
HETATM   15  C   UNL     1     -10.377   9.819  70.548  1.00  0.00    -0.348 A  
HETATM   16  C   UNL     1     -12.440  10.940  69.991  1.00  0.00    -0.332 A  
HETATM   17  C   UNL     1     -12.414   9.256  71.723  1.00  0.00    -0.458 A  
ENDBRANCH   3  12
TORSDOF 1
ENDMDL
MODEL       27
REMARK 921   NORMALIZED FREE ENERGY PREDICTED BY IDOCK:   -5.77 KCAL/MOL
REMARK 922        TOTAL FREE ENERGY PREDICTED BY IDOCK:   -6.30 KCAL/MOL
REMARK 923 INTER-LIGAND FREE ENERGY PREDICTED BY IDOCK:   -5.85 KCAL/MOL
REMARK 924 INTRA-LIGAND FREE ENERGY PREDICTED BY IDOCK:   -0.45 KCAL/MOL
REMARK 927      BINDING AFFINITY PREDICTED BY RF-SCORE:    0.00 PKD
ROOT
HETATM    1  O   UNL     1     -11.157  16.441  70.188  1.00  0.00    -0.355 OA 
HETATM    2  C   UNL     1     -10.973  16.319  68.990  1.00  0.00    -0.325 C  
HETATM    3  C   UNL     1     -10.455  17.362  68.010  1.00  0.00    -0.383 C  
HETATM    4  C   UNL     1     -11.255  15.087  68.255  1.00  0.00    -0.309 A  
HETATM    5  C   UNL     1     -10.548  16.647  66.671  1.00  0.00    -0.203 C  
HETATM    6  C   UNL     1     -11.679  13.868  68.752  1.00  0.00    -0.392 A  
HETATM    7  C   UNL     1     -11.020  15.281  66.902  1.00  0.00    -0.315 A  
HETATM    8  O   UNL     1     -10.279  17.081  65.565  1.00  0.00    -0.589 OA 
HETATM    9  C   UNL     1     -11.206  14.268  65.979  1.00  0.00    -0.324 A  
HETATM   10  C   UNL     1     -11.867  12.829  67.836  1.00  0.00    -0.392 A  
HETATM   11  C   UNL     1     -11.635  13.028  66.460  1.00  0.00    -0.407 A  
ENDROOT
BRANCH   3  12
HETATM   12  C   UNL     1      -9.070  17.846  68.384  1.00  0.00    -0.292 A  
HETATM   13  C   UNL     1      -7.584  19.711  68.874  1.00  0.00    -0.344 A  
HETATM   14  C   UNL     1      -6.784  17.451  69.120  1.00  0.00    -0.243 A  
HETATM   15  C   UNL     1      -8.030  16.963  68.718  1.00  0.00    -0.254 A  
HETATM   16  C   UNL     1      -8.829  19.227  68.473  1.00  0.00    -0.411 A  
HETATM   17  C   UNL     1      -6.561  18.823  69.198  1.00  0.00    -0.309 A  
ENDBRANCH   3  12
TORSDOF 1
ENDMDL
MODEL       28
REMARK 921   NORMALIZED FREE ENERGY PREDICTED BY IDOCK:   -5.75 KCAL/MOL
REMARK 922        TOTAL FREE ENERGY PREDICTED BY IDOCK:   -6.28 KCAL/MOL
REMARK 923 INTER-LIGAND FREE ENERGY PREDICTED BY IDOCK:   -5.80 KCAL/MOL
REMARK 924 INTRA-LIGAND FREE ENERGY PREDICTED BY IDOCK:   -0.47 KCAL/MOL
REMARK 927      BINDING AFFINITY PREDICTED BY RF-SCORE:    0.00 PKD
ROOT
HETATM    1  O   UNL     1     -11.695  16.443  68.708  1.00  0.00    -0.262 OA 
HETATM    2  C   UNL     1     -10.691  16.586  68.034  1.00  0.00    -0.343 C  
HETATM    3  C   UNL     1      -9.814  15.504  67.418  1.00  0.00    -0.224 C  
HETATM    4  C   UNL     1     -10.122  17.892  67.706  1.00  0.00    -0.350 A  
HETATM    5  C   UNL     1      -8.677  16.301  66.797  1.00  0.00    -0.231 C  
HETATM    6  C   UNL     1     -10.622  19.146  68.003  1.00  0.00    -0.405 A  
HETATM    7  C   UNL     1      -8.941  17.727  66.996  1.00  0.00    -0.258 A  
HETATM    8  O   UNL     1      -7.694  15.881  66.213  1.00  0.00    -0.076 OA 
HETATM    9  C   UNL     1      -8.200  18.808  66.558  1.00  0.00    -0.303 A  
HETATM   10  C   UNL     1      -9.890  20.254  67.563  1.00  0.00    -0.576 A  
HETATM   11  C   UNL     1      -8.688  20.086  66.848  1.00  0.00    -0.417 A  
ENDROOT
BRANCH   3  12
HETATM   12  C   UNL     1     -10.590  14.634  66.453  1.00  0.00    -0.301 A  
HETATM   13  C   UNL     1     -11.675  12.504  65.989  1.00  0.00    -0.472 A  
HETATM   14  C   UNL     1     -11.834  14.298  64.388  1.00  0.00    -0.444 A  
HETATM   15  C   UNL     1     -11.068  15.116  65.224  1.00  0.00    -0.389 A  
HETATM   16  C   UNL     1     -10.909  13.318  66.825  1.00  0.00    -0.289 A  
HETATM   17  C   UNL     1     -12.138  12.995  64.771  1.00  0.00    -0.465 A  
ENDBRANCH   3  12
TORSDOF 1
ENDMDL
MODEL       29
REMARK 921   NORMALIZED FREE ENERGY PREDICTED BY IDOCK:   -5.75 KCAL/MOL
REMARK 922        TOTAL FREE ENERGY PREDICTED BY IDOCK:   -6.27 KCAL/MOL
REMARK 923 INTER-LIGAND FREE ENERGY PREDICTED BY IDOCK:   -5.81 KCAL/MOL
REMARK 924 INTRA-LIGAND FREE ENERGY PREDICTED BY IDOCK:   -0.46 KCAL/MOL
REMARK 927      BINDING AFFINITY PREDICTED BY RF-SCORE:    0.00 PKD
ROOT
HETATM    1  O   UNL     1     -11.155  19.133  67.415  1.00  0.00    -0.426 OA 
HETATM    2  C   UNL     1     -10.140  18.566  67.779  1.00  0.00    -0.364 C  
HETATM    3  C   UNL     1     -10.003  17.156  68.338  1.00  0.00    -0.310 C  
HETATM    4  C   UNL     1      -8.818  19.189  67.757  1.00  0.00    -0.339 A  
HETATM    5  C   UNL     1      -8.528  17.075  68.698  1.00  0.00    -0.262 C  
HETATM    6  C   UNL     1      -8.464  20.435  67.272  1.00  0.00    -0.405 A  
HETATM    7  C   UNL     1      -7.880  18.326  68.304  1.00  0.00    -0.310 A  
HETATM    8  O   UNL     1      -7.929  16.149  69.217  1.00  0.00    -0.235 OA 
HETATM    9  C   UNL     1      -6.545  18.671  68.400  1.00  0.00    -0.245 A  
HETATM   10  C   UNL     1      -7.117  20.800  67.354  1.00  0.00    -0.412 A  
HETATM   11  C   UNL     1      -6.165  19.926  67.916  1.00  0.00    -0.257 A  
ENDROOT
BRANCH   3  12
HETATM   12  C   UNL     1     -10.481  16.112  67.351  1.00  0.00    -0.310 A  
HETATM   13  C   UNL     1     -11.968  14.249  66.857  1.00  0.00    -0.467 A  
HETATM   14  C   UNL     1     -10.551  15.136  65.122  1.00  0.00    -0.447 A  
HETATM   15  C   UNL     1     -10.037  16.077  66.019  1.00  0.00    -0.362 A  
HETATM   16  C   UNL     1     -11.458  15.187  67.755  1.00  0.00    -0.329 A  
HETATM   17  C   UNL     1     -11.515  14.224  65.540  1.00  0.00    -0.329 A  
ENDBRANCH   3  12
TORSDOF 1
ENDMDL
MODEL       30
REMARK 921   NORMALIZED FREE ENERGY PREDICTED BY IDOCK:   -5.73 KCAL/MOL
REMARK 922        TOTAL FREE ENERGY PREDICTED BY IDOCK:   -6.25 KCAL/MOL
REMARK 923 INTER-LIGAND FREE ENERGY PREDICTED BY IDOCK:   -6.49 KCAL/MOL
REMARK 924 INTRA-LIGAND FREE ENERGY PREDICTED BY IDOCK:    0.24 KCAL/MOL
REMARK 927      BINDING AFFINITY PREDICTED BY RF-SCORE:    0.00 PKD
ROOT
HETATM    1  O   UNL     1     -11.209  12.569  68.491  1.00  0.00    -0.244 OA 
HETATM    2  C   UNL     1     -11.789  12.290  69.525  1.00  0.00    -0.315 C  
HETATM    3  C   UNL     1     -12.064  10.909  70.103  1.00  0.00    -0.431 C  
HETATM    4  C   UNL     1     -12.366  13.293  70.418  1.00  0.00    -0.365 A  
HETATM    5  C   UNL     1     -12.902  11.216  71.334  1.00  0.00    -0.439 C  
HETATM    6  C   UNL     1     -12.300  14.671  70.320  1.00  0.00    -0.406 A  
HETATM    7  C   UNL     1     -13.026  12.668  71.466  1.00  0.00    -0.380 A  
HETATM    8  O   UNL     1     -13.404  10.430  72.119  1.00  0.00    -0.441 OA 
HETATM    9  C   UNL     1     -13.660  13.390  72.460  1.00  0.00    -0.659 A  
HETATM   10  C   UNL     1     -12.929  15.420  71.319  1.00  0.00    -0.541 A  
HETATM   11  C   UNL     1     -13.605  14.785  72.379  1.00  0.00    -0.550 A  
ENDROOT
BRANCH   3  12
HETATM   12  C   UNL     1     -10.783  10.147  70.372  1.00  0.00    -0.329 A  
HETATM   13  C   UNL     1      -9.560   8.568  71.763  1.00  0.00    -0.337 A  
HETATM   14  C   UNL     1      -8.555   9.401  69.737  1.00  0.00    -0.182 A  
HETATM   15  C   UNL     1      -9.696  10.168  69.484  1.00  0.00    -0.251 A  
HETATM   16  C   UNL     1     -10.700   9.332  71.512  1.00  0.00    -0.425 A  
HETATM   17  C   UNL     1      -8.487   8.602  70.875  1.00  0.00    -0.195 A  
ENDBRANCH   3  12
TORSDOF 1
ENDMDL
MODEL       31
REMARK 921   NORMALIZED FREE ENERGY PREDICTED BY IDOCK:   -5.72 KCAL/MOL
REMARK 922        TOTAL FREE ENERGY PREDICTED BY IDOCK:   -6.25 KCAL/MOL
REMARK 923 INTER-LIGAND FREE ENERGY PREDICTED BY IDOCK:   -5.87 KCAL/MOL
REMARK 924 INTRA-LIGAND FREE ENERGY PREDICTED BY IDOCK:   -0.37 KCAL/MOL
REMARK 927      BINDING AFFINITY PREDICTED BY RF-SCORE:    0.00 PKD
ROOT
HETATM    1  O   UNL     1     -11.406  14.940  65.093  1.00  0.00    -0.354 OA 
HETATM    2  C   UNL     1     -11.504  14.262  66.100  1.00  0.00    -0.355 C  
HETATM    3  C   UNL     1     -11.824  12.777  66.204  1.00  0.00    -0.484 C  
HETATM    4  C   UNL     1     -11.341  14.800  67.449  1.00  0.00    -0.361 A  
HETATM    5  C   UNL     1     -11.907  12.552  67.705  1.00  0.00    -0.313 C  
HETATM    6  C   UNL     1     -10.983  16.082  67.827  1.00  0.00    -0.307 A  
HETATM    7  C   UNL     1     -11.589  13.807  68.386  1.00  0.00    -0.369 A  
HETATM    8  O   UNL     1     -12.178  11.522  68.298  1.00  0.00    -0.561 OA 
HETATM    9  C   UNL     1     -11.499  14.050  69.744  1.00  0.00    -0.293 A  
HETATM   10  C   UNL     1     -10.881  16.347  69.195  1.00  0.00    -0.329 A  
HETATM   11  C   UNL     1     -11.139  15.340  70.147  1.00  0.00    -0.312 A  
ENDROOT
BRANCH   3  12
HETATM   12  C   UNL     1     -10.798  11.930  65.483  1.00  0.00    -0.343 A  
HETATM   13  C   UNL     1     -10.016  10.937  63.401  1.00  0.00    -0.414 A  
HETATM   14  C   UNL     1      -8.681  10.731  65.397  1.00  0.00    -0.190 A  
HETATM   15  C   UNL     1      -9.636  11.457  66.114  1.00  0.00    -0.242 A  
HETATM   16  C   UNL     1     -10.971  11.664  64.115  1.00  0.00    -0.442 A  
HETATM   17  C   UNL     1      -8.871  10.472  64.042  1.00  0.00    -0.206 A  
ENDBRANCH   3  12
TORSDOF 1
ENDMDL
MODEL       32
REMARK 921   NORMALIZED FREE ENERGY PREDICTED BY IDOCK:   -5.70 KCAL/MOL
REMARK 922        TOTAL FREE ENERGY PREDICTED BY IDOCK:   -6.23 KCAL/MOL
REMARK 923 INTER-LIGAND FREE ENERGY PREDICTED BY IDOCK:   -5.88 KCAL/MOL
REMARK 924 INTRA-LIGAND FREE ENERGY PREDICTED BY IDOCK:   -0.35 KCAL/MOL
REMARK 927      BINDING AFFINITY PREDICTED BY RF-SCORE:    0.00 PKD
ROOT
HETATM    1  O   UNL     1     -12.985  12.487  65.015  1.00  0.00    -0.779 OA 
HETATM    2  C   UNL     1     -12.220  13.010  65.806  1.00  0.00    -0.453 C  
HETATM    3  C   UNL     1     -11.702  12.444  67.122  1.00  0.00    -0.415 C  
HETATM    4  C   UNL     1     -11.659  14.346  65.619  1.00  0.00    -0.347 A  
HETATM    5  C   UNL     1     -10.883  13.594  67.687  1.00  0.00    -0.256 C  
HETATM    6  C   UNL     1     -11.807  15.197  64.539  1.00  0.00    -0.335 A  
HETATM    7  C   UNL     1     -10.891  14.693  66.721  1.00  0.00    -0.312 A  
HETATM    8  O   UNL     1     -10.291  13.645  68.750  1.00  0.00    -0.231 OA 
HETATM    9  C   UNL     1     -10.241  15.911  66.799  1.00  0.00    -0.283 A  
HETATM   10  C   UNL     1     -11.153  16.432  64.596  1.00  0.00    -0.202 A  
HETATM   11  C   UNL     1     -10.378  16.786  65.718  1.00  0.00    -0.322 A  
ENDROOT
BRANCH   3  12
HETATM   12  C   UNL     1     -10.940  11.152  66.917  1.00  0.00    -0.333 A  
HETATM   13  C   UNL     1     -10.375   8.925  67.720  1.00  0.00    -0.301 A  
HETATM   14  C   UNL     1      -9.577   9.654  65.567  1.00  0.00    -0.351 A  
HETATM   15  C   UNL     1     -10.216  10.885  65.744  1.00  0.00    -0.318 A  
HETATM   16  C   UNL     1     -11.015  10.152  67.900  1.00  0.00    -0.335 A  
HETATM   17  C   UNL     1      -9.657   8.676  66.553  1.00  0.00    -0.303 A  
ENDBRANCH   3  12
TORSDOF 1
ENDMDL
MODEL       33
REMARK 921   NORMALIZED FREE ENERGY PREDICTED BY IDOCK:   -5.65 KCAL/MOL
REMARK 922        TOTAL FREE ENERGY PREDICTED BY IDOCK:   -6.17 KCAL/MOL
REMARK 923 INTER-LIGAND FREE ENERGY PREDICTED BY IDOCK:   -5.79 KCAL/MOL
REMARK 924 INTRA-LIGAND FREE ENERGY PREDICTED BY IDOCK:   -0.38 KCAL/MOL
REMARK 927      BINDING AFFINITY PREDICTED BY RF-SCORE:    0.00 PKD
ROOT
HETATM    1  O   UNL     1     -12.009  11.873  66.217  1.00  0.00    -0.554 OA 
HETATM    2  C   UNL     1     -11.798  12.753  67.032  1.00  0.00    -0.361 C  
HETATM    3  C   UNL     1     -12.036  12.714  68.536  1.00  0.00    -0.258 C  
HETATM    4  C   UNL     1     -11.274  14.070  66.677  1.00  0.00    -0.330 A  
HETATM    5  C   UNL     1     -11.683  14.127  68.973  1.00  0.00    -0.324 C  
HETATM    6  C   UNL     1     -10.860  14.525  65.438  1.00  0.00    -0.362 A  
HETATM    7  C   UNL     1     -11.219  14.876  67.805  1.00  0.00    -0.329 A  
HETATM    8  O   UNL     1     -11.747  14.607  70.091  1.00  0.00    -0.268 OA 
HETATM    9  C   UNL     1     -10.755  16.177  67.747  1.00  0.00    -0.325 A  
HETATM   10  C   UNL     1     -10.380  15.836  65.359  1.00  0.00    -0.417 A  
HETATM   11  C   UNL     1     -10.331  16.656  66.504  1.00  0.00    -0.300 A  
ENDROOT
BRANCH   3  12
HETATM   12  C   UNL     1     -11.233  11.616  69.203  1.00  0.00    -0.325 A  
HETATM   13  C   UNL     1     -11.126   9.835  70.859  1.00  0.00    -0.428 A  
HETATM   14  C   UNL     1      -9.273  10.183  69.359  1.00  0.00    -0.229 A  
HETATM   15  C   UNL     1      -9.955  11.243  68.757  1.00  0.00    -0.203 A  
HETATM   16  C   UNL     1     -11.811  10.893  70.259  1.00  0.00    -0.450 A  
HETATM   17  C   UNL     1      -9.858   9.480  70.408  1.00  0.00    -0.329 A  
ENDBRANCH   3  12
TORSDOF 1
ENDMDL
MODEL       34
REMARK 921   NORMALIZED FREE ENERGY PREDICTED BY IDOCK:   -5.63 KCAL/MOL
REMARK 922        TOTAL FREE ENERGY PREDICTED BY IDOCK:   -6.15 KCAL/MOL
REMARK 923 INTER-LIGAND FREE ENERGY PREDICTED BY IDOCK:   -5.74 KCAL/MOL
REMARK 924 INTRA-LIGAND FREE ENERGY PREDICTED BY IDOCK:   -0.41 KCAL/MOL
REMARK 927      BINDING AFFINITY PREDICTED BY RF-SCORE:    0.00 PKD
ROOT
HETATM    1  O   UNL     1     -11.018  16.079  66.437  1.00  0.00    -0.218 OA 
HETATM    2  C   UNL     1     -10.746  14.898  66.558  1.00  0.00    -0.309 C  
HETATM    3  C   UNL     1     -10.029  14.215  67.716  1.00  0.00    -0.235 C  
HETATM    4  C   UNL     1     -11.062  13.891  65.547  1.00  0.00    -0.304 A  
HETATM    5  C   UNL     1      -9.900  12.778  67.236  1.00  0.00    -0.207 C  
HETATM    6  C   UNL     1     -11.763  14.052  64.365  1.00  0.00    -0.415 A  
HETATM    7  C   UNL     1     -10.559  12.658  65.934  1.00  0.00    -0.297 A  
HETATM    8  O   UNL     1      -9.362  11.841  67.799  1.00  0.00    -0.171 OA 
HETATM    9  C   UNL     1     -10.724  11.528  65.155  1.00  0.00    -0.348 A  
HETATM   10  C   UNL     1     -11.947  12.920  63.565  1.00  0.00    -0.629 A  
HETATM   11  C   UNL     1     -11.429  11.669  63.956  1.00  0.00    -0.404 A  
ENDROOT
BRANCH   3  12
HETATM   12  C   UNL     1     -10.776  14.391  69.021  1.00  0.00    -0.261 A  
HETATM   13  C   UNL     1     -11.165  15.712  71.029  1.00  0.00    -0.411 A  
HETATM   14  C   UNL     1     -12.534  13.779  70.589  1.00  0.00    -0.429 A  
HETATM   15  C   UNL     1     -11.828  13.545  69.405  1.00  0.00    -0.389 A  
HETATM   16  C   UNL     1     -10.458  15.481  69.848  1.00  0.00    -0.323 A  
HETATM   17  C   UNL     1     -12.203  14.861  71.399  1.00  0.00    -0.391 A  
ENDBRANCH   3  12
TORSDOF 1
ENDMDL
MODEL       35
REMARK 921   NORMALIZED FREE ENERGY PREDICTED BY IDOCK:   -5.59 KCAL/MOL
REMARK 922        TOTAL FREE ENERGY PREDICTED BY IDOCK:   -6.11 KCAL/MOL
REMARK 923 INTER-LIGAND FREE ENERGY PREDICTED BY IDOCK:   -5.70 KCAL/MOL
REMARK 924 INTRA-LIGAND FREE ENERGY PREDICTED BY IDOCK:   -0.41 KCAL/MOL
REMARK 927      BINDING AFFINITY PREDICTED BY RF-SCORE:    0.00 PKD
ROOT
HETATM    1  O   UNL     1      -8.752  13.745  68.673  1.00  0.00    -0.147 OA 
HETATM    2  C   UNL     1      -9.660  13.576  67.880  1.00  0.00    -0.218 C  
HETATM    3  C   UNL     1     -10.579  12.369  67.750  1.00  0.00    -0.236 C  
HETATM    4  C   UNL     1     -10.023  14.551  66.853  1.00  0.00    -0.259 A  
HETATM    5  C   UNL     1     -11.418  12.710  66.529  1.00  0.00    -0.353 C  
HETATM    6  C   UNL     1      -9.498  15.814  66.643  1.00  0.00    -0.279 A  
HETATM    7  C   UNL     1     -11.038  14.042  66.057  1.00  0.00    -0.303 A  
HETATM    8  O   UNL     1     -12.282  12.035  65.995  1.00  0.00    -0.546 OA 
HETATM    9  C   UNL     1     -11.572  14.767  65.007  1.00  0.00    -0.378 A  
HETATM   10  C   UNL     1     -10.028  16.566  65.591  1.00  0.00    -0.234 A  
HETATM   11  C   UNL     1     -11.055  16.046  64.778  1.00  0.00    -0.378 A  
ENDROOT
BRANCH   3  12
HETATM   12  C   UNL     1     -11.364  12.121  69.020  1.00  0.00    -0.329 A  
HETATM   13  C   UNL     1     -12.184  10.540  70.679  1.00  0.00    -0.446 A  
HETATM   14  C   UNL     1     -12.550  12.900  70.998  1.00  0.00    -0.376 A  
HETATM   15  C   UNL     1     -11.885  13.168  69.798  1.00  0.00    -0.386 A  
HETATM   16  C   UNL     1     -11.519  10.804  69.481  1.00  0.00    -0.365 A  
HETATM   17  C   UNL     1     -12.699  11.588  71.438  1.00  0.00    -0.469 A  
ENDBRANCH   3  12
TORSDOF 1
ENDMDL
MODEL       36
REMARK 921   NORMALIZED FREE ENERGY PREDICTED BY IDOCK:   -5.56 KCAL/MOL
REMARK 922        TOTAL FREE ENERGY PREDICTED BY IDOCK:   -6.08 KCAL/MOL
REMARK 923 INTER-LIGAND FREE ENERGY PREDICTED BY IDOCK:   -5.63 KCAL/MOL
REMARK 924 INTRA-LIGAND FREE ENERGY PREDICTED BY IDOCK:   -0.45 KCAL/MOL
REMARK 927      BINDING AFFINITY PREDICTED BY RF-SCORE:    0.00 PKD
ROOT
HETATM    1  O   UNL     1      -7.833  15.458  67.831  1.00  0.00    -0.122 OA 
HETATM    2  C   UNL     1      -8.995  15.277  68.148  1.00  0.00    -0.173 C  
HETATM    3  C   UNL     1      -9.933  16.238  68.867  1.00  0.00    -0.248 C  
HETATM    4  C   UNL     1      -9.712  14.029  67.891  1.00  0.00    -0.229 A  
HETATM    5  C   UNL     1     -11.189  15.404  69.062  1.00  0.00    -0.291 C  
HETATM    6  C   UNL     1      -9.272  12.909  67.209  1.00  0.00    -0.208 A  
HETATM    7  C   UNL     1     -10.987  14.097  68.435  1.00  0.00    -0.270 A  
HETATM    8  O   UNL     1     -12.222  15.720  69.626  1.00  0.00    -0.336 OA 
HETATM    9  C   UNL     1     -11.879  13.046  68.331  1.00  0.00    -0.370 A  
HETATM   10  C   UNL     1     -10.162  11.838  67.086  1.00  0.00    -0.236 A  
HETATM   11  C   UNL     1     -11.454  11.905  67.645  1.00  0.00    -0.387 A  
ENDROOT
BRANCH   3  12
HETATM   12  C   UNL     1     -10.128  17.521  68.088  1.00  0.00    -0.341 A  
HETATM   13  C   UNL     1     -10.088  19.955  68.052  1.00  0.00    -0.572 A  
HETATM   14  C   UNL     1     -10.495  18.738  66.012  1.00  0.00    -0.483 A  
HETATM   15  C   UNL     1     -10.384  17.530  66.707  1.00  0.00    -0.314 A  
HETATM   16  C   UNL     1      -9.975  18.751  68.748  1.00  0.00    -0.442 A  
HETATM   17  C   UNL     1     -10.347  19.948  66.684  1.00  0.00    -0.608 A  
ENDBRANCH   3  12
TORSDOF 1
ENDMDL
MODEL       37
REMARK 921   NORMALIZED FREE ENERGY PREDICTED BY IDOCK:   -5.50 KCAL/MOL
REMARK 922        TOTAL FREE ENERGY PREDICTED BY IDOCK:   -6.02 KCAL/MOL
REMARK 923 INTER-LIGAND FREE ENERGY PREDICTED BY IDOCK:   -5.70 KCAL/MOL
REMARK 924 INTRA-LIGAND FREE ENERGY PREDICTED BY IDOCK:   -0.32 KCAL/MOL
REMARK 927      BINDING AFFINITY PREDICTED BY RF-SCORE:    0.00 PKD
ROOT
HETATM    1  O   UNL     1     -11.259  15.804  64.763  1.00  0.00    -0.427 OA 
HETATM    2  C   UNL     1     -10.504  15.407  65.632  1.00  0.00    -0.372 C  
HETATM    3  C   UNL     1      -9.163  15.996  66.050  1.00  0.00    -0.375 C  
HETATM    4  C   UNL     1     -10.767  14.222  66.446  1.00  0.00    -0.297 A  
HETATM    5  C   UNL     1      -8.669  15.008  67.094  1.00  0.00    -0.220 C  
HETATM    6  C   UNL     1     -11.891  13.416  66.452  1.00  0.00    -0.441 A  
HETATM    7  C   UNL     1      -9.693  13.981  67.289  1.00  0.00    -0.237 A  
HETATM    8  O   UNL     1      -7.614  15.022  67.705  1.00  0.00    -0.144 OA 
HETATM    9  C   UNL     1      -9.686  12.917  68.172  1.00  0.00    -0.227 A  
HETATM   10  C   UNL     1     -11.907  12.338  67.342  1.00  0.00    -0.327 A  
HETATM   11  C   UNL     1     -10.813  12.089  68.194  1.00  0.00    -0.257 A  
ENDROOT
BRANCH   3  12
HETATM   12  C   UNL     1      -9.303  17.424  66.533  1.00  0.00    -0.288 A  
HETATM   13  C   UNL     1      -8.345  19.654  66.730  1.00  0.00    -0.338 A  
HETATM   14  C   UNL     1     -10.604  19.257  67.468  1.00  0.00    -0.581 A  
HETATM   15  C   UNL     1     -10.494  17.915  67.092  1.00  0.00    -0.359 A  
HETATM   16  C   UNL     1      -8.232  18.315  66.353  1.00  0.00    -0.276 A  
HETATM   17  C   UNL     1      -9.531  20.125  67.287  1.00  0.00    -0.532 A  
ENDBRANCH   3  12
TORSDOF 1
ENDMDL
MODEL       38
REMARK 921   NORMALIZED FREE ENERGY PREDICTED BY IDOCK:   -5.44 KCAL/MOL
REMARK 922        TOTAL FREE ENERGY PREDICTED BY IDOCK:   -5.95 KCAL/MOL
REMARK 923 INTER-LIGAND FREE ENERGY PREDICTED BY IDOCK:   -5.50 KCAL/MOL
REMARK 924 INTRA-LIGAND FREE ENERGY PREDICTED BY IDOCK:   -0.45 KCAL/MOL
REMARK 927      BINDING AFFINITY PREDICTED BY RF-SCORE:    0.00 PKD
ROOT
HETATM    1  O   UNL     1     -10.905  16.619  64.528  1.00  0.00    -0.847 OA 
HETATM    2  C   UNL     1     -10.883  16.627  65.746  1.00  0.00    -0.104 C  
HETATM    3  C   UNL     1     -11.405  15.561  66.700  1.00  0.00    -0.034 C  
HETATM    4  C   UNL     1     -10.340  17.732  66.534  1.00  0.00    -0.345 A  
HETATM    5  C   UNL     1     -11.186  16.191  68.067  1.00  0.00    -0.291 C  
HETATM    6  C   UNL     1      -9.708  18.878  66.085  1.00  0.00    -0.307 A  
HETATM    7  C   UNL     1     -10.527  17.485  67.886  1.00  0.00    -0.384 A  
HETATM    8  O   UNL     1     -11.478  15.739  69.160  1.00  0.00    -0.330 OA 
HETATM    9  C   UNL     1     -10.100  18.375  68.853  1.00  0.00    -0.352 A  
HETATM   10  C   UNL     1      -9.262  19.788  67.048  1.00  0.00    -0.449 A  
HETATM   11  C   UNL     1      -9.459  19.540  68.421  1.00  0.00    -0.449 A  
ENDROOT
BRANCH   3  12
HETATM   12  C   UNL     1     -10.713  14.231  66.488  1.00  0.00    -0.297 A  
HETATM   13  C   UNL     1     -10.715  12.033  65.440  1.00  0.00    -0.330 A  
HETATM   14  C   UNL     1      -8.797  12.747  66.712  1.00  0.00    -0.161 A  
HETATM   15  C   UNL     1      -9.426  13.965  66.983  1.00  0.00    -0.256 A  
HETATM   16  C   UNL     1     -11.346  13.249  65.708  1.00  0.00    -0.328 A  
HETATM   17  C   UNL     1      -9.440  11.783  65.942  1.00  0.00    -0.239 A  
ENDBRANCH   3  12
TORSDOF 1
ENDMDL
MODEL       39
REMARK 921   NORMALIZED FREE ENERGY PREDICTED BY IDOCK:   -5.43 KCAL/MOL
REMARK 922        TOTAL FREE ENERGY PREDICTED BY IDOCK:   -5.94 KCAL/MOL
REMARK 923 INTER-LIGAND FREE ENERGY PREDICTED BY IDOCK:   -5.60 KCAL/MOL
REMARK 924 INTRA-LIGAND FREE ENERGY PREDICTED BY IDOCK:   -0.34 KCAL/MOL
REMARK 927      BINDING AFFINITY PREDICTED BY RF-SCORE:    0.00 PKD
ROOT
HETATM    1  O   UNL     1     -12.065  11.554  68.359  1.00  0.00    -0.556 OA 
HETATM    2  C   UNL     1     -11.216  11.261  67.535  1.00  0.00    -0.291 C  
HETATM    3  C   UNL     1     -10.008  10.352  67.716  1.00  0.00    -0.203 C  
HETATM    4  C   UNL     1     -11.209  11.781  66.169  1.00  0.00    -0.363 A  
HETATM    5  C   UNL     1      -9.290  10.472  66.381  1.00  0.00    -0.168 C  
HETATM    6  C   UNL     1     -12.147  12.588  65.552  1.00  0.00    -0.481 A  
HETATM    7  C   UNL     1     -10.080  11.332  65.500  1.00  0.00    -0.306 A  
HETATM    8  O   UNL     1      -8.240   9.955  66.042  1.00  0.00    -0.115 OA 
HETATM    9  C   UNL     1      -9.831  11.676  64.184  1.00  0.00    -0.270 A  
HETATM   10  C   UNL     1     -11.917  12.942  64.219  1.00  0.00    -0.463 A  
HETATM   11  C   UNL     1     -10.767  12.491  63.541  1.00  0.00    -0.417 A  
ENDROOT
BRANCH   3  12
HETATM   12  C   UNL     1     -10.416   8.946  68.103  1.00  0.00    -0.254 A  
HETATM   13  C   UNL     1     -10.937   6.671  67.411  1.00  0.00    -0.434 A  
HETATM   14  C   UNL     1     -10.845   7.213  69.757  1.00  0.00    -0.261 A  
HETATM   15  C   UNL     1     -10.527   8.537  69.441  1.00  0.00    -0.223 A  
HETATM   16  C   UNL     1     -10.620   7.992  67.092  1.00  0.00    -0.367 A  
HETATM   17  C   UNL     1     -11.049   6.282  68.743  1.00  0.00    -0.424 A  
ENDBRANCH   3  12
TORSDOF 1
ENDMDL
MODEL       40
REMARK 921   NORMALIZED FREE ENERGY PREDICTED BY IDOCK:   -5.40 KCAL/MOL
REMARK 922        TOTAL FREE ENERGY PREDICTED BY IDOCK:   -5.91 KCAL/MOL
REMARK 923 INTER-LIGAND FREE ENERGY PREDICTED BY IDOCK:   -5.44 KCAL/MOL
REMARK 924 INTRA-LIGAND FREE ENERGY PREDICTED BY IDOCK:   -0.48 KCAL/MOL
REMARK 927      BINDING AFFINITY PREDICTED BY RF-SCORE:    0.00 PKD
ROOT
HETATM    1  O   UNL     1     -10.615  18.574  67.693  1.00  0.00    -0.412 OA 
HETATM    2  C   UNL     1      -9.619  17.966  67.342  1.00  0.00    -0.271 C  
HETATM    3  C   UNL     1      -9.317  16.484  67.513  1.00  0.00    -0.218 C  
HETATM    4  C   UNL     1      -8.480  18.602  66.681  1.00  0.00    -0.301 A  
HETATM    5  C   UNL     1      -7.900  16.362  66.975  1.00  0.00    -0.212 C  
HETATM    6  C   UNL     1      -8.348  19.916  66.272  1.00  0.00    -0.371 A  
HETATM    7  C   UNL     1      -7.473  17.670  66.478  1.00  0.00    -0.299 A  
HETATM    8  O   UNL     1      -7.195  15.369  66.928  1.00  0.00    -0.172 OA 
HETATM    9  C   UNL     1      -6.281  18.010  65.865  1.00  0.00    -0.283 A  
HETATM   10  C   UNL     1      -7.153  20.279  65.644  1.00  0.00    -0.284 A  
HETATM   11  C   UNL     1      -6.127  19.334  65.444  1.00  0.00    -0.272 A  
ENDROOT
BRANCH   3  12
HETATM   12  C   UNL     1     -10.345  15.617  66.817  1.00  0.00    -0.287 A  
HETATM   13  C   UNL     1     -11.349  14.851  64.736  1.00  0.00    -0.400 A  
HETATM   14  C   UNL     1     -12.039  13.869  66.826  1.00  0.00    -0.476 A  
HETATM   15  C   UNL     1     -11.145  14.696  67.512  1.00  0.00    -0.319 A  
HETATM   16  C   UNL     1     -10.456  15.678  65.418  1.00  0.00    -0.435 A  
HETATM   17  C   UNL     1     -12.140  13.946  65.440  1.00  0.00    -0.423 A  
ENDBRANCH   3  12
TORSDOF 1
ENDMDL
MODEL       41
REMARK 921   NORMALIZED FREE ENERGY PREDICTED BY IDOCK:   -5.40 KCAL/MOL
REMARK 922        TOTAL FREE ENERGY PREDICTED BY IDOCK:   -5.90 KCAL/MOL
REMARK 923 INTER-LIGAND FREE ENERGY PREDICTED BY IDOCK:   -5.45 KCAL/MOL
REMARK 924 INTRA-LIGAND FREE ENERGY PREDICTED BY IDOCK:   -0.45 KCAL/MOL
REMARK 927      BINDING AFFINITY PREDICTED BY RF-SCORE:    0.00 PKD
ROOT
HETATM    1  O   UNL     1      -8.245  15.808  66.354  1.00  0.00    -0.272 OA 
HETATM    2  C   UNL     1      -8.774  16.867  66.642  1.00  0.00    -0.247 C  
HETATM    3  C   UNL     1     -10.255  17.144  66.863  1.00  0.00    -0.315 C  
HETATM    4  C   UNL     1      -8.035  18.116  66.811  1.00  0.00    -0.262 A  
HETATM    5  C   UNL     1     -10.289  18.648  67.085  1.00  0.00    -0.401 C  
HETATM    6  C   UNL     1      -6.668  18.319  66.764  1.00  0.00    -0.217 A  
HETATM    7  C   UNL     1      -8.918  19.157  67.057  1.00  0.00    -0.327 A  
HETATM    8  O   UNL     1     -11.261  19.360  67.271  1.00  0.00    -0.362 OA 
HETATM    9  C   UNL     1      -8.477  20.452  67.259  1.00  0.00    -0.405 A  
HETATM   10  C   UNL     1      -6.200  19.620  66.973  1.00  0.00    -0.196 A  
HETATM   11  C   UNL     1      -7.098  20.678  67.215  1.00  0.00    -0.385 A  
ENDROOT
BRANCH   3  12
HETATM   12  C   UNL     1     -10.819  16.315  67.997  1.00  0.00    -0.339 A  
HETATM   13  C   UNL     1     -11.996  14.309  68.717  1.00  0.00    -0.346 A  
HETATM   14  C   UNL     1     -11.094  15.818  70.364  1.00  0.00    -0.380 A  
HETATM   15  C   UNL     1     -10.610  16.645  69.346  1.00  0.00    -0.333 A  
HETATM   16  C   UNL     1     -11.514  15.131  67.698  1.00  0.00    -0.319 A  
HETATM   17  C   UNL     1     -11.785  14.652  70.050  1.00  0.00    -0.348 A  
ENDBRANCH   3  12
TORSDOF 1
ENDMDL
MODEL       42
REMARK 921   NORMALIZED FREE ENERGY PREDICTED BY IDOCK:   -5.35 KCAL/MOL
REMARK 922        TOTAL FREE ENERGY PREDICTED BY IDOCK:   -5.85 KCAL/MOL
REMARK 923 INTER-LIGAND FREE ENERGY PREDICTED BY IDOCK:   -5.38 KCAL/MOL
REMARK 924 INTRA-LIGAND FREE ENERGY PREDICTED BY IDOCK:   -0.47 KCAL/MOL
REMARK 927      BINDING AFFINITY PREDICTED BY RF-SCORE:    0.00 PKD
ROOT
HETATM    1  O   UNL     1     -11.764   6.607  69.916  1.00  0.00    -0.361 OA 
HETATM    2  C   UNL     1     -11.039   7.006  70.811  1.00  0.00    -0.273 C  
HETATM    3  C   UNL     1     -10.180   8.263  70.832  1.00  0.00    -0.224 C  
HETATM    4  C   UNL     1     -10.852   6.291  72.072  1.00  0.00    -0.286 A  
HETATM    5  C   UNL     1      -9.443   8.149  72.157  1.00  0.00    -0.225 C  
HETATM    6  C   UNL     1     -11.481   5.140  72.509  1.00  0.00    -0.149 A  
HETATM    7  C   UNL     1      -9.912   6.950  72.852  1.00  0.00    -0.204 A  
HETATM    8  O   UNL     1      -8.604   8.902  72.620  1.00  0.00    -0.384 OA 
HETATM    9  C   UNL     1      -9.550   6.483  74.102  1.00  0.00    -0.256 A  
HETATM   10  C   UNL     1     -11.134   4.655  73.774  1.00  0.00    -0.333 A  
HETATM   11  C   UNL     1     -10.174   5.320  74.563  1.00  0.00    -0.299 A  
ENDROOT
BRANCH   3  12
HETATM   12  C   UNL     1     -11.013   9.516  70.666  1.00  0.00    -0.370 A  
HETATM   13  C   UNL     1     -12.804  10.943  71.491  1.00  0.00    -0.560 A  
HETATM   14  C   UNL     1     -11.493  11.649  69.597  1.00  0.00    -0.359 A  
HETATM   15  C   UNL     1     -10.739  10.475  69.677  1.00  0.00    -0.302 A  
HETATM   16  C   UNL     1     -12.053   9.770  71.574  1.00  0.00    -0.493 A  
HETATM   17  C   UNL     1     -12.524  11.883  70.503  1.00  0.00    -0.301 A  
ENDBRANCH   3  12
TORSDOF 1
ENDMDL
MODEL       43
REMARK 921   NORMALIZED FREE ENERGY PREDICTED BY IDOCK:   -5.32 KCAL/MOL
REMARK 922        TOTAL FREE ENERGY PREDICTED BY IDOCK:   -5.82 KCAL/MOL
REMARK 923 INTER-LIGAND FREE ENERGY PREDICTED BY IDOCK:   -5.35 KCAL/MOL
REMARK 924 INTRA-LIGAND FREE ENERGY PREDICTED BY IDOCK:   -0.47 KCAL/MOL
REMARK 927      BINDING AFFINITY PREDICTED BY RF-SCORE:    0.00 PKD
ROOT
HETATM    1  O   UNL     1      -9.149  15.152  70.052  1.00  0.00    -0.001 OA 
HETATM    2  C   UNL     1      -9.941  15.022  69.136  1.00  0.00    -0.237 C  
HETATM    3  C   UNL     1     -11.046  13.984  68.991  1.00  0.00    -0.296 C  
HETATM    4  C   UNL     1      -9.947  15.878  67.951  1.00  0.00    -0.221 A  
HETATM    5  C   UNL     1     -11.607  14.275  67.608  1.00  0.00    -0.368 C  
HETATM    6  C   UNL     1      -9.161  16.985  67.687  1.00  0.00    -0.233 A  
HETATM    7  C   UNL     1     -10.908  15.436  67.054  1.00  0.00    -0.320 A  
HETATM    8  O   UNL     1     -12.493  13.685  67.015  1.00  0.00    -0.291 OA 
HETATM    9  C   UNL     1     -11.124  16.074  65.847  1.00  0.00    -0.002 A  
HETATM   10  C   UNL     1      -9.369  17.649  66.474  1.00  0.00    -0.286 A  
HETATM   11  C   UNL     1     -10.341  17.195  65.561  1.00  0.00    -0.132 A  
ENDROOT
BRANCH   3  12
HETATM   12  C   UNL     1     -12.049  14.070  70.122  1.00  0.00    -0.419 A  
HETATM   13  C   UNL     1     -13.653  15.402  71.379  1.00  0.00    -0.604 A  
HETATM   14  C   UNL     1     -13.407  13.056  71.869  1.00  0.00    -0.539 A  
HETATM   15  C   UNL     1     -12.430  12.947  70.875  1.00  0.00    -0.383 A  
HETATM   16  C   UNL     1     -12.679  15.297  70.385  1.00  0.00    -0.400 A  
HETATM   17  C   UNL     1     -14.017  14.281  72.120  1.00  0.00    -0.618 A  
ENDBRANCH   3  12
TORSDOF 1
ENDMDL
MODEL       44
REMARK 921   NORMALIZED FREE ENERGY PREDICTED BY IDOCK:   -5.30 KCAL/MOL
REMARK 922        TOTAL FREE ENERGY PREDICTED BY IDOCK:   -5.80 KCAL/MOL
REMARK 923 INTER-LIGAND FREE ENERGY PREDICTED BY IDOCK:   -5.33 KCAL/MOL
REMARK 924 INTRA-LIGAND FREE ENERGY PREDICTED BY IDOCK:   -0.47 KCAL/MOL
REMARK 927      BINDING AFFINITY PREDICTED BY RF-SCORE:    0.00 PKD
ROOT
HETATM    1  O   UNL     1     -10.348  14.268  68.519  1.00  0.00    -0.232 OA 
HETATM    2  C   UNL     1     -10.498  14.505  67.334  1.00  0.00    -0.264 C  
HETATM    3  C   UNL     1     -10.909  15.821  66.686  1.00  0.00    -0.241 C  
HETATM    4  C   UNL     1     -10.317  13.505  66.284  1.00  0.00    -0.293 A  
HETATM    5  C   UNL     1     -11.022  15.454  65.215  1.00  0.00    -0.387 C  
HETATM    6  C   UNL     1      -9.886  12.196  66.409  1.00  0.00    -0.242 A  
HETATM    7  C   UNL     1     -10.635  14.053  65.050  1.00  0.00    -0.426 A  
HETATM    8  O   UNL     1     -11.361  16.166  64.285  1.00  0.00    -0.628 OA 
HETATM    9  C   UNL     1     -10.546  13.317  63.883  1.00  0.00    -0.075 A  
HETATM   10  C   UNL     1      -9.783  11.437  65.240  1.00  0.00    -0.276 A  
HETATM   11  C   UNL     1     -10.112  11.992  63.987  1.00  0.00    -0.361 A  
ENDROOT
BRANCH   3  12
HETATM   12  C   UNL     1      -9.928  16.931  66.998  1.00  0.00    -0.279 A  
HETATM   13  C   UNL     1      -9.449  19.010  68.171  1.00  0.00    -0.387 A  
HETATM   14  C   UNL     1      -7.702  17.913  66.925  1.00  0.00    -0.244 A  
HETATM   15  C   UNL     1      -8.593  16.899  66.563  1.00  0.00    -0.305 A  
HETATM   16  C   UNL     1     -10.341  17.999  67.812  1.00  0.00    -0.403 A  
HETATM   17  C   UNL     1      -8.130  18.967  67.728  1.00  0.00    -0.284 A  
ENDBRANCH   3  12
TORSDOF 1
ENDMDL
MODEL       45
REMARK 921   NORMALIZED FREE ENERGY PREDICTED BY IDOCK:   -5.26 KCAL/MOL
REMARK 922        TOTAL FREE ENERGY PREDICTED BY IDOCK:   -5.76 KCAL/MOL
REMARK 923 INTER-LIGAND FREE ENERGY PREDICTED BY IDOCK:   -5.74 KCAL/MOL
REMARK 924 INTRA-LIGAND FREE ENERGY PREDICTED BY IDOCK:   -0.02 KCAL/MOL
REMARK 927      BINDING AFFINITY PREDICTED BY RF-SCORE:    0.00 PKD
ROOT
HETATM    1  O   UNL     1      -9.480   9.568  68.813  1.00  0.00    -0.144 OA 
HETATM    2  C   UNL     1     -10.440   9.916  69.479  1.00  0.00    -0.241 C  
HETATM    3  C   UNL     1     -10.963  11.328  69.702  1.00  0.00    -0.214 C  
HETATM    4  C   UNL     1     -11.279   8.983  70.228  1.00  0.00    -0.232 A  
HETATM    5  C   UNL     1     -12.098  11.117  70.691  1.00  0.00    -0.379 C  
HETATM    6  C   UNL     1     -11.209   7.602  70.264  1.00  0.00    -0.230 A  
HETATM    7  C   UNL     1     -12.238   9.683  70.946  1.00  0.00    -0.368 A  
HETATM    8  O   UNL     1     -12.812  11.958  71.210  1.00  0.00    -0.380 OA 
HETATM    9  C   UNL     1     -13.167   9.037  71.740  1.00  0.00    -0.445 A  
HETATM   10  C   UNL     1     -12.144   6.929  71.057  1.00  0.00    -0.429 A  
HETATM   11  C   UNL     1     -13.113   7.641  71.791  1.00  0.00    -0.359 A  
ENDROOT
BRANCH   3  12
HETATM   12  C   UNL     1     -11.361  11.992  68.401  1.00  0.00    -0.332 A  
HETATM   13  C   UNL     1     -12.087  14.000  67.231  1.00  0.00    -0.405 A  
HETATM   14  C   UNL     1     -11.584  12.005  65.977  1.00  0.00    -0.371 A  
HETATM   15  C   UNL     1     -11.266  11.336  67.163  1.00  0.00    -0.344 A  
HETATM   16  C   UNL     1     -11.770  13.336  68.416  1.00  0.00    -0.389 A  
HETATM   17  C   UNL     1     -11.993  13.335  66.011  1.00  0.00    -0.473 A  
ENDBRANCH   3  12
TORSDOF 1
ENDMDL
MODEL       46
REMARK 921   NORMALIZED FREE ENERGY PREDICTED BY IDOCK:   -5.24 KCAL/MOL
REMARK 922        TOTAL FREE ENERGY PREDICTED BY IDOCK:   -5.74 KCAL/MOL
REMARK 923 INTER-LIGAND FREE ENERGY PREDICTED BY IDOCK:   -5.27 KCAL/MOL
REMARK 924 INTRA-LIGAND FREE ENERGY PREDICTED BY IDOCK:   -0.47 KCAL/MOL
REMARK 927      BINDING AFFINITY PREDICTED BY RF-SCORE:    0.00 PKD
ROOT
HETATM    1  O   UNL     1     -12.183  13.185  70.789  1.00  0.00    -0.361 OA 
HETATM    2  C   UNL     1     -11.852  12.759  69.697  1.00  0.00    -0.317 C  
HETATM    3  C   UNL     1     -11.811  13.509  68.372  1.00  0.00    -0.408 C  
HETATM    4  C   UNL     1     -11.436  11.378  69.464  1.00  0.00    -0.381 A  
HETATM    5  C   UNL     1     -11.424  12.424  67.380  1.00  0.00    -0.352 C  
HETATM    6  C   UNL     1     -11.264  10.365  70.390  1.00  0.00    -0.399 A  
HETATM    7  C   UNL     1     -11.198  11.178  68.112  1.00  0.00    -0.356 A  
HETATM    8  O   UNL     1     -11.296  12.519  66.171  1.00  0.00    -0.307 OA 
HETATM    9  C   UNL     1     -10.787   9.953  67.620  1.00  0.00    -0.318 A  
HETATM   10  C   UNL     1     -10.842   9.120  69.913  1.00  0.00    -0.242 A  
HETATM   11  C   UNL     1     -10.608   8.915  68.539  1.00  0.00    -0.183 A  
ENDROOT
BRANCH   3  12
HETATM   12  C   UNL     1     -10.873  14.695  68.426  1.00  0.00    -0.250 A  
HETATM   13  C   UNL     1     -10.580  17.112  68.447  1.00  0.00    -0.371 A  
HETATM   14  C   UNL     1      -8.667  15.676  68.738  1.00  0.00    -0.197 A  
HETATM   15  C   UNL     1      -9.491  14.552  68.631  1.00  0.00    -0.205 A  
HETATM   16  C   UNL     1     -11.405  15.992  68.341  1.00  0.00    -0.355 A  
HETATM   17  C   UNL     1      -9.211  16.954  68.647  1.00  0.00    -0.265 A  
ENDBRANCH   3  12
TORSDOF 1
ENDMDL
MODEL       47
REMARK 921   NORMALIZED FREE ENERGY PREDICTED BY IDOCK:   -5.23 KCAL/MOL
REMARK 922        TOTAL FREE ENERGY PREDICTED BY IDOCK:   -5.73 KCAL/MOL
REMARK 923 INTER-LIGAND FREE ENERGY PREDICTED BY IDOCK:   -5.71 KCAL/MOL
REMARK 924 INTRA-LIGAND FREE ENERGY PREDICTED BY IDOCK:   -0.02 KCAL/MOL
REMARK 927      BINDING AFFINITY PREDICTED BY RF-SCORE:    0.00 PKD
ROOT
HETATM    1  O   UNL     1     -12.198  11.790  68.145  1.00  0.00    -0.507 OA 
HETATM    2  C   UNL     1     -11.433  12.730  68.269  1.00  0.00    -0.314 C  
HETATM    3  C   UNL     1     -11.759  14.153  68.703  1.00  0.00    -0.385 C  
HETATM    4  C   UNL     1     -10.001  12.644  67.986  1.00  0.00    -0.220 A  
HETATM    5  C   UNL     1     -10.423  14.866  68.561  1.00  0.00    -0.242 C  
HETATM    6  C   UNL     1      -9.262  11.533  67.626  1.00  0.00    -0.171 A  
HETATM    7  C   UNL     1      -9.414  13.891  68.143  1.00  0.00    -0.207 A  
HETATM    8  O   UNL     1     -10.173  16.042  68.757  1.00  0.00    -0.209 OA 
HETATM    9  C   UNL     1      -8.061  14.088  67.939  1.00  0.00    -0.156 A  
HETATM   10  C   UNL     1      -7.890  11.709  67.421  1.00  0.00    -0.147 A  
HETATM   11  C   UNL     1      -7.295  12.978  67.574  1.00  0.00    -0.154 A  
ENDROOT
BRANCH   3  12
HETATM   12  C   UNL     1     -12.363  14.193  70.090  1.00  0.00    -0.413 A  
HETATM   13  C   UNL     1     -13.433  15.487  71.853  1.00  0.00    -0.576 A  
HETATM   14  C   UNL     1     -13.177  13.105  72.110  1.00  0.00    -0.561 A  
HETATM   15  C   UNL     1     -12.557  13.034  70.859  1.00  0.00    -0.364 A  
HETATM   16  C   UNL     1     -12.815  15.419  70.603  1.00  0.00    -0.484 A  
HETATM   17  C   UNL     1     -13.614  14.330  72.606  1.00  0.00    -0.601 A  
ENDBRANCH   3  12
TORSDOF 1
ENDMDL
MODEL       48
REMARK 921   NORMALIZED FREE ENERGY PREDICTED BY IDOCK:   -5.18 KCAL/MOL
REMARK 922        TOTAL FREE ENERGY PREDICTED BY IDOCK:   -5.68 KCAL/MOL
REMARK 923 INTER-LIGAND FREE ENERGY PREDICTED BY IDOCK:   -5.22 KCAL/MOL
REMARK 924 INTRA-LIGAND FREE ENERGY PREDICTED BY IDOCK:   -0.46 KCAL/MOL
REMARK 927      BINDING AFFINITY PREDICTED BY RF-SCORE:    0.00 PKD
ROOT
HETATM    1  O   UNL     1     -10.406  18.496  69.269  1.00  0.00    -0.174 OA 
HETATM    2  C   UNL     1      -9.816  17.988  68.332  1.00  0.00    -0.366 C  
HETATM    3  C   UNL     1      -8.551  18.482  67.642  1.00  0.00    -0.276 C  
HETATM    4  C   UNL     1     -10.263  16.764  67.669  1.00  0.00    -0.289 A  
HETATM    5  C   UNL     1      -8.378  17.491  66.502  1.00  0.00    -0.270 C  
HETATM    6  C   UNL     1     -11.326  15.945  68.002  1.00  0.00    -0.284 A  
HETATM    7  C   UNL     1      -9.433  16.481  66.594  1.00  0.00    -0.278 A  
HETATM    8  O   UNL     1      -7.521  17.483  65.635  1.00  0.00    -0.462 OA 
HETATM    9  C   UNL     1      -9.632  15.371  65.795  1.00  0.00    -0.368 A  
HETATM   10  C   UNL     1     -11.541  14.813  67.210  1.00  0.00    -0.385 A  
HETATM   11  C   UNL     1     -10.702  14.530  66.114  1.00  0.00    -0.310 A  
ENDROOT
BRANCH   3  12
HETATM   12  C   UNL     1      -7.384  18.566  68.602  1.00  0.00    -0.313 A  
HETATM   13  C   UNL     1      -6.002  19.923  70.078  1.00  0.00    -0.356 A  
HETATM   14  C   UNL     1      -5.649  17.542  69.968  1.00  0.00    -0.248 A  
HETATM   15  C   UNL     1      -6.680  17.429  69.032  1.00  0.00    -0.243 A  
HETATM   16  C   UNL     1      -7.033  19.814  69.144  1.00  0.00    -0.364 A  
HETATM   17  C   UNL     1      -5.311  18.787  70.490  1.00  0.00    -0.236 A  
ENDBRANCH   3  12
TORSDOF 1
ENDMDL
MODEL       49
REMARK 921   NORMALIZED FREE ENERGY PREDICTED BY IDOCK:   -5.17 KCAL/MOL
REMARK 922        TOTAL FREE ENERGY PREDICTED BY IDOCK:   -5.66 KCAL/MOL
REMARK 923 INTER-LIGAND FREE ENERGY PREDICTED BY IDOCK:   -5.66 KCAL/MOL
REMARK 924 INTRA-LIGAND FREE ENERGY PREDICTED BY IDOCK:   -0.00 KCAL/MOL
REMARK 927      BINDING AFFINITY PREDICTED BY RF-SCORE:    0.00 PKD
ROOT
HETATM    1  O   UNL     1     -11.426   9.756  71.639  1.00  0.00    -0.364 OA 
HETATM    2  C   UNL     1     -11.286  10.211  70.518  1.00  0.00    -0.336 C  
HETATM    3  C   UNL     1     -12.243  11.108  69.744  1.00  0.00    -0.369 C  
HETATM    4  C   UNL     1     -10.120   9.939  69.679  1.00  0.00    -0.254 A  
HETATM    5  C   UNL     1     -11.563  11.243  68.391  1.00  0.00    -0.308 C  
HETATM    6  C   UNL     1      -8.979   9.227  69.999  1.00  0.00    -0.216 A  
HETATM    7  C   UNL     1     -10.287  10.529  68.435  1.00  0.00    -0.199 A  
HETATM    8  O   UNL     1     -11.959  11.840  67.405  1.00  0.00    -0.617 OA 
HETATM    9  C   UNL     1      -9.324  10.427  67.448  1.00  0.00    -0.162 A  
HETATM   10  C   UNL     1      -7.990   9.118  69.017  1.00  0.00    -0.101 A  
HETATM   11  C   UNL     1      -8.162   9.711  67.751  1.00  0.00    -0.114 A  
ENDROOT
BRANCH   3  12
HETATM   12  C   UNL     1     -12.500  12.413  70.467  1.00  0.00    -0.270 A  
HETATM   13  C   UNL     1     -12.413  14.845  70.456  1.00  0.00    -0.419 A  
HETATM   14  C   UNL     1     -13.430  13.697  72.314  1.00  0.00    -0.652 A  
HETATM   15  C   UNL     1     -13.156  12.468  71.708  1.00  0.00    -0.450 A  
HETATM   16  C   UNL     1     -12.138  13.620  69.848  1.00  0.00    -0.406 A  
HETATM   17  C   UNL     1     -13.059  14.884  71.688  1.00  0.00    -0.424 A  
ENDBRANCH   3  12
TORSDOF 1
ENDMDL
MODEL       50
REMARK 921   NORMALIZED FREE ENERGY PREDICTED BY IDOCK:   -5.15 KCAL/MOL
REMARK 922        TOTAL FREE ENERGY PREDICTED BY IDOCK:   -5.65 KCAL/MOL
REMARK 923 INTER-LIGAND FREE ENERGY PREDICTED BY IDOCK:   -5.18 KCAL/MOL
REMARK 924 INTRA-LIGAND FREE ENERGY PREDICTED BY IDOCK:   -0.47 KCAL/MOL
REMARK 927      BINDING AFFINITY PREDICTED BY RF-SCORE:    0.00 PKD
ROOT
HETATM    1  O   UNL     1      -7.259  15.001  67.291  1.00  0.00    -0.202 OA 
HETATM    2  C   UNL     1      -7.777  16.097  67.166  1.00  0.00    -0.194 C  
HETATM    3  C   UNL     1      -8.825  16.528  66.149  1.00  0.00    -0.342 C  
HETATM    4  C   UNL     1      -7.442  17.245  68.006  1.00  0.00    -0.195 A  
HETATM    5  C   UNL     1      -8.984  18.013  66.434  1.00  0.00    -0.230 C  
HETATM    6  C   UNL     1      -6.589  17.294  69.094  1.00  0.00    -0.239 A  
HETATM    7  C   UNL     1      -8.135  18.365  67.572  1.00  0.00    -0.253 A  
HETATM    8  O   UNL     1      -9.690  18.819  65.854  1.00  0.00    -0.485 OA 
HETATM    9  C   UNL     1      -8.002  19.590  68.199  1.00  0.00    -0.353 A  
HETATM   10  C   UNL     1      -6.446  18.522  69.747  1.00  0.00    -0.114 A  
HETATM   11  C   UNL     1      -7.145  19.661  69.301  1.00  0.00    -0.366 A  
ENDROOT
BRANCH   3  12
HETATM   12  C   UNL     1     -10.094  15.711  66.269  1.00  0.00    -0.316 A  
HETATM   13  C   UNL     1     -11.714  14.225  65.223  1.00  0.00    -0.357 A  
HETATM   14  C   UNL     1     -11.899  14.728  67.572  1.00  0.00    -0.326 A  
HETATM   15  C   UNL     1     -10.766  15.542  67.490  1.00  0.00    -0.300 A  
HETATM   16  C   UNL     1     -10.582  15.036  65.138  1.00  0.00    -0.440 A  
HETATM   17  C   UNL     1     -12.372  14.071  66.440  1.00  0.00    -0.468 A  
ENDBRANCH   3  12
TORSDOF 1
ENDMDL
MODEL       51
REMARK 921   NORMALIZED FREE ENERGY PREDICTED BY IDOCK:   -5.15 KCAL/MOL
REMARK 922        TOTAL FREE ENERGY PREDICTED BY IDOCK:   -5.65 KCAL/MOL
REMARK 923 INTER-LIGAND FREE ENERGY PREDICTED BY IDOCK:   -5.23 KCAL/MOL
REMARK 924 INTRA-LIGAND FREE ENERGY PREDICTED BY IDOCK:   -0.42 KCAL/MOL
REMARK 927      BINDING AFFINITY PREDICTED BY RF-SCORE:    0.00 PKD
ROOT
HETATM    1  O   UNL     1      -8.016  12.967  67.110  1.00  0.00    -0.167 OA 
HETATM    2  C   UNL     1      -9.109  13.503  67.074  1.00  0.00    -0.244 C  
HETATM    3  C   UNL     1      -9.612  14.664  67.921  1.00  0.00    -0.212 C  
HETATM    4  C   UNL     1     -10.182  13.082  66.175  1.00  0.00    -0.288 A  
HETATM    5  C   UNL     1     -11.062  14.800  67.485  1.00  0.00    -0.319 C  
HETATM    6  C   UNL     1     -10.147  12.110  65.192  1.00  0.00    -0.288 A  
HETATM    7  C   UNL     1     -11.324  13.828  66.423  1.00  0.00    -0.327 A  
HETATM    8  O   UNL     1     -11.905  15.574  67.904  1.00  0.00    -0.240 OA 
HETATM    9  C   UNL     1     -12.490  13.633  65.705  1.00  0.00    -0.540 A  
HETATM   10  C   UNL     1     -11.313  11.901  64.450  1.00  0.00    -0.395 A  
HETATM   11  C   UNL     1     -12.476  12.655  64.706  1.00  0.00    -0.555 A  
ENDROOT
BRANCH   3  12
HETATM   12  C   UNL     1      -8.765  15.905  67.733  1.00  0.00    -0.173 A  
HETATM   13  C   UNL     1      -7.625  17.430  66.216  1.00  0.00    -0.348 A  
HETATM   14  C   UNL     1      -7.704  17.928  68.573  1.00  0.00    -0.299 A  
HETATM   15  C   UNL     1      -8.434  16.758  68.798  1.00  0.00    -0.253 A  
HETATM   16  C   UNL     1      -8.354  16.262  66.438  1.00  0.00    -0.365 A  
HETATM   17  C   UNL     1      -7.300  18.264  67.283  1.00  0.00    -0.218 A  
ENDBRANCH   3  12
TORSDOF 1
ENDMDL
MODEL       52
REMARK 921   NORMALIZED FREE ENERGY PREDICTED BY IDOCK:   -5.15 KCAL/MOL
REMARK 922        TOTAL FREE ENERGY PREDICTED BY IDOCK:   -5.64 KCAL/MOL
REMARK 923 INTER-LIGAND FREE ENERGY PREDICTED BY IDOCK:   -5.18 KCAL/MOL
REMARK 924 INTRA-LIGAND FREE ENERGY PREDICTED BY IDOCK:   -0.47 KCAL/MOL
REMARK 927      BINDING AFFINITY PREDICTED BY RF-SCORE:    0.00 PKD
ROOT
HETATM    1  O   UNL     1     -11.126  12.946  68.031  1.00  0.00    -0.232 OA 
HETATM    2  C   UNL     1     -11.663  12.380  68.967  1.00  0.00    -0.323 C  
HETATM    3  C   UNL     1     -11.982  10.898  69.108  1.00  0.00    -0.359 C  
HETATM    4  C   UNL     1     -12.134  13.075  70.164  1.00  0.00    -0.377 A  
HETATM    5  C   UNL     1     -12.734  10.836  70.428  1.00  0.00    -0.269 C  
HETATM    6  C   UNL     1     -11.997  14.412  70.491  1.00  0.00    -0.395 A  
HETATM    7  C   UNL     1     -12.769  12.178  71.010  1.00  0.00    -0.322 A  
HETATM    8  O   UNL     1     -13.234   9.863  70.965  1.00  0.00    -0.373 OA 
HETATM    9  C   UNL     1     -13.307  12.577  72.220  1.00  0.00    -0.475 A  
HETATM   10  C   UNL     1     -12.528  14.834  71.713  1.00  0.00    -0.410 A  
HETATM   11  C   UNL     1     -13.180  13.925  72.570  1.00  0.00    -0.601 A  
ENDROOT
BRANCH   3  12
HETATM   12  C   UNL     1     -10.733  10.046  69.040  1.00  0.00    -0.244 A  
HETATM   13  C   UNL     1      -9.496   8.258  67.944  1.00  0.00    -0.163 A  
HETATM   14  C   UNL     1      -8.457   9.514  69.719  1.00  0.00    -0.185 A  
HETATM   15  C   UNL     1      -9.615  10.284  69.856  1.00  0.00    -0.082 A  
HETATM   16  C   UNL     1     -10.654   9.025  68.078  1.00  0.00    -0.242 A  
HETATM   17  C   UNL     1      -8.397   8.503  68.764  1.00  0.00    -0.122 A  
ENDBRANCH   3  12
TORSDOF 1
ENDMDL
MODEL       53
REMARK 921   NORMALIZED FREE ENERGY PREDICTED BY IDOCK:   -5.14 KCAL/MOL
REMARK 922        TOTAL FREE ENERGY PREDICTED BY IDOCK:   -5.63 KCAL/MOL
REMARK 923 INTER-LIGAND FREE ENERGY PREDICTED BY IDOCK:   -5.30 KCAL/MOL
REMARK 924 INTRA-LIGAND FREE ENERGY PREDICTED BY IDOCK:   -0.33 KCAL/MOL
REMARK 927      BINDING AFFINITY PREDICTED BY RF-SCORE:    0.00 PKD
ROOT
HETATM    1  O   UNL     1      -9.753  11.331  67.843  1.00  0.00    -0.170 OA 
HETATM    2  C   UNL     1      -9.931  11.152  66.651  1.00  0.00    -0.207 C  
HETATM    3  C   UNL     1      -9.228  10.156  65.738  1.00  0.00    -0.221 C  
HETATM    4  C   UNL     1     -10.886  11.920  65.856  1.00  0.00    -0.342 A  
HETATM    5  C   UNL     1      -9.804  10.485  64.370  1.00  0.00    -0.341 C  
HETATM    6  C   UNL     1     -11.782  12.884  66.283  1.00  0.00    -0.457 A  
HETATM    7  C   UNL     1     -10.804  11.542  64.524  1.00  0.00    -0.390 A  
HETATM    8  O   UNL     1      -9.526   9.982  63.295  1.00  0.00    -0.295 OA 
HETATM    9  C   UNL     1     -11.606  12.115  63.554  1.00  0.00    -0.562 A  
HETATM   10  C   UNL     1     -12.607  13.471  65.320  1.00  0.00    -0.517 A  
HETATM   11  C   UNL     1     -12.518  13.091  63.966  1.00  0.00    -0.369 A  
ENDROOT
BRANCH   3  12
HETATM   12  C   UNL     1      -9.438   8.728  66.196  1.00  0.00    -0.315 A  
HETATM   13  C   UNL     1      -8.558   6.470  66.426  1.00  0.00    -0.136 A  
HETATM   14  C   UNL     1     -10.706   7.015  67.371  1.00  0.00    -0.383 A  
HETATM   15  C   UNL     1     -10.579   8.328  66.911  1.00  0.00    -0.302 A  
HETATM   16  C   UNL     1      -8.427   7.781  65.966  1.00  0.00    -0.146 A  
HETATM   17  C   UNL     1      -9.697   6.088  67.130  1.00  0.00    -0.148 A  
ENDBRANCH   3  12
TORSDOF 1
ENDMDL
MODEL       54
REMARK 921   NORMALIZED FREE ENERGY PREDICTED BY IDOCK:   -5.11 KCAL/MOL
REMARK 922        TOTAL FREE ENERGY PREDICTED BY IDOCK:   -5.60 KCAL/MOL
REMARK 923 INTER-LIGAND FREE ENERGY PREDICTED BY IDOCK:   -5.12 KCAL/MOL
REMARK 924 INTRA-LIGAND FREE ENERGY PREDICTED BY IDOCK:   -0.48 KCAL/MOL
REMARK 927      BINDING AFFINITY PREDICTED BY RF-SCORE:    0.00 PKD
ROOT
HETATM    1  O   UNL     1     -11.892  11.667  69.421  1.00  0.00    -0.299 OA 
HETATM    2  C   UNL     1     -11.520  11.898  68.284  1.00  0.00    -0.311 C  
HETATM    3  C   UNL     1     -11.666  13.192  67.495  1.00  0.00    -0.414 C  
HETATM    4  C   UNL     1     -10.855  10.908  67.439  1.00  0.00    -0.333 A  
HETATM    5  C   UNL     1     -11.109  12.821  66.129  1.00  0.00    -0.290 C  
HETATM    6  C   UNL     1     -10.464   9.623  67.767  1.00  0.00    -0.309 A  
HETATM    7  C   UNL     1     -10.626  11.441  66.179  1.00  0.00    -0.316 A  
HETATM    8  O   UNL     1     -11.040  13.516  65.130  1.00  0.00    -0.301 OA 
HETATM    9  C   UNL     1     -10.004  10.711  65.183  1.00  0.00    -0.366 A  
HETATM   10  C   UNL     1      -9.826   8.870  66.776  1.00  0.00    -0.308 A  
HETATM   11  C   UNL     1      -9.601   9.409  65.494  1.00  0.00    -0.328 A  
ENDROOT
BRANCH   3  12
HETATM   12  C   UNL     1     -10.970  14.349  68.179  1.00  0.00    -0.265 A  
HETATM   13  C   UNL     1      -8.897  15.355  68.965  1.00  0.00    -0.231 A  
HETATM   14  C   UNL     1     -10.958  16.594  69.120  1.00  0.00    -0.276 A  
HETATM   15  C   UNL     1     -11.649  15.523  68.547  1.00  0.00    -0.379 A  
HETATM   16  C   UNL     1      -9.584  14.284  68.392  1.00  0.00    -0.221 A  
HETATM   17  C   UNL     1      -9.584  16.510  69.328  1.00  0.00    -0.176 A  
ENDBRANCH   3  12
TORSDOF 1
ENDMDL
MODEL       55
REMARK 921   NORMALIZED FREE ENERGY PREDICTED BY IDOCK:   -5.09 KCAL/MOL
REMARK 922        TOTAL FREE ENERGY PREDICTED BY IDOCK:   -5.58 KCAL/MOL
REMARK 923 INTER-LIGAND FREE ENERGY PREDICTED BY IDOCK:   -5.11 KCAL/MOL
REMARK 924 INTRA-LIGAND FREE ENERGY PREDICTED BY IDOCK:   -0.47 KCAL/MOL
REMARK 927      BINDING AFFINITY PREDICTED BY RF-SCORE:    0.00 PKD
ROOT
HETATM    1  O   UNL     1     -10.487  13.843  64.666  1.00  0.00    -0.425 OA 
HETATM    2  C   UNL     1     -10.811  14.100  65.812  1.00  0.00    -0.297 C  
HETATM    3  C   UNL     1     -11.461  13.176  66.832  1.00  0.00    -0.384 C  
HETATM    4  C   UNL     1     -10.636  15.418  66.421  1.00  0.00    -0.307 A  
HETATM    5  C   UNL     1     -11.707  14.097  68.017  1.00  0.00    -0.359 C  
HETATM    6  C   UNL     1     -10.031  16.539  65.883  1.00  0.00    -0.342 A  
HETATM    7  C   UNL     1     -11.169  15.420  67.701  1.00  0.00    -0.311 A  
HETATM    8  O   UNL     1     -12.245  13.832  69.078  1.00  0.00    -0.343 OA 
HETATM    9  C   UNL     1     -11.132  16.547  68.502  1.00  0.00    -0.335 A  
HETATM   10  C   UNL     1      -9.977  17.687  66.679  1.00  0.00    -0.328 A  
HETATM   11  C   UNL     1     -10.525  17.692  67.977  1.00  0.00    -0.395 A  
ENDROOT
BRANCH   3  12
HETATM   12  C   UNL     1     -10.598  11.967  67.126  1.00  0.00    -0.255 A  
HETATM   13  C   UNL     1      -8.457  11.076  67.866  1.00  0.00    -0.128 A  
HETATM   14  C   UNL     1     -10.286   9.572  67.423  1.00  0.00    -0.319 A  
HETATM   15  C   UNL     1     -11.100  10.657  67.083  1.00  0.00    -0.267 A  
HETATM   16  C   UNL     1      -9.266  12.161  67.528  1.00  0.00    -0.182 A  
HETATM   17  C   UNL     1      -8.967   9.781  67.814  1.00  0.00    -0.132 A  
ENDBRANCH   3  12
TORSDOF 1
ENDMDL
MODEL       56
REMARK 921   NORMALIZED FREE ENERGY PREDICTED BY IDOCK:   -5.08 KCAL/MOL
REMARK 922        TOTAL FREE ENERGY PREDICTED BY IDOCK:   -5.57 KCAL/MOL
REMARK 923 INTER-LIGAND FREE ENERGY PREDICTED BY IDOCK:   -5.15 KCAL/MOL
REMARK 924 INTRA-LIGAND FREE ENERGY PREDICTED BY IDOCK:   -0.43 KCAL/MOL
REMARK 927      BINDING AFFINITY PREDICTED BY RF-SCORE:    0.00 PKD
ROOT
HETATM    1  O   UNL     1      -8.698   9.120  71.884  1.00  0.00    -0.336 OA 
HETATM    2  C   UNL     1      -9.804   8.610  71.911  1.00  0.00    -0.314 C  
HETATM    3  C   UNL     1     -11.141   9.254  71.570  1.00  0.00    -0.443 C  
HETATM    4  C   UNL     1     -10.042   7.227  72.317  1.00  0.00    -0.219 A  
HETATM    5  C   UNL     1     -12.140   8.154  71.895  1.00  0.00    -0.323 C  
HETATM    6  C   UNL     1      -9.113   6.257  72.649  1.00  0.00    -0.136 A  
HETATM    7  C   UNL     1     -11.404   6.964  72.320  1.00  0.00    -0.306 A  
HETATM    8  O   UNL     1     -13.356   8.196  71.822  1.00  0.00    -0.335 OA 
HETATM    9  C   UNL     1     -11.903   5.721  72.665  1.00  0.00    -0.198 A  
HETATM   10  C   UNL     1      -9.598   4.991  72.995  1.00  0.00    -0.160 A  
HETATM   11  C   UNL     1     -10.982   4.727  73.005  1.00  0.00    -0.346 A  
ENDROOT
BRANCH   3  12
HETATM   12  C   UNL     1     -11.177   9.752  70.141  1.00  0.00    -0.324 A  
HETATM   13  C   UNL     1     -11.689  11.549  68.580  1.00  0.00    -0.379 A  
HETATM   14  C   UNL     1     -10.639   9.534  67.777  1.00  0.00    -0.318 A  
HETATM   15  C   UNL     1     -10.644   9.012  69.073  1.00  0.00    -0.209 A  
HETATM   16  C   UNL     1     -11.694  11.030  69.875  1.00  0.00    -0.424 A  
HETATM   17  C   UNL     1     -11.161  10.801  67.531  1.00  0.00    -0.374 A  
ENDBRANCH   3  12
TORSDOF 1
ENDMDL
MODEL       57
REMARK 921   NORMALIZED FREE ENERGY PREDICTED BY IDOCK:   -5.07 KCAL/MOL
REMARK 922        TOTAL FREE ENERGY PREDICTED BY IDOCK:   -5.56 KCAL/MOL
REMARK 923 INTER-LIGAND FREE ENERGY PREDICTED BY IDOCK:   -5.08 KCAL/MOL
REMARK 924 INTRA-LIGAND FREE ENERGY PREDICTED BY IDOCK:   -0.47 KCAL/MOL
REMARK 927      BINDING AFFINITY PREDICTED BY RF-SCORE:    0.00 PKD
ROOT
HETATM    1  O   UNL     1      -8.210   9.571  70.369  1.00  0.00    -0.173 OA 
HETATM    2  C   UNL     1      -9.377   9.841  70.151  1.00  0.00    -0.215 C  
HETATM    3  C   UNL     1      -9.945  10.716  69.041  1.00  0.00    -0.226 C  
HETATM    4  C   UNL     1     -10.483   9.359  70.977  1.00  0.00    -0.392 A  
HETATM    5  C   UNL     1     -11.431  10.749  69.361  1.00  0.00    -0.295 C  
HETATM    6  C   UNL     1     -10.437   8.488  72.050  1.00  0.00    -0.407 A  
HETATM    7  C   UNL     1     -11.678   9.898  70.525  1.00  0.00    -0.373 A  
HETATM    8  O   UNL     1     -12.314  11.354  68.778  1.00  0.00    -0.480 OA 
HETATM    9  C   UNL     1     -12.885   9.599  71.131  1.00  0.00    -0.400 A  
HETATM   10  C   UNL     1     -11.647   8.168  72.673  1.00  0.00    -0.441 A  
HETATM   11  C   UNL     1     -12.861   8.722  72.219  1.00  0.00    -0.465 A  
ENDROOT
BRANCH   3  12
HETATM   12  C   UNL     1      -9.595  10.180  67.669  1.00  0.00    -0.170 A  
HETATM   13  C   UNL     1      -8.326  10.425  65.606  1.00  0.00    -0.163 A  
HETATM   14  C   UNL     1      -9.660   8.449  65.959  1.00  0.00    -0.196 A  
HETATM   15  C   UNL     1     -10.056   8.937  67.208  1.00  0.00    -0.303 A  
HETATM   16  C   UNL     1      -8.720  10.914  66.852  1.00  0.00    -0.144 A  
HETATM   17  C   UNL     1      -8.796   9.192  65.160  1.00  0.00    -0.241 A  
ENDBRANCH   3  12
TORSDOF 1
ENDMDL
MODEL       58
REMARK 921   NORMALIZED FREE ENERGY PREDICTED BY IDOCK:   -5.04 KCAL/MOL
REMARK 922        TOTAL FREE ENERGY PREDICTED BY IDOCK:   -5.53 KCAL/MOL
REMARK 923 INTER-LIGAND FREE ENERGY PREDICTED BY IDOCK:   -5.19 KCAL/MOL
REMARK 924 INTRA-LIGAND FREE ENERGY PREDICTED BY IDOCK:   -0.34 KCAL/MOL
REMARK 927      BINDING AFFINITY PREDICTED BY RF-SCORE:    0.00 PKD
ROOT
HETATM    1  O   UNL     1      -8.243  12.417  67.791  1.00  0.00    -0.141 OA 
HETATM    2  C   UNL     1      -9.219  11.832  68.225  1.00  0.00    -0.188 C  
HETATM    3  C   UNL     1     -10.688  12.120  67.943  1.00  0.00    -0.237 C  
HETATM    4  C   UNL     1      -9.134  10.708  69.155  1.00  0.00    -0.152 A  
HETATM    5  C   UNL     1     -11.407  11.130  68.845  1.00  0.00    -0.278 C  
HETATM    6  C   UNL     1      -8.004  10.070  69.632  1.00  0.00    -0.176 A  
HETATM    7  C   UNL     1     -10.409  10.306  69.528  1.00  0.00    -0.267 A  
HETATM    8  O   UNL     1     -12.608  10.993  69.006  1.00  0.00    -0.378 OA 
HETATM    9  C   UNL     1     -10.614   9.255  70.402  1.00  0.00    -0.298 A  
HETATM   10  C   UNL     1      -8.189   9.000  70.512  1.00  0.00    -0.187 A  
HETATM   11  C   UNL     1      -9.484   8.597  70.896  1.00  0.00    -0.242 A  
ENDROOT
BRANCH   3  12
HETATM   12  C   UNL     1     -11.011  11.998  66.469  1.00  0.00    -0.337 A  
HETATM   13  C   UNL     1     -12.286  12.786  64.551  1.00  0.00    -0.515 A  
HETATM   14  C   UNL     1     -10.592  11.099  64.246  1.00  0.00    -0.425 A  
HETATM   15  C   UNL     1     -10.305  11.137  65.614  1.00  0.00    -0.311 A  
HETATM   16  C   UNL     1     -12.002  12.826  65.916  1.00  0.00    -0.506 A  
HETATM   17  C   UNL     1     -11.581  11.923  63.716  1.00  0.00    -0.555 A  
ENDBRANCH   3  12
TORSDOF 1
ENDMDL
MODEL       59
REMARK 921   NORMALIZED FREE ENERGY PREDICTED BY IDOCK:   -5.03 KCAL/MOL
REMARK 922        TOTAL FREE ENERGY PREDICTED BY IDOCK:   -5.52 KCAL/MOL
REMARK 923 INTER-LIGAND FREE ENERGY PREDICTED BY IDOCK:   -5.04 KCAL/MOL
REMARK 924 INTRA-LIGAND FREE ENERGY PREDICTED BY IDOCK:   -0.47 KCAL/MOL
REMARK 927      BINDING AFFINITY PREDICTED BY RF-SCORE:    0.00 PKD
ROOT
HETATM    1  O   UNL     1     -10.137   7.168  69.314  1.00  0.00    -0.168 OA 
HETATM    2  C   UNL     1     -10.207   6.496  70.327  1.00  0.00    -0.192 C  
HETATM    3  C   UNL     1     -10.535   6.961  71.740  1.00  0.00    -0.224 C  
HETATM    4  C   UNL     1      -9.953   5.057  70.356  1.00  0.00    -0.317 A  
HETATM    5  C   UNL     1     -10.364   5.693  72.562  1.00  0.00    -0.201 C  
HETATM    6  C   UNL     1      -9.684   4.210  69.296  1.00  0.00    -0.219 A  
HETATM    7  C   UNL     1     -10.032   4.590  71.660  1.00  0.00    -0.266 A  
HETATM    8  O   UNL     1     -10.482   5.557  73.767  1.00  0.00    -0.232 OA 
HETATM    9  C   UNL     1      -9.836   3.257  71.968  1.00  0.00    -0.240 A  
HETATM   10  C   UNL     1      -9.489   2.856  69.586  1.00  0.00    -0.164 A  
HETATM   11  C   UNL     1      -9.562   2.384  70.911  1.00  0.00    -0.188 A  
ENDROOT
BRANCH   3  12
HETATM   12  C   UNL     1     -11.906   7.597  71.817  1.00  0.00    -0.324 A  
HETATM   13  C   UNL     1     -13.249   9.609  72.094  1.00  0.00    -0.535 A  
HETATM   14  C   UNL     1     -14.328   7.515  71.588  1.00  0.00    -0.621 A  
HETATM   15  C   UNL     1     -13.085   6.876  71.568  1.00  0.00    -0.341 A  
HETATM   16  C   UNL     1     -12.007   8.974  72.075  1.00  0.00    -0.433 A  
HETATM   17  C   UNL     1     -14.410   8.879  71.850  1.00  0.00    -0.378 A  
ENDBRANCH   3  12
TORSDOF 1
ENDMDL
MODEL       60
REMARK 921   NORMALIZED FREE ENERGY PREDICTED BY IDOCK:   -5.03 KCAL/MOL
REMARK 922        TOTAL FREE ENERGY PREDICTED BY IDOCK:   -5.52 KCAL/MOL
REMARK 923 INTER-LIGAND FREE ENERGY PREDICTED BY IDOCK:   -5.05 KCAL/MOL
REMARK 924 INTRA-LIGAND FREE ENERGY PREDICTED BY IDOCK:   -0.47 KCAL/MOL
REMARK 927      BINDING AFFINITY PREDICTED BY RF-SCORE:    0.00 PKD
ROOT
HETATM    1  O   UNL     1      -7.881  14.818  69.025  1.00  0.00    -0.141 OA 
HETATM    2  C   UNL     1      -8.492  15.832  68.742  1.00  0.00    -0.198 C  
HETATM    3  C   UNL     1      -9.949  15.962  68.317  1.00  0.00    -0.222 C  
HETATM    4  C   UNL     1      -7.887  17.163  68.743  1.00  0.00    -0.258 A  
HETATM    5  C   UNL     1     -10.082  17.444  68.006  1.00  0.00    -0.326 C  
HETATM    6  C   UNL     1      -6.607  17.524  69.123  1.00  0.00    -0.246 A  
HETATM    7  C   UNL     1      -8.809  18.101  68.302  1.00  0.00    -0.293 A  
HETATM    8  O   UNL     1     -11.059  18.042  67.590  1.00  0.00    -0.209 OA 
HETATM    9  C   UNL     1      -8.492  19.444  68.212  1.00  0.00    -0.376 A  
HETATM   10  C   UNL     1      -6.269  18.878  69.045  1.00  0.00    -0.267 A  
HETATM   11  C   UNL     1      -7.203  19.830  68.591  1.00  0.00    -0.358 A  
ENDROOT
BRANCH   3  12
HETATM   12  C   UNL     1     -10.893  15.442  69.381  1.00  0.00    -0.263 A  
HETATM   13  C   UNL     1     -11.942  15.749  71.556  1.00  0.00    -0.506 A  
HETATM   14  C   UNL     1     -12.592  13.888  70.170  1.00  0.00    -0.285 A  
HETATM   15  C   UNL     1     -11.687  14.299  69.188  1.00  0.00    -0.360 A  
HETATM   16  C   UNL     1     -11.038  16.163  70.577  1.00  0.00    -0.338 A  
HETATM   17  C   UNL     1     -12.719  14.612  71.352  1.00  0.00    -0.403 A  
ENDBRANCH   3  12
TORSDOF 1
ENDMDL
MODEL       61
REMARK 921   NORMALIZED FREE ENERGY PREDICTED BY IDOCK:   -5.02 KCAL/MOL
REMARK 922        TOTAL FREE ENERGY PREDICTED BY IDOCK:   -5.51 KCAL/MOL
REMARK 923 INTER-LIGAND FREE ENERGY PREDICTED BY IDOCK:   -5.08 KCAL/MOL
REMARK 924 INTRA-LIGAND FREE ENERGY PREDICTED BY IDOCK:   -0.43 KCAL/MOL
REMARK 927      BINDING AFFINITY PREDICTED BY RF-SCORE:    0.00 PKD
ROOT
HETATM    1  O   UNL     1     -11.653   5.991  71.716  1.00  0.00    -0.287 OA 
HETATM    2  C   UNL     1     -11.262   7.018  71.189  1.00  0.00    -0.270 C  
HETATM    3  C   UNL     1     -10.046   7.206  70.292  1.00  0.00    -0.195 C  
HETATM    4  C   UNL     1     -11.923   8.310  71.358  1.00  0.00    -0.333 A  
HETATM    5  C   UNL     1     -10.036   8.707  70.045  1.00  0.00    -0.185 C  
HETATM    6  C   UNL     1     -13.094   8.595  72.036  1.00  0.00    -0.417 A  
HETATM    7  C   UNL     1     -11.202   9.298  70.702  1.00  0.00    -0.333 A  
HETATM    8  O   UNL     1      -9.227   9.360  69.408  1.00  0.00    -0.150 OA 
HETATM    9  C   UNL     1     -11.613  10.618  70.701  1.00  0.00    -0.432 A  
HETATM   10  C   UNL     1     -13.531   9.923  72.041  1.00  0.00    -0.478 A  
HETATM   11  C   UNL     1     -12.794  10.927  71.381  1.00  0.00    -0.554 A  
ENDROOT
BRANCH   3  12
HETATM   12  C   UNL     1     -10.129   6.351  69.046  1.00  0.00    -0.193 A  
HETATM   13  C   UNL     1     -10.975   6.056  66.782  1.00  0.00    -0.305 A  
HETATM   14  C   UNL     1      -9.441   4.441  67.702  1.00  0.00    -0.204 A  
HETATM   15  C   UNL     1      -9.385   5.170  68.894  1.00  0.00    -0.168 A  
HETATM   16  C   UNL     1     -10.920   6.786  67.970  1.00  0.00    -0.289 A  
HETATM   17  C   UNL     1     -10.235   4.884  66.648  1.00  0.00    -0.291 A  
ENDBRANCH   3  12
TORSDOF 1
ENDMDL
MODEL       62
REMARK 921   NORMALIZED FREE ENERGY PREDICTED BY IDOCK:   -5.01 KCAL/MOL
REMARK 922        TOTAL FREE ENERGY PREDICTED BY IDOCK:   -5.50 KCAL/MOL
REMARK 923 INTER-LIGAND FREE ENERGY PREDICTED BY IDOCK:   -5.03 KCAL/MOL
REMARK 924 INTRA-LIGAND FREE ENERGY PREDICTED BY IDOCK:   -0.47 KCAL/MOL
REMARK 927      BINDING AFFINITY PREDICTED BY RF-SCORE:    0.00 PKD
ROOT
HETATM    1  O   UNL     1     -10.366  11.026  68.307  1.00  0.00    -0.166 OA 
HETATM    2  C   UNL     1     -10.175  10.788  67.128  1.00  0.00    -0.213 C  
HETATM    3  C   UNL     1      -9.189   9.800  66.519  1.00  0.00    -0.194 C  
HETATM    4  C   UNL     1     -10.885  11.466  66.045  1.00  0.00    -0.306 A  
HETATM    5  C   UNL     1      -9.348  10.038  65.025  1.00  0.00    -0.256 C  
HETATM    6  C   UNL     1     -11.910  12.391  66.136  1.00  0.00    -0.442 A  
HETATM    7  C   UNL     1     -10.395  11.039  64.820  1.00  0.00    -0.389 A  
HETATM    8  O   UNL     1      -8.742   9.509  64.110  1.00  0.00    -0.195 OA 
HETATM    9  C   UNL     1     -10.900  11.523  63.627  1.00  0.00    -0.488 A  
HETATM   10  C   UNL     1     -12.438  12.888  64.941  1.00  0.00    -0.540 A  
HETATM   11  C   UNL     1     -11.935  12.460  63.697  1.00  0.00    -0.626 A  
ENDROOT
BRANCH   3  12
HETATM   12  C   UNL     1      -9.461   8.382  66.975  1.00  0.00    -0.225 A  
HETATM   13  C   UNL     1     -11.025   6.527  67.168  1.00  0.00    -0.480 A  
HETATM   14  C   UNL     1      -8.730   6.227  67.838  1.00  0.00    -0.114 A  
HETATM   15  C   UNL     1      -8.452   7.551  67.487  1.00  0.00    -0.119 A  
HETATM   16  C   UNL     1     -10.750   7.848  66.816  1.00  0.00    -0.097 A  
HETATM   17  C   UNL     1     -10.015   5.716  67.679  1.00  0.00    -0.177 A  
ENDBRANCH   3  12
TORSDOF 1
ENDMDL
MODEL       63
REMARK 921   NORMALIZED FREE ENERGY PREDICTED BY IDOCK:   -4.98 KCAL/MOL
REMARK 922        TOTAL FREE ENERGY PREDICTED BY IDOCK:   -5.47 KCAL/MOL
REMARK 923 INTER-LIGAND FREE ENERGY PREDICTED BY IDOCK:   -5.06 KCAL/MOL
REMARK 924 INTRA-LIGAND FREE ENERGY PREDICTED BY IDOCK:   -0.41 KCAL/MOL
REMARK 927      BINDING AFFINITY PREDICTED BY RF-SCORE:    0.00 PKD
ROOT
HETATM    1  O   UNL     1     -11.061   6.515  67.784  1.00  0.00    -0.313 OA 
HETATM    2  C   UNL     1     -10.590   7.326  68.562  1.00  0.00    -0.175 C  
HETATM    3  C   UNL     1      -9.538   8.391  68.282  1.00  0.00    -0.156 C  
HETATM    4  C   UNL     1     -10.963   7.398  69.973  1.00  0.00    -0.264 A  
HETATM    5  C   UNL     1      -9.299   9.001  69.654  1.00  0.00    -0.167 C  
HETATM    6  C   UNL     1     -11.924   6.666  70.646  1.00  0.00    -0.404 A  
HETATM    7  C   UNL     1     -10.202   8.365  70.613  1.00  0.00    -0.222 A  
HETATM    8  O   UNL     1      -8.511   9.878  69.961  1.00  0.00    -0.193 OA 
HETATM    9  C   UNL     1     -10.359   8.640  71.959  1.00  0.00    -0.416 A  
HETATM   10  C   UNL     1     -12.104   6.933  72.006  1.00  0.00    -0.331 A  
HETATM   11  C   UNL     1     -11.325   7.911  72.658  1.00  0.00    -0.468 A  
ENDROOT
BRANCH   3  12
HETATM   12  C   UNL     1      -9.995   9.366  67.217  1.00  0.00    -0.252 A  
HETATM   13  C   UNL     1     -11.209  11.397  66.644  1.00  0.00    -0.298 A  
HETATM   14  C   UNL     1      -9.963  10.231  64.942  1.00  0.00    -0.393 A  
HETATM   15  C   UNL     1      -9.568   9.275  65.882  1.00  0.00    -0.345 A  
HETATM   16  C   UNL     1     -10.817  10.444  67.585  1.00  0.00    -0.361 A  
HETATM   17  C   UNL     1     -10.782  11.291  65.323  1.00  0.00    -0.302 A  
ENDBRANCH   3  12
TORSDOF 1
ENDMDL
MODEL       64
REMARK 921   NORMALIZED FREE ENERGY PREDICTED BY IDOCK:   -4.96 KCAL/MOL
REMARK 922        TOTAL FREE ENERGY PREDICTED BY IDOCK:   -5.44 KCAL/MOL
REMARK 923 INTER-LIGAND FREE ENERGY PREDICTED BY IDOCK:   -5.00 KCAL/MOL
REMARK 924 INTRA-LIGAND FREE ENERGY PREDICTED BY IDOCK:   -0.44 KCAL/MOL
REMARK 927      BINDING AFFINITY PREDICTED BY RF-SCORE:    0.00 PKD
ROOT
HETATM    1  O   UNL     1      -8.805   8.821  72.622  1.00  0.00    -0.394 OA 
HETATM    2  C   UNL     1      -9.640   8.139  72.055  1.00  0.00    -0.219 C  
HETATM    3  C   UNL     1     -11.138   8.390  71.946  1.00  0.00    -0.378 C  
HETATM    4  C   UNL     1      -9.325   6.889  71.365  1.00  0.00    -0.156 A  
HETATM    5  C   UNL     1     -11.638   7.151  71.220  1.00  0.00    -0.294 C  
HETATM    6  C   UNL     1      -8.085   6.311  71.159  1.00  0.00    -0.118 A  
HETATM    7  C   UNL     1     -10.490   6.306  70.890  1.00  0.00    -0.274 A  
HETATM    8  O   UNL     1     -12.785   6.861  70.926  1.00  0.00    -0.328 OA 
HETATM    9  C   UNL     1     -10.473   5.112  70.193  1.00  0.00    -0.305 A  
HETATM   10  C   UNL     1      -8.045   5.106  70.451  1.00  0.00    -0.090 A  
HETATM   11  C   UNL     1      -9.230   4.510  69.974  1.00  0.00    -0.195 A  
ENDROOT
BRANCH   3  12
HETATM   12  C   UNL     1     -11.440   9.703  71.256  1.00  0.00    -0.463 A  
HETATM   13  C   UNL     1     -11.055  11.195  69.371  1.00  0.00    -0.314 A  
HETATM   14  C   UNL     1     -12.720  11.760  71.019  1.00  0.00    -0.372 A  
HETATM   15  C   UNL     1     -12.428  10.586  71.720  1.00  0.00    -0.362 A  
HETATM   16  C   UNL     1     -10.762  10.023  70.068  1.00  0.00    -0.348 A  
HETATM   17  C   UNL     1     -12.034  12.063  69.846  1.00  0.00    -0.391 A  
ENDBRANCH   3  12
TORSDOF 1
ENDMDL
MODEL       65
REMARK 921   NORMALIZED FREE ENERGY PREDICTED BY IDOCK:   -4.95 KCAL/MOL
REMARK 922        TOTAL FREE ENERGY PREDICTED BY IDOCK:   -5.43 KCAL/MOL
REMARK 923 INTER-LIGAND FREE ENERGY PREDICTED BY IDOCK:   -4.95 KCAL/MOL
REMARK 924 INTRA-LIGAND FREE ENERGY PREDICTED BY IDOCK:   -0.48 KCAL/MOL
REMARK 927      BINDING AFFINITY PREDICTED BY RF-SCORE:    0.00 PKD
ROOT
HETATM    1  O   UNL     1      -7.968  14.445  68.887  1.00  0.00    -0.143 OA 
HETATM    2  C   UNL     1      -8.908  14.769  68.183  1.00  0.00    -0.170 C  
HETATM    3  C   UNL     1     -10.019  13.882  67.637  1.00  0.00    -0.237 C  
HETATM    4  C   UNL     1      -9.121  16.133  67.705  1.00  0.00    -0.197 A  
HETATM    5  C   UNL     1     -10.813  14.835  66.758  1.00  0.00    -0.316 C  
HETATM    6  C   UNL     1      -8.396  17.272  68.004  1.00  0.00    -0.228 A  
HETATM    7  C   UNL     1     -10.224  16.170  66.864  1.00  0.00    -0.283 A  
HETATM    8  O   UNL     1     -11.788  14.589  66.069  1.00  0.00    -0.373 OA 
HETATM    9  C   UNL     1     -10.649  17.347  66.275  1.00  0.00    -0.194 A  
HETATM   10  C   UNL     1      -8.814  18.474  67.423  1.00  0.00    -0.276 A  
HETATM   11  C   UNL     1      -9.930  18.510  66.564  1.00  0.00    -0.401 A  
ENDROOT
BRANCH   3  12
HETATM   12  C   UNL     1     -10.809  13.223  68.747  1.00  0.00    -0.273 A  
HETATM   13  C   UNL     1     -12.307  13.458  70.652  1.00  0.00    -0.423 A  
HETATM   14  C   UNL     1     -11.710  11.259  69.868  1.00  0.00    -0.430 A  
HETATM   15  C   UNL     1     -10.919  11.828  68.865  1.00  0.00    -0.288 A  
HETATM   16  C   UNL     1     -11.519  14.029  69.652  1.00  0.00    -0.317 A  
HETATM   17  C   UNL     1     -12.403  12.073  70.759  1.00  0.00    -0.403 A  
ENDBRANCH   3  12
TORSDOF 1
ENDMDL
MODEL       66
REMARK 921   NORMALIZED FREE ENERGY PREDICTED BY IDOCK:   -4.94 KCAL/MOL
REMARK 922        TOTAL FREE ENERGY PREDICTED BY IDOCK:   -5.42 KCAL/MOL
REMARK 923 INTER-LIGAND FREE ENERGY PREDICTED BY IDOCK:   -4.97 KCAL/MOL
REMARK 924 INTRA-LIGAND FREE ENERGY PREDICTED BY IDOCK:   -0.45 KCAL/MOL
REMARK 927      BINDING AFFINITY PREDICTED BY RF-SCORE:    0.00 PKD
ROOT
HETATM    1  O   UNL     1     -12.150  14.270  67.890  1.00  0.00    -0.345 OA 
HETATM    2  C   UNL     1     -10.956  14.439  67.718  1.00  0.00    -0.274 C  
HETATM    3  C   UNL     1      -9.890  13.387  67.442  1.00  0.00    -0.227 C  
HETATM    4  C   UNL     1     -10.314  15.751  67.773  1.00  0.00    -0.275 A  
HETATM    5  C   UNL     1      -8.605  14.201  67.430  1.00  0.00    -0.210 C  
HETATM    6  C   UNL     1     -10.905  16.991  67.936  1.00  0.00    -0.302 A  
HETATM    7  C   UNL     1      -8.943  15.612  67.618  1.00  0.00    -0.183 A  
HETATM    8  O   UNL     1      -7.463  13.803  67.283  1.00  0.00    -0.150 OA 
HETATM    9  C   UNL     1      -8.096  16.705  67.628  1.00  0.00    -0.184 A  
HETATM   10  C   UNL     1     -10.067  18.110  67.941  1.00  0.00    -0.366 A  
HETATM   11  C   UNL     1      -8.673  17.968  67.791  1.00  0.00    -0.251 A  
ENDROOT
BRANCH   3  12
HETATM   12  C   UNL     1     -10.175  12.619  66.170  1.00  0.00    -0.272 A  
HETATM   13  C   UNL     1     -10.693  12.659  63.792  1.00  0.00    -0.454 A  
HETATM   14  C   UNL     1     -10.281  10.553  64.888  1.00  0.00    -0.371 A  
HETATM   15  C   UNL     1     -10.071  11.220  66.098  1.00  0.00    -0.279 A  
HETATM   16  C   UNL     1     -10.483  13.328  64.998  1.00  0.00    -0.367 A  
HETATM   17  C   UNL     1     -10.591  11.271  63.737  1.00  0.00    -0.455 A  
ENDBRANCH   3  12
TORSDOF 1
ENDMDL
MODEL       67
REMARK 921   NORMALIZED FREE ENERGY PREDICTED BY IDOCK:   -4.92 KCAL/MOL
REMARK 922        TOTAL FREE ENERGY PREDICTED BY IDOCK:   -5.40 KCAL/MOL
REMARK 923 INTER-LIGAND FREE ENERGY PREDICTED BY IDOCK:   -5.02 KCAL/MOL
REMARK 924 INTRA-LIGAND FREE ENERGY PREDICTED BY IDOCK:   -0.37 KCAL/MOL
REMARK 927      BINDING AFFINITY PREDICTED BY RF-SCORE:    0.00 PKD
ROOT
HETATM    1  O   UNL     1     -11.125  17.419  68.342  1.00  0.00    -0.220 OA 
HETATM    2  C   UNL     1     -10.961  16.239  68.087  1.00  0.00    -0.343 C  
HETATM    3  C   UNL     1     -10.247  15.630  66.888  1.00  0.00    -0.281 C  
HETATM    4  C   UNL     1     -11.471  15.157  68.926  1.00  0.00    -0.337 A  
HETATM    5  C   UNL     1     -10.469  14.139  67.082  1.00  0.00    -0.270 C  
HETATM    6  C   UNL     1     -12.124  15.247  70.142  1.00  0.00    -0.394 A  
HETATM    7  C   UNL     1     -11.196  13.932  68.335  1.00  0.00    -0.291 A  
HETATM    8  O   UNL     1     -10.116  13.224  66.358  1.00  0.00    -0.276 OA 
HETATM    9  C   UNL     1     -11.568  12.740  68.927  1.00  0.00    -0.362 A  
HETATM   10  C   UNL     1     -12.504  14.051  70.760  1.00  0.00    -0.442 A  
HETATM   11  C   UNL     1     -12.230  12.808  70.156  1.00  0.00    -0.320 A  
ENDROOT
BRANCH   3  12
HETATM   12  C   UNL     1      -8.797  16.060  66.820  1.00  0.00    -0.288 A  
HETATM   13  C   UNL     1      -7.151  17.710  66.116  1.00  0.00    -0.347 A  
HETATM   14  C   UNL     1      -6.454  15.816  67.432  1.00  0.00    -0.193 A  
HETATM   15  C   UNL     1      -7.771  15.351  67.466  1.00  0.00    -0.205 A  
HETATM   16  C   UNL     1      -8.468  17.249  66.149  1.00  0.00    -0.216 A  
HETATM   17  C   UNL     1      -6.144  16.994  66.758  1.00  0.00    -0.239 A  
ENDBRANCH   3  12
TORSDOF 1
ENDMDL
MODEL       68
REMARK 921   NORMALIZED FREE ENERGY PREDICTED BY IDOCK:   -4.92 KCAL/MOL
REMARK 922        TOTAL FREE ENERGY PREDICTED BY IDOCK:   -5.40 KCAL/MOL
REMARK 923 INTER-LIGAND FREE ENERGY PREDICTED BY IDOCK:   -5.08 KCAL/MOL
REMARK 924 INTRA-LIGAND FREE ENERGY PREDICTED BY IDOCK:   -0.32 KCAL/MOL
REMARK 927      BINDING AFFINITY PREDICTED BY RF-SCORE:    0.00 PKD
ROOT
HETATM    1  O   UNL     1      -7.602  11.998  68.692  1.00  0.00    -0.122 OA 
HETATM    2  C   UNL     1      -8.626  12.149  68.050  1.00  0.00    -0.175 C  
HETATM    3  C   UNL     1      -9.753  11.148  67.832  1.00  0.00    -0.184 C  
HETATM    4  C   UNL     1      -8.947  13.378  67.327  1.00  0.00    -0.221 A  
HETATM    5  C   UNL     1     -10.678  11.881  66.873  1.00  0.00    -0.246 C  
HETATM    6  C   UNL     1      -8.241  14.567  67.297  1.00  0.00    -0.230 A  
HETATM    7  C   UNL     1     -10.136  13.219  66.630  1.00  0.00    -0.266 A  
HETATM    8  O   UNL     1     -11.712  11.479  66.369  1.00  0.00    -0.422 OA 
HETATM    9  C   UNL     1     -10.672  14.237  65.864  1.00  0.00    -0.304 A  
HETATM   10  C   UNL     1      -8.769  15.612  66.532  1.00  0.00    -0.342 A  
HETATM   11  C   UNL     1      -9.973  15.447  65.819  1.00  0.00    -0.393 A  
ENDROOT
BRANCH   3  12
HETATM   12  C   UNL     1     -10.389  10.725  69.140  1.00  0.00    -0.238 A  
HETATM   13  C   UNL     1     -12.180  11.004  70.764  1.00  0.00    -0.480 A  
HETATM   14  C   UNL     1     -10.575   9.230  71.051  1.00  0.00    -0.386 A  
HETATM   15  C   UNL     1      -9.922   9.628  69.881  1.00  0.00    -0.273 A  
HETATM   16  C   UNL     1     -11.531  11.404  69.595  1.00  0.00    -0.380 A  
HETATM   17  C   UNL     1     -11.703   9.917  71.492  1.00  0.00    -0.414 A  
ENDBRANCH   3  12
TORSDOF 1
ENDMDL
MODEL       69
REMARK 921   NORMALIZED FREE ENERGY PREDICTED BY IDOCK:   -4.91 KCAL/MOL
REMARK 922        TOTAL FREE ENERGY PREDICTED BY IDOCK:   -5.39 KCAL/MOL
REMARK 923 INTER-LIGAND FREE ENERGY PREDICTED BY IDOCK:   -4.92 KCAL/MOL
REMARK 924 INTRA-LIGAND FREE ENERGY PREDICTED BY IDOCK:   -0.47 KCAL/MOL
REMARK 927      BINDING AFFINITY PREDICTED BY RF-SCORE:    0.00 PKD
ROOT
HETATM    1  O   UNL     1      -7.046  15.128  67.525  1.00  0.00    -0.172 OA 
HETATM    2  C   UNL     1      -8.175  15.385  67.903  1.00  0.00    -0.144 C  
HETATM    3  C   UNL     1      -8.622  16.519  68.817  1.00  0.00    -0.262 C  
HETATM    4  C   UNL     1      -9.347  14.591  67.538  1.00  0.00    -0.193 A  
HETATM    5  C   UNL     1     -10.107  16.246  68.995  1.00  0.00    -0.259 C  
HETATM    6  C   UNL     1      -9.418  13.510  66.679  1.00  0.00    -0.271 A  
HETATM    7  C   UNL     1     -10.471  15.084  68.184  1.00  0.00    -0.245 A  
HETATM    8  O   UNL     1     -10.909  16.862  69.676  1.00  0.00    -0.302 OA 
HETATM    9  C   UNL     1     -11.718  14.515  68.009  1.00  0.00    -0.373 A  
HETATM   10  C   UNL     1     -10.672  12.923  66.482  1.00  0.00    -0.285 A  
HETATM   11  C   UNL     1     -11.812  13.420  67.144  1.00  0.00    -0.429 A  
ENDROOT
BRANCH   3  12
HETATM   12  C   UNL     1      -8.283  17.875  68.235  1.00  0.00    -0.292 A  
HETATM   13  C   UNL     1      -8.752  19.604  66.587  1.00  0.00    -0.392 A  
HETATM   14  C   UNL     1      -7.093  19.998  68.289  1.00  0.00    -0.323 A  
HETATM   15  C   UNL     1      -7.332  18.727  68.820  1.00  0.00    -0.342 A  
HETATM   16  C   UNL     1      -8.993  18.335  67.114  1.00  0.00    -0.264 A  
HETATM   17  C   UNL     1      -7.802  20.435  67.174  1.00  0.00    -0.378 A  
ENDBRANCH   3  12
TORSDOF 1
ENDMDL
MODEL       70
REMARK 921   NORMALIZED FREE ENERGY PREDICTED BY IDOCK:   -4.86 KCAL/MOL
REMARK 922        TOTAL FREE ENERGY PREDICTED BY IDOCK:   -5.34 KCAL/MOL
REMARK 923 INTER-LIGAND FREE ENERGY PREDICTED BY IDOCK:   -4.87 KCAL/MOL
REMARK 924 INTRA-LIGAND FREE ENERGY PREDICTED BY IDOCK:   -0.47 KCAL/MOL
REMARK 927      BINDING AFFINITY PREDICTED BY RF-SCORE:    0.00 PKD
ROOT
HETATM    1  O   UNL     1     -12.322  12.417  70.588  1.00  0.00    -0.351 OA 
HETATM    2  C   UNL     1     -11.830  11.754  69.693  1.00  0.00    -0.339 C  
HETATM    3  C   UNL     1     -11.703  12.116  68.219  1.00  0.00    -0.401 C  
HETATM    4  C   UNL     1     -11.270  10.419  69.895  1.00  0.00    -0.371 A  
HETATM    5  C   UNL     1     -11.109  10.856  67.610  1.00  0.00    -0.313 C  
HETATM    6  C   UNL     1     -11.118   9.722  71.080  1.00  0.00    -0.431 A  
HETATM    7  C   UNL     1     -10.861   9.890  68.680  1.00  0.00    -0.244 A  
HETATM    8  O   UNL     1     -10.851  10.635  66.439  1.00  0.00    -0.174 OA 
HETATM    9  C   UNL     1     -10.288   8.635  68.590  1.00  0.00    -0.219 A  
HETATM   10  C   UNL     1     -10.535   8.453  71.011  1.00  0.00    -0.251 A  
HETATM   11  C   UNL     1     -10.126   7.913  69.776  1.00  0.00    -0.199 A  
ENDROOT
BRANCH   3  12
HETATM   12  C   UNL     1     -10.886  13.374  68.018  1.00  0.00    -0.264 A  
HETATM   13  C   UNL     1     -10.828  15.753  67.505  1.00  0.00    -0.315 A  
HETATM   14  C   UNL     1      -8.796  14.618  68.130  1.00  0.00    -0.173 A  
HETATM   15  C   UNL     1      -9.504  13.421  68.266  1.00  0.00    -0.209 A  
HETATM   16  C   UNL     1     -11.538  14.560  67.641  1.00  0.00    -0.402 A  
HETATM   17  C   UNL     1      -9.458  15.783  67.750  1.00  0.00    -0.212 A  
ENDBRANCH   3  12
TORSDOF 1
ENDMDL
MODEL       71
REMARK 921   NORMALIZED FREE ENERGY PREDICTED BY IDOCK:   -4.85 KCAL/MOL
REMARK 922        TOTAL FREE ENERGY PREDICTED BY IDOCK:   -5.33 KCAL/MOL
REMARK 923 INTER-LIGAND FREE ENERGY PREDICTED BY IDOCK:   -4.85 KCAL/MOL
REMARK 924 INTRA-LIGAND FREE ENERGY PREDICTED BY IDOCK:   -0.48 KCAL/MOL
REMARK 927      BINDING AFFINITY PREDICTED BY RF-SCORE:    0.00 PKD
ROOT
HETATM    1  O   UNL     1      -9.918   8.291  69.134  1.00  0.00    -0.185 OA 
HETATM    2  C   UNL     1     -10.816   8.126  69.939  1.00  0.00    -0.215 C  
HETATM    3  C   UNL     1     -11.357   6.810  70.482  1.00  0.00    -0.394 C  
HETATM    4  C   UNL     1     -11.576   9.223  70.533  1.00  0.00    -0.266 A  
HETATM    5  C   UNL     1     -12.521   7.255  71.353  1.00  0.00    -0.383 C  
HETATM    6  C   UNL     1     -11.386  10.584  70.376  1.00  0.00    -0.411 A  
HETATM    7  C   UNL     1     -12.579   8.717  71.347  1.00  0.00    -0.325 A  
HETATM    8  O   UNL     1     -13.301   6.559  71.981  1.00  0.00    -0.150 OA 
HETATM    9  C   UNL     1     -13.445   9.546  72.036  1.00  0.00    -0.522 A  
HETATM   10  C   UNL     1     -12.247  11.441  71.069  1.00  0.00    -0.391 A  
HETATM   11  C   UNL     1     -13.270  10.925  71.890  1.00  0.00    -0.508 A  
ENDROOT
BRANCH   3  12
HETATM   12  C   UNL     1     -10.286   6.015  71.199  1.00  0.00    -0.267 A  
HETATM   13  C   UNL     1      -8.718   5.843  73.053  1.00  0.00    -0.123 A  
HETATM   14  C   UNL     1      -8.989   3.984  71.543  1.00  0.00    -0.161 A  
HETATM   15  C   UNL     1      -9.938   4.709  70.817  1.00  0.00    -0.284 A  
HETATM   16  C   UNL     1      -9.666   6.568  72.330  1.00  0.00    -0.158 A  
HETATM   17  C   UNL     1      -8.380   4.551  72.660  1.00  0.00    -0.110 A  
ENDBRANCH   3  12
TORSDOF 1
ENDMDL
MODEL       72
REMARK 921   NORMALIZED FREE ENERGY PREDICTED BY IDOCK:   -4.84 KCAL/MOL
REMARK 922        TOTAL FREE ENERGY PREDICTED BY IDOCK:   -5.31 KCAL/MOL
REMARK 923 INTER-LIGAND FREE ENERGY PREDICTED BY IDOCK:   -5.25 KCAL/MOL
REMARK 924 INTRA-LIGAND FREE ENERGY PREDICTED BY IDOCK:   -0.06 KCAL/MOL
REMARK 927      BINDING AFFINITY PREDICTED BY RF-SCORE:    0.00 PKD
ROOT
HETATM    1  O   UNL     1     -10.561  17.278  70.064  1.00  0.00     0.018 OA 
HETATM    2  C   UNL     1     -11.058  16.178  69.901  1.00  0.00    -0.357 C  
HETATM    3  C   UNL     1     -11.038  15.317  68.645  1.00  0.00    -0.282 C  
HETATM    4  C   UNL     1     -11.815  15.477  70.936  1.00  0.00    -0.413 A  
HETATM    5  C   UNL     1     -11.905  14.130  69.033  1.00  0.00    -0.348 C  
HETATM    6  C   UNL     1     -12.032  15.857  72.248  1.00  0.00    -0.617 A  
HETATM    7  C   UNL     1     -12.320  14.289  70.428  1.00  0.00    -0.419 A  
HETATM    8  O   UNL     1     -12.225  13.175  68.348  1.00  0.00    -0.248 OA 
HETATM    9  C   UNL     1     -13.074  13.428  71.204  1.00  0.00    -0.254 A  
HETATM   10  C   UNL     1     -12.787  14.997  73.052  1.00  0.00    -0.574 A  
HETATM   11  C   UNL     1     -13.306  13.794  72.533  1.00  0.00    -0.656 A  
ENDROOT
BRANCH   3  12
HETATM   12  C   UNL     1      -9.626  14.970  68.224  1.00  0.00    -0.210 A  
HETATM   13  C   UNL     1      -7.437  15.729  67.476  1.00  0.00    -0.198 A  
HETATM   14  C   UNL     1      -7.790  13.395  67.959  1.00  0.00    -0.148 A  
HETATM   15  C   UNL     1      -9.119  13.663  68.297  1.00  0.00    -0.193 A  
HETATM   16  C   UNL     1      -8.763  16.000  67.813  1.00  0.00    -0.170 A  
HETATM   17  C   UNL     1      -6.950  14.426  67.549  1.00  0.00    -0.182 A  
ENDBRANCH   3  12
TORSDOF 1
ENDMDL
MODEL       73
REMARK 921   NORMALIZED FREE ENERGY PREDICTED BY IDOCK:   -4.84 KCAL/MOL
REMARK 922        TOTAL FREE ENERGY PREDICTED BY IDOCK:   -5.31 KCAL/MOL
REMARK 923 INTER-LIGAND FREE ENERGY PREDICTED BY IDOCK:   -4.84 KCAL/MOL
REMARK 924 INTRA-LIGAND FREE ENERGY PREDICTED BY IDOCK:   -0.47 KCAL/MOL
REMARK 927      BINDING AFFINITY PREDICTED BY RF-SCORE:    0.00 PKD
ROOT
HETATM    1  O   UNL     1     -12.698   9.203  72.225  1.00  0.00    -0.383 OA 
HETATM    2  C   UNL     1     -11.585   9.267  71.734  1.00  0.00    -0.388 C  
HETATM    3  C   UNL     1     -10.287   8.680  72.274  1.00  0.00    -0.376 C  
HETATM    4  C   UNL     1     -11.295   9.976  70.489  1.00  0.00    -0.409 A  
HETATM    5  C   UNL     1      -9.249   9.183  71.283  1.00  0.00    -0.191 C  
HETATM    6  C   UNL     1     -12.180  10.602  69.631  1.00  0.00    -0.277 A  
HETATM    7  C   UNL     1      -9.932   9.939  70.232  1.00  0.00    -0.261 A  
HETATM    8  O   UNL     1      -8.043   9.010  71.303  1.00  0.00    -0.217 OA 
HETATM    9  C   UNL     1      -9.388  10.533  69.109  1.00  0.00    -0.200 A  
HETATM   10  C   UNL     1     -11.650  11.205  68.485  1.00  0.00    -0.385 A  
HETATM   11  C   UNL     1     -10.265  11.172  68.228  1.00  0.00    -0.197 A  
ENDROOT
BRANCH   3  12
HETATM   12  C   UNL     1     -10.367   7.174  72.411  1.00  0.00    -0.228 A  
HETATM   13  C   UNL     1     -10.608   5.232  73.858  1.00  0.00    -0.335 A  
HETATM   14  C   UNL     1     -10.551   4.939  71.467  1.00  0.00    -0.121 A  
HETATM   15  C   UNL     1     -10.414   6.319  71.299  1.00  0.00    -0.264 A  
HETATM   16  C   UNL     1     -10.472   6.610  73.693  1.00  0.00    -0.353 A  
HETATM   17  C   UNL     1     -10.648   4.396  72.745  1.00  0.00    -0.254 A  
ENDBRANCH   3  12
TORSDOF 1
ENDMDL
MODEL       74
REMARK 921   NORMALIZED FREE ENERGY PREDICTED BY IDOCK:   -4.81 KCAL/MOL
REMARK 922        TOTAL FREE ENERGY PREDICTED BY IDOCK:   -5.28 KCAL/MOL
REMARK 923 INTER-LIGAND FREE ENERGY PREDICTED BY IDOCK:   -4.80 KCAL/MOL
REMARK 924 INTRA-LIGAND FREE ENERGY PREDICTED BY IDOCK:   -0.48 KCAL/MOL
REMARK 927      BINDING AFFINITY PREDICTED BY RF-SCORE:    0.00 PKD
ROOT
HETATM    1  O   UNL     1      -8.040  12.509  67.223  1.00  0.00    -0.171 OA 
HETATM    2  C   UNL     1      -9.005  11.867  67.599  1.00  0.00    -0.169 C  
HETATM    3  C   UNL     1     -10.473  12.268  67.551  1.00  0.00    -0.230 C  
HETATM    4  C   UNL     1      -8.902  10.544  68.210  1.00  0.00    -0.139 A  
HETATM    5  C   UNL     1     -11.165  11.109  68.251  1.00  0.00    -0.279 C  
HETATM    6  C   UNL     1      -7.772   9.768  68.395  1.00  0.00    -0.081 A  
HETATM    7  C   UNL     1     -10.158  10.106  68.602  1.00  0.00    -0.186 A  
HETATM    8  O   UNL     1     -12.351  10.977  68.497  1.00  0.00    -0.536 OA 
HETATM    9  C   UNL     1     -10.344   8.876  69.206  1.00  0.00    -0.221 A  
HETATM   10  C   UNL     1      -7.938   8.518  68.999  1.00  0.00    -0.113 A  
HETATM   11  C   UNL     1      -9.214   8.077  69.404  1.00  0.00    -0.152 A  
ENDROOT
BRANCH   3  12
HETATM   12  C   UNL     1     -10.938  12.531  66.134  1.00  0.00    -0.318 A  
HETATM   13  C   UNL     1     -11.300  11.691  63.878  1.00  0.00    -0.457 A  
HETATM   14  C   UNL     1     -12.016  13.919  64.450  1.00  0.00    -0.480 A  
HETATM   15  C   UNL     1     -11.543  13.739  65.753  1.00  0.00    -0.342 A  
HETATM   16  C   UNL     1     -10.828  11.507  65.178  1.00  0.00    -0.326 A  
HETATM   17  C   UNL     1     -11.894  12.896  63.514  1.00  0.00    -0.605 A  
ENDBRANCH   3  12
TORSDOF 1
ENDMDL
MODEL       75
REMARK 921   NORMALIZED FREE ENERGY PREDICTED BY IDOCK:   -4.76 KCAL/MOL
REMARK 922        TOTAL FREE ENERGY PREDICTED BY IDOCK:   -5.23 KCAL/MOL
REMARK 923 INTER-LIGAND FREE ENERGY PREDICTED BY IDOCK:   -4.79 KCAL/MOL
REMARK 924 INTRA-LIGAND FREE ENERGY PREDICTED BY IDOCK:   -0.44 KCAL/MOL
REMARK 927      BINDING AFFINITY PREDICTED BY RF-SCORE:    0.00 PKD
ROOT
HETATM    1  O   UNL     1     -12.256  11.321  68.034  1.00  0.00    -0.621 OA 
HETATM    2  C   UNL     1     -11.100  10.967  68.185  1.00  0.00    -0.270 C  
HETATM    3  C   UNL     1      -9.930  11.158  67.229  1.00  0.00    -0.211 C  
HETATM    4  C   UNL     1     -10.627  10.244  69.363  1.00  0.00    -0.262 A  
HETATM    5  C   UNL     1      -8.799  10.418  67.926  1.00  0.00    -0.125 C  
HETATM    6  C   UNL     1     -11.330   9.912  70.507  1.00  0.00    -0.399 A  
HETATM    7  C   UNL     1      -9.290   9.912  69.208  1.00  0.00    -0.215 A  
HETATM    8  O   UNL     1      -7.656  10.252  67.537  1.00  0.00    -0.093 OA 
HETATM    9  C   UNL     1      -8.593   9.225  70.185  1.00  0.00    -0.215 A  
HETATM   10  C   UNL     1     -10.643   9.223  71.510  1.00  0.00    -0.405 A  
HETATM   11  C   UNL     1      -9.285   8.880  71.349  1.00  0.00    -0.328 A  
ENDROOT
BRANCH   3  12
HETATM   12  C   UNL     1      -9.665  12.622  66.950  1.00  0.00    -0.234 A  
HETATM   13  C   UNL     1     -10.053  14.572  65.546  1.00  0.00    -0.394 A  
HETATM   14  C   UNL     1      -8.768  14.797  67.572  1.00  0.00    -0.195 A  
HETATM   15  C   UNL     1      -8.937  13.435  67.834  1.00  0.00    -0.201 A  
HETATM   16  C   UNL     1     -10.225  13.212  65.806  1.00  0.00    -0.294 A  
HETATM   17  C   UNL     1      -9.325  15.365  66.430  1.00  0.00    -0.331 A  
ENDBRANCH   3  12
TORSDOF 1
ENDMDL
MODEL       76
REMARK 921   NORMALIZED FREE ENERGY PREDICTED BY IDOCK:   -4.74 KCAL/MOL
REMARK 922        TOTAL FREE ENERGY PREDICTED BY IDOCK:   -5.21 KCAL/MOL
REMARK 923 INTER-LIGAND FREE ENERGY PREDICTED BY IDOCK:   -4.74 KCAL/MOL
REMARK 924 INTRA-LIGAND FREE ENERGY PREDICTED BY IDOCK:   -0.47 KCAL/MOL
REMARK 927      BINDING AFFINITY PREDICTED BY RF-SCORE:    0.00 PKD
ROOT
HETATM    1  O   UNL     1      -7.960  12.704  67.229  1.00  0.00    -0.173 OA 
HETATM    2  C   UNL     1      -9.164  12.848  67.119  1.00  0.00    -0.225 C  
HETATM    3  C   UNL     1     -10.122  12.077  66.220  1.00  0.00    -0.247 C  
HETATM    4  C   UNL     1      -9.925  13.854  67.858  1.00  0.00    -0.242 A  
HETATM    5  C   UNL     1     -11.449  12.782  66.454  1.00  0.00    -0.357 C  
HETATM    6  C   UNL     1      -9.474  14.730  68.828  1.00  0.00    -0.206 A  
HETATM    7  C   UNL     1     -11.254  13.825  67.462  1.00  0.00    -0.316 A  
HETATM    8  O   UNL     1     -12.526  12.555  65.930  1.00  0.00    -0.596 OA 
HETATM    9  C   UNL     1     -12.194  14.677  68.011  1.00  0.00    -0.089 A  
HETATM   10  C   UNL     1     -10.411  15.596  69.401  1.00  0.00    -0.260 A  
HETATM   11  C   UNL     1     -11.759  15.571  68.993  1.00  0.00    -0.392 A  
ENDROOT
BRANCH   3  12
HETATM   12  C   UNL     1     -10.118  10.596  66.534  1.00  0.00    -0.275 A  
HETATM   13  C   UNL     1      -9.387   8.350  65.944  1.00  0.00    -0.205 A  
HETATM   14  C   UNL     1     -10.603   8.709  67.993  1.00  0.00    -0.205 A  
HETATM   15  C   UNL     1     -10.683  10.075  67.710  1.00  0.00    -0.333 A  
HETATM   16  C   UNL     1      -9.465   9.714  65.658  1.00  0.00    -0.318 A  
HETATM   17  C   UNL     1      -9.955   7.848  67.111  1.00  0.00    -0.298 A  
ENDBRANCH   3  12
TORSDOF 1
ENDMDL
MODEL       77
REMARK 921   NORMALIZED FREE ENERGY PREDICTED BY IDOCK:   -4.73 KCAL/MOL
REMARK 922        TOTAL FREE ENERGY PREDICTED BY IDOCK:   -5.20 KCAL/MOL
REMARK 923 INTER-LIGAND FREE ENERGY PREDICTED BY IDOCK:   -4.92 KCAL/MOL
REMARK 924 INTRA-LIGAND FREE ENERGY PREDICTED BY IDOCK:   -0.28 KCAL/MOL
REMARK 927      BINDING AFFINITY PREDICTED BY RF-SCORE:    0.00 PKD
ROOT
HETATM    1  O   UNL     1     -12.513  13.646  64.585  1.00  0.00    -0.540 OA 
HETATM    2  C   UNL     1     -11.500  13.782  65.249  1.00  0.00    -0.312 C  
HETATM    3  C   UNL     1     -10.689  12.702  65.953  1.00  0.00    -0.293 C  
HETATM    4  C   UNL     1     -10.877  15.078  65.508  1.00  0.00    -0.360 A  
HETATM    5  C   UNL     1      -9.623  13.502  66.685  1.00  0.00    -0.278 C  
HETATM    6  C   UNL     1     -11.238  16.319  65.016  1.00  0.00    -0.181 A  
HETATM    7  C   UNL     1      -9.791  14.918  66.356  1.00  0.00    -0.292 A  
HETATM    8  O   UNL     1      -8.747  13.089  67.425  1.00  0.00    -0.184 OA 
HETATM    9  C   UNL     1      -9.019  15.992  66.759  1.00  0.00    -0.275 A  
HETATM   10  C   UNL     1     -10.466  17.417  65.406  1.00  0.00    -0.012 A  
HETATM   11  C   UNL     1      -9.367  17.255  66.273  1.00  0.00    -0.248 A  
ENDROOT
BRANCH   3  12
HETATM   12  C   UNL     1     -10.161  11.670  64.978  1.00  0.00    -0.321 A  
HETATM   13  C   UNL     1      -9.405  11.136  62.727  1.00  0.00    -0.377 A  
HETATM   14  C   UNL     1      -9.265   9.468  64.460  1.00  0.00    -0.223 A  
HETATM   15  C   UNL     1      -9.808  10.371  65.378  1.00  0.00    -0.347 A  
HETATM   16  C   UNL     1      -9.947  12.041  63.641  1.00  0.00    -0.387 A  
HETATM   17  C   UNL     1      -9.064   9.850  63.137  1.00  0.00    -0.290 A  
ENDBRANCH   3  12
TORSDOF 1
ENDMDL
MODEL       78
REMARK 921   NORMALIZED FREE ENERGY PREDICTED BY IDOCK:   -4.70 KCAL/MOL
REMARK 922        TOTAL FREE ENERGY PREDICTED BY IDOCK:   -5.16 KCAL/MOL
REMARK 923 INTER-LIGAND FREE ENERGY PREDICTED BY IDOCK:   -4.69 KCAL/MOL
REMARK 924 INTRA-LIGAND FREE ENERGY PREDICTED BY IDOCK:   -0.48 KCAL/MOL
REMARK 927      BINDING AFFINITY PREDICTED BY RF-SCORE:    0.00 PKD
ROOT
HETATM    1  O   UNL     1     -11.700  10.894  67.725  1.00  0.00    -0.569 OA 
HETATM    2  C   UNL     1     -10.898  10.689  66.832  1.00  0.00    -0.205 C  
HETATM    3  C   UNL     1     -10.977  11.141  65.379  1.00  0.00    -0.151 C  
HETATM    4  C   UNL     1      -9.671   9.916  67.014  1.00  0.00    -0.230 A  
HETATM    5  C   UNL     1      -9.751  10.494  64.755  1.00  0.00    -0.305 C  
HETATM    6  C   UNL     1      -9.165   9.369  68.179  1.00  0.00    -0.135 A  
HETATM    7  C   UNL     1      -9.008   9.791  65.802  1.00  0.00    -0.195 A  
HETATM    8  O   UNL     1      -9.390  10.529  63.592  1.00  0.00    -0.236 OA 
HETATM    9  C   UNL     1      -7.812   9.105  65.695  1.00  0.00    -0.095 A  
HETATM   10  C   UNL     1      -7.953   8.678  68.094  1.00  0.00    -0.107 A  
HETATM   11  C   UNL     1      -7.283   8.545  66.862  1.00  0.00    -0.075 A  
ENDROOT
BRANCH   3  12
HETATM   12  C   UNL     1     -11.038  12.649  65.262  1.00  0.00    -0.330 A  
HETATM   13  C   UNL     1      -9.964  14.804  65.622  1.00  0.00    -0.390 A  
HETATM   14  C   UNL     1     -12.074  14.700  64.461  1.00  0.00    -0.490 A  
HETATM   15  C   UNL     1     -12.086  13.310  64.603  1.00  0.00    -0.458 A  
HETATM   16  C   UNL     1      -9.974  13.416  65.765  1.00  0.00    -0.264 A  
HETATM   17  C   UNL     1     -11.014  15.446  64.970  1.00  0.00    -0.450 A  
ENDBRANCH   3  12
TORSDOF 1
ENDMDL
MODEL       79
REMARK 921   NORMALIZED FREE ENERGY PREDICTED BY IDOCK:   -4.69 KCAL/MOL
REMARK 922        TOTAL FREE ENERGY PREDICTED BY IDOCK:   -5.16 KCAL/MOL
REMARK 923 INTER-LIGAND FREE ENERGY PREDICTED BY IDOCK:   -4.69 KCAL/MOL
REMARK 924 INTRA-LIGAND FREE ENERGY PREDICTED BY IDOCK:   -0.47 KCAL/MOL
REMARK 927      BINDING AFFINITY PREDICTED BY RF-SCORE:    0.00 PKD
ROOT
HETATM    1  O   UNL     1     -11.226   6.818  69.204  1.00  0.00    -0.236 OA 
HETATM    2  C   UNL     1     -10.514   7.432  69.979  1.00  0.00    -0.226 C  
HETATM    3  C   UNL     1      -9.571   8.587  69.671  1.00  0.00    -0.170 C  
HETATM    4  C   UNL     1     -10.429   7.127  71.406  1.00  0.00    -0.220 A  
HETATM    5  C   UNL     1      -8.900   8.844  71.011  1.00  0.00    -0.230 C  
HETATM    6  C   UNL     1     -11.154   6.200  72.132  1.00  0.00    -0.321 A  
HETATM    7  C   UNL     1      -9.479   7.941  72.006  1.00  0.00    -0.230 A  
HETATM    8  O   UNL     1      -8.030   9.657  71.275  1.00  0.00    -0.235 OA 
HETATM    9  C   UNL     1      -9.203   7.860  73.359  1.00  0.00    -0.351 A  
HETATM   10  C   UNL     1     -10.895   6.107  73.502  1.00  0.00    -0.207 A  
HETATM   11  C   UNL     1      -9.925   6.929  74.110  1.00  0.00    -0.351 A  
ENDROOT
BRANCH   3  12
HETATM   12  C   UNL     1     -10.307   9.772  69.084  1.00  0.00    -0.225 A  
HETATM   13  C   UNL     1     -10.860  11.112  67.128  1.00  0.00    -0.326 A  
HETATM   14  C   UNL     1     -11.909  11.598  69.242  1.00  0.00    -0.396 A  
HETATM   15  C   UNL     1     -11.201  10.550  69.837  1.00  0.00    -0.374 A  
HETATM   16  C   UNL     1     -10.152  10.065  67.719  1.00  0.00    -0.222 A  
HETATM   17  C   UNL     1     -11.739  11.877  67.889  1.00  0.00    -0.368 A  
ENDBRANCH   3  12
TORSDOF 1
ENDMDL
MODEL       80
REMARK 921   NORMALIZED FREE ENERGY PREDICTED BY IDOCK:   -4.69 KCAL/MOL
REMARK 922        TOTAL FREE ENERGY PREDICTED BY IDOCK:   -5.16 KCAL/MOL
REMARK 923 INTER-LIGAND FREE ENERGY PREDICTED BY IDOCK:   -4.68 KCAL/MOL
REMARK 924 INTRA-LIGAND FREE ENERGY PREDICTED BY IDOCK:   -0.47 KCAL/MOL
REMARK 927      BINDING AFFINITY PREDICTED BY RF-SCORE:    0.00 PKD
ROOT
HETATM    1  O   UNL     1     -11.011   5.768  69.509  1.00  0.00    -0.353 OA 
HETATM    2  C   UNL     1     -11.291   6.707  70.233  1.00  0.00    -0.374 C  
HETATM    3  C   UNL     1     -11.905   6.665  71.626  1.00  0.00    -0.383 C  
HETATM    4  C   UNL     1     -11.090   8.103  69.853  1.00  0.00    -0.102 A  
HETATM    5  C   UNL     1     -12.103   8.136  71.954  1.00  0.00    -0.323 C  
HETATM    6  C   UNL     1     -10.503   8.606  68.706  1.00  0.00    -0.209 A  
HETATM    7  C   UNL     1     -11.575   8.938  70.850  1.00  0.00    -0.331 A  
HETATM    8  O   UNL     1     -12.602   8.625  72.953  1.00  0.00    -0.289 OA 
HETATM    9  C   UNL     1     -11.504  10.315  70.743  1.00  0.00    -0.438 A  
HETATM   10  C   UNL     1     -10.416   9.996  68.582  1.00  0.00    -0.228 A  
HETATM   11  C   UNL     1     -10.915  10.843  69.591  1.00  0.00    -0.311 A  
ENDROOT
BRANCH   3  12
HETATM   12  C   UNL     1     -11.034   5.902  72.602  1.00  0.00    -0.305 A  
HETATM   13  C   UNL     1     -10.685   3.906  73.952  1.00  0.00    -0.308 A  
HETATM   14  C   UNL     1      -8.957   5.581  73.829  1.00  0.00    -0.124 A  
HETATM   15  C   UNL     1      -9.755   6.347  72.974  1.00  0.00    -0.162 A  
HETATM   16  C   UNL     1     -11.484   4.668  73.098  1.00  0.00    -0.317 A  
HETATM   17  C   UNL     1      -9.421   4.363  74.316  1.00  0.00    -0.126 A  
ENDBRANCH   3  12
TORSDOF 1
ENDMDL
MODEL       81
REMARK 921   NORMALIZED FREE ENERGY PREDICTED BY IDOCK:   -4.69 KCAL/MOL
REMARK 922        TOTAL FREE ENERGY PREDICTED BY IDOCK:   -5.15 KCAL/MOL
REMARK 923 INTER-LIGAND FREE ENERGY PREDICTED BY IDOCK:   -4.68 KCAL/MOL
REMARK 924 INTRA-LIGAND FREE ENERGY PREDICTED BY IDOCK:   -0.47 KCAL/MOL
REMARK 927      BINDING AFFINITY PREDICTED BY RF-SCORE:    0.00 PKD
ROOT
HETATM    1  O   UNL     1     -11.019   6.469  73.354  1.00  0.00    -0.250 OA 
HETATM    2  C   UNL     1     -10.744   7.372  72.584  1.00  0.00    -0.288 C  
HETATM    3  C   UNL     1      -9.440   7.596  71.829  1.00  0.00    -0.178 C  
HETATM    4  C   UNL     1     -11.665   8.459  72.257  1.00  0.00    -0.453 A  
HETATM    5  C   UNL     1      -9.677   8.924  71.128  1.00  0.00    -0.274 C  
HETATM    6  C   UNL     1     -12.976   8.625  72.663  1.00  0.00    -0.261 A  
HETATM    7  C   UNL     1     -11.040   9.371  71.420  1.00  0.00    -0.450 A  
HETATM    8  O   UNL     1      -8.906   9.552  70.424  1.00  0.00    -0.229 OA 
HETATM    9  C   UNL     1     -11.694  10.497  70.955  1.00  0.00    -0.431 A  
HETATM   10  C   UNL     1     -13.657   9.754  72.199  1.00  0.00    -0.432 A  
HETATM   11  C   UNL     1     -13.020  10.684  71.354  1.00  0.00    -0.545 A  
ENDROOT
BRANCH   3  12
HETATM   12  C   UNL     1      -9.115   6.435  70.913  1.00  0.00    -0.151 A  
HETATM   13  C   UNL     1      -7.633   4.589  70.346  1.00  0.00    -0.053 A  
HETATM   14  C   UNL     1      -9.677   4.900  69.110  1.00  0.00    -0.252 A  
HETATM   15  C   UNL     1      -9.985   6.016  69.894  1.00  0.00    -0.225 A  
HETATM   16  C   UNL     1      -7.937   5.702  71.131  1.00  0.00    -0.112 A  
HETATM   17  C   UNL     1      -8.503   4.188  69.336  1.00  0.00    -0.096 A  
ENDBRANCH   3  12
TORSDOF 1
ENDMDL
MODEL       82
REMARK 921   NORMALIZED FREE ENERGY PREDICTED BY IDOCK:   -4.65 KCAL/MOL
REMARK 922        TOTAL FREE ENERGY PREDICTED BY IDOCK:   -5.12 KCAL/MOL
REMARK 923 INTER-LIGAND FREE ENERGY PREDICTED BY IDOCK:   -4.65 KCAL/MOL
REMARK 924 INTRA-LIGAND FREE ENERGY PREDICTED BY IDOCK:   -0.46 KCAL/MOL
REMARK 927      BINDING AFFINITY PREDICTED BY RF-SCORE:    0.00 PKD
ROOT
HETATM    1  O   UNL     1     -10.391  13.434  68.671  1.00  0.00    -0.240 OA 
HETATM    2  C   UNL     1     -10.197  12.838  67.627  1.00  0.00    -0.219 C  
HETATM    3  C   UNL     1      -9.137  11.785  67.331  1.00  0.00    -0.175 C  
HETATM    4  C   UNL     1     -10.981  13.065  66.414  1.00  0.00    -0.301 A  
HETATM    5  C   UNL     1      -9.339  11.507  65.850  1.00  0.00    -0.226 C  
HETATM    6  C   UNL     1     -12.081  13.885  66.243  1.00  0.00    -0.484 A  
HETATM    7  C   UNL     1     -10.473  12.299  65.375  1.00  0.00    -0.302 A  
HETATM    8  O   UNL     1      -8.703  10.755  65.132  1.00  0.00    -0.192 OA 
HETATM    9  C   UNL     1     -11.036  12.323  64.112  1.00  0.00    -0.423 A  
HETATM   10  C   UNL     1     -12.669  13.919  64.975  1.00  0.00    -0.372 A  
HETATM   11  C   UNL     1     -12.149  13.146  63.917  1.00  0.00    -0.536 A  
ENDROOT
BRANCH   3  12
HETATM   12  C   UNL     1      -9.277  10.579  68.236  1.00  0.00    -0.152 A  
HETATM   13  C   UNL     1      -8.550   9.382  70.228  1.00  0.00    -0.249 A  
HETATM   14  C   UNL     1     -10.420   8.554  68.954  1.00  0.00    -0.207 A  
HETATM   15  C   UNL     1     -10.286   9.619  68.059  1.00  0.00    -0.262 A  
HETATM   16  C   UNL     1      -8.414  10.448  69.337  1.00  0.00    -0.145 A  
HETATM   17  C   UNL     1      -9.553   8.436  70.037  1.00  0.00    -0.168 A  
ENDBRANCH   3  12
TORSDOF 1
ENDMDL
MODEL       83
REMARK 921   NORMALIZED FREE ENERGY PREDICTED BY IDOCK:   -4.63 KCAL/MOL
REMARK 922        TOTAL FREE ENERGY PREDICTED BY IDOCK:   -5.09 KCAL/MOL
REMARK 923 INTER-LIGAND FREE ENERGY PREDICTED BY IDOCK:   -4.62 KCAL/MOL
REMARK 924 INTRA-LIGAND FREE ENERGY PREDICTED BY IDOCK:   -0.47 KCAL/MOL
REMARK 927      BINDING AFFINITY PREDICTED BY RF-SCORE:    0.00 PKD
ROOT
HETATM    1  O   UNL     1     -11.234  10.734  67.626  1.00  0.00    -0.303 OA 
HETATM    2  C   UNL     1     -10.861  10.989  66.495  1.00  0.00    -0.209 C  
HETATM    3  C   UNL     1     -11.167  12.228  65.664  1.00  0.00    -0.375 C  
HETATM    4  C   UNL     1     -10.030  10.088  65.699  1.00  0.00    -0.355 A  
HETATM    5  C   UNL     1     -10.515  11.911  64.327  1.00  0.00    -0.326 C  
HETATM    6  C   UNL     1      -9.466   8.882  66.076  1.00  0.00    -0.320 A  
HETATM    7  C   UNL     1      -9.839  10.618  64.432  1.00  0.00    -0.395 A  
HETATM    8  O   UNL     1     -10.514  12.583  63.311  1.00  0.00    -0.346 OA 
HETATM    9  C   UNL     1      -9.082   9.963  63.477  1.00  0.00    -0.289 A  
HETATM   10  C   UNL     1      -8.692   8.207  65.127  1.00  0.00    -0.047 A  
HETATM   11  C   UNL     1      -8.504   8.743  63.837  1.00  0.00    -0.110 A  
ENDROOT
BRANCH   3  12
HETATM   12  C   UNL     1     -10.672  13.492  66.336  1.00  0.00    -0.287 A  
HETATM   13  C   UNL     1     -11.175  15.690  67.252  1.00  0.00    -0.184 A  
HETATM   14  C   UNL     1      -8.950  14.790  67.463  1.00  0.00    -0.192 A  
HETATM   15  C   UNL     1      -9.351  13.632  66.791  1.00  0.00    -0.269 A  
HETATM   16  C   UNL     1     -11.579  14.535  66.581  1.00  0.00    -0.385 A  
HETATM   17  C   UNL     1      -9.860  15.817  67.693  1.00  0.00    -0.232 A  
ENDBRANCH   3  12
TORSDOF 1
ENDMDL
MODEL       84
REMARK 921   NORMALIZED FREE ENERGY PREDICTED BY IDOCK:   -4.55 KCAL/MOL
REMARK 922        TOTAL FREE ENERGY PREDICTED BY IDOCK:   -5.00 KCAL/MOL
REMARK 923 INTER-LIGAND FREE ENERGY PREDICTED BY IDOCK:   -4.56 KCAL/MOL
REMARK 924 INTRA-LIGAND FREE ENERGY PREDICTED BY IDOCK:   -0.44 KCAL/MOL
REMARK 927      BINDING AFFINITY PREDICTED BY RF-SCORE:    0.00 PKD
ROOT
HETATM    1  O   UNL     1     -10.784  13.497  66.299  1.00  0.00    -0.284 OA 
HETATM    2  C   UNL     1     -10.898  12.461  66.930  1.00  0.00    -0.251 C  
HETATM    3  C   UNL     1     -10.563  11.046  66.479  1.00  0.00    -0.310 C  
HETATM    4  C   UNL     1     -11.424  12.405  68.293  1.00  0.00    -0.360 A  
HETATM    5  C   UNL     1     -11.017  10.198  67.656  1.00  0.00    -0.268 C  
HETATM    6  C   UNL     1     -11.793  13.453  69.116  1.00  0.00    -0.383 A  
HETATM    7  C   UNL     1     -11.505  11.085  68.712  1.00  0.00    -0.372 A  
HETATM    8  O   UNL     1     -10.992   8.984  67.764  1.00  0.00    -0.141 OA 
HETATM    9  C   UNL     1     -11.969  10.750  69.971  1.00  0.00    -0.427 A  
HETATM   10  C   UNL     1     -12.259  13.136  70.395  1.00  0.00    -0.389 A  
HETATM   11  C   UNL     1     -12.348  11.795  70.818  1.00  0.00    -0.433 A  
ENDROOT
BRANCH   3  12
HETATM   12  C   UNL     1      -9.101  10.905  66.111  1.00  0.00    -0.201 A  
HETATM   13  C   UNL     1      -6.767  11.253  66.707  1.00  0.00    -0.140 A  
HETATM   14  C   UNL     1      -7.317  10.052  64.692  1.00  0.00    -0.143 A  
HETATM   15  C   UNL     1      -8.678  10.215  64.963  1.00  0.00    -0.190 A  
HETATM   16  C   UNL     1      -8.125  11.417  66.982  1.00  0.00    -0.157 A  
HETATM   17  C   UNL     1      -6.363  10.570  65.563  1.00  0.00    -0.112 A  
ENDBRANCH   3  12
TORSDOF 1
ENDMDL
MODEL       85
REMARK 921   NORMALIZED FREE ENERGY PREDICTED BY IDOCK:   -4.54 KCAL/MOL
REMARK 922        TOTAL FREE ENERGY PREDICTED BY IDOCK:   -5.00 KCAL/MOL
REMARK 923 INTER-LIGAND FREE ENERGY PREDICTED BY IDOCK:   -4.56 KCAL/MOL
REMARK 924 INTRA-LIGAND FREE ENERGY PREDICTED BY IDOCK:   -0.44 KCAL/MOL
REMARK 927      BINDING AFFINITY PREDICTED BY RF-SCORE:    0.00 PKD
ROOT
HETATM    1  O   UNL     1      -8.761   8.633  72.843  1.00  0.00    -0.384 OA 
HETATM    2  C   UNL     1      -9.775   7.981  72.669  1.00  0.00    -0.264 C  
HETATM    3  C   UNL     1     -11.054   8.408  71.962  1.00  0.00    -0.397 C  
HETATM    4  C   UNL     1      -9.944   6.613  73.154  1.00  0.00    -0.201 A  
HETATM    5  C   UNL     1     -11.969   7.211  72.164  1.00  0.00    -0.266 C  
HETATM    6  C   UNL     1      -9.019   5.807  73.793  1.00  0.00    -0.127 A  
HETATM    7  C   UNL     1     -11.227   6.168  72.872  1.00  0.00    -0.250 A  
HETATM    8  O   UNL     1     -13.128   7.080  71.809  1.00  0.00    -0.361 OA 
HETATM    9  C   UNL     1     -11.649   4.898  73.222  1.00  0.00    -0.276 A  
HETATM   10  C   UNL     1      -9.424   4.517  74.150  1.00  0.00    -0.129 A  
HETATM   11  C   UNL     1     -10.730   4.068  73.869  1.00  0.00    -0.312 A  
ENDROOT
BRANCH   3  12
HETATM   12  C   UNL     1     -10.800   8.787  70.519  1.00  0.00    -0.268 A  
HETATM   13  C   UNL     1     -10.468   8.077  68.214  1.00  0.00    -0.210 A  
HETATM   14  C   UNL     1     -10.610  10.426  68.730  1.00  0.00    -0.232 A  
HETATM   15  C   UNL     1     -10.786  10.121  70.083  1.00  0.00    -0.355 A  
HETATM   16  C   UNL     1     -10.644   7.769  69.563  1.00  0.00    -0.221 A  
HETATM   17  C   UNL     1     -10.452   9.406  67.797  1.00  0.00    -0.310 A  
ENDBRANCH   3  12
TORSDOF 1
ENDMDL
MODEL       86
REMARK 921   NORMALIZED FREE ENERGY PREDICTED BY IDOCK:   -4.54 KCAL/MOL
REMARK 922        TOTAL FREE ENERGY PREDICTED BY IDOCK:   -5.00 KCAL/MOL
REMARK 923 INTER-LIGAND FREE ENERGY PREDICTED BY IDOCK:   -4.99 KCAL/MOL
REMARK 924 INTRA-LIGAND FREE ENERGY PREDICTED BY IDOCK:   -0.01 KCAL/MOL
REMARK 927      BINDING AFFINITY PREDICTED BY RF-SCORE:    0.00 PKD
ROOT
HETATM    1  O   UNL     1      -8.731  16.772  69.669  1.00  0.00     0.243 OA 
HETATM    2  C   UNL     1      -9.148  17.008  68.549  1.00  0.00    -0.259 C  
HETATM    3  C   UNL     1      -9.433  18.367  67.922  1.00  0.00    -0.299 C  
HETATM    4  C   UNL     1      -9.478  15.967  67.578  1.00  0.00    -0.223 A  
HETATM    5  C   UNL     1     -10.020  17.999  66.568  1.00  0.00    -0.371 C  
HETATM    6  C   UNL     1      -9.317  14.599  67.697  1.00  0.00    -0.200 A  
HETATM    7  C   UNL     1      -9.999  16.543  66.428  1.00  0.00    -0.318 A  
HETATM    8  O   UNL     1     -10.443  18.746  65.703  1.00  0.00    -0.594 OA 
HETATM    9  C   UNL     1     -10.392  15.777  65.346  1.00  0.00    -0.417 A  
HETATM   10  C   UNL     1      -9.702  13.807  66.611  1.00  0.00    -0.293 A  
HETATM   11  C   UNL     1     -10.238  14.391  65.446  1.00  0.00    -0.408 A  
ENDROOT
BRANCH   3  12
HETATM   12  C   UNL     1      -8.192  19.233  67.869  1.00  0.00    -0.340 A  
HETATM   13  C   UNL     1      -6.596  20.495  66.533  1.00  0.00    -0.295 A  
HETATM   14  C   UNL     1      -6.446  20.550  68.937  1.00  0.00    -0.247 A  
HETATM   15  C   UNL     1      -7.552  19.700  69.028  1.00  0.00    -0.320 A  
HETATM   16  C   UNL     1      -7.701  19.647  66.621  1.00  0.00    -0.295 A  
HETATM   17  C   UNL     1      -5.969  20.947  67.692  1.00  0.00    -0.355 A  
ENDBRANCH   3  12
TORSDOF 1
ENDMDL
MODEL       87
REMARK 921   NORMALIZED FREE ENERGY PREDICTED BY IDOCK:   -4.49 KCAL/MOL
REMARK 922        TOTAL FREE ENERGY PREDICTED BY IDOCK:   -4.94 KCAL/MOL
REMARK 923 INTER-LIGAND FREE ENERGY PREDICTED BY IDOCK:   -4.49 KCAL/MOL
REMARK 924 INTRA-LIGAND FREE ENERGY PREDICTED BY IDOCK:   -0.45 KCAL/MOL
REMARK 927      BINDING AFFINITY PREDICTED BY RF-SCORE:    0.00 PKD
ROOT
HETATM    1  O   UNL     1     -11.979  12.841  66.197  1.00  0.00    -0.407 OA 
HETATM    2  C   UNL     1     -10.859  12.828  66.676  1.00  0.00    -0.264 C  
HETATM    3  C   UNL     1     -10.283  13.754  67.739  1.00  0.00    -0.241 C  
HETATM    4  C   UNL     1      -9.822  11.880  66.271  1.00  0.00    -0.246 A  
HETATM    5  C   UNL     1      -8.833  13.304  67.832  1.00  0.00    -0.192 C  
HETATM    6  C   UNL     1      -9.922  10.825  65.382  1.00  0.00    -0.330 A  
HETATM    7  C   UNL     1      -8.638  12.165  66.934  1.00  0.00    -0.191 A  
HETATM    8  O   UNL     1      -7.944  13.767  68.524  1.00  0.00    -0.138 OA 
HETATM    9  C   UNL     1      -7.494  11.414  66.734  1.00  0.00    -0.137 A  
HETATM   10  C   UNL     1      -8.779  10.049  65.171  1.00  0.00    -0.183 A  
HETATM   11  C   UNL     1      -7.574  10.343  65.840  1.00  0.00    -0.146 A  
ENDROOT
BRANCH   3  12
HETATM   12  C   UNL     1     -11.063  13.677  69.034  1.00  0.00    -0.295 A  
HETATM   13  C   UNL     1     -12.285  14.833  70.794  1.00  0.00    -0.380 A  
HETATM   14  C   UNL     1     -12.196  12.425  70.787  1.00  0.00    -0.336 A  
HETATM   15  C   UNL     1     -11.421  12.454  69.625  1.00  0.00    -0.264 A  
HETATM   16  C   UNL     1     -11.511  14.866  69.633  1.00  0.00    -0.325 A  
HETATM   17  C   UNL     1     -12.627  13.613  71.370  1.00  0.00    -0.415 A  
ENDBRANCH   3  12
TORSDOF 1
ENDMDL
MODEL       88
REMARK 921   NORMALIZED FREE ENERGY PREDICTED BY IDOCK:   -4.46 KCAL/MOL
REMARK 922        TOTAL FREE ENERGY PREDICTED BY IDOCK:   -4.91 KCAL/MOL
REMARK 923 INTER-LIGAND FREE ENERGY PREDICTED BY IDOCK:   -4.44 KCAL/MOL
REMARK 924 INTRA-LIGAND FREE ENERGY PREDICTED BY IDOCK:   -0.47 KCAL/MOL
REMARK 927      BINDING AFFINITY PREDICTED BY RF-SCORE:    0.00 PKD
ROOT
HETATM    1  O   UNL     1     -12.264  13.799  67.314  1.00  0.00    -0.375 OA 
HETATM    2  C   UNL     1     -11.058  13.868  67.474  1.00  0.00    -0.286 C  
HETATM    3  C   UNL     1     -10.150  12.877  68.190  1.00  0.00    -0.240 C  
HETATM    4  C   UNL     1     -10.246  14.984  66.995  1.00  0.00    -0.257 A  
HETATM    5  C   UNL     1      -8.795  13.564  68.144  1.00  0.00    -0.179 C  
HETATM    6  C   UNL     1     -10.641  16.074  66.241  1.00  0.00    -0.288 A  
HETATM    7  C   UNL     1      -8.929  14.815  67.396  1.00  0.00    -0.200 A  
HETATM    8  O   UNL     1      -7.740  13.182  68.621  1.00  0.00    -0.128 OA 
HETATM    9  C   UNL     1      -7.946  15.731  67.070  1.00  0.00    -0.272 A  
HETATM   10  C   UNL     1      -9.661  17.009  65.895  1.00  0.00    -0.170 A  
HETATM   11  C   UNL     1      -8.325  16.840  66.308  1.00  0.00    -0.353 A  
ENDROOT
BRANCH   3  12
HETATM   12  C   UNL     1     -10.198  11.506  67.549  1.00  0.00    -0.207 A  
HETATM   13  C   UNL     1      -9.860  10.126  65.572  1.00  0.00    -0.365 A  
HETATM   14  C   UNL     1     -10.443   9.088  67.667  1.00  0.00    -0.324 A  
HETATM   15  C   UNL     1     -10.470  10.342  68.284  1.00  0.00    -0.230 A  
HETATM   16  C   UNL     1      -9.887  11.379  66.185  1.00  0.00    -0.255 A  
HETATM   17  C   UNL     1     -10.138   8.980  66.313  1.00  0.00    -0.311 A  
ENDBRANCH   3  12
TORSDOF 1
ENDMDL
MODEL       89
REMARK 921   NORMALIZED FREE ENERGY PREDICTED BY IDOCK:   -4.44 KCAL/MOL
REMARK 922        TOTAL FREE ENERGY PREDICTED BY IDOCK:   -4.89 KCAL/MOL
REMARK 923 INTER-LIGAND FREE ENERGY PREDICTED BY IDOCK:   -4.41 KCAL/MOL
REMARK 924 INTRA-LIGAND FREE ENERGY PREDICTED BY IDOCK:   -0.48 KCAL/MOL
REMARK 927      BINDING AFFINITY PREDICTED BY RF-SCORE:    0.00 PKD
ROOT
HETATM    1  O   UNL     1      -9.993   6.468  70.775  1.00  0.00    -0.183 OA 
HETATM    2  C   UNL     1     -10.525   7.561  70.686  1.00  0.00    -0.216 C  
HETATM    3  C   UNL     1      -9.925   8.856  70.156  1.00  0.00    -0.207 C  
HETATM    4  C   UNL     1     -11.896   7.824  71.118  1.00  0.00    -0.311 A  
HETATM    5  C   UNL     1     -11.032   9.869  70.401  1.00  0.00    -0.318 C  
HETATM    6  C   UNL     1     -12.832   6.929  71.604  1.00  0.00    -0.383 A  
HETATM    7  C   UNL     1     -12.188   9.172  70.965  1.00  0.00    -0.302 A  
HETATM    8  O   UNL     1     -11.019  11.067  70.178  1.00  0.00    -0.190 OA 
HETATM    9  C   UNL     1     -13.426   9.690  71.297  1.00  0.00    -0.359 A  
HETATM   10  C   UNL     1     -14.093   7.431  71.940  1.00  0.00    -0.429 A  
HETATM   11  C   UNL     1     -14.386   8.801  71.790  1.00  0.00    -0.414 A  
ENDROOT
BRANCH   3  12
HETATM   12  C   UNL     1      -9.485   8.722  68.714  1.00  0.00    -0.142 A  
HETATM   13  C   UNL     1     -10.097   8.474  66.370  1.00  0.00    -0.271 A  
HETATM   14  C   UNL     1      -7.784   8.777  66.973  1.00  0.00    -0.095 A  
HETATM   15  C   UNL     1      -8.142   8.844  68.323  1.00  0.00    -0.109 A  
HETATM   16  C   UNL     1     -10.458   8.541  67.717  1.00  0.00    -0.287 A  
HETATM   17  C   UNL     1      -8.761   8.592  65.999  1.00  0.00    -0.196 A  
ENDBRANCH   3  12
TORSDOF 1
ENDMDL
MODEL       90
REMARK 921   NORMALIZED FREE ENERGY PREDICTED BY IDOCK:   -4.41 KCAL/MOL
REMARK 922        TOTAL FREE ENERGY PREDICTED BY IDOCK:   -4.86 KCAL/MOL
REMARK 923 INTER-LIGAND FREE ENERGY PREDICTED BY IDOCK:   -4.80 KCAL/MOL
REMARK 924 INTRA-LIGAND FREE ENERGY PREDICTED BY IDOCK:   -0.07 KCAL/MOL
REMARK 927      BINDING AFFINITY PREDICTED BY RF-SCORE:    0.00 PKD
ROOT
HETATM    1  O   UNL     1     -12.255  16.301  68.626  1.00  0.00     0.098 OA 
HETATM    2  C   UNL     1     -11.041  16.388  68.683  1.00  0.00    -0.352 C  
HETATM    3  C   UNL     1     -10.053  15.368  69.234  1.00  0.00    -0.253 C  
HETATM    4  C   UNL     1     -10.297  17.558  68.223  1.00  0.00    -0.379 A  
HETATM    5  C   UNL     1      -8.721  16.092  69.121  1.00  0.00    -0.248 C  
HETATM    6  C   UNL     1     -10.780  18.692  67.595  1.00  0.00    -0.428 A  
HETATM    7  C   UNL     1      -8.946  17.392  68.490  1.00  0.00    -0.276 A  
HETATM    8  O   UNL     1      -7.620  15.702  69.470  1.00  0.00    -0.217 OA 
HETATM    9  C   UNL     1      -8.014  18.356  68.150  1.00  0.00    -0.303 A  
HETATM   10  C   UNL     1      -9.853  19.676  67.238  1.00  0.00    -0.492 A  
HETATM   11  C   UNL     1      -8.482  19.511  67.516  1.00  0.00    -0.339 A  
ENDROOT
BRANCH   3  12
HETATM   12  C   UNL     1     -10.133  14.050  68.494  1.00  0.00    -0.236 A  
HETATM   13  C   UNL     1     -11.447  12.103  67.857  1.00  0.00    -0.392 A  
HETATM   14  C   UNL     1      -9.234  12.397  66.950  1.00  0.00    -0.209 A  
HETATM   15  C   UNL     1      -9.096  13.589  67.667  1.00  0.00    -0.205 A  
HETATM   16  C   UNL     1     -11.312  13.292  68.573  1.00  0.00    -0.319 A  
HETATM   17  C   UNL     1     -10.408  11.655  67.045  1.00  0.00    -0.248 A  
ENDBRANCH   3  12
TORSDOF 1
ENDMDL
MODEL       91
REMARK 921   NORMALIZED FREE ENERGY PREDICTED BY IDOCK:   -4.41 KCAL/MOL
REMARK 922        TOTAL FREE ENERGY PREDICTED BY IDOCK:   -4.86 KCAL/MOL
REMARK 923 INTER-LIGAND FREE ENERGY PREDICTED BY IDOCK:   -4.47 KCAL/MOL
REMARK 924 INTRA-LIGAND FREE ENERGY PREDICTED BY IDOCK:   -0.39 KCAL/MOL
REMARK 927      BINDING AFFINITY PREDICTED BY RF-SCORE:    0.00 PKD
ROOT
HETATM    1  O   UNL     1     -10.378   6.796  69.004  1.00  0.00    -0.176 OA 
HETATM    2  C   UNL     1     -10.756   7.837  69.511  1.00  0.00    -0.198 C  
HETATM    3  C   UNL     1     -11.472   8.026  70.842  1.00  0.00    -0.291 C  
HETATM    4  C   UNL     1     -10.592   9.144  68.878  1.00  0.00    -0.214 A  
HETATM    5  C   UNL     1     -11.764   9.518  70.860  1.00  0.00    -0.317 C  
HETATM    6  C   UNL     1      -9.944   9.452  67.696  1.00  0.00    -0.238 A  
HETATM    7  C   UNL     1     -11.191  10.123  69.658  1.00  0.00    -0.310 A  
HETATM    8  O   UNL     1     -12.360  10.158  71.709  1.00  0.00    -0.388 OA 
HETATM    9  C   UNL     1     -11.177  11.456  69.288  1.00  0.00    -0.342 A  
HETATM   10  C   UNL     1      -9.913  10.795  67.308  1.00  0.00    -0.219 A  
HETATM   11  C   UNL     1     -10.527  11.788  68.096  1.00  0.00    -0.221 A  
ENDROOT
BRANCH   3  12
HETATM   12  C   UNL     1     -10.643   7.519  72.003  1.00  0.00    -0.248 A  
HETATM   13  C   UNL     1      -9.975   5.656  73.420  1.00  0.00    -0.186 A  
HETATM   14  C   UNL     1      -8.908   7.800  73.686  1.00  0.00    -0.323 A  
HETATM   15  C   UNL     1      -9.698   8.324  72.659  1.00  0.00    -0.357 A  
HETATM   16  C   UNL     1     -10.766   6.176  72.395  1.00  0.00    -0.267 A  
HETATM   17  C   UNL     1      -9.046   6.468  74.066  1.00  0.00    -0.176 A  
ENDBRANCH   3  12
TORSDOF 1
ENDMDL
MODEL       92
REMARK 921   NORMALIZED FREE ENERGY PREDICTED BY IDOCK:   -4.38 KCAL/MOL
REMARK 922        TOTAL FREE ENERGY PREDICTED BY IDOCK:   -4.83 KCAL/MOL
REMARK 923 INTER-LIGAND FREE ENERGY PREDICTED BY IDOCK:   -4.53 KCAL/MOL
REMARK 924 INTRA-LIGAND FREE ENERGY PREDICTED BY IDOCK:   -0.30 KCAL/MOL
REMARK 927      BINDING AFFINITY PREDICTED BY RF-SCORE:    0.00 PKD
ROOT
HETATM    1  O   UNL     1      -7.402   8.825  65.149  1.00  0.00    -0.086 OA 
HETATM    2  C   UNL     1      -8.406   8.736  65.834  1.00  0.00    -0.126 C  
HETATM    3  C   UNL     1      -9.157   9.853  66.545  1.00  0.00    -0.179 C  
HETATM    4  C   UNL     1      -9.077   7.468  66.116  1.00  0.00    -0.179 A  
HETATM    5  C   UNL     1     -10.240   9.103  67.305  1.00  0.00    -0.254 C  
HETATM    6  C   UNL     1      -8.777   6.210  65.626  1.00  0.00    -0.133 A  
HETATM    7  C   UNL     1     -10.138   7.679  66.983  1.00  0.00    -0.338 A  
HETATM    8  O   UNL     1     -11.084   9.558  68.058  1.00  0.00    -0.157 OA 
HETATM    9  C   UNL     1     -10.946   6.641  67.410  1.00  0.00    -0.434 A  
HETATM   10  C   UNL     1      -9.586   5.147  66.040  1.00  0.00    -0.176 A  
HETATM   11  C   UNL     1     -10.660   5.361  66.927  1.00  0.00    -0.320 A  
ENDROOT
BRANCH   3  12
HETATM   12  C   UNL     1      -9.661  10.899  65.574  1.00  0.00    -0.282 A  
HETATM   13  C   UNL     1     -10.491  11.439  63.350  1.00  0.00    -0.452 A  
HETATM   14  C   UNL     1     -10.429  13.148  65.047  1.00  0.00    -0.358 A  
HETATM   15  C   UNL     1      -9.904  12.227  65.959  1.00  0.00    -0.263 A  
HETATM   16  C   UNL     1      -9.968  10.517  64.257  1.00  0.00    -0.398 A  
HETATM   17  C   UNL     1     -10.722  12.754  63.745  1.00  0.00    -0.397 A  
ENDBRANCH   3  12
TORSDOF 1
ENDMDL
MODEL       93
REMARK 921   NORMALIZED FREE ENERGY PREDICTED BY IDOCK:   -4.38 KCAL/MOL
REMARK 922        TOTAL FREE ENERGY PREDICTED BY IDOCK:   -4.83 KCAL/MOL
REMARK 923 INTER-LIGAND FREE ENERGY PREDICTED BY IDOCK:   -4.53 KCAL/MOL
REMARK 924 INTRA-LIGAND FREE ENERGY PREDICTED BY IDOCK:   -0.29 KCAL/MOL
REMARK 927      BINDING AFFINITY PREDICTED BY RF-SCORE:    0.00 PKD
ROOT
HETATM    1  O   UNL     1      -7.664  15.693  67.385  1.00  0.00    -0.152 OA 
HETATM    2  C   UNL     1      -8.549  16.314  66.823  1.00  0.00    -0.237 C  
HETATM    3  C   UNL     1      -8.856  17.803  66.919  1.00  0.00    -0.260 C  
HETATM    4  C   UNL     1      -9.528  15.692  65.933  1.00  0.00    -0.376 A  
HETATM    5  C   UNL     1     -10.120  17.943  66.085  1.00  0.00    -0.320 C  
HETATM    6  C   UNL     1      -9.590  14.377  65.510  1.00  0.00    -0.097 A  
HETATM    7  C   UNL     1     -10.451  16.638  65.512  1.00  0.00    -0.285 A  
HETATM    8  O   UNL     1     -10.781  18.947  65.883  1.00  0.00    -0.448 OA 
HETATM    9  C   UNL     1     -11.486  16.312  64.656  1.00  0.00    -0.168 A  
HETATM   10  C   UNL     1     -10.626  14.028  64.638  1.00  0.00    -0.416 A  
HETATM   11  C   UNL     1     -11.568  14.988  64.216  1.00  0.00    -0.190 A  
ENDROOT
BRANCH   3  12
HETATM   12  C   UNL     1      -7.687  18.648  66.461  1.00  0.00    -0.279 A  
HETATM   13  C   UNL     1      -6.438  20.730  66.630  1.00  0.00    -0.330 A  
HETATM   14  C   UNL     1      -5.605  18.950  65.237  1.00  0.00    -0.236 A  
HETATM   15  C   UNL     1      -6.703  18.159  65.587  1.00  0.00    -0.265 A  
HETATM   16  C   UNL     1      -7.535  19.943  66.982  1.00  0.00    -0.281 A  
HETATM   17  C   UNL     1      -5.472  20.233  65.758  1.00  0.00    -0.194 A  
ENDBRANCH   3  12
TORSDOF 1
ENDMDL
MODEL       94
REMARK 921   NORMALIZED FREE ENERGY PREDICTED BY IDOCK:   -4.37 KCAL/MOL
REMARK 922        TOTAL FREE ENERGY PREDICTED BY IDOCK:   -4.82 KCAL/MOL
REMARK 923 INTER-LIGAND FREE ENERGY PREDICTED BY IDOCK:   -4.40 KCAL/MOL
REMARK 924 INTRA-LIGAND FREE ENERGY PREDICTED BY IDOCK:   -0.42 KCAL/MOL
REMARK 927      BINDING AFFINITY PREDICTED BY RF-SCORE:    0.00 PKD
ROOT
HETATM    1  O   UNL     1     -12.012  11.656  67.868  1.00  0.00    -0.599 OA 
HETATM    2  C   UNL     1     -11.522  10.702  68.446  1.00  0.00    -0.259 C  
HETATM    3  C   UNL     1     -10.469   9.732  67.928  1.00  0.00    -0.288 C  
HETATM    4  C   UNL     1     -11.901  10.301  69.799  1.00  0.00    -0.217 A  
HETATM    5  C   UNL     1     -10.354   8.721  69.057  1.00  0.00    -0.213 C  
HETATM    6  C   UNL     1     -12.773  10.929  70.669  1.00  0.00    -0.396 A  
HETATM    7  C   UNL     1     -11.231   9.139  70.151  1.00  0.00    -0.211 A  
HETATM    8  O   UNL     1      -9.660   7.720  69.104  1.00  0.00    -0.155 OA 
HETATM    9  C   UNL     1     -11.407   8.544  71.387  1.00  0.00    -0.330 A  
HETATM   10  C   UNL     1     -12.960  10.348  71.927  1.00  0.00    -0.555 A  
HETATM   11  C   UNL     1     -12.284   9.164  72.282  1.00  0.00    -0.348 A  
ENDROOT
BRANCH   3  12
HETATM   12  C   UNL     1      -9.180  10.441  67.567  1.00  0.00    -0.156 A  
HETATM   13  C   UNL     1      -7.467  12.065  68.162  1.00  0.00    -0.112 A  
HETATM   14  C   UNL     1      -7.206  10.730  66.173  1.00  0.00    -0.126 A  
HETATM   15  C   UNL     1      -8.423  10.094  66.437  1.00  0.00    -0.133 A  
HETATM   16  C   UNL     1      -8.682  11.432  68.428  1.00  0.00    -0.157 A  
HETATM   17  C   UNL     1      -6.729  11.714  67.034  1.00  0.00    -0.145 A  
ENDBRANCH   3  12
TORSDOF 1
ENDMDL
MODEL       95
REMARK 921   NORMALIZED FREE ENERGY PREDICTED BY IDOCK:   -4.29 KCAL/MOL
REMARK 922        TOTAL FREE ENERGY PREDICTED BY IDOCK:   -4.74 KCAL/MOL
REMARK 923 INTER-LIGAND FREE ENERGY PREDICTED BY IDOCK:   -4.26 KCAL/MOL
REMARK 924 INTRA-LIGAND FREE ENERGY PREDICTED BY IDOCK:   -0.48 KCAL/MOL
REMARK 927      BINDING AFFINITY PREDICTED BY RF-SCORE:    0.00 PKD
ROOT
HETATM    1  O   UNL     1     -11.003   7.302  66.886  1.00  0.00    -0.343 OA 
HETATM    2  C   UNL     1     -10.079   7.962  67.327  1.00  0.00    -0.238 C  
HETATM    3  C   UNL     1      -8.999   8.700  66.547  1.00  0.00    -0.187 C  
HETATM    4  C   UNL     1      -9.832   8.147  68.755  1.00  0.00    -0.181 A  
HETATM    5  C   UNL     1      -8.093   9.235  67.645  1.00  0.00    -0.104 C  
HETATM    6  C   UNL     1     -10.595   7.709  69.823  1.00  0.00    -0.245 A  
HETATM    7  C   UNL     1      -8.668   8.878  68.942  1.00  0.00    -0.136 A  
HETATM    8  O   UNL     1      -7.059   9.869  67.526  1.00  0.00    -0.086 OA 
HETATM    9  C   UNL     1      -8.206   9.198  70.205  1.00  0.00    -0.170 A  
HETATM   10  C   UNL     1     -10.148   8.029  71.109  1.00  0.00    -0.221 A  
HETATM   11  C   UNL     1      -8.962   8.765  71.298  1.00  0.00    -0.295 A  
ENDROOT
BRANCH   3  12
HETATM   12  C   UNL     1      -9.586   9.751  65.630  1.00  0.00    -0.329 A  
HETATM   13  C   UNL     1     -10.866  11.806  65.378  1.00  0.00    -0.347 A  
HETATM   14  C   UNL     1      -9.838  10.797  63.447  1.00  0.00    -0.400 A  
HETATM   15  C   UNL     1      -9.328   9.773  64.250  1.00  0.00    -0.253 A  
HETATM   16  C   UNL     1     -10.358  10.786  66.183  1.00  0.00    -0.300 A  
HETATM   17  C   UNL     1     -10.606  11.812  64.010  1.00  0.00    -0.425 A  
ENDBRANCH   3  12
TORSDOF 1
ENDMDL
MODEL       96
REMARK 921   NORMALIZED FREE ENERGY PREDICTED BY IDOCK:   -4.27 KCAL/MOL
REMARK 922        TOTAL FREE ENERGY PREDICTED BY IDOCK:   -4.71 KCAL/MOL
REMARK 923 INTER-LIGAND FREE ENERGY PREDICTED BY IDOCK:   -4.24 KCAL/MOL
REMARK 924 INTRA-LIGAND FREE ENERGY PREDICTED BY IDOCK:   -0.47 KCAL/MOL
REMARK 927      BINDING AFFINITY PREDICTED BY RF-SCORE:    0.00 PKD
ROOT
HETATM    1  O   UNL     1     -10.097   9.152  67.194  1.00  0.00    -0.199 OA 
HETATM    2  C   UNL     1     -10.580   9.685  68.177  1.00  0.00    -0.226 C  
HETATM    3  C   UNL     1     -10.894   9.053  69.527  1.00  0.00    -0.177 C  
HETATM    4  C   UNL     1     -10.978  11.091  68.216  1.00  0.00    -0.287 A  
HETATM    5  C   UNL     1     -11.568  10.187  70.284  1.00  0.00    -0.302 C  
HETATM    6  C   UNL     1     -10.818  12.056  67.239  1.00  0.00    -0.290 A  
HETATM    7  C   UNL     1     -11.565  11.381  69.439  1.00  0.00    -0.391 A  
HETATM    8  O   UNL     1     -12.038  10.167  71.408  1.00  0.00    -0.366 OA 
HETATM    9  C   UNL     1     -12.029  12.649  69.739  1.00  0.00    -0.365 A  
HETATM   10  C   UNL     1     -11.275  13.346  67.525  1.00  0.00    -0.309 A  
HETATM   11  C   UNL     1     -11.878  13.639  68.764  1.00  0.00    -0.395 A  
ENDROOT
BRANCH   3  12
HETATM   12  C   UNL     1      -9.654   8.489  70.185  1.00  0.00    -0.174 A  
HETATM   13  C   UNL     1      -8.394   6.536  70.911  1.00  0.00    -0.126 A  
HETATM   14  C   UNL     1      -7.415   8.729  71.109  1.00  0.00    -0.115 A  
HETATM   15  C   UNL     1      -8.568   9.297  70.561  1.00  0.00    -0.271 A  
HETATM   16  C   UNL     1      -9.547   7.100  70.364  1.00  0.00    -0.169 A  
HETATM   17  C   UNL     1      -7.327   7.351  71.283  1.00  0.00    -0.076 A  
ENDBRANCH   3  12
TORSDOF 1
ENDMDL
MODEL       97
REMARK 921   NORMALIZED FREE ENERGY PREDICTED BY IDOCK:   -4.26 KCAL/MOL
REMARK 922        TOTAL FREE ENERGY PREDICTED BY IDOCK:   -4.70 KCAL/MOL
REMARK 923 INTER-LIGAND FREE ENERGY PREDICTED BY IDOCK:   -4.31 KCAL/MOL
REMARK 924 INTRA-LIGAND FREE ENERGY PREDICTED BY IDOCK:   -0.38 KCAL/MOL
REMARK 927      BINDING AFFINITY PREDICTED BY RF-SCORE:    0.00 PKD
ROOT
HETATM    1  O   UNL     1      -7.939   8.877  70.006  1.00  0.00    -0.094 OA 
HETATM    2  C   UNL     1      -8.693   8.647  69.078  1.00  0.00    -0.134 C  
HETATM    3  C   UNL     1      -9.777   7.580  68.991  1.00  0.00    -0.162 C  
HETATM    4  C   UNL     1      -8.665   9.387  67.817  1.00  0.00    -0.116 A  
HETATM    5  C   UNL     1     -10.288   7.730  67.567  1.00  0.00    -0.264 C  
HETATM    6  C   UNL     1      -7.886  10.479  67.479  1.00  0.00    -0.106 A  
HETATM    7  C   UNL     1      -9.585   8.845  66.932  1.00  0.00    -0.248 A  
HETATM    8  O   UNL     1     -11.142   7.071  67.000  1.00  0.00    -0.373 OA 
HETATM    9  C   UNL     1      -9.763   9.363  65.662  1.00  0.00    -0.336 A  
HETATM   10  C   UNL     1      -8.056  11.022  66.202  1.00  0.00    -0.141 A  
HETATM   11  C   UNL     1      -8.985  10.466  65.300  1.00  0.00    -0.212 A  
ENDROOT
BRANCH   3  12
HETATM   12  C   UNL     1     -10.824   7.754  70.070  1.00  0.00    -0.243 A  
HETATM   13  C   UNL     1     -12.233   9.251  71.375  1.00  0.00    -0.426 A  
HETATM   14  C   UNL     1     -12.470   6.866  71.628  1.00  0.00    -0.418 A  
HETATM   15  C   UNL     1     -11.464   6.663  70.680  1.00  0.00    -0.420 A  
HETATM   16  C   UNL     1     -11.228   9.051  70.428  1.00  0.00    -0.275 A  
HETATM   17  C   UNL     1     -12.854   8.158  71.974  1.00  0.00    -0.346 A  
ENDBRANCH   3  12
TORSDOF 1
ENDMDL
MODEL       98
REMARK 921   NORMALIZED FREE ENERGY PREDICTED BY IDOCK:   -4.24 KCAL/MOL
REMARK 922        TOTAL FREE ENERGY PREDICTED BY IDOCK:   -4.68 KCAL/MOL
REMARK 923 INTER-LIGAND FREE ENERGY PREDICTED BY IDOCK:   -4.20 KCAL/MOL
REMARK 924 INTRA-LIGAND FREE ENERGY PREDICTED BY IDOCK:   -0.48 KCAL/MOL
REMARK 927      BINDING AFFINITY PREDICTED BY RF-SCORE:    0.00 PKD
ROOT
HETATM    1  O   UNL     1      -9.942  10.814  69.081  1.00  0.00    -0.208 OA 
HETATM    2  C   UNL     1     -10.347   9.849  69.705  1.00  0.00    -0.241 C  
HETATM    3  C   UNL     1      -9.813   8.423  69.676  1.00  0.00    -0.184 C  
HETATM    4  C   UNL     1     -11.487   9.902  70.618  1.00  0.00    -0.411 A  
HETATM    5  C   UNL     1     -10.788   7.677  70.573  1.00  0.00    -0.241 C  
HETATM    6  C   UNL     1     -12.233  11.003  70.997  1.00  0.00    -0.456 A  
HETATM    7  C   UNL     1     -11.753   8.635  71.115  1.00  0.00    -0.334 A  
HETATM    8  O   UNL     1     -10.807   6.489  70.841  1.00  0.00    -0.231 OA 
HETATM    9  C   UNL     1     -12.784   8.406  72.007  1.00  0.00    -0.399 A  
HETATM   10  C   UNL     1     -13.276  10.794  71.904  1.00  0.00    -0.524 A  
HETATM   11  C   UNL     1     -13.551   9.505  72.403  1.00  0.00    -0.459 A  
ENDROOT
BRANCH   3  12
HETATM   12  C   UNL     1      -8.364   8.357  70.108  1.00  0.00    -0.120 A  
HETATM   13  C   UNL     1      -6.707   8.633  71.871  1.00  0.00    -0.078 A  
HETATM   14  C   UNL     1      -6.036   7.755  69.730  1.00  0.00    -0.023 A  
HETATM   15  C   UNL     1      -7.352   7.858  69.271  1.00  0.00    -0.082 A  
HETATM   16  C   UNL     1      -8.023   8.737  71.416  1.00  0.00    -0.175 A  
HETATM   17  C   UNL     1      -5.714   8.141  71.028  1.00  0.00    -0.033 A  
ENDBRANCH   3  12
TORSDOF 1
ENDMDL
MODEL       99
REMARK 921   NORMALIZED FREE ENERGY PREDICTED BY IDOCK:   -4.22 KCAL/MOL
REMARK 922        TOTAL FREE ENERGY PREDICTED BY IDOCK:   -4.66 KCAL/MOL
REMARK 923 INTER-LIGAND FREE ENERGY PREDICTED BY IDOCK:   -4.19 KCAL/MOL
REMARK 924 INTRA-LIGAND FREE ENERGY PREDICTED BY IDOCK:   -0.47 KCAL/MOL
REMARK 927      BINDING AFFINITY PREDICTED BY RF-SCORE:    0.00 PKD
ROOT
HETATM    1  O   UNL     1     -11.321   9.526  71.627  1.00  0.00    -0.383 OA 
HETATM    2  C   UNL     1     -11.114   8.378  71.276  1.00  0.00    -0.255 C  
HETATM    3  C   UNL     1     -11.154   7.807  69.865  1.00  0.00    -0.142 C  
HETATM    4  C   UNL     1     -10.795   7.298  72.208  1.00  0.00    -0.274 A  
HETATM    5  C   UNL     1     -10.915   6.323  70.092  1.00  0.00    -0.347 C  
HETATM    6  C   UNL     1     -10.594   7.373  73.574  1.00  0.00    -0.388 A  
HETATM    7  C   UNL     1     -10.692   6.098  71.521  1.00  0.00    -0.303 A  
HETATM    8  O   UNL     1     -10.893   5.428  69.265  1.00  0.00    -0.221 OA 
HETATM    9  C   UNL     1     -10.392   4.913  72.168  1.00  0.00    -0.263 A  
HETATM   10  C   UNL     1     -10.284   6.187  74.247  1.00  0.00    -0.326 A  
HETATM   11  C   UNL     1     -10.186   4.967  73.549  1.00  0.00    -0.222 A  
ENDROOT
BRANCH   3  12
HETATM   12  C   UNL     1     -10.152   8.487  68.955  1.00  0.00    -0.207 A  
HETATM   13  C   UNL     1      -9.716  10.094  67.180  1.00  0.00    -0.214 A  
HETATM   14  C   UNL     1      -7.872   8.986  68.265  1.00  0.00    -0.100 A  
HETATM   15  C   UNL     1      -8.768   8.291  69.083  1.00  0.00    -0.143 A  
HETATM   16  C   UNL     1     -10.613   9.403  67.995  1.00  0.00    -0.278 A  
HETATM   17  C   UNL     1      -8.346   9.886  67.315  1.00  0.00    -0.121 A  
ENDBRANCH   3  12
TORSDOF 1
ENDMDL
MODEL      100
REMARK 921   NORMALIZED FREE ENERGY PREDICTED BY IDOCK:   -4.21 KCAL/MOL
REMARK 922        TOTAL FREE ENERGY PREDICTED BY IDOCK:   -4.65 KCAL/MOL
REMARK 923 INTER-LIGAND FREE ENERGY PREDICTED BY IDOCK:   -4.24 KCAL/MOL
REMARK 924 INTRA-LIGAND FREE ENERGY PREDICTED BY IDOCK:   -0.42 KCAL/MOL
REMARK 927      BINDING AFFINITY PREDICTED BY RF-SCORE:    0.00 PKD
ROOT
HETATM    1  O   UNL     1     -10.244  10.130  64.993  1.00  0.00    -0.309 OA 
HETATM    2  C   UNL     1      -9.815  10.135  66.133  1.00  0.00    -0.237 C  
HETATM    3  C   UNL     1      -9.073  11.255  66.850  1.00  0.00    -0.172 C  
HETATM    4  C   UNL     1      -9.933   8.997  67.042  1.00  0.00    -0.295 A  
HETATM    5  C   UNL     1      -8.718  10.625  68.188  1.00  0.00    -0.130 C  
HETATM    6  C   UNL     1     -10.585   7.795  66.834  1.00  0.00    -0.347 A  
HETATM    7  C   UNL     1      -9.283   9.276  68.235  1.00  0.00    -0.134 A  
HETATM    8  O   UNL     1      -8.084  11.115  69.106  1.00  0.00    -0.121 OA 
HETATM    9  C   UNL     1      -9.246   8.364  69.273  1.00  0.00    -0.154 A  
HETATM   10  C   UNL     1     -10.565   6.861  67.874  1.00  0.00    -0.286 A  
HETATM   11  C   UNL     1      -9.898   7.143  69.083  1.00  0.00    -0.160 A  
ENDROOT
BRANCH   3  12
HETATM   12  C   UNL     1      -9.906  12.517  66.935  1.00  0.00    -0.229 A  
HETATM   13  C   UNL     1     -10.044  14.934  66.682  1.00  0.00    -0.264 A  
HETATM   14  C   UNL     1     -12.030  13.673  67.202  1.00  0.00    -0.434 A  
HETATM   15  C   UNL     1     -11.285  12.491  67.195  1.00  0.00    -0.352 A  
HETATM   16  C   UNL     1      -9.297  13.755  66.673  1.00  0.00    -0.277 A  
HETATM   17  C   UNL     1     -11.411  14.893  66.946  1.00  0.00    -0.338 A  
ENDBRANCH   3  12
TORSDOF 1
ENDMDL
MODEL      101
REMARK 921   NORMALIZED FREE ENERGY PREDICTED BY IDOCK:   -4.19 KCAL/MOL
REMARK 922        TOTAL FREE ENERGY PREDICTED BY IDOCK:   -4.63 KCAL/MOL
REMARK 923 INTER-LIGAND FREE ENERGY PREDICTED BY IDOCK:   -4.50 KCAL/MOL
REMARK 924 INTRA-LIGAND FREE ENERGY PREDICTED BY IDOCK:   -0.13 KCAL/MOL
REMARK 927      BINDING AFFINITY PREDICTED BY RF-SCORE:    0.00 PKD
ROOT
HETATM    1  O   UNL     1      -8.451   9.556  70.321  1.00  0.00    -0.180 OA 
HETATM    2  C   UNL     1      -9.100   8.629  69.871  1.00  0.00    -0.151 C  
HETATM    3  C   UNL     1     -10.193   7.827  70.564  1.00  0.00    -0.201 C  
HETATM    4  C   UNL     1      -8.911   8.095  68.524  1.00  0.00    -0.137 A  
HETATM    5  C   UNL     1     -10.536   6.761  69.535  1.00  0.00    -0.220 C  
HETATM    6  C   UNL     1      -8.072   8.556  67.526  1.00  0.00    -0.107 A  
HETATM    7  C   UNL     1      -9.738   6.998  68.331  1.00  0.00    -0.139 A  
HETATM    8  O   UNL     1     -11.336   5.847  69.635  1.00  0.00    -0.370 OA 
HETATM    9  C   UNL     1      -9.759   6.304  67.135  1.00  0.00    -0.164 A  
HETATM   10  C   UNL     1      -8.082   7.873  66.306  1.00  0.00    -0.110 A  
HETATM   11  C   UNL     1      -8.917   6.754  66.114  1.00  0.00    -0.157 A  
ENDROOT
BRANCH   3  12
HETATM   12  C   UNL     1     -11.351   8.704  70.989  1.00  0.00    -0.322 A  
HETATM   13  C   UNL     1     -13.357   8.985  72.340  1.00  0.00    -0.516 A  
HETATM   14  C   UNL     1     -12.517  10.840  71.051  1.00  0.00    -0.522 A  
HETATM   15  C   UNL     1     -11.466  10.044  70.586  1.00  0.00    -0.425 A  
HETATM   16  C   UNL     1     -12.309   8.189  71.877  1.00  0.00    -0.371 A  
HETATM   17  C   UNL     1     -13.460  10.311  71.927  1.00  0.00    -0.403 A  
ENDBRANCH   3  12
TORSDOF 1
ENDMDL
MODEL      102
REMARK 921   NORMALIZED FREE ENERGY PREDICTED BY IDOCK:   -4.18 KCAL/MOL
REMARK 922        TOTAL FREE ENERGY PREDICTED BY IDOCK:   -4.62 KCAL/MOL
REMARK 923 INTER-LIGAND FREE ENERGY PREDICTED BY IDOCK:   -4.20 KCAL/MOL
REMARK 924 INTRA-LIGAND FREE ENERGY PREDICTED BY IDOCK:   -0.42 KCAL/MOL
REMARK 927      BINDING AFFINITY PREDICTED BY RF-SCORE:    0.00 PKD
ROOT
HETATM    1  O   UNL     1     -11.679  16.466  67.877  1.00  0.00    -0.007 OA 
HETATM    2  C   UNL     1     -11.407  15.287  68.021  1.00  0.00    -0.338 C  
HETATM    3  C   UNL     1     -10.636  14.636  69.162  1.00  0.00    -0.247 C  
HETATM    4  C   UNL     1     -11.779  14.253  67.058  1.00  0.00    -0.427 A  
HETATM    5  C   UNL     1     -10.539  13.184  68.720  1.00  0.00    -0.201 C  
HETATM    6  C   UNL     1     -12.537  14.381  65.909  1.00  0.00    -0.275 A  
HETATM    7  C   UNL     1     -11.263  13.029  67.458  1.00  0.00    -0.320 A  
HETATM    8  O   UNL     1      -9.977  12.261  69.284  1.00  0.00     0.230 OA 
HETATM    9  C   UNL     1     -11.472  11.877  66.723  1.00  0.00    -0.384 A  
HETATM   10  C   UNL     1     -12.767  13.227  65.155  1.00  0.00    -0.464 A  
HETATM   11  C   UNL     1     -12.236  11.985  65.557  1.00  0.00     0.082 A  
ENDROOT
BRANCH   3  12
HETATM   12  C   UNL     1     -11.315  14.857  70.497  1.00  0.00    -0.280 A  
HETATM   13  C   UNL     1     -13.016  14.175  72.099  1.00  0.00    -0.463 A  
HETATM   14  C   UNL     1     -11.468  15.929  72.676  1.00  0.00    -0.217 A  
HETATM   15  C   UNL     1     -10.852  15.800  71.428  1.00  0.00     0.105 A  
HETATM   16  C   UNL     1     -12.402  14.043  70.853  1.00  0.00    -0.443 A  
HETATM   17  C   UNL     1     -12.548  15.118  73.011  1.00  0.00    -0.545 A  
ENDBRANCH   3  12
TORSDOF 1
ENDMDL
MODEL      103
REMARK 921   NORMALIZED FREE ENERGY PREDICTED BY IDOCK:   -4.15 KCAL/MOL
REMARK 922        TOTAL FREE ENERGY PREDICTED BY IDOCK:   -4.58 KCAL/MOL
REMARK 923 INTER-LIGAND FREE ENERGY PREDICTED BY IDOCK:   -4.15 KCAL/MOL
REMARK 924 INTRA-LIGAND FREE ENERGY PREDICTED BY IDOCK:   -0.43 KCAL/MOL
REMARK 927      BINDING AFFINITY PREDICTED BY RF-SCORE:    0.00 PKD
ROOT
HETATM    1  O   UNL     1     -10.937  17.444  68.278  1.00  0.00    -0.317 OA 
HETATM    2  C   UNL     1      -9.978  16.694  68.249  1.00  0.00    -0.261 C  
HETATM    3  C   UNL     1      -9.974  15.186  68.032  1.00  0.00    -0.221 C  
HETATM    4  C   UNL     1      -8.601  17.141  68.447  1.00  0.00    -0.246 A  
HETATM    5  C   UNL     1      -8.507  14.823  68.207  1.00  0.00    -0.151 C  
HETATM    6  C   UNL     1      -8.132  18.431  68.614  1.00  0.00    -0.319 A  
HETATM    7  C   UNL     1      -7.745  16.050  68.436  1.00  0.00    -0.147 A  
HETATM    8  O   UNL     1      -7.995  13.717  68.163  1.00  0.00    -0.128 OA 
HETATM    9  C   UNL     1      -6.379  16.196  68.600  1.00  0.00    -0.118 A  
HETATM   10  C   UNL     1      -6.754  18.601  68.774  1.00  0.00    -0.288 A  
HETATM   11  C   UNL     1      -5.885  17.492  68.770  1.00  0.00    -0.172 A  
ENDROOT
BRANCH   3  12
HETATM   12  C   UNL     1     -10.574  14.809  66.695  1.00  0.00    -0.299 A  
HETATM   13  C   UNL     1     -12.119  13.414  65.431  1.00  0.00    -0.457 A  
HETATM   14  C   UNL     1     -10.921  15.182  64.315  1.00  0.00     0.173 A  
HETATM   15  C   UNL     1     -10.297  15.523  65.518  1.00  0.00    -0.419 A  
HETATM   16  C   UNL     1     -11.498  13.753  66.634  1.00  0.00    -0.362 A  
HETATM   17  C   UNL     1     -11.830  14.129  64.272  1.00  0.00    -0.420 A  
ENDBRANCH   3  12
TORSDOF 1
ENDMDL
MODEL      104
REMARK 921   NORMALIZED FREE ENERGY PREDICTED BY IDOCK:   -4.14 KCAL/MOL
REMARK 922        TOTAL FREE ENERGY PREDICTED BY IDOCK:   -4.57 KCAL/MOL
REMARK 923 INTER-LIGAND FREE ENERGY PREDICTED BY IDOCK:   -4.25 KCAL/MOL
REMARK 924 INTRA-LIGAND FREE ENERGY PREDICTED BY IDOCK:   -0.32 KCAL/MOL
REMARK 927      BINDING AFFINITY PREDICTED BY RF-SCORE:    0.00 PKD
ROOT
HETATM    1  O   UNL     1     -12.029   6.411  70.113  1.00  0.00    -0.354 OA 
HETATM    2  C   UNL     1     -10.938   6.873  70.396  1.00  0.00    -0.274 C  
HETATM    3  C   UNL     1     -10.398   8.261  70.081  1.00  0.00    -0.212 C  
HETATM    4  C   UNL     1      -9.906   6.121  71.107  1.00  0.00    -0.210 A  
HETATM    5  C   UNL     1      -8.968   8.194  70.594  1.00  0.00    -0.149 C  
HETATM    6  C   UNL     1      -9.984   4.847  71.640  1.00  0.00    -0.255 A  
HETATM    7  C   UNL     1      -8.753   6.885  71.211  1.00  0.00    -0.134 A  
HETATM    8  O   UNL     1      -8.107   9.055  70.539  1.00  0.00    -0.117 OA 
HETATM    9  C   UNL     1      -7.620   6.409  71.845  1.00  0.00    -0.095 A  
HETATM   10  C   UNL     1      -8.852   4.349  72.291  1.00  0.00    -0.126 A  
HETATM   11  C   UNL     1      -7.678   5.123  72.391  1.00  0.00    -0.097 A  
ENDROOT
BRANCH   3  12
HETATM   12  C   UNL     1     -11.251   9.350  70.697  1.00  0.00    -0.345 A  
HETATM   13  C   UNL     1     -12.170  11.600  70.554  1.00  0.00    -0.451 A  
HETATM   14  C   UNL     1     -12.837  10.151  72.360  1.00  0.00    -0.068 A  
HETATM   15  C   UNL     1     -12.013   9.140  71.858  1.00  0.00    -0.443 A  
HETATM   16  C   UNL     1     -11.346  10.592  70.049  1.00  0.00    -0.400 A  
HETATM   17  C   UNL     1     -12.916  11.379  71.708  1.00  0.00    -0.519 A  
ENDBRANCH   3  12
TORSDOF 1
ENDMDL
MODEL      105
REMARK 921   NORMALIZED FREE ENERGY PREDICTED BY IDOCK:   -4.10 KCAL/MOL
REMARK 922        TOTAL FREE ENERGY PREDICTED BY IDOCK:   -4.53 KCAL/MOL
REMARK 923 INTER-LIGAND FREE ENERGY PREDICTED BY IDOCK:   -4.76 KCAL/MOL
REMARK 924 INTRA-LIGAND FREE ENERGY PREDICTED BY IDOCK:    0.23 KCAL/MOL
REMARK 927      BINDING AFFINITY PREDICTED BY RF-SCORE:    0.00 PKD
ROOT
HETATM    1  O   UNL     1     -11.967  12.246  70.531  1.00  0.00    -0.335 OA 
HETATM    2  C   UNL     1     -11.304  11.395  69.964  1.00  0.00    -0.176 C  
HETATM    3  C   UNL     1     -10.857  10.043  70.503  1.00  0.00    -0.380 C  
HETATM    4  C   UNL     1     -10.784  11.553  68.608  1.00  0.00    -0.242 A  
HETATM    5  C   UNL     1      -9.986   9.501  69.380  1.00  0.00    -0.191 C  
HETATM    6  C   UNL     1     -10.997  12.593  67.721  1.00  0.00    -0.266 A  
HETATM    7  C   UNL     1     -10.005  10.456  68.271  1.00  0.00    -0.168 A  
HETATM    8  O   UNL     1      -9.364   8.454  69.348  1.00  0.00    -0.153 OA 
HETATM    9  C   UNL     1      -9.395  10.350  67.035  1.00  0.00    -0.176 A  
HETATM   10  C   UNL     1     -10.393  12.503  66.463  1.00  0.00    -0.254 A  
HETATM   11  C   UNL     1      -9.596  11.391  66.124  1.00  0.00    -0.242 A  
ENDROOT
BRANCH   3  12
HETATM   12  C   UNL     1     -12.035   9.171  70.880  1.00  0.00    -0.299 A  
HETATM   13  C   UNL     1     -12.897   6.952  71.390  1.00  0.00    -0.365 A  
HETATM   14  C   UNL     1     -14.339   8.870  71.604  1.00  0.00    -0.318 A  
HETATM   15  C   UNL     1     -13.294   9.705  71.200  1.00  0.00    -0.344 A  
HETATM   16  C   UNL     1     -11.851   7.782  70.986  1.00  0.00    -0.290 A  
HETATM   17  C   UNL     1     -14.141   7.496  71.699  1.00  0.00    -0.562 A  
ENDBRANCH   3  12
TORSDOF 1
ENDMDL
MODEL      106
REMARK 921   NORMALIZED FREE ENERGY PREDICTED BY IDOCK:   -4.10 KCAL/MOL
REMARK 922        TOTAL FREE ENERGY PREDICTED BY IDOCK:   -4.53 KCAL/MOL
REMARK 923 INTER-LIGAND FREE ENERGY PREDICTED BY IDOCK:   -4.10 KCAL/MOL
REMARK 924 INTRA-LIGAND FREE ENERGY PREDICTED BY IDOCK:   -0.43 KCAL/MOL
REMARK 927      BINDING AFFINITY PREDICTED BY RF-SCORE:    0.00 PKD
ROOT
HETATM    1  O   UNL     1     -11.004   8.793  66.949  1.00  0.00    -0.060 OA 
HETATM    2  C   UNL     1     -10.105   9.560  67.243  1.00  0.00    -0.215 C  
HETATM    3  C   UNL     1      -9.555  10.718  66.420  1.00  0.00    -0.226 C  
HETATM    4  C   UNL     1      -9.352   9.477  68.493  1.00  0.00    -0.138 A  
HETATM    5  C   UNL     1      -8.394  11.216  67.268  1.00  0.00    -0.135 C  
HETATM    6  C   UNL     1      -9.551   8.620  69.560  1.00  0.00    -0.170 A  
HETATM    7  C   UNL     1      -8.347  10.433  68.503  1.00  0.00    -0.124 A  
HETATM    8  O   UNL     1      -7.611  12.115  67.018  1.00  0.00    -0.148 OA 
HETATM    9  C   UNL     1      -7.487  10.572  69.577  1.00  0.00    -0.146 A  
HETATM   10  C   UNL     1      -8.696   8.749  70.659  1.00  0.00    -0.208 A  
HETATM   11  C   UNL     1      -7.671   9.716  70.666  1.00  0.00    -0.099 A  
ENDROOT
BRANCH   3  12
HETATM   12  C   UNL     1     -10.621  11.751  66.122  1.00  0.00    -0.301 A  
HETATM   13  C   UNL     1     -11.895  13.692  66.855  1.00  0.00    -0.451 A  
HETATM   14  C   UNL     1     -12.168  12.864  64.608  1.00  0.00    -0.494 A  
HETATM   15  C   UNL     1     -11.234  11.856  64.863  1.00  0.00    -0.350 A  
HETATM   16  C   UNL     1     -10.962  12.687  67.112  1.00  0.00    -0.296 A  
HETATM   17  C   UNL     1     -12.498  13.780  65.602  1.00  0.00    -0.541 A  
ENDBRANCH   3  12
TORSDOF 1
ENDMDL
MODEL      107
REMARK 921   NORMALIZED FREE ENERGY PREDICTED BY IDOCK:   -4.07 KCAL/MOL
REMARK 922        TOTAL FREE ENERGY PREDICTED BY IDOCK:   -4.50 KCAL/MOL
REMARK 923 INTER-LIGAND FREE ENERGY PREDICTED BY IDOCK:   -4.08 KCAL/MOL
REMARK 924 INTRA-LIGAND FREE ENERGY PREDICTED BY IDOCK:   -0.42 KCAL/MOL
REMARK 927      BINDING AFFINITY PREDICTED BY RF-SCORE:    0.00 PKD
ROOT
HETATM    1  O   UNL     1      -7.608  13.245  68.075  1.00  0.00    -0.116 OA 
HETATM    2  C   UNL     1      -8.816  13.083  68.071  1.00  0.00    -0.191 C  
HETATM    3  C   UNL     1      -9.599  11.885  67.550  1.00  0.00    -0.175 C  
HETATM    4  C   UNL     1      -9.762  14.075  68.577  1.00  0.00    -0.215 A  
HETATM    5  C   UNL     1     -11.045  12.321  67.728  1.00  0.00    -0.255 C  
HETATM    6  C   UNL     1      -9.492  15.282  69.197  1.00  0.00    -0.236 A  
HETATM    7  C   UNL     1     -11.061  13.638  68.365  1.00  0.00    -0.289 A  
HETATM    8  O   UNL     1     -12.057  11.716  67.421  1.00  0.00    -0.605 OA 
HETATM    9  C   UNL     1     -12.154  14.391  68.756  1.00  0.00    -0.276 A  
HETATM   10  C   UNL     1     -10.583  16.055  69.605  1.00  0.00    -0.311 A  
HETATM   11  C   UNL     1     -11.903  15.615  69.384  1.00  0.00    -0.391 A  
ENDROOT
BRANCH   3  12
HETATM   12  C   UNL     1      -9.220  10.609  68.270  1.00  0.00    -0.153 A  
HETATM   13  C   UNL     1      -9.511   9.145  70.194  1.00  0.00    -0.235 A  
HETATM   14  C   UNL     1      -8.099   8.451  68.369  1.00  0.00    -0.123 A  
HETATM   15  C   UNL     1      -8.374   9.645  67.698  1.00  0.00    -0.121 A  
HETATM   16  C   UNL     1      -9.789  10.338  69.526  1.00  0.00    -0.244 A  
HETATM   17  C   UNL     1      -8.667   8.201  69.615  1.00  0.00    -0.142 A  
ENDBRANCH   3  12
TORSDOF 1
ENDMDL
MODEL      108
REMARK 921   NORMALIZED FREE ENERGY PREDICTED BY IDOCK:   -4.03 KCAL/MOL
REMARK 922        TOTAL FREE ENERGY PREDICTED BY IDOCK:   -4.46 KCAL/MOL
REMARK 923 INTER-LIGAND FREE ENERGY PREDICTED BY IDOCK:   -4.00 KCAL/MOL
REMARK 924 INTRA-LIGAND FREE ENERGY PREDICTED BY IDOCK:   -0.46 KCAL/MOL
REMARK 927      BINDING AFFINITY PREDICTED BY RF-SCORE:    0.00 PKD
ROOT
HETATM    1  O   UNL     1     -10.490  10.509  69.391  1.00  0.00    -0.218 OA 
HETATM    2  C   UNL     1     -10.610   9.299  69.322  1.00  0.00    -0.222 C  
HETATM    3  C   UNL     1     -10.568   8.422  68.078  1.00  0.00    -0.191 C  
HETATM    4  C   UNL     1     -10.846   8.447  70.486  1.00  0.00    -0.250 A  
HETATM    5  C   UNL     1     -10.879   7.039  68.627  1.00  0.00    -0.147 C  
HETATM    6  C   UNL     1     -10.893   8.809  71.820  1.00  0.00    -0.416 A  
HETATM    7  C   UNL     1     -11.016   7.132  70.081  1.00  0.00    -0.293 A  
HETATM    8  O   UNL     1     -10.997   5.993  68.012  1.00  0.00    -0.304 OA 
HETATM    9  C   UNL     1     -11.251   6.116  70.989  1.00  0.00    -0.361 A  
HETATM   10  C   UNL     1     -11.124   7.795  72.756  1.00  0.00    -0.457 A  
HETATM   11  C   UNL     1     -11.304   6.460  72.343  1.00  0.00    -0.324 A  
ENDROOT
BRANCH   3  12
HETATM   12  C   UNL     1      -9.246   8.542  67.350  1.00  0.00    -0.163 A  
HETATM   13  C   UNL     1      -6.817   8.407  67.421  1.00  0.00    -0.070 A  
HETATM   14  C   UNL     1      -7.929   8.793  65.319  1.00  0.00    -0.118 A  
HETATM   15  C   UNL     1      -9.168   8.752  65.964  1.00  0.00    -0.282 A  
HETATM   16  C   UNL     1      -8.052   8.364  68.068  1.00  0.00    -0.123 A  
HETATM   17  C   UNL     1      -6.755   8.621  66.047  1.00  0.00    -0.061 A  
ENDBRANCH   3  12
TORSDOF 1
ENDMDL
MODEL      109
REMARK 921   NORMALIZED FREE ENERGY PREDICTED BY IDOCK:   -4.00 KCAL/MOL
REMARK 922        TOTAL FREE ENERGY PREDICTED BY IDOCK:   -4.43 KCAL/MOL
REMARK 923 INTER-LIGAND FREE ENERGY PREDICTED BY IDOCK:   -3.99 KCAL/MOL
REMARK 924 INTRA-LIGAND FREE ENERGY PREDICTED BY IDOCK:   -0.44 KCAL/MOL
REMARK 927      BINDING AFFINITY PREDICTED BY RF-SCORE:    0.00 PKD
ROOT
HETATM    1  O   UNL     1     -11.747  10.192  71.481  1.00  0.00    -0.343 OA 
HETATM    2  C   UNL     1     -11.233   9.245  70.913  1.00  0.00    -0.306 C  
HETATM    3  C   UNL     1     -10.812   9.143  69.452  1.00  0.00    -0.165 C  
HETATM    4  C   UNL     1     -10.939   7.974  71.573  1.00  0.00    -0.279 A  
HETATM    5  C   UNL     1     -10.342   7.702  69.334  1.00  0.00    -0.214 C  
HETATM    6  C   UNL     1     -11.096   7.642  72.906  1.00  0.00    -0.448 A  
HETATM    7  C   UNL     1     -10.431   7.070  70.651  1.00  0.00    -0.229 A  
HETATM    8  O   UNL     1      -9.938   7.121  68.342  1.00  0.00    -0.149 OA 
HETATM    9  C   UNL     1     -10.066   5.788  71.016  1.00  0.00    -0.260 A  
HETATM   10  C   UNL     1     -10.726   6.352  73.297  1.00  0.00    -0.288 A  
HETATM   11  C   UNL     1     -10.217   5.431  72.359  1.00  0.00    -0.241 A  
ENDROOT
BRANCH   3  12
HETATM   12  C   UNL     1      -9.778  10.188  69.092  1.00  0.00    -0.225 A  
HETATM   13  C   UNL     1      -7.450  10.900  69.114  1.00  0.00    -0.130 A  
HETATM   14  C   UNL     1      -9.092  12.227  67.953  1.00  0.00    -0.190 A  
HETATM   15  C   UNL     1     -10.089  11.318  68.318  1.00  0.00    -0.198 A  
HETATM   16  C   UNL     1      -8.443   9.990  69.479  1.00  0.00    -0.186 A  
HETATM   17  C   UNL     1      -7.775  12.018  68.350  1.00  0.00    -0.138 A  
ENDBRANCH   3  12
TORSDOF 1
ENDMDL
MODEL      110
REMARK 921   NORMALIZED FREE ENERGY PREDICTED BY IDOCK:   -4.00 KCAL/MOL
REMARK 922        TOTAL FREE ENERGY PREDICTED BY IDOCK:   -4.43 KCAL/MOL
REMARK 923 INTER-LIGAND FREE ENERGY PREDICTED BY IDOCK:   -3.95 KCAL/MOL
REMARK 924 INTRA-LIGAND FREE ENERGY PREDICTED BY IDOCK:   -0.48 KCAL/MOL
REMARK 927      BINDING AFFINITY PREDICTED BY RF-SCORE:    0.00 PKD
ROOT
HETATM    1  O   UNL     1     -11.354   6.219  68.381  1.00  0.00    -0.298 OA 
HETATM    2  C   UNL     1     -10.353   6.612  68.953  1.00  0.00    -0.193 C  
HETATM    3  C   UNL     1      -9.564   7.888  68.694  1.00  0.00    -0.155 C  
HETATM    4  C   UNL     1      -9.698   5.869  70.028  1.00  0.00    -0.209 A  
HETATM    5  C   UNL     1      -8.384   7.757  69.644  1.00  0.00    -0.129 C  
HETATM    6  C   UNL     1     -10.103   4.691  70.630  1.00  0.00    -0.261 A  
HETATM    7  C   UNL     1      -8.544   6.529  70.422  1.00  0.00    -0.146 A  
HETATM    8  O   UNL     1      -7.442   8.518  69.784  1.00  0.00    -0.068 OA 
HETATM    9  C   UNL     1      -7.734   6.039  71.431  1.00  0.00    -0.104 A  
HETATM   10  C   UNL     1      -9.302   4.182  71.656  1.00  0.00    -0.202 A  
HETATM   11  C   UNL     1      -8.126   4.849  72.052  1.00  0.00    -0.111 A  
ENDROOT
BRANCH   3  12
HETATM   12  C   UNL     1     -10.415   9.125  68.893  1.00  0.00    -0.239 A  
HETATM   13  C   UNL     1     -11.603  10.604  70.418  1.00  0.00    -0.441 A  
HETATM   14  C   UNL     1     -11.446  11.175  68.082  1.00  0.00    -0.373 A  
HETATM   15  C   UNL     1     -10.709  10.011  67.845  1.00  0.00    -0.322 A  
HETATM   16  C   UNL     1     -10.868   9.441  70.184  1.00  0.00    -0.287 A  
HETATM   17  C   UNL     1     -11.891  11.471  69.367  1.00  0.00    -0.417 A  
ENDBRANCH   3  12
TORSDOF 1
ENDMDL
MODEL      111
REMARK 921   NORMALIZED FREE ENERGY PREDICTED BY IDOCK:   -4.00 KCAL/MOL
REMARK 922        TOTAL FREE ENERGY PREDICTED BY IDOCK:   -4.43 KCAL/MOL
REMARK 923 INTER-LIGAND FREE ENERGY PREDICTED BY IDOCK:   -4.66 KCAL/MOL
REMARK 924 INTRA-LIGAND FREE ENERGY PREDICTED BY IDOCK:    0.23 KCAL/MOL
REMARK 927      BINDING AFFINITY PREDICTED BY RF-SCORE:    0.00 PKD
ROOT
HETATM    1  O   UNL     1     -11.127  13.947  68.395  1.00  0.00    -0.236 OA 
HETATM    2  C   UNL     1     -10.096  13.475  67.950  1.00  0.00    -0.248 C  
HETATM    3  C   UNL     1      -9.914  12.164  67.197  1.00  0.00    -0.210 C  
HETATM    4  C   UNL     1      -8.790  14.117  68.093  1.00  0.00    -0.183 A  
HETATM    5  C   UNL     1      -8.407  12.088  67.007  1.00  0.00    -0.178 C  
HETATM    6  C   UNL     1      -8.494  15.347  68.650  1.00  0.00    -0.170 A  
HETATM    7  C   UNL     1      -7.804  13.303  67.555  1.00  0.00    -0.173 A  
HETATM    8  O   UNL     1      -7.757  11.198  66.486  1.00  0.00    -0.150 OA 
HETATM    9  C   UNL     1      -6.473  13.677  67.557  1.00  0.00    -0.100 A  
HETATM   10  C   UNL     1      -7.154  15.748  68.655  1.00  0.00    -0.129 A  
HETATM   11  C   UNL     1      -6.152  14.918  68.115  1.00  0.00    -0.145 A  
ENDROOT
BRANCH   3  12
HETATM   12  C   UNL     1     -10.725  12.132  65.919  1.00  0.00    -0.302 A  
HETATM   13  C   UNL     1     -12.785  12.700  64.753  1.00  0.00    -0.460 A  
HETATM   14  C   UNL     1     -10.957  11.709  63.534  1.00  0.00    -0.485 A  
HETATM   15  C   UNL     1     -10.197  11.664  64.706  1.00  0.00    -0.321 A  
HETATM   16  C   UNL     1     -12.028  12.656  65.924  1.00  0.00    -0.497 A  
HETATM   17  C   UNL     1     -12.249  12.227  63.558  1.00  0.00    -0.669 A  
ENDBRANCH   3  12
TORSDOF 1
ENDMDL
MODEL      112
REMARK 921   NORMALIZED FREE ENERGY PREDICTED BY IDOCK:   -3.98 KCAL/MOL
REMARK 922        TOTAL FREE ENERGY PREDICTED BY IDOCK:   -4.41 KCAL/MOL
REMARK 923 INTER-LIGAND FREE ENERGY PREDICTED BY IDOCK:   -3.98 KCAL/MOL
REMARK 924 INTRA-LIGAND FREE ENERGY PREDICTED BY IDOCK:   -0.43 KCAL/MOL
REMARK 927      BINDING AFFINITY PREDICTED BY RF-SCORE:    0.00 PKD
ROOT
HETATM    1  O   UNL     1     -11.110  11.746  65.940  1.00  0.00    -0.309 OA 
HETATM    2  C   UNL     1     -10.202  11.793  66.750  1.00  0.00    -0.211 C  
HETATM    3  C   UNL     1      -9.105  12.843  66.868  1.00  0.00    -0.224 C  
HETATM    4  C   UNL     1      -9.994  10.782  67.784  1.00  0.00    -0.195 A  
HETATM    5  C   UNL     1      -8.232  12.297  67.987  1.00  0.00    -0.163 C  
HETATM    6  C   UNL     1     -10.782   9.686  68.086  1.00  0.00    -0.266 A  
HETATM    7  C   UNL     1      -8.839  11.067  68.498  1.00  0.00    -0.159 A  
HETATM    8  O   UNL     1      -7.198  12.765  68.432  1.00  0.00    -0.100 OA 
HETATM    9  C   UNL     1      -8.412  10.266  69.541  1.00  0.00    -0.156 A  
HETATM   10  C   UNL     1     -10.371   8.867  69.142  1.00  0.00    -0.230 A  
HETATM   11  C   UNL     1      -9.194   9.153  69.862  1.00  0.00    -0.194 A  
ENDROOT
BRANCH   3  12
HETATM   12  C   UNL     1      -9.674  14.224  67.114  1.00  0.00    -0.254 A  
HETATM   13  C   UNL     1     -11.214  15.646  68.352  1.00  0.00    -0.352 A  
HETATM   14  C   UNL     1      -9.670  16.637  66.790  1.00  0.00    -0.271 A  
HETATM   15  C   UNL     1      -9.158  15.371  66.488  1.00  0.00    -0.334 A  
HETATM   16  C   UNL     1     -10.705  14.381  68.054  1.00  0.00    -0.244 A  
HETATM   17  C   UNL     1     -10.696  16.774  67.720  1.00  0.00    -0.321 A  
ENDBRANCH   3  12
TORSDOF 1
ENDMDL
MODEL      113
REMARK 921   NORMALIZED FREE ENERGY PREDICTED BY IDOCK:   -3.90 KCAL/MOL
REMARK 922        TOTAL FREE ENERGY PREDICTED BY IDOCK:   -4.32 KCAL/MOL
REMARK 923 INTER-LIGAND FREE ENERGY PREDICTED BY IDOCK:   -3.86 KCAL/MOL
REMARK 924 INTRA-LIGAND FREE ENERGY PREDICTED BY IDOCK:   -0.46 KCAL/MOL
REMARK 927      BINDING AFFINITY PREDICTED BY RF-SCORE:    0.00 PKD
ROOT
HETATM    1  O   UNL     1      -7.810   8.578  70.246  1.00  0.00    -0.082 OA 
HETATM    2  C   UNL     1      -8.686   8.501  69.403  1.00  0.00    -0.136 C  
HETATM    3  C   UNL     1      -9.494   7.275  68.999  1.00  0.00    -0.147 C  
HETATM    4  C   UNL     1      -9.112   9.632  68.581  1.00  0.00    -0.132 A  
HETATM    5  C   UNL     1     -10.336   7.789  67.843  1.00  0.00    -0.217 C  
HETATM    6  C   UNL     1      -8.695  10.949  68.649  1.00  0.00    -0.154 A  
HETATM    7  C   UNL     1     -10.065   9.215  67.663  1.00  0.00    -0.273 A  
HETATM    8  O   UNL     1     -11.128   7.169  67.154  1.00  0.00    -0.326 OA 
HETATM    9  C   UNL     1     -10.639  10.093  66.763  1.00  0.00    -0.239 A  
HETATM   10  C   UNL     1      -9.269  11.854  67.751  1.00  0.00    -0.184 A  
HETATM   11  C   UNL     1     -10.232  11.429  66.814  1.00  0.00    -0.258 A  
ENDROOT
BRANCH   3  12
HETATM   12  C   UNL     1     -10.278   6.710  70.165  1.00  0.00    -0.215 A  
HETATM   13  C   UNL     1     -10.445   5.070  71.956  1.00  0.00    -0.269 A  
HETATM   14  C   UNL     1     -12.110   6.801  71.764  1.00  0.00    -0.393 A  
HETATM   15  C   UNL     1     -11.450   7.317  70.646  1.00  0.00    -0.322 A  
HETATM   16  C   UNL     1      -9.783   5.583  70.840  1.00  0.00    -0.231 A  
HETATM   17  C   UNL     1     -11.608   5.679  72.418  1.00  0.00    -0.281 A  
ENDBRANCH   3  12
TORSDOF 1
ENDMDL
MODEL      114
REMARK 921   NORMALIZED FREE ENERGY PREDICTED BY IDOCK:   -3.90 KCAL/MOL
REMARK 922        TOTAL FREE ENERGY PREDICTED BY IDOCK:   -4.32 KCAL/MOL
REMARK 923 INTER-LIGAND FREE ENERGY PREDICTED BY IDOCK:   -3.87 KCAL/MOL
REMARK 924 INTRA-LIGAND FREE ENERGY PREDICTED BY IDOCK:   -0.45 KCAL/MOL
REMARK 927      BINDING AFFINITY PREDICTED BY RF-SCORE:    0.00 PKD
ROOT
HETATM    1  O   UNL     1     -11.302   7.283  70.311  1.00  0.00    -0.273 OA 
HETATM    2  C   UNL     1     -10.894   6.556  69.422  1.00  0.00    -0.308 C  
HETATM    3  C   UNL     1     -10.890   6.821  67.922  1.00  0.00    -0.320 C  
HETATM    4  C   UNL     1     -10.330   5.230  69.664  1.00  0.00    -0.348 A  
HETATM    5  C   UNL     1     -10.361   5.516  67.349  1.00  0.00    -0.225 C  
HETATM    6  C   UNL     1     -10.084   4.608  70.875  1.00  0.00    -0.257 A  
HETATM    7  C   UNL     1     -10.032   4.617  68.456  1.00  0.00    -0.130 A  
HETATM    8  O   UNL     1     -10.206   5.216  66.178  1.00  0.00    -0.211 OA 
HETATM    9  C   UNL     1      -9.480   3.350  68.400  1.00  0.00    -0.209 A  
HETATM   10  C   UNL     1      -9.521   3.329  70.840  1.00  0.00    -0.234 A  
HETATM   11  C   UNL     1      -9.224   2.704  69.613  1.00  0.00    -0.199 A  
ENDROOT
BRANCH   3  12
HETATM   12  C   UNL     1     -10.082   8.051  67.571  1.00  0.00    -0.281 A  
HETATM   13  C   UNL     1      -9.954  10.194  66.423  1.00  0.00    -0.295 A  
HETATM   14  C   UNL     1      -8.126   9.479  67.821  1.00  0.00    -0.106 A  
HETATM   15  C   UNL     1      -8.814   8.300  68.122  1.00  0.00    -0.139 A  
HETATM   16  C   UNL     1     -10.644   9.018  66.722  1.00  0.00    -0.201 A  
HETATM   17  C   UNL     1      -8.696  10.425  66.973  1.00  0.00    -0.132 A  
ENDBRANCH   3  12
TORSDOF 1
ENDMDL
MODEL      115
REMARK 921   NORMALIZED FREE ENERGY PREDICTED BY IDOCK:   -3.86 KCAL/MOL
REMARK 922        TOTAL FREE ENERGY PREDICTED BY IDOCK:   -4.28 KCAL/MOL
REMARK 923 INTER-LIGAND FREE ENERGY PREDICTED BY IDOCK:   -3.86 KCAL/MOL
REMARK 924 INTRA-LIGAND FREE ENERGY PREDICTED BY IDOCK:   -0.42 KCAL/MOL
REMARK 927      BINDING AFFINITY PREDICTED BY RF-SCORE:    0.00 PKD
ROOT
HETATM    1  O   UNL     1     -12.281   6.619  70.355  1.00  0.00    -0.332 OA 
HETATM    2  C   UNL     1     -11.064   6.598  70.319  1.00  0.00    -0.326 C  
HETATM    3  C   UNL     1     -10.097   6.325  71.464  1.00  0.00    -0.218 C  
HETATM    4  C   UNL     1     -10.290   6.866  69.109  1.00  0.00    -0.207 A  
HETATM    5  C   UNL     1      -8.738   6.542  70.819  1.00  0.00    -0.143 C  
HETATM    6  C   UNL     1     -10.754   7.099  67.827  1.00  0.00    -0.282 A  
HETATM    7  C   UNL     1      -8.935   6.847  69.402  1.00  0.00    -0.138 A  
HETATM    8  O   UNL     1      -7.638   6.477  71.340  1.00  0.00    -0.091 OA 
HETATM    9  C   UNL     1      -7.977   7.069  68.429  1.00  0.00    -0.123 A  
HETATM   10  C   UNL     1      -9.802   7.319  66.827  1.00  0.00    -0.281 A  
HETATM   11  C   UNL     1      -8.425   7.306  67.126  1.00  0.00    -0.118 A  
ENDROOT
BRANCH   3  12
HETATM   12  C   UNL     1     -10.311   4.952  72.065  1.00  0.00    -0.263 A  
HETATM   13  C   UNL     1      -9.883   2.557  71.977  1.00  0.00    -0.226 A  
HETATM   14  C   UNL     1     -11.103   3.483  73.837  1.00  0.00    -0.224 A  
HETATM   15  C   UNL     1     -10.981   4.761  73.284  1.00  0.00    -0.390 A  
HETATM   16  C   UNL     1      -9.759   3.832  71.423  1.00  0.00    -0.242 A  
HETATM   17  C   UNL     1     -10.554   2.383  73.184  1.00  0.00    -0.255 A  
ENDBRANCH   3  12
TORSDOF 1
ENDMDL
MODEL      116
REMARK 921   NORMALIZED FREE ENERGY PREDICTED BY IDOCK:   -3.85 KCAL/MOL
REMARK 922        TOTAL FREE ENERGY PREDICTED BY IDOCK:   -4.27 KCAL/MOL
REMARK 923 INTER-LIGAND FREE ENERGY PREDICTED BY IDOCK:   -3.80 KCAL/MOL
REMARK 924 INTRA-LIGAND FREE ENERGY PREDICTED BY IDOCK:   -0.47 KCAL/MOL
REMARK 927      BINDING AFFINITY PREDICTED BY RF-SCORE:    0.00 PKD
ROOT
HETATM    1  O   UNL     1     -10.289   7.273  67.058  1.00  0.00    -0.251 OA 
HETATM    2  C   UNL     1     -10.630   7.335  68.226  1.00  0.00    -0.172 C  
HETATM    3  C   UNL     1     -10.858   6.186  69.198  1.00  0.00    -0.418 C  
HETATM    4  C   UNL     1     -10.911   8.593  68.916  1.00  0.00    -0.024 A  
HETATM    5  C   UNL     1     -11.362   6.892  70.447  1.00  0.00    -0.328 C  
HETATM    6  C   UNL     1     -10.774   9.884  68.439  1.00  0.00    -0.271 A  
HETATM    7  C   UNL     1     -11.350   8.335  70.206  1.00  0.00    -0.129 A  
HETATM    8  O   UNL     1     -11.720   6.395  71.501  1.00  0.00    -0.308 OA 
HETATM    9  C   UNL     1     -11.682   9.356  71.078  1.00  0.00    -0.395 A  
HETATM   10  C   UNL     1     -11.098  10.930  69.307  1.00  0.00    -0.305 A  
HETATM   11  C   UNL     1     -11.551  10.668  70.615  1.00  0.00    -0.432 A  
ENDROOT
BRANCH   3  12
HETATM   12  C   UNL     1      -9.606   5.356  69.391  1.00  0.00    -0.203 A  
HETATM   13  C   UNL     1      -8.499   3.195  69.214  1.00  0.00    -0.098 A  
HETATM   14  C   UNL     1      -7.232   5.133  69.881  1.00  0.00    -0.059 A  
HETATM   15  C   UNL     1      -8.380   5.924  69.775  1.00  0.00    -0.124 A  
HETATM   16  C   UNL     1      -9.647   3.981  69.107  1.00  0.00    -0.233 A  
HETATM   17  C   UNL     1      -7.292   3.771  69.600  1.00  0.00    -0.049 A  
ENDBRANCH   3  12
TORSDOF 1
ENDMDL
MODEL      117
REMARK 921   NORMALIZED FREE ENERGY PREDICTED BY IDOCK:   -3.85 KCAL/MOL
REMARK 922        TOTAL FREE ENERGY PREDICTED BY IDOCK:   -4.27 KCAL/MOL
REMARK 923 INTER-LIGAND FREE ENERGY PREDICTED BY IDOCK:   -3.79 KCAL/MOL
REMARK 924 INTRA-LIGAND FREE ENERGY PREDICTED BY IDOCK:   -0.47 KCAL/MOL
REMARK 927      BINDING AFFINITY PREDICTED BY RF-SCORE:    0.00 PKD
ROOT
HETATM    1  O   UNL     1     -10.890   6.470  67.187  1.00  0.00    -0.315 OA 
HETATM    2  C   UNL     1     -10.775   7.451  67.899  1.00  0.00    -0.149 C  
HETATM    3  C   UNL     1     -11.009   7.552  69.401  1.00  0.00    -0.099 C  
HETATM    4  C   UNL     1     -10.392   8.769  67.397  1.00  0.00    -0.349 A  
HETATM    5  C   UNL     1     -10.808   9.034  69.677  1.00  0.00    -0.186 C  
HETATM    6  C   UNL     1     -10.025   9.126  66.112  1.00  0.00    -0.338 A  
HETATM    7  C   UNL     1     -10.423   9.695  68.429  1.00  0.00    -0.258 A  
HETATM    8  O   UNL     1     -10.923   9.625  70.736  1.00  0.00    -0.276 OA 
HETATM    9  C   UNL     1     -10.099  11.023  68.225  1.00  0.00    -0.191 A  
HETATM   10  C   UNL     1      -9.687  10.463  65.885  1.00  0.00    -0.272 A  
HETATM   11  C   UNL     1      -9.726  11.405  66.933  1.00  0.00    -0.213 A  
ENDROOT
BRANCH   3  12
HETATM   12  C   UNL     1     -10.096   6.625  70.175  1.00  0.00    -0.200 A  
HETATM   13  C   UNL     1      -9.824   4.577  71.463  1.00  0.00    -0.260 A  
HETATM   14  C   UNL     1      -7.891   5.906  70.914  1.00  0.00    -0.102 A  
HETATM   15  C   UNL     1      -8.707   6.820  70.241  1.00  0.00    -0.144 A  
HETATM   16  C   UNL     1     -10.642   5.487  70.791  1.00  0.00    -0.320 A  
HETATM   17  C   UNL     1      -8.449   4.786  71.523  1.00  0.00    -0.121 A  
ENDBRANCH   3  12
TORSDOF 1
ENDMDL
MODEL      118
REMARK 921   NORMALIZED FREE ENERGY PREDICTED BY IDOCK:   -3.84 KCAL/MOL
REMARK 922        TOTAL FREE ENERGY PREDICTED BY IDOCK:   -4.25 KCAL/MOL
REMARK 923 INTER-LIGAND FREE ENERGY PREDICTED BY IDOCK:   -3.78 KCAL/MOL
REMARK 924 INTRA-LIGAND FREE ENERGY PREDICTED BY IDOCK:   -0.47 KCAL/MOL
REMARK 927      BINDING AFFINITY PREDICTED BY RF-SCORE:    0.00 PKD
ROOT
HETATM    1  O   UNL     1     -11.075   6.898  66.599  1.00  0.00    -0.207 OA 
HETATM    2  C   UNL     1     -10.043   7.329  67.083  1.00  0.00    -0.236 C  
HETATM    3  C   UNL     1      -9.184   8.484  66.584  1.00  0.00    -0.223 C  
HETATM    4  C   UNL     1      -9.417   6.763  68.276  1.00  0.00    -0.125 A  
HETATM    5  C   UNL     1      -8.000   8.462  67.536  1.00  0.00    -0.106 C  
HETATM    6  C   UNL     1      -9.882   5.747  69.090  1.00  0.00    -0.211 A  
HETATM    7  C   UNL     1      -8.219   7.414  68.534  1.00  0.00    -0.125 A  
HETATM    8  O   UNL     1      -7.013   9.177  67.527  1.00  0.00    -0.076 OA 
HETATM    9  C   UNL     1      -7.425   7.074  69.613  1.00  0.00    -0.098 A  
HETATM   10  C   UNL     1      -9.096   5.392  70.191  1.00  0.00    -0.165 A  
HETATM   11  C   UNL     1      -7.876   6.048  70.449  1.00  0.00    -0.106 A  
ENDROOT
BRANCH   3  12
HETATM   12  C   UNL     1      -9.957   9.785  66.550  1.00  0.00    -0.304 A  
HETATM   13  C   UNL     1     -10.803  11.665  65.254  1.00  0.00    -0.340 A  
HETATM   14  C   UNL     1     -11.404  11.451  67.578  1.00  0.00    -0.362 A  
HETATM   15  C   UNL     1     -10.650  10.277  67.668  1.00  0.00    -0.312 A  
HETATM   16  C   UNL     1     -10.050  10.493  65.341  1.00  0.00    -0.358 A  
HETATM   17  C   UNL     1     -11.481  12.143  66.373  1.00  0.00    -0.430 A  
ENDBRANCH   3  12
TORSDOF 1
ENDMDL
MODEL      119
REMARK 921   NORMALIZED FREE ENERGY PREDICTED BY IDOCK:   -3.82 KCAL/MOL
REMARK 922        TOTAL FREE ENERGY PREDICTED BY IDOCK:   -4.24 KCAL/MOL
REMARK 923 INTER-LIGAND FREE ENERGY PREDICTED BY IDOCK:   -3.77 KCAL/MOL
REMARK 924 INTRA-LIGAND FREE ENERGY PREDICTED BY IDOCK:   -0.47 KCAL/MOL
REMARK 927      BINDING AFFINITY PREDICTED BY RF-SCORE:    0.00 PKD
ROOT
HETATM    1  O   UNL     1      -6.972  13.901  69.098  1.00  0.00    -0.111 OA 
HETATM    2  C   UNL     1      -7.950  13.726  68.394  1.00  0.00    -0.144 C  
HETATM    3  C   UNL     1      -9.205  14.584  68.301  1.00  0.00    -0.201 C  
HETATM    4  C   UNL     1      -8.096  12.588  67.488  1.00  0.00    -0.176 A  
HETATM    5  C   UNL     1     -10.085  13.797  67.343  1.00  0.00    -0.244 C  
HETATM    6  C   UNL     1      -7.178  11.594  67.203  1.00  0.00    -0.145 A  
HETATM    7  C   UNL     1      -9.344  12.622  66.885  1.00  0.00    -0.228 A  
HETATM    8  O   UNL     1     -11.217  14.057  66.974  1.00  0.00    -0.297 OA 
HETATM    9  C   UNL     1      -9.738  11.658  65.975  1.00  0.00    -0.257 A  
HETATM   10  C   UNL     1      -7.554  10.612  66.281  1.00  0.00    -0.137 A  
HETATM   11  C   UNL     1      -8.825  10.643  65.674  1.00  0.00    -0.201 A  
ENDROOT
BRANCH   3  12
HETATM   12  C   UNL     1      -8.887  15.999  67.866  1.00  0.00    -0.180 A  
HETATM   13  C   UNL     1      -8.590  18.339  68.467  1.00  0.00    -0.323 A  
HETATM   14  C   UNL     1      -8.126  17.618  66.216  1.00  0.00    -0.281 A  
HETATM   15  C   UNL     1      -8.472  16.309  66.561  1.00  0.00    -0.338 A  
HETATM   16  C   UNL     1      -8.935  17.033  68.815  1.00  0.00    -0.249 A  
HETATM   17  C   UNL     1      -8.185  18.632  67.168  1.00  0.00    -0.258 A  
ENDBRANCH   3  12
TORSDOF 1
ENDMDL
MODEL      120
REMARK 921   NORMALIZED FREE ENERGY PREDICTED BY IDOCK:   -3.77 KCAL/MOL
REMARK 922        TOTAL FREE ENERGY PREDICTED BY IDOCK:   -4.18 KCAL/MOL
REMARK 923 INTER-LIGAND FREE ENERGY PREDICTED BY IDOCK:   -3.82 KCAL/MOL
REMARK 924 INTRA-LIGAND FREE ENERGY PREDICTED BY IDOCK:   -0.36 KCAL/MOL
REMARK 927      BINDING AFFINITY PREDICTED BY RF-SCORE:    0.00 PKD
ROOT
HETATM    1  O   UNL     1     -11.464   7.906  70.665  1.00  0.00    -0.278 OA 
HETATM    2  C   UNL     1     -10.664   8.554  70.014  1.00  0.00    -0.232 C  
HETATM    3  C   UNL     1      -9.318   8.102  69.464  1.00  0.00    -0.155 C  
HETATM    4  C   UNL     1     -10.869   9.955  69.652  1.00  0.00    -0.281 A  
HETATM    5  C   UNL     1      -8.760   9.374  68.845  1.00  0.00    -0.132 C  
HETATM    6  C   UNL     1     -11.976  10.750  69.888  1.00  0.00    -0.418 A  
HETATM    7  C   UNL     1      -9.755  10.438  68.982  1.00  0.00    -0.216 A  
HETATM    8  O   UNL     1      -7.680   9.537  68.303  1.00  0.00    -0.085 OA 
HETATM    9  C   UNL     1      -9.690  11.741  68.524  1.00  0.00    -0.181 A  
HETATM   10  C   UNL     1     -11.933  12.069  69.427  1.00  0.00    -0.334 A  
HETATM   11  C   UNL     1     -10.798  12.561  68.752  1.00  0.00    -0.276 A  
ENDROOT
BRANCH   3  12
HETATM   12  C   UNL     1      -9.464   6.935  68.511  1.00  0.00    -0.133 A  
HETATM   13  C   UNL     1      -8.593   4.826  67.662  1.00  0.00    -0.103 A  
HETATM   14  C   UNL     1     -10.724   5.636  66.883  1.00  0.00    -0.350 A  
HETATM   15  C   UNL     1     -10.599   6.761  67.703  1.00  0.00    -0.323 A  
HETATM   16  C   UNL     1      -8.465   5.947  68.482  1.00  0.00    -0.111 A  
HETATM   17  C   UNL     1      -9.722   4.670  66.863  1.00  0.00    -0.215 A  
ENDBRANCH   3  12
TORSDOF 1
ENDMDL
MODEL      121
REMARK 921   NORMALIZED FREE ENERGY PREDICTED BY IDOCK:   -3.76 KCAL/MOL
REMARK 922        TOTAL FREE ENERGY PREDICTED BY IDOCK:   -4.17 KCAL/MOL
REMARK 923 INTER-LIGAND FREE ENERGY PREDICTED BY IDOCK:   -3.69 KCAL/MOL
REMARK 924 INTRA-LIGAND FREE ENERGY PREDICTED BY IDOCK:   -0.47 KCAL/MOL
REMARK 927      BINDING AFFINITY PREDICTED BY RF-SCORE:    0.00 PKD
ROOT
HETATM    1  O   UNL     1     -10.374   9.695  67.056  1.00  0.00    -0.234 OA 
HETATM    2  C   UNL     1     -10.526   9.254  68.181  1.00  0.00    -0.215 C  
HETATM    3  C   UNL     1     -10.038   7.923  68.739  1.00  0.00    -0.203 C  
HETATM    4  C   UNL     1     -11.259   9.959  69.230  1.00  0.00    -0.174 A  
HETATM    5  C   UNL     1     -10.623   7.909  70.143  1.00  0.00    -0.237 C  
HETATM    6  C   UNL     1     -11.819  11.223  69.186  1.00  0.00    -0.423 A  
HETATM    7  C   UNL     1     -11.328   9.171  70.370  1.00  0.00    -0.260 A  
HETATM    8  O   UNL     1     -10.543   7.030  70.983  1.00  0.00    -0.216 OA 
HETATM    9  C   UNL     1     -11.967   9.605  71.516  1.00  0.00    -0.485 A  
HETATM   10  C   UNL     1     -12.465  11.684  70.337  1.00  0.00    -0.304 A  
HETATM   11  C   UNL     1     -12.540  10.880  71.493  1.00  0.00    -0.480 A  
ENDROOT
BRANCH   3  12
HETATM   12  C   UNL     1      -8.530   7.804  68.671  1.00  0.00    -0.129 A  
HETATM   13  C   UNL     1      -6.573   6.747  67.681  1.00  0.00    -0.058 A  
HETATM   14  C   UNL     1      -6.289   8.565  69.237  1.00  0.00    -0.042 A  
HETATM   15  C   UNL     1      -7.676   8.667  69.376  1.00  0.00    -0.091 A  
HETATM   16  C   UNL     1      -7.959   6.847  67.817  1.00  0.00    -0.114 A  
HETATM   17  C   UNL     1      -5.739   7.607  68.390  1.00  0.00    -0.028 A  
ENDBRANCH   3  12
TORSDOF 1
ENDMDL
MODEL      122
REMARK 921   NORMALIZED FREE ENERGY PREDICTED BY IDOCK:   -3.75 KCAL/MOL
REMARK 922        TOTAL FREE ENERGY PREDICTED BY IDOCK:   -4.17 KCAL/MOL
REMARK 923 INTER-LIGAND FREE ENERGY PREDICTED BY IDOCK:   -3.73 KCAL/MOL
REMARK 924 INTRA-LIGAND FREE ENERGY PREDICTED BY IDOCK:   -0.43 KCAL/MOL
REMARK 927      BINDING AFFINITY PREDICTED BY RF-SCORE:    0.00 PKD
ROOT
HETATM    1  O   UNL     1     -10.469  15.431  64.964  1.00  0.00    -0.406 OA 
HETATM    2  C   UNL     1      -9.575  15.498  65.789  1.00  0.00    -0.332 C  
HETATM    3  C   UNL     1      -8.671  16.684  66.097  1.00  0.00    -0.322 C  
HETATM    4  C   UNL     1      -9.191  14.382  66.651  1.00  0.00    -0.283 A  
HETATM    5  C   UNL     1      -7.709  16.119  67.130  1.00  0.00    -0.194 C  
HETATM    6  C   UNL     1      -9.781  13.135  66.756  1.00  0.00    -0.246 A  
HETATM    7  C   UNL     1      -8.096  14.738  67.424  1.00  0.00    -0.220 A  
HETATM    8  O   UNL     1      -6.767  16.675  67.666  1.00  0.00    -0.123 OA 
HETATM    9  C   UNL     1      -7.532  13.862  68.333  1.00  0.00    -0.117 A  
HETATM   10  C   UNL     1      -9.229  12.236  67.674  1.00  0.00    -0.183 A  
HETATM   11  C   UNL     1      -8.112  12.596  68.454  1.00  0.00    -0.137 A  
ENDROOT
BRANCH   3  12
HETATM   12  C   UNL     1      -9.463  17.892  66.550  1.00  0.00    -0.307 A  
HETATM   13  C   UNL     1     -11.196  18.819  67.986  1.00  0.00     0.436 A  
HETATM   14  C   UNL     1      -9.882  20.289  66.601  1.00  0.00    -0.562 A  
HETATM   15  C   UNL     1      -9.168  19.192  66.111  1.00  0.00    -0.250 A  
HETATM   16  C   UNL     1     -10.484  17.722  67.499  1.00  0.00    -0.376 A  
HETATM   17  C   UNL     1     -10.895  20.102  67.538  1.00  0.00    -0.110 A  
ENDBRANCH   3  12
TORSDOF 1
ENDMDL
MODEL      123
REMARK 921   NORMALIZED FREE ENERGY PREDICTED BY IDOCK:   -3.75 KCAL/MOL
REMARK 922        TOTAL FREE ENERGY PREDICTED BY IDOCK:   -4.16 KCAL/MOL
REMARK 923 INTER-LIGAND FREE ENERGY PREDICTED BY IDOCK:   -4.01 KCAL/MOL
REMARK 924 INTRA-LIGAND FREE ENERGY PREDICTED BY IDOCK:   -0.15 KCAL/MOL
REMARK 927      BINDING AFFINITY PREDICTED BY RF-SCORE:    0.00 PKD
ROOT
HETATM    1  O   UNL     1      -7.289  19.687  69.745  1.00  0.00    -0.189 OA 
HETATM    2  C   UNL     1      -7.458  18.988  68.763  1.00  0.00    -0.333 C  
HETATM    3  C   UNL     1      -6.528  17.921  68.200  1.00  0.00    -0.189 C  
HETATM    4  C   UNL     1      -8.639  19.077  67.906  1.00  0.00    -0.333 A  
HETATM    5  C   UNL     1      -7.240  17.487  66.928  1.00  0.00    -0.197 C  
HETATM    6  C   UNL     1      -9.765  19.863  68.073  1.00  0.00    -0.510 A  
HETATM    7  C   UNL     1      -8.506  18.213  66.829  1.00  0.00    -0.273 A  
HETATM    8  O   UNL     1      -6.872  16.672  66.100  1.00  0.00    -0.086 OA 
HETATM    9  C   UNL     1      -9.490  18.098  65.864  1.00  0.00     0.112 A  
HETATM   10  C   UNL     1     -10.774  19.757  67.111  1.00  0.00    -0.547 A  
HETATM   11  C   UNL     1     -10.636  18.884  66.014  1.00  0.00    -0.470 A  
ENDROOT
BRANCH   3  12
HETATM   12  C   UNL     1      -6.270  16.815  69.201  1.00  0.00    -0.188 A  
HETATM   13  C   UNL     1      -6.595  14.494  69.861  1.00  0.00    -0.151 A  
HETATM   14  C   UNL     1      -5.145  15.913  71.161  1.00  0.00    -0.142 A  
HETATM   15  C   UNL     1      -5.405  16.978  70.295  1.00  0.00    -0.220 A  
HETATM   16  C   UNL     1      -6.857  15.556  68.994  1.00  0.00    -0.139 A  
HETATM   17  C   UNL     1      -5.738  14.673  70.944  1.00  0.00    -0.154 A  
ENDBRANCH   3  12
TORSDOF 1
ENDMDL
MODEL      124
REMARK 921   NORMALIZED FREE ENERGY PREDICTED BY IDOCK:   -3.75 KCAL/MOL
REMARK 922        TOTAL FREE ENERGY PREDICTED BY IDOCK:   -4.16 KCAL/MOL
REMARK 923 INTER-LIGAND FREE ENERGY PREDICTED BY IDOCK:   -3.70 KCAL/MOL
REMARK 924 INTRA-LIGAND FREE ENERGY PREDICTED BY IDOCK:   -0.46 KCAL/MOL
REMARK 927      BINDING AFFINITY PREDICTED BY RF-SCORE:    0.00 PKD
ROOT
HETATM    1  O   UNL     1     -12.376   6.569  70.267  1.00  0.00    -0.178 OA 
HETATM    2  C   UNL     1     -11.197   6.315  70.437  1.00  0.00    -0.373 C  
HETATM    3  C   UNL     1     -10.049   6.486  69.450  1.00  0.00    -0.198 C  
HETATM    4  C   UNL     1     -10.665   5.754  71.677  1.00  0.00    -0.314 A  
HETATM    5  C   UNL     1      -8.863   5.905  70.203  1.00  0.00    -0.142 C  
HETATM    6  C   UNL     1     -11.335   5.495  72.859  1.00  0.00    -0.348 A  
HETATM    7  C   UNL     1      -9.308   5.503  71.538  1.00  0.00    -0.172 A  
HETATM    8  O   UNL     1      -7.714   5.780  69.818  1.00  0.00    -0.081 OA 
HETATM    9  C   UNL     1      -8.558   4.972  72.571  1.00  0.00    -0.120 A  
HETATM   10  C   UNL     1     -10.593   4.964  73.918  1.00  0.00    -0.342 A  
HETATM   11  C   UNL     1      -9.215   4.702  73.774  1.00  0.00    -0.111 A  
ENDROOT
BRANCH   3  12
HETATM   12  C   UNL     1      -9.891   7.929  69.017  1.00  0.00    -0.171 A  
HETATM   13  C   UNL     1     -10.322   9.658  67.359  1.00  0.00    -0.306 A  
HETATM   14  C   UNL     1      -9.252  10.239  69.439  1.00  0.00    -0.206 A  
HETATM   15  C   UNL     1      -9.323   8.905  69.851  1.00  0.00    -0.172 A  
HETATM   16  C   UNL     1     -10.394   8.326  67.768  1.00  0.00    -0.296 A  
HETATM   17  C   UNL     1      -9.751  10.615  68.195  1.00  0.00    -0.167 A  
ENDBRANCH   3  12
TORSDOF 1
ENDMDL
MODEL      125
REMARK 921   NORMALIZED FREE ENERGY PREDICTED BY IDOCK:   -3.74 KCAL/MOL
REMARK 922        TOTAL FREE ENERGY PREDICTED BY IDOCK:   -4.15 KCAL/MOL
REMARK 923 INTER-LIGAND FREE ENERGY PREDICTED BY IDOCK:   -3.68 KCAL/MOL
REMARK 924 INTRA-LIGAND FREE ENERGY PREDICTED BY IDOCK:   -0.47 KCAL/MOL
REMARK 927      BINDING AFFINITY PREDICTED BY RF-SCORE:    0.00 PKD
ROOT
HETATM    1  O   UNL     1     -11.213   6.355  68.232  1.00  0.00    -0.309 OA 
HETATM    2  C   UNL     1     -10.769   5.924  69.281  1.00  0.00    -0.331 C  
HETATM    3  C   UNL     1     -10.002   4.628  69.512  1.00  0.00    -0.266 C  
HETATM    4  C   UNL     1     -10.928   6.607  70.563  1.00  0.00    -0.337 A  
HETATM    5  C   UNL     1      -9.821   4.606  71.022  1.00  0.00    -0.198 C  
HETATM    6  C   UNL     1     -11.501   7.841  70.814  1.00  0.00    -0.285 A  
HETATM    7  C   UNL     1     -10.387   5.834  71.580  1.00  0.00    -0.274 A  
HETATM    8  O   UNL     1      -9.293   3.745  71.704  1.00  0.00    -0.113 OA 
HETATM    9  C   UNL     1     -10.402   6.253  72.898  1.00  0.00    -0.226 A  
HETATM   10  C   UNL     1     -11.520   8.286  72.139  1.00  0.00    -0.427 A  
HETATM   11  C   UNL     1     -10.977   7.497  73.173  1.00  0.00    -0.420 A  
ENDROOT
BRANCH   3  12
HETATM   12  C   UNL     1      -8.719   4.584  68.711  1.00  0.00    -0.116 A  
HETATM   13  C   UNL     1      -7.440   3.595  66.890  1.00  0.00    -0.079 A  
HETATM   14  C   UNL     1      -6.540   5.478  68.095  1.00  0.00    -0.049 A  
HETATM   15  C   UNL     1      -7.683   5.513  68.899  1.00  0.00    -0.091 A  
HETATM   16  C   UNL     1      -8.583   3.628  67.691  1.00  0.00    -0.113 A  
HETATM   17  C   UNL     1      -6.419   4.520  67.092  1.00  0.00    -0.042 A  
ENDBRANCH   3  12
TORSDOF 1
ENDMDL
MODEL      126
REMARK 921   NORMALIZED FREE ENERGY PREDICTED BY IDOCK:   -3.73 KCAL/MOL
REMARK 922        TOTAL FREE ENERGY PREDICTED BY IDOCK:   -4.15 KCAL/MOL
REMARK 923 INTER-LIGAND FREE ENERGY PREDICTED BY IDOCK:   -3.72 KCAL/MOL
REMARK 924 INTRA-LIGAND FREE ENERGY PREDICTED BY IDOCK:   -0.43 KCAL/MOL
REMARK 927      BINDING AFFINITY PREDICTED BY RF-SCORE:    0.00 PKD
ROOT
HETATM    1  O   UNL     1      -8.312  10.650  69.688  1.00  0.00    -0.078 OA 
HETATM    2  C   UNL     1      -8.908  10.483  68.638  1.00  0.00    -0.147 C  
HETATM    3  C   UNL     1      -8.803   9.305  67.679  1.00  0.00    -0.122 C  
HETATM    4  C   UNL     1      -9.856  11.450  68.089  1.00  0.00    -0.195 A  
HETATM    5  C   UNL     1      -9.698   9.727  66.524  1.00  0.00    -0.209 C  
HETATM    6  C   UNL     1     -10.303  12.631  68.653  1.00  0.00    -0.192 A  
HETATM    7  C   UNL     1     -10.307  11.017  66.851  1.00  0.00    -0.279 A  
HETATM    8  O   UNL     1      -9.916   9.131  65.483  1.00  0.00    -0.159 OA 
HETATM    9  C   UNL     1     -11.220  11.748  66.113  1.00  0.00    -0.363 A  
HETATM   10  C   UNL     1     -11.231  13.382  67.926  1.00  0.00    -0.303 A  
HETATM   11  C   UNL     1     -11.684  12.946  66.665  1.00  0.00    -0.452 A  
ENDROOT
BRANCH   3  12
HETATM   12  C   UNL     1      -9.189   8.001  68.345  1.00  0.00    -0.135 A  
HETATM   13  C   UNL     1      -8.504   6.021  69.584  1.00  0.00    -0.126 A  
HETATM   14  C   UNL     1     -10.844   6.416  69.165  1.00  0.00    -0.382 A  
HETATM   15  C   UNL     1     -10.526   7.596  68.488  1.00  0.00    -0.206 A  
HETATM   16  C   UNL     1      -8.183   7.199  68.909  1.00  0.00    -0.125 A  
HETATM   17  C   UNL     1      -9.834   5.630  69.713  1.00  0.00    -0.245 A  
ENDBRANCH   3  12
TORSDOF 1
ENDMDL
MODEL      127
REMARK 921   NORMALIZED FREE ENERGY PREDICTED BY IDOCK:   -3.71 KCAL/MOL
REMARK 922        TOTAL FREE ENERGY PREDICTED BY IDOCK:   -4.12 KCAL/MOL
REMARK 923 INTER-LIGAND FREE ENERGY PREDICTED BY IDOCK:   -3.64 KCAL/MOL
REMARK 924 INTRA-LIGAND FREE ENERGY PREDICTED BY IDOCK:   -0.47 KCAL/MOL
REMARK 927      BINDING AFFINITY PREDICTED BY RF-SCORE:    0.00 PKD
ROOT
HETATM    1  O   UNL     1     -10.514  10.864  70.071  1.00  0.00    -0.049 OA 
HETATM    2  C   UNL     1      -9.895  10.415  69.123  1.00  0.00    -0.223 C  
HETATM    3  C   UNL     1      -8.844   9.313  69.126  1.00  0.00    -0.141 C  
HETATM    4  C   UNL     1     -10.055  10.903  67.755  1.00  0.00    -0.203 A  
HETATM    5  C   UNL     1      -8.378   9.283  67.679  1.00  0.00    -0.116 C  
HETATM    6  C   UNL     1     -10.943  11.851  67.279  1.00  0.00    -0.319 A  
HETATM    7  C   UNL     1      -9.163  10.253  66.915  1.00  0.00    -0.171 A  
HETATM    8  O   UNL     1      -7.512   8.586  67.181  1.00  0.00    -0.083 OA 
HETATM    9  C   UNL     1      -9.109  10.527  65.560  1.00  0.00    -0.214 A  
HETATM   10  C   UNL     1     -10.909  12.137  65.911  1.00  0.00    -0.316 A  
HETATM   11  C   UNL     1      -9.997  11.482  65.059  1.00  0.00    -0.305 A  
ENDROOT
BRANCH   3  12
HETATM   12  C   UNL     1      -9.403   8.006  69.648  1.00  0.00    -0.156 A  
HETATM   13  C   UNL     1     -11.054   6.228  69.451  1.00  0.00    -0.477 A  
HETATM   14  C   UNL     1      -9.291   6.043  71.083  1.00  0.00    -0.174 A  
HETATM   15  C   UNL     1      -8.778   7.277  70.673  1.00  0.00    -0.147 A  
HETATM   16  C   UNL     1     -10.545   7.460  69.039  1.00  0.00    -0.203 A  
HETATM   17  C   UNL     1     -10.427   5.519  70.473  1.00  0.00    -0.347 A  
ENDBRANCH   3  12
TORSDOF 1
ENDMDL
MODEL      128
REMARK 921   NORMALIZED FREE ENERGY PREDICTED BY IDOCK:   -3.62 KCAL/MOL
REMARK 922        TOTAL FREE ENERGY PREDICTED BY IDOCK:   -4.02 KCAL/MOL
REMARK 923 INTER-LIGAND FREE ENERGY PREDICTED BY IDOCK:   -3.63 KCAL/MOL
REMARK 924 INTRA-LIGAND FREE ENERGY PREDICTED BY IDOCK:   -0.40 KCAL/MOL
REMARK 927      BINDING AFFINITY PREDICTED BY RF-SCORE:    0.00 PKD
ROOT
HETATM    1  O   UNL     1      -7.945   7.131  72.060  1.00  0.00    -0.092 OA 
HETATM    2  C   UNL     1      -8.669   6.953  71.097  1.00  0.00    -0.135 C  
HETATM    3  C   UNL     1      -9.095   5.629  70.477  1.00  0.00    -0.164 C  
HETATM    4  C   UNL     1      -9.265   8.042  70.326  1.00  0.00    -0.155 A  
HETATM    5  C   UNL     1      -9.898   6.065  69.262  1.00  0.00    -0.152 C  
HETATM    6  C   UNL     1      -9.199   9.402  70.568  1.00  0.00    -0.314 A  
HETATM    7  C   UNL     1      -9.970   7.527  69.249  1.00  0.00    -0.179 A  
HETATM    8  O   UNL     1     -10.425   5.364  68.416  1.00  0.00    -0.178 OA 
HETATM    9  C   UNL     1     -10.636   8.347  68.357  1.00  0.00    -0.155 A  
HETATM   10  C   UNL     1      -9.871  10.249  69.681  1.00  0.00    -0.230 A  
HETATM   11  C   UNL     1     -10.582   9.725  68.583  1.00  0.00    -0.249 A  
ENDROOT
BRANCH   3  12
HETATM   12  C   UNL     1      -9.844   4.760  71.464  1.00  0.00    -0.253 A  
HETATM   13  C   UNL     1     -10.225   2.553  72.418  1.00  0.00    -0.218 A  
HETATM   14  C   UNL     1     -11.351   4.467  73.353  1.00  0.00    -0.353 A  
HETATM   15  C   UNL     1     -10.726   5.296  72.417  1.00  0.00    -0.286 A  
HETATM   16  C   UNL     1      -9.599   3.378  71.483  1.00  0.00    -0.233 A  
HETATM   17  C   UNL     1     -11.100   3.098  73.354  1.00  0.00    -0.283 A  
ENDBRANCH   3  12
TORSDOF 1
ENDMDL
MODEL      129
REMARK 921   NORMALIZED FREE ENERGY PREDICTED BY IDOCK:   -3.60 KCAL/MOL
REMARK 922        TOTAL FREE ENERGY PREDICTED BY IDOCK:   -4.01 KCAL/MOL
REMARK 923 INTER-LIGAND FREE ENERGY PREDICTED BY IDOCK:   -3.61 KCAL/MOL
REMARK 924 INTRA-LIGAND FREE ENERGY PREDICTED BY IDOCK:   -0.39 KCAL/MOL
REMARK 927      BINDING AFFINITY PREDICTED BY RF-SCORE:    0.00 PKD
ROOT
HETATM    1  O   UNL     1     -10.371   8.268  68.936  1.00  0.00    -0.214 OA 
HETATM    2  C   UNL     1     -10.065   8.656  67.823  1.00  0.00    -0.211 C  
HETATM    3  C   UNL     1     -10.749   9.728  66.983  1.00  0.00    -0.236 C  
HETATM    4  C   UNL     1      -8.943   8.112  67.061  1.00  0.00    -0.160 A  
HETATM    5  C   UNL     1      -9.975   9.678  65.675  1.00  0.00    -0.251 C  
HETATM    6  C   UNL     1      -8.012   7.169  67.458  1.00  0.00    -0.113 A  
HETATM    7  C   UNL     1      -8.898   8.697  65.805  1.00  0.00    -0.231 A  
HETATM    8  O   UNL     1     -10.168  10.328  64.662  1.00  0.00    -0.322 OA 
HETATM    9  C   UNL     1      -7.925   8.361  64.881  1.00  0.00    -0.136 A  
HETATM   10  C   UNL     1      -7.016   6.820  66.541  1.00  0.00    -0.063 A  
HETATM   11  C   UNL     1      -6.974   7.410  65.262  1.00  0.00    -0.059 A  
ENDROOT
BRANCH   3  12
HETATM   12  C   UNL     1     -10.748  11.072  67.679  1.00  0.00    -0.281 A  
HETATM   13  C   UNL     1      -9.616  13.182  68.119  1.00  0.00    -0.227 A  
HETATM   14  C   UNL     1     -11.839  12.820  68.975  1.00  0.00    -0.344 A  
HETATM   15  C   UNL     1     -11.856  11.546  68.399  1.00  0.00    -0.353 A  
HETATM   16  C   UNL     1      -9.630  11.911  67.543  1.00  0.00    -0.175 A  
HETATM   17  C   UNL     1     -10.721  13.637  68.834  1.00  0.00    -0.237 A  
ENDBRANCH   3  12
TORSDOF 1
ENDMDL
MODEL      130
REMARK 921   NORMALIZED FREE ENERGY PREDICTED BY IDOCK:   -3.60 KCAL/MOL
REMARK 922        TOTAL FREE ENERGY PREDICTED BY IDOCK:   -4.01 KCAL/MOL
REMARK 923 INTER-LIGAND FREE ENERGY PREDICTED BY IDOCK:   -3.60 KCAL/MOL
REMARK 924 INTRA-LIGAND FREE ENERGY PREDICTED BY IDOCK:   -0.40 KCAL/MOL
REMARK 927      BINDING AFFINITY PREDICTED BY RF-SCORE:    0.00 PKD
ROOT
HETATM    1  O   UNL     1      -7.661  12.511  68.150  1.00  0.00    -0.107 OA 
HETATM    2  C   UNL     1      -8.052  11.656  67.375  1.00  0.00    -0.153 C  
HETATM    3  C   UNL     1      -9.475  11.153  67.174  1.00  0.00    -0.187 C  
HETATM    4  C   UNL     1      -7.165  10.919  66.477  1.00  0.00    -0.142 A  
HETATM    5  C   UNL     1      -9.299  10.032  66.163  1.00  0.00    -0.173 C  
HETATM    6  C   UNL     1      -5.807  11.090  66.279  1.00  0.00    -0.148 A  
HETATM    7  C   UNL     1      -7.889   9.963  65.780  1.00  0.00    -0.121 A  
HETATM    8  O   UNL     1     -10.152   9.290  65.705  1.00  0.00    -0.268 OA 
HETATM    9  C   UNL     1      -7.288   9.127  64.857  1.00  0.00    -0.101 A  
HETATM   10  C   UNL     1      -5.182  10.259  65.345  1.00  0.00    -0.080 A  
HETATM   11  C   UNL     1      -5.916   9.283  64.641  1.00  0.00    -0.070 A  
ENDROOT
BRANCH   3  12
HETATM   12  C   UNL     1     -10.408  12.265  66.745  1.00  0.00    -0.238 A  
HETATM   13  C   UNL     1     -11.374  13.585  64.941  1.00  0.00    -0.347 A  
HETATM   14  C   UNL     1     -12.153  13.901  67.200  1.00  0.00    -0.422 A  
HETATM   15  C   UNL     1     -11.260  12.922  67.647  1.00  0.00    -0.317 A  
HETATM   16  C   UNL     1     -10.483  12.607  65.384  1.00  0.00    -0.306 A  
HETATM   17  C   UNL     1     -12.210  14.231  65.849  1.00  0.00    -0.422 A  
ENDBRANCH   3  12
TORSDOF 1
ENDMDL
MODEL      131
REMARK 921   NORMALIZED FREE ENERGY PREDICTED BY IDOCK:   -3.60 KCAL/MOL
REMARK 922        TOTAL FREE ENERGY PREDICTED BY IDOCK:   -4.00 KCAL/MOL
REMARK 923 INTER-LIGAND FREE ENERGY PREDICTED BY IDOCK:   -3.53 KCAL/MOL
REMARK 924 INTRA-LIGAND FREE ENERGY PREDICTED BY IDOCK:   -0.47 KCAL/MOL
REMARK 927      BINDING AFFINITY PREDICTED BY RF-SCORE:    0.00 PKD
ROOT
HETATM    1  O   UNL     1      -7.765   4.632  69.644  1.00  0.00    -0.057 OA 
HETATM    2  C   UNL     1      -8.481   5.295  70.373  1.00  0.00    -0.115 C  
HETATM    3  C   UNL     1      -8.653   6.808  70.393  1.00  0.00    -0.146 C  
HETATM    4  C   UNL     1      -9.321   4.716  71.419  1.00  0.00    -0.206 A  
HETATM    5  C   UNL     1      -9.583   7.029  71.576  1.00  0.00    -0.158 C  
HETATM    6  C   UNL     1      -9.525   3.381  71.717  1.00  0.00    -0.214 A  
HETATM    7  C   UNL     1      -9.954   5.726  72.129  1.00  0.00    -0.206 A  
HETATM    8  O   UNL     1      -9.992   8.085  72.025  1.00  0.00    -0.183 OA 
HETATM    9  C   UNL     1     -10.813   5.449  73.176  1.00  0.00    -0.333 A  
HETATM   10  C   UNL     1     -10.396   3.080  72.768  1.00  0.00    -0.230 A  
HETATM   11  C   UNL     1     -11.033   4.106  73.493  1.00  0.00    -0.360 A  
ENDROOT
BRANCH   3  12
HETATM   12  C   UNL     1      -9.163   7.334  69.068  1.00  0.00    -0.139 A  
HETATM   13  C   UNL     1      -8.796   8.728  67.107  1.00  0.00    -0.137 A  
HETATM   14  C   UNL     1     -10.756   7.332  67.228  1.00  0.00    -0.391 A  
HETATM   15  C   UNL     1     -10.351   6.868  68.483  1.00  0.00    -0.204 A  
HETATM   16  C   UNL     1      -8.389   8.266  68.359  1.00  0.00    -0.132 A  
HETATM   17  C   UNL     1      -9.979   8.260  66.541  1.00  0.00    -0.320 A  
ENDBRANCH   3  12
TORSDOF 1
ENDMDL
MODEL      132
REMARK 921   NORMALIZED FREE ENERGY PREDICTED BY IDOCK:   -3.60 KCAL/MOL
REMARK 922        TOTAL FREE ENERGY PREDICTED BY IDOCK:   -4.00 KCAL/MOL
REMARK 923 INTER-LIGAND FREE ENERGY PREDICTED BY IDOCK:   -3.54 KCAL/MOL
REMARK 924 INTRA-LIGAND FREE ENERGY PREDICTED BY IDOCK:   -0.46 KCAL/MOL
REMARK 927      BINDING AFFINITY PREDICTED BY RF-SCORE:    0.00 PKD
ROOT
HETATM    1  O   UNL     1      -6.735  17.709  69.877  1.00  0.00    -0.014 OA 
HETATM    2  C   UNL     1      -7.122  17.838  68.729  1.00  0.00    -0.263 C  
HETATM    3  C   UNL     1      -6.505  17.262  67.461  1.00  0.00    -0.161 C  
HETATM    4  C   UNL     1      -8.296  18.626  68.361  1.00  0.00    -0.362 A  
HETATM    5  C   UNL     1      -7.372  17.856  66.362  1.00  0.00    -0.265 C  
HETATM    6  C   UNL     1      -9.193  19.272  69.192  1.00  0.00    -0.232 A  
HETATM    7  C   UNL     1      -8.435  18.648  66.981  1.00  0.00    -0.275 A  
HETATM    8  O   UNL     1      -7.256  17.721  65.157  1.00  0.00     0.044 OA 
HETATM    9  C   UNL     1      -9.473  19.324  66.365  1.00  0.00    -0.411 A  
HETATM   10  C   UNL     1     -10.253  19.957  68.590  1.00  0.00    -0.494 A  
HETATM   11  C   UNL     1     -10.390  19.984  67.187  1.00  0.00    -0.554 A  
ENDROOT
BRANCH   3  12
HETATM   12  C   UNL     1      -6.457  15.750  67.496  1.00  0.00    -0.203 A  
HETATM   13  C   UNL     1      -7.637  13.630  67.293  1.00  0.00    -0.073 A  
HETATM   14  C   UNL     1      -5.245  13.641  67.582  1.00  0.00     0.039 A  
HETATM   15  C   UNL     1      -5.253  15.038  67.618  1.00  0.00     0.037 A  
HETATM   16  C   UNL     1      -7.648  15.025  67.327  1.00  0.00    -0.227 A  
HETATM   17  C   UNL     1      -6.435  12.938  67.420  1.00  0.00    -0.126 A  
ENDBRANCH   3  12
TORSDOF 1
ENDMDL
MODEL      133
REMARK 921   NORMALIZED FREE ENERGY PREDICTED BY IDOCK:   -3.59 KCAL/MOL
REMARK 922        TOTAL FREE ENERGY PREDICTED BY IDOCK:   -3.99 KCAL/MOL
REMARK 923 INTER-LIGAND FREE ENERGY PREDICTED BY IDOCK:   -3.56 KCAL/MOL
REMARK 924 INTRA-LIGAND FREE ENERGY PREDICTED BY IDOCK:   -0.43 KCAL/MOL
REMARK 927      BINDING AFFINITY PREDICTED BY RF-SCORE:    0.00 PKD
ROOT
HETATM    1  O   UNL     1     -10.212   9.413  70.337  1.00  0.00    -0.217 OA 
HETATM    2  C   UNL     1     -10.304   8.427  69.628  1.00  0.00    -0.218 C  
HETATM    3  C   UNL     1     -10.729   8.360  68.167  1.00  0.00    -0.094 C  
HETATM    4  C   UNL     1     -10.026   7.071  70.096  1.00  0.00    -0.189 A  
HETATM    5  C   UNL     1     -10.745   6.865  67.887  1.00  0.00    -0.232 C  
HETATM    6  C   UNL     1      -9.553   6.668  71.332  1.00  0.00    -0.174 A  
HETATM    7  C   UNL     1     -10.295   6.159  69.086  1.00  0.00    -0.271 A  
HETATM    8  O   UNL     1     -11.059   6.296  66.856  1.00  0.00    -0.361 OA 
HETATM    9  C   UNL     1     -10.112   4.800  69.266  1.00  0.00    -0.217 A  
HETATM   10  C   UNL     1      -9.354   5.299  71.532  1.00  0.00    -0.182 A  
HETATM   11  C   UNL     1      -9.634   4.372  70.508  1.00  0.00    -0.269 A  
ENDROOT
BRANCH   3  12
HETATM   12  C   UNL     1      -9.812   9.170  67.277  1.00  0.00    -0.244 A  
HETATM   13  C   UNL     1      -7.720   9.323  66.041  1.00  0.00    -0.096 A  
HETATM   14  C   UNL     1      -9.337  11.102  65.875  1.00  0.00    -0.235 A  
HETATM   15  C   UNL     1     -10.188  10.414  66.744  1.00  0.00    -0.282 A  
HETATM   16  C   UNL     1      -8.568   8.633  66.908  1.00  0.00    -0.124 A  
HETATM   17  C   UNL     1      -8.105  10.558  65.524  1.00  0.00    -0.155 A  
ENDBRANCH   3  12
TORSDOF 1
ENDMDL
MODEL      134
REMARK 921   NORMALIZED FREE ENERGY PREDICTED BY IDOCK:   -3.57 KCAL/MOL
REMARK 922        TOTAL FREE ENERGY PREDICTED BY IDOCK:   -3.97 KCAL/MOL
REMARK 923 INTER-LIGAND FREE ENERGY PREDICTED BY IDOCK:   -3.58 KCAL/MOL
REMARK 924 INTRA-LIGAND FREE ENERGY PREDICTED BY IDOCK:   -0.39 KCAL/MOL
REMARK 927      BINDING AFFINITY PREDICTED BY RF-SCORE:    0.00 PKD
ROOT
HETATM    1  O   UNL     1     -10.807   9.168  66.258  1.00  0.00     0.178 OA 
HETATM    2  C   UNL     1     -10.097   9.656  67.120  1.00  0.00    -0.218 C  
HETATM    3  C   UNL     1      -9.361  10.989  67.084  1.00  0.00    -0.177 C  
HETATM    4  C   UNL     1      -9.803   8.994  68.389  1.00  0.00    -0.183 A  
HETATM    5  C   UNL     1      -8.577  10.979  68.387  1.00  0.00    -0.149 C  
HETATM    6  C   UNL     1     -10.305   7.800  68.872  1.00  0.00    -0.224 A  
HETATM    7  C   UNL     1      -8.907   9.758  69.123  1.00  0.00    -0.160 A  
HETATM    8  O   UNL     1      -7.800  11.820  68.805  1.00  0.00    -0.131 OA 
HETATM    9  C   UNL     1      -8.464   9.360  70.371  1.00  0.00    -0.247 A  
HETATM   10  C   UNL     1      -9.875   7.382  70.135  1.00  0.00    -0.180 A  
HETATM   11  C   UNL     1      -8.960   8.155  70.877  1.00  0.00    -0.163 A  
ENDROOT
BRANCH   3  12
HETATM   12  C   UNL     1     -10.315  12.153  66.918  1.00  0.00    -0.235 A  
HETATM   13  C   UNL     1     -11.764  13.815  67.951  1.00  0.00    -0.395 A  
HETATM   14  C   UNL     1     -11.398  13.866  65.570  1.00  0.00    -0.310 A  
HETATM   15  C   UNL     1     -10.559  12.753  65.672  1.00  0.00    -0.297 A  
HETATM   16  C   UNL     1     -10.926  12.704  68.057  1.00  0.00    -0.266 A  
HETATM   17  C   UNL     1     -11.999  14.396  66.708  1.00  0.00    -0.423 A  
ENDBRANCH   3  12
TORSDOF 1
ENDMDL
MODEL      135
REMARK 921   NORMALIZED FREE ENERGY PREDICTED BY IDOCK:   -3.55 KCAL/MOL
REMARK 922        TOTAL FREE ENERGY PREDICTED BY IDOCK:   -3.95 KCAL/MOL
REMARK 923 INTER-LIGAND FREE ENERGY PREDICTED BY IDOCK:   -3.48 KCAL/MOL
REMARK 924 INTRA-LIGAND FREE ENERGY PREDICTED BY IDOCK:   -0.47 KCAL/MOL
REMARK 927      BINDING AFFINITY PREDICTED BY RF-SCORE:    0.00 PKD
ROOT
HETATM    1  O   UNL     1     -11.268   7.149  67.444  1.00  0.00    -0.194 OA 
HETATM    2  C   UNL     1     -10.698   6.270  68.065  1.00  0.00    -0.295 C  
HETATM    3  C   UNL     1      -9.785   5.179  67.522  1.00  0.00    -0.177 C  
HETATM    4  C   UNL     1     -10.821   6.099  69.512  1.00  0.00    -0.428 A  
HETATM    5  C   UNL     1      -9.480   4.346  68.757  1.00  0.00    -0.162 C  
HETATM    6  C   UNL     1     -11.497   6.897  70.417  1.00  0.00    -0.387 A  
HETATM    7  C   UNL     1     -10.122   4.970  69.914  1.00  0.00    -0.344 A  
HETATM    8  O   UNL     1      -8.812   3.329  68.833  1.00  0.00    -0.092 OA 
HETATM    9  C   UNL     1     -10.072   4.580  71.240  1.00  0.00    -0.225 A  
HETATM   10  C   UNL     1     -11.453   6.524  71.764  1.00  0.00    -0.346 A  
HETATM   11  C   UNL     1     -10.749   5.373  72.171  1.00  0.00    -0.286 A  
ENDROOT
BRANCH   3  12
HETATM   12  C   UNL     1      -8.574   5.757  66.822  1.00  0.00    -0.112 A  
HETATM   13  C   UNL     1      -7.414   6.238  64.736  1.00  0.00    -0.086 A  
HETATM   14  C   UNL     1      -6.495   7.023  66.820  1.00  0.00    -0.051 A  
HETATM   15  C   UNL     1      -7.566   6.450  67.512  1.00  0.00    -0.100 A  
HETATM   16  C   UNL     1      -8.485   5.665  65.423  1.00  0.00    -0.147 A  
HETATM   17  C   UNL     1      -6.420   6.918  65.435  1.00  0.00    -0.046 A  
ENDBRANCH   3  12
TORSDOF 1
ENDMDL
MODEL      136
REMARK 921   NORMALIZED FREE ENERGY PREDICTED BY IDOCK:   -3.54 KCAL/MOL
REMARK 922        TOTAL FREE ENERGY PREDICTED BY IDOCK:   -3.94 KCAL/MOL
REMARK 923 INTER-LIGAND FREE ENERGY PREDICTED BY IDOCK:   -3.50 KCAL/MOL
REMARK 924 INTRA-LIGAND FREE ENERGY PREDICTED BY IDOCK:   -0.44 KCAL/MOL
REMARK 927      BINDING AFFINITY PREDICTED BY RF-SCORE:    0.00 PKD
ROOT
HETATM    1  O   UNL     1     -11.642   6.173  69.419  1.00  0.00    -0.372 OA 
HETATM    2  C   UNL     1     -10.793   7.038  69.547  1.00  0.00    -0.238 C  
HETATM    3  C   UNL     1     -10.455   7.843  70.794  1.00  0.00    -0.218 C  
HETATM    4  C   UNL     1      -9.927   7.481  68.456  1.00  0.00    -0.177 A  
HETATM    5  C   UNL     1      -9.400   8.817  70.294  1.00  0.00    -0.174 C  
HETATM    6  C   UNL     1      -9.843   6.983  67.168  1.00  0.00    -0.225 A  
HETATM    7  C   UNL     1      -9.123   8.526  68.887  1.00  0.00    -0.146 A  
HETATM    8  O   UNL     1      -8.837   9.702  70.915  1.00  0.00    -0.206 OA 
HETATM    9  C   UNL     1      -8.204   9.130  68.049  1.00  0.00    -0.112 A  
HETATM   10  C   UNL     1      -8.915   7.576  66.306  1.00  0.00    -0.199 A  
HETATM   11  C   UNL     1      -8.104   8.642  66.743  1.00  0.00    -0.101 A  
ENDROOT
BRANCH   3  12
HETATM   12  C   UNL     1     -10.017   6.952  71.937  1.00  0.00    -0.183 A  
HETATM   13  C   UNL     1     -10.247   6.308  74.273  1.00  0.00    -0.351 A  
HETATM   14  C   UNL     1      -8.790   5.048  72.825  1.00  0.00    -0.122 A  
HETATM   15  C   UNL     1      -9.121   5.887  71.758  1.00  0.00    -0.148 A  
HETATM   16  C   UNL     1     -10.580   7.147  73.209  1.00  0.00    -0.405 A  
HETATM   17  C   UNL     1      -9.352   5.258  74.081  1.00  0.00    -0.126 A  
ENDBRANCH   3  12
TORSDOF 1
ENDMDL
MODEL      137
REMARK 921   NORMALIZED FREE ENERGY PREDICTED BY IDOCK:   -3.45 KCAL/MOL
REMARK 922        TOTAL FREE ENERGY PREDICTED BY IDOCK:   -3.84 KCAL/MOL
REMARK 923 INTER-LIGAND FREE ENERGY PREDICTED BY IDOCK:   -3.40 KCAL/MOL
REMARK 924 INTRA-LIGAND FREE ENERGY PREDICTED BY IDOCK:   -0.44 KCAL/MOL
REMARK 927      BINDING AFFINITY PREDICTED BY RF-SCORE:    0.00 PKD
ROOT
HETATM    1  O   UNL     1      -8.104   5.167  69.880  1.00  0.00    -0.080 OA 
HETATM    2  C   UNL     1      -8.669   5.282  70.953  1.00  0.00    -0.132 C  
HETATM    3  C   UNL     1      -8.771   6.522  71.831  1.00  0.00    -0.130 C  
HETATM    4  C   UNL     1      -9.362   4.180  71.618  1.00  0.00    -0.202 A  
HETATM    5  C   UNL     1      -9.498   6.006  73.063  1.00  0.00    -0.143 C  
HETATM    6  C   UNL     1      -9.575   2.894  71.155  1.00  0.00    -0.226 A  
HETATM    7  C   UNL     1      -9.834   4.598  72.854  1.00  0.00    -0.180 A  
HETATM    8  O   UNL     1      -9.787   6.617  74.077  1.00  0.00    -0.227 OA 
HETATM    9  C   UNL     1     -10.534   3.747  73.690  1.00  0.00    -0.260 A  
HETATM   10  C   UNL     1     -10.286   2.020  71.983  1.00  0.00    -0.185 A  
HETATM   11  C   UNL     1     -10.759   2.443  73.241  1.00  0.00    -0.274 A  
ENDROOT
BRANCH   3  12
HETATM   12  C   UNL     1      -9.457   7.664  71.112  1.00  0.00    -0.163 A  
HETATM   13  C   UNL     1     -11.529   8.716  70.386  1.00  0.00    -0.151 A  
HETATM   14  C   UNL     1      -9.429   9.841  70.023  1.00  0.00    -0.278 A  
HETATM   15  C   UNL     1      -8.752   8.777  70.625  1.00  0.00    -0.208 A  
HETATM   16  C   UNL     1     -10.856   7.652  70.988  1.00  0.00    -0.255 A  
HETATM   17  C   UNL     1     -10.816   9.811  69.904  1.00  0.00    -0.306 A  
ENDBRANCH   3  12
TORSDOF 1
ENDMDL
MODEL      138
REMARK 921   NORMALIZED FREE ENERGY PREDICTED BY IDOCK:   -3.35 KCAL/MOL
REMARK 922        TOTAL FREE ENERGY PREDICTED BY IDOCK:   -3.74 KCAL/MOL
REMARK 923 INTER-LIGAND FREE ENERGY PREDICTED BY IDOCK:   -3.27 KCAL/MOL
REMARK 924 INTRA-LIGAND FREE ENERGY PREDICTED BY IDOCK:   -0.47 KCAL/MOL
REMARK 927      BINDING AFFINITY PREDICTED BY RF-SCORE:    0.00 PKD
ROOT
HETATM    1  O   UNL     1      -7.805   5.792  70.196  1.00  0.00    -0.094 OA 
HETATM    2  C   UNL     1      -8.675   6.559  69.824  1.00  0.00    -0.143 C  
HETATM    3  C   UNL     1      -8.823   7.219  68.459  1.00  0.00    -0.129 C  
HETATM    4  C   UNL     1      -9.768   7.012  70.682  1.00  0.00    -0.174 A  
HETATM    5  C   UNL     1     -10.025   8.129  68.650  1.00  0.00    -0.190 C  
HETATM    6  C   UNL     1     -10.063   6.622  71.975  1.00  0.00    -0.198 A  
HETATM    7  C   UNL     1     -10.548   7.937  70.003  1.00  0.00    -0.242 A  
HETATM    8  O   UNL     1     -10.521   8.900  67.847  1.00  0.00    -0.228 OA 
HETATM    9  C   UNL     1     -11.655   8.522  70.589  1.00  0.00    -0.214 A  
HETATM   10  C   UNL     1     -11.183   7.197  72.583  1.00  0.00    -0.331 A  
HETATM   11  C   UNL     1     -11.971   8.142  71.896  1.00  0.00    -0.367 A  
ENDROOT
BRANCH   3  12
HETATM   12  C   UNL     1      -8.961   6.195  67.352  1.00  0.00    -0.112 A  
HETATM   13  C   UNL     1     -10.340   4.544  66.211  1.00  0.00    -0.227 A  
HETATM   14  C   UNL     1      -8.166   5.097  65.331  1.00  0.00    -0.124 A  
HETATM   15  C   UNL     1      -7.972   6.008  66.373  1.00  0.00    -0.105 A  
HETATM   16  C   UNL     1     -10.150   5.454  67.252  1.00  0.00    -0.229 A  
HETATM   17  C   UNL     1      -9.348   4.367  65.250  1.00  0.00    -0.164 A  
ENDBRANCH   3  12
TORSDOF 1
ENDMDL
MODEL      139
REMARK 921   NORMALIZED FREE ENERGY PREDICTED BY IDOCK:   -3.34 KCAL/MOL
REMARK 922        TOTAL FREE ENERGY PREDICTED BY IDOCK:   -3.73 KCAL/MOL
REMARK 923 INTER-LIGAND FREE ENERGY PREDICTED BY IDOCK:   -3.51 KCAL/MOL
REMARK 924 INTRA-LIGAND FREE ENERGY PREDICTED BY IDOCK:   -0.22 KCAL/MOL
REMARK 927      BINDING AFFINITY PREDICTED BY RF-SCORE:    0.00 PKD
ROOT
HETATM    1  O   UNL     1      -7.396   7.466  67.114  1.00  0.00    -0.092 OA 
HETATM    2  C   UNL     1      -8.214   7.864  67.925  1.00  0.00    -0.129 C  
HETATM    3  C   UNL     1      -8.531   9.304  68.307  1.00  0.00    -0.120 C  
HETATM    4  C   UNL     1      -9.057   6.973  68.720  1.00  0.00    -0.133 A  
HETATM    5  C   UNL     1      -9.548   9.142  69.427  1.00  0.00    -0.165 C  
HETATM    6  C   UNL     1      -9.150   5.595  68.658  1.00  0.00    -0.124 A  
HETATM    7  C   UNL     1      -9.825   7.716  69.605  1.00  0.00    -0.181 A  
HETATM    8  O   UNL     1     -10.083  10.013  70.090  1.00  0.00    -0.255 OA 
HETATM    9  C   UNL     1     -10.716   7.116  70.475  1.00  0.00    -0.259 A  
HETATM   10  C   UNL     1     -10.049   4.968  69.525  1.00  0.00    -0.301 A  
HETATM   11  C   UNL     1     -10.824   5.723  70.428  1.00  0.00    -0.360 A  
ENDROOT
BRANCH   3  12
HETATM   12  C   UNL     1      -9.009  10.109  67.118  1.00  0.00    -0.146 A  
HETATM   13  C   UNL     1     -10.037  10.143  64.911  1.00  0.00    -0.277 A  
HETATM   14  C   UNL     1      -9.526  12.220  66.022  1.00  0.00    -0.194 A  
HETATM   15  C   UNL     1      -9.018  11.513  67.115  1.00  0.00    -0.166 A  
HETATM   16  C   UNL     1      -9.531   9.435  66.002  1.00  0.00    -0.304 A  
HETATM   17  C   UNL     1     -10.035  11.536  64.921  1.00  0.00    -0.303 A  
ENDBRANCH   3  12
TORSDOF 1
ENDMDL
MODEL      140
REMARK 921   NORMALIZED FREE ENERGY PREDICTED BY IDOCK:   -3.33 KCAL/MOL
REMARK 922        TOTAL FREE ENERGY PREDICTED BY IDOCK:   -3.72 KCAL/MOL
REMARK 923 INTER-LIGAND FREE ENERGY PREDICTED BY IDOCK:   -3.25 KCAL/MOL
REMARK 924 INTRA-LIGAND FREE ENERGY PREDICTED BY IDOCK:   -0.47 KCAL/MOL
REMARK 927      BINDING AFFINITY PREDICTED BY RF-SCORE:    0.00 PKD
ROOT
HETATM    1  O   UNL     1     -10.257  11.144  67.780  1.00  0.00    -0.174 OA 
HETATM    2  C   UNL     1      -9.102  11.514  67.889  1.00  0.00    -0.167 C  
HETATM    3  C   UNL     1      -8.392  12.613  67.109  1.00  0.00    -0.172 C  
HETATM    4  C   UNL     1      -8.151  10.917  68.825  1.00  0.00    -0.145 A  
HETATM    5  C   UNL     1      -6.963  12.525  67.622  1.00  0.00    -0.139 C  
HETATM    6  C   UNL     1      -8.378   9.934  69.771  1.00  0.00    -0.196 A  
HETATM    7  C   UNL     1      -6.901  11.496  68.661  1.00  0.00    -0.077 A  
HETATM    8  O   UNL     1      -5.996  13.179  67.273  1.00  0.00    -0.335 OA 
HETATM    9  C   UNL     1      -5.817  11.114  69.428  1.00  0.00    -0.048 A  
HETATM   10  C   UNL     1      -7.296   9.538  70.562  1.00  0.00    -0.147 A  
HETATM   11  C   UNL     1      -6.025  10.121  70.390  1.00  0.00    -0.092 A  
ENDROOT
BRANCH   3  12
HETATM   12  C   UNL     1      -9.060  13.958  67.299  1.00  0.00    -0.230 A  
HETATM   13  C   UNL     1     -10.506  15.703  66.408  1.00  0.00    -0.309 A  
HETATM   14  C   UNL     1      -9.688  15.870  68.668  1.00  0.00    -0.207 A  
HETATM   15  C   UNL     1      -9.005  14.660  68.513  1.00  0.00    -0.184 A  
HETATM   16  C   UNL     1      -9.826  14.495  66.250  1.00  0.00    -0.322 A  
HETATM   17  C   UNL     1     -10.438  16.390  67.617  1.00  0.00    -0.302 A  
ENDBRANCH   3  12
TORSDOF 1
ENDMDL
MODEL      141
REMARK 921   NORMALIZED FREE ENERGY PREDICTED BY IDOCK:   -3.27 KCAL/MOL
REMARK 922        TOTAL FREE ENERGY PREDICTED BY IDOCK:   -3.66 KCAL/MOL
REMARK 923 INTER-LIGAND FREE ENERGY PREDICTED BY IDOCK:   -3.21 KCAL/MOL
REMARK 924 INTRA-LIGAND FREE ENERGY PREDICTED BY IDOCK:   -0.45 KCAL/MOL
REMARK 927      BINDING AFFINITY PREDICTED BY RF-SCORE:    0.00 PKD
ROOT
HETATM    1  O   UNL     1      -8.405   5.511  69.873  1.00  0.00    -0.102 OA 
HETATM    2  C   UNL     1      -8.743   6.664  70.072  1.00  0.00    -0.141 C  
HETATM    3  C   UNL     1      -8.095   7.936  69.542  1.00  0.00    -0.121 C  
HETATM    4  C   UNL     1      -9.877   7.035  70.916  1.00  0.00    -0.190 A  
HETATM    5  C   UNL     1      -8.900   9.034  70.218  1.00  0.00    -0.189 C  
HETATM    6  C   UNL     1     -10.786   6.205  71.548  1.00  0.00    -0.303 A  
HETATM    7  C   UNL     1      -9.962   8.416  71.012  1.00  0.00    -0.235 A  
HETATM    8  O   UNL     1      -8.741  10.240  70.141  1.00  0.00    -0.002 OA 
HETATM    9  C   UNL     1     -10.953   9.034  71.753  1.00  0.00    -0.443 A  
HETATM   10  C   UNL     1     -11.800   6.810  72.296  1.00  0.00    -0.277 A  
HETATM   11  C   UNL     1     -11.881   8.213  72.400  1.00  0.00    -0.448 A  
ENDROOT
BRANCH   3  12
HETATM   12  C   UNL     1      -8.095   7.978  68.029  1.00  0.00    -0.129 A  
HETATM   13  C   UNL     1      -6.915   7.565  65.940  1.00  0.00    -0.061 A  
HETATM   14  C   UNL     1      -9.216   8.281  65.889  1.00  0.00    -0.185 A  
HETATM   15  C   UNL     1      -9.239   8.315  67.286  1.00  0.00    -0.165 A  
HETATM   16  C   UNL     1      -6.935   7.597  67.335  1.00  0.00    -0.084 A  
HETATM   17  C   UNL     1      -8.056   7.906  65.217  1.00  0.00    -0.135 A  
ENDBRANCH   3  12
TORSDOF 1
ENDMDL
MODEL      142
REMARK 921   NORMALIZED FREE ENERGY PREDICTED BY IDOCK:   -3.26 KCAL/MOL
REMARK 922        TOTAL FREE ENERGY PREDICTED BY IDOCK:   -3.64 KCAL/MOL
REMARK 923 INTER-LIGAND FREE ENERGY PREDICTED BY IDOCK:   -3.17 KCAL/MOL
REMARK 924 INTRA-LIGAND FREE ENERGY PREDICTED BY IDOCK:   -0.47 KCAL/MOL
REMARK 927      BINDING AFFINITY PREDICTED BY RF-SCORE:    0.00 PKD
ROOT
HETATM    1  O   UNL     1      -7.091  14.863  69.119  1.00  0.00    -0.125 OA 
HETATM    2  C   UNL     1      -8.089  14.555  68.492  1.00  0.00    -0.148 C  
HETATM    3  C   UNL     1      -8.180  13.697  67.237  1.00  0.00    -0.164 C  
HETATM    4  C   UNL     1      -9.434  15.001  68.851  1.00  0.00    -0.211 A  
HETATM    5  C   UNL     1      -9.657  13.769  66.883  1.00  0.00    -0.262 C  
HETATM    6  C   UNL     1      -9.828  15.742  69.950  1.00  0.00    -0.151 A  
HETATM    7  C   UNL     1     -10.346  14.554  67.907  1.00  0.00    -0.231 A  
HETATM    8  O   UNL     1     -10.227  13.269  65.929  1.00  0.00    -0.283 OA 
HETATM    9  C   UNL     1     -11.696  14.835  68.012  1.00  0.00    -0.360 A  
HETATM   10  C   UNL     1     -11.190  16.032  70.077  1.00  0.00    -0.362 A  
HETATM   11  C   UNL     1     -12.116  15.584  69.115  1.00  0.00    -0.266 A  
ENDROOT
BRANCH   3  12
HETATM   12  C   UNL     1      -7.642  12.302  67.470  1.00  0.00    -0.155 A  
HETATM   13  C   UNL     1      -5.842  10.692  67.163  1.00  0.00    -0.048 A  
HETATM   14  C   UNL     1      -7.745  10.109  68.522  1.00  0.00    -0.090 A  
HETATM   15  C   UNL     1      -8.306  11.366  68.280  1.00  0.00    -0.152 A  
HETATM   16  C   UNL     1      -6.399  11.948  66.920  1.00  0.00    -0.107 A  
HETATM   17  C   UNL     1      -6.514   9.773  67.964  1.00  0.00    -0.056 A  
ENDBRANCH   3  12
TORSDOF 1
ENDMDL
MODEL      143
REMARK 921   NORMALIZED FREE ENERGY PREDICTED BY IDOCK:   -3.18 KCAL/MOL
REMARK 922        TOTAL FREE ENERGY PREDICTED BY IDOCK:   -3.56 KCAL/MOL
REMARK 923 INTER-LIGAND FREE ENERGY PREDICTED BY IDOCK:   -3.59 KCAL/MOL
REMARK 924 INTRA-LIGAND FREE ENERGY PREDICTED BY IDOCK:    0.03 KCAL/MOL
REMARK 927      BINDING AFFINITY PREDICTED BY RF-SCORE:    0.00 PKD
ROOT
HETATM    1  O   UNL     1      -8.202   8.374  68.851  1.00  0.00    -0.112 OA 
HETATM    2  C   UNL     1      -8.685   7.292  69.136  1.00  0.00    -0.136 C  
HETATM    3  C   UNL     1      -9.233   6.836  70.481  1.00  0.00    -0.156 C  
HETATM    4  C   UNL     1      -8.804   6.189  68.185  1.00  0.00    -0.112 A  
HETATM    5  C   UNL     1      -9.587   5.379  70.227  1.00  0.00    -0.177 C  
HETATM    6  C   UNL     1      -8.491   6.178  66.838  1.00  0.00    -0.105 A  
HETATM    7  C   UNL     1      -9.317   5.069  68.823  1.00  0.00    -0.175 A  
HETATM    8  O   UNL     1     -10.032   4.564  71.016  1.00  0.00    -0.193 OA 
HETATM    9  C   UNL     1      -9.534   3.883  68.147  1.00  0.00    -0.219 A  
HETATM   10  C   UNL     1      -8.710   4.990  66.134  1.00  0.00    -0.120 A  
HETATM   11  C   UNL     1      -9.225   3.851  66.784  1.00  0.00    -0.186 A  
ENDROOT
BRANCH   3  12
HETATM   12  C   UNL     1     -10.384   7.705  70.943  1.00  0.00    -0.204 A  
HETATM   13  C   UNL     1     -12.013   8.249  72.668  1.00  0.00    -0.360 A  
HETATM   14  C   UNL     1     -11.847   9.635  70.705  1.00  0.00    -0.331 A  
HETATM   15  C   UNL     1     -10.823   8.821  70.213  1.00  0.00    -0.252 A  
HETATM   16  C   UNL     1     -10.990   7.434  72.181  1.00  0.00    -0.284 A  
HETATM   17  C   UNL     1     -12.441   9.350  71.931  1.00  0.00    -0.468 A  
ENDBRANCH   3  12
TORSDOF 1
ENDMDL
MODEL      144
REMARK 921   NORMALIZED FREE ENERGY PREDICTED BY IDOCK:   -3.18 KCAL/MOL
REMARK 922        TOTAL FREE ENERGY PREDICTED BY IDOCK:   -3.55 KCAL/MOL
REMARK 923 INTER-LIGAND FREE ENERGY PREDICTED BY IDOCK:   -3.08 KCAL/MOL
REMARK 924 INTRA-LIGAND FREE ENERGY PREDICTED BY IDOCK:   -0.47 KCAL/MOL
REMARK 927      BINDING AFFINITY PREDICTED BY RF-SCORE:    0.00 PKD
ROOT
HETATM    1  O   UNL     1      -8.237   8.743  68.304  1.00  0.00    -0.116 OA 
HETATM    2  C   UNL     1      -8.354   8.689  67.093  1.00  0.00    -0.107 C  
HETATM    3  C   UNL     1      -7.710   7.699  66.132  1.00  0.00    -0.089 C  
HETATM    4  C   UNL     1      -9.161   9.632  66.320  1.00  0.00    -0.197 A  
HETATM    5  C   UNL     1      -8.151   8.210  64.770  1.00  0.00    -0.152 C  
HETATM    6  C   UNL     1      -9.968  10.655  66.784  1.00  0.00    -0.254 A  
HETATM    7  C   UNL     1      -9.033   9.362  64.966  1.00  0.00    -0.258 A  
HETATM    8  O   UNL     1      -7.862   7.771  63.671  1.00  0.00    -0.128 OA 
HETATM    9  C   UNL     1      -9.699  10.107  64.010  1.00  0.00    -0.273 A  
HETATM   10  C   UNL     1     -10.655  11.416  65.834  1.00  0.00    -0.317 A  
HETATM   11  C   UNL     1     -10.519  11.146  64.458  1.00  0.00    -0.415 A  
ENDROOT
BRANCH   3  12
HETATM   12  C   UNL     1      -8.111   6.272  66.443  1.00  0.00    -0.112 A  
HETATM   13  C   UNL     1      -7.445   4.022  67.092  1.00  0.00    -0.073 A  
HETATM   14  C   UNL     1      -9.784   4.557  66.870  1.00  0.00    -0.226 A  
HETATM   15  C   UNL     1      -9.454   5.868  66.518  1.00  0.00    -0.171 A  
HETATM   16  C   UNL     1      -7.112   5.331  66.742  1.00  0.00    -0.069 A  
HETATM   17  C   UNL     1      -8.781   3.635  67.157  1.00  0.00    -0.126 A  
ENDBRANCH   3  12
TORSDOF 1
ENDMDL
MODEL      145
REMARK 921   NORMALIZED FREE ENERGY PREDICTED BY IDOCK:   -3.17 KCAL/MOL
REMARK 922        TOTAL FREE ENERGY PREDICTED BY IDOCK:   -3.54 KCAL/MOL
REMARK 923 INTER-LIGAND FREE ENERGY PREDICTED BY IDOCK:   -3.11 KCAL/MOL
REMARK 924 INTRA-LIGAND FREE ENERGY PREDICTED BY IDOCK:   -0.44 KCAL/MOL
REMARK 927      BINDING AFFINITY PREDICTED BY RF-SCORE:    0.00 PKD
ROOT
HETATM    1  O   UNL     1      -8.027   7.820  70.274  1.00  0.00    -0.097 OA 
HETATM    2  C   UNL     1      -9.159   7.555  70.637  1.00  0.00    -0.155 C  
HETATM    3  C   UNL     1      -9.699   6.216  71.121  1.00  0.00    -0.199 C  
HETATM    4  C   UNL     1     -10.249   8.529  70.647  1.00  0.00    -0.230 A  
HETATM    5  C   UNL     1     -11.179   6.499  71.321  1.00  0.00    -0.288 C  
HETATM    6  C   UNL     1     -10.198   9.879  70.347  1.00  0.00    -0.299 A  
HETATM    7  C   UNL     1     -11.429   7.912  71.033  1.00  0.00    -0.298 A  
HETATM    8  O   UNL     1     -12.053   5.725  71.670  1.00  0.00     0.099 OA 
HETATM    9  C   UNL     1     -12.618   8.612  71.129  1.00  0.00    -0.176 A  
HETATM   10  C   UNL     1     -11.388  10.606  70.445  1.00  0.00    -0.389 A  
HETATM   11  C   UNL     1     -12.589   9.977  70.830  1.00  0.00    -0.424 A  
ENDROOT
BRANCH   3  12
HETATM   12  C   UNL     1      -8.966   5.728  72.353  1.00  0.00    -0.141 A  
HETATM   13  C   UNL     1      -7.795   3.924  73.493  1.00  0.00    -0.083 A  
HETATM   14  C   UNL     1      -7.912   6.104  74.514  1.00  0.00    -0.101 A  
HETATM   15  C   UNL     1      -8.644   6.579  73.423  1.00  0.00    -0.131 A  
HETATM   16  C   UNL     1      -8.526   4.395  72.402  1.00  0.00    -0.109 A  
HETATM   17  C   UNL     1      -7.487   4.779  74.549  1.00  0.00    -0.085 A  
ENDBRANCH   3  12
TORSDOF 1
ENDMDL
MODEL      146
REMARK 921   NORMALIZED FREE ENERGY PREDICTED BY IDOCK:   -3.11 KCAL/MOL
REMARK 922        TOTAL FREE ENERGY PREDICTED BY IDOCK:   -3.48 KCAL/MOL
REMARK 923 INTER-LIGAND FREE ENERGY PREDICTED BY IDOCK:   -3.32 KCAL/MOL
REMARK 924 INTRA-LIGAND FREE ENERGY PREDICTED BY IDOCK:   -0.16 KCAL/MOL
REMARK 927      BINDING AFFINITY PREDICTED BY RF-SCORE:    0.00 PKD
ROOT
HETATM    1  O   UNL     1      -9.970  11.226  66.680  1.00  0.00    -0.200 OA 
HETATM    2  C   UNL     1      -9.081  11.993  67.004  1.00  0.00    -0.191 C  
HETATM    3  C   UNL     1      -9.092  13.515  66.956  1.00  0.00    -0.248 C  
HETATM    4  C   UNL     1      -7.779  11.551  67.500  1.00  0.00    -0.132 A  
HETATM    5  C   UNL     1      -7.678  13.878  67.382  1.00  0.00    -0.148 C  
HETATM    6  C   UNL     1      -7.352  10.262  67.764  1.00  0.00    -0.087 A  
HETATM    7  C   UNL     1      -6.956  12.648  67.708  1.00  0.00    -0.125 A  
HETATM    8  O   UNL     1      -7.178  14.987  67.466  1.00  0.00    -0.174 OA 
HETATM    9  C   UNL     1      -5.664  12.508  68.181  1.00  0.00    -0.067 A  
HETATM   10  C   UNL     1      -6.052  10.100  68.250  1.00  0.00    -0.045 A  
HETATM   11  C   UNL     1      -5.214  11.214  68.454  1.00  0.00    -0.039 A  
ENDROOT
BRANCH   3  12
HETATM   12  C   UNL     1     -10.191  14.097  67.818  1.00  0.00    -0.242 A  
HETATM   13  C   UNL     1     -11.777  13.800  69.642  1.00  0.00    -0.379 A  
HETATM   14  C   UNL     1     -11.553  15.959  68.595  1.00  0.00    -0.383 A  
HETATM   15  C   UNL     1     -10.577  15.445  67.737  1.00  0.00    -0.274 A  
HETATM   16  C   UNL     1     -10.802  13.284  68.787  1.00  0.00    -0.273 A  
HETATM   17  C   UNL     1     -12.152  15.138  69.546  1.00  0.00    -0.316 A  
ENDBRANCH   3  12
TORSDOF 1
ENDMDL
MODEL      147
REMARK 921   NORMALIZED FREE ENERGY PREDICTED BY IDOCK:   -2.98 KCAL/MOL
REMARK 922        TOTAL FREE ENERGY PREDICTED BY IDOCK:   -3.35 KCAL/MOL
REMARK 923 INTER-LIGAND FREE ENERGY PREDICTED BY IDOCK:   -3.15 KCAL/MOL
REMARK 924 INTRA-LIGAND FREE ENERGY PREDICTED BY IDOCK:   -0.20 KCAL/MOL
REMARK 927      BINDING AFFINITY PREDICTED BY RF-SCORE:    0.00 PKD
ROOT
HETATM    1  O   UNL     1     -10.906   9.919  68.670  1.00  0.00    -0.222 OA 
HETATM    2  C   UNL     1     -10.153   9.229  69.334  1.00  0.00    -0.197 C  
HETATM    3  C   UNL     1      -8.723   8.821  69.007  1.00  0.00    -0.133 C  
HETATM    4  C   UNL     1     -10.529   8.632  70.613  1.00  0.00    -0.243 A  
HETATM    5  C   UNL     1      -8.365   7.890  70.155  1.00  0.00    -0.127 C  
HETATM    6  C   UNL     1     -11.706   8.787  71.322  1.00  0.00    -0.356 A  
HETATM    7  C   UNL     1      -9.492   7.841  71.087  1.00  0.00    -0.169 A  
HETATM    8  O   UNL     1      -7.329   7.272  70.329  1.00  0.00    -0.078 OA 
HETATM    9  C   UNL     1      -9.587   7.160  72.287  1.00  0.00    -0.161 A  
HETATM   10  C   UNL     1     -11.819   8.113  72.542  1.00  0.00    -0.438 A  
HETATM   11  C   UNL     1     -10.769   7.304  73.019  1.00  0.00    -0.384 A  
ENDROOT
BRANCH   3  12
HETATM   12  C   UNL     1      -7.817  10.024  68.849  1.00  0.00    -0.095 A  
HETATM   13  C   UNL     1      -6.030  11.410  69.749  1.00  0.00    -0.112 A  
HETATM   14  C   UNL     1      -6.890  11.856  67.543  1.00  0.00    -0.124 A  
HETATM   15  C   UNL     1      -7.785  10.791  67.673  1.00  0.00    -0.104 A  
HETATM   16  C   UNL     1      -6.923  10.346  69.882  1.00  0.00    -0.149 A  
HETATM   17  C   UNL     1      -6.013  12.164  68.579  1.00  0.00    -0.053 A  
ENDBRANCH   3  12
TORSDOF 1
ENDMDL
MODEL      148
REMARK 921   NORMALIZED FREE ENERGY PREDICTED BY IDOCK:   -2.90 KCAL/MOL
REMARK 922        TOTAL FREE ENERGY PREDICTED BY IDOCK:   -3.26 KCAL/MOL
REMARK 923 INTER-LIGAND FREE ENERGY PREDICTED BY IDOCK:   -2.79 KCAL/MOL
REMARK 924 INTRA-LIGAND FREE ENERGY PREDICTED BY IDOCK:   -0.47 KCAL/MOL
REMARK 927      BINDING AFFINITY PREDICTED BY RF-SCORE:    0.00 PKD
ROOT
HETATM    1  O   UNL     1      -9.879   4.473  67.257  1.00  0.00    -0.189 OA 
HETATM    2  C   UNL     1      -9.100   5.011  68.024  1.00  0.00    -0.114 C  
HETATM    3  C   UNL     1      -8.077   6.096  67.714  1.00  0.00    -0.113 C  
HETATM    4  C   UNL     1      -9.003   4.669  69.442  1.00  0.00    -0.140 A  
HETATM    5  C   UNL     1      -7.354   6.269  69.040  1.00  0.00    -0.085 C  
HETATM    6  C   UNL     1      -9.780   3.785  70.168  1.00  0.00    -0.217 A  
HETATM    7  C   UNL     1      -7.977   5.392  70.032  1.00  0.00    -0.082 A  
HETATM    8  O   UNL     1      -6.416   7.005  69.296  1.00  0.00    -0.040 OA 
HETATM    9  C   UNL     1      -7.673   5.259  71.374  1.00  0.00    -0.106 A  
HETATM   10  C   UNL     1      -9.493   3.640  71.528  1.00  0.00    -0.220 A  
HETATM   11  C   UNL     1      -8.446   4.370  72.126  1.00  0.00    -0.115 A  
ENDROOT
BRANCH   3  12
HETATM   12  C   UNL     1      -8.733   7.348  67.172  1.00  0.00    -0.121 A  
HETATM   13  C   UNL     1      -9.009   8.917  65.331  1.00  0.00    -0.232 A  
HETATM   14  C   UNL     1     -10.360   9.152  67.312  1.00  0.00    -0.338 A  
HETATM   15  C   UNL     1      -9.735   8.036  67.874  1.00  0.00    -0.189 A  
HETATM   16  C   UNL     1      -8.383   7.801  65.889  1.00  0.00    -0.135 A  
HETATM   17  C   UNL     1      -9.998   9.591  66.041  1.00  0.00    -0.348 A  
ENDBRANCH   3  12
TORSDOF 1
ENDMDL
MODEL      149
REMARK 921   NORMALIZED FREE ENERGY PREDICTED BY IDOCK:   -2.87 KCAL/MOL
REMARK 922        TOTAL FREE ENERGY PREDICTED BY IDOCK:   -3.23 KCAL/MOL
REMARK 923 INTER-LIGAND FREE ENERGY PREDICTED BY IDOCK:   -3.48 KCAL/MOL
REMARK 924 INTRA-LIGAND FREE ENERGY PREDICTED BY IDOCK:    0.24 KCAL/MOL
REMARK 927      BINDING AFFINITY PREDICTED BY RF-SCORE:    0.00 PKD
ROOT
HETATM    1  O   UNL     1      -9.369  14.084  67.383  1.00  0.00    -0.205 OA 
HETATM    2  C   UNL     1      -9.942  14.543  68.355  1.00  0.00    -0.241 C  
HETATM    3  C   UNL     1      -9.734  15.902  69.011  1.00  0.00    -0.243 C  
HETATM    4  C   UNL     1     -10.964  13.815  69.104  1.00  0.00    -0.246 A  
HETATM    5  C   UNL     1     -10.653  15.839  70.220  1.00  0.00    -0.284 C  
HETATM    6  C   UNL     1     -11.512  12.575  68.828  1.00  0.00    -0.353 A  
HETATM    7  C   UNL     1     -11.370  14.564  70.199  1.00  0.00    -0.250 A  
HETATM    8  O   UNL     1     -10.815  16.680  71.087  1.00  0.00     0.281 OA 
HETATM    9  C   UNL     1     -12.336  14.105  71.075  1.00  0.00    -0.438 A  
HETATM   10  C   UNL     1     -12.495  12.095  69.699  1.00  0.00     0.095 A  
HETATM   11  C   UNL     1     -12.902  12.854  70.815  1.00  0.00    -0.128 A  
ENDROOT
BRANCH   3  12
HETATM   12  C   UNL     1     -10.013  17.038  68.050  1.00  0.00    -0.283 A  
HETATM   13  C   UNL     1      -9.904  17.912  65.781  1.00  0.00     0.089 A  
HETATM   14  C   UNL     1     -11.018  19.185  67.498  1.00  0.00    -0.405 A  
HETATM   15  C   UNL     1     -10.726  18.186  68.431  1.00  0.00    -0.099 A  
HETATM   16  C   UNL     1      -9.612  16.913  66.710  1.00  0.00    -0.273 A  
HETATM   17  C   UNL     1     -10.608  19.048  66.174  1.00  0.00    -0.495 A  
ENDBRANCH   3  12
TORSDOF 1
ENDMDL
MODEL      150
REMARK 921   NORMALIZED FREE ENERGY PREDICTED BY IDOCK:   -2.79 KCAL/MOL
REMARK 922        TOTAL FREE ENERGY PREDICTED BY IDOCK:   -3.15 KCAL/MOL
REMARK 923 INTER-LIGAND FREE ENERGY PREDICTED BY IDOCK:   -2.68 KCAL/MOL
REMARK 924 INTRA-LIGAND FREE ENERGY PREDICTED BY IDOCK:   -0.47 KCAL/MOL
REMARK 927      BINDING AFFINITY PREDICTED BY RF-SCORE:    0.00 PKD
ROOT
HETATM    1  O   UNL     1     -10.928   4.968  66.064  1.00  0.00    -0.243 OA 
HETATM    2  C   UNL     1      -9.770   5.271  66.287  1.00  0.00    -0.169 C  
HETATM    3  C   UNL     1      -9.125   6.647  66.186  1.00  0.00    -0.143 C  
HETATM    4  C   UNL     1      -8.750   4.306  66.692  1.00  0.00    -0.113 A  
HETATM    5  C   UNL     1      -7.662   6.359  66.482  1.00  0.00    -0.099 C  
HETATM    6  C   UNL     1      -8.902   2.959  66.966  1.00  0.00    -0.160 A  
HETATM    7  C   UNL     1      -7.518   4.936  66.793  1.00  0.00    -0.087 A  
HETATM    8  O   UNL     1      -6.726   7.140  66.486  1.00  0.00    -0.054 OA 
HETATM    9  C   UNL     1      -6.378   4.248  67.165  1.00  0.00    -0.040 A  
HETATM   10  C   UNL     1      -7.762   2.246  67.350  1.00  0.00    -0.061 A  
HETATM   11  C   UNL     1      -6.510   2.885  67.446  1.00  0.00    -0.036 A  
ENDROOT
BRANCH   3  12
HETATM   12  C   UNL     1      -9.783   7.646  67.113  1.00  0.00    -0.239 A  
HETATM   13  C   UNL     1     -10.430   8.265  69.377  1.00  0.00    -0.224 A  
HETATM   14  C   UNL     1     -10.779   9.820  67.569  1.00  0.00    -0.327 A  
HETATM   15  C   UNL     1     -10.234   8.900  66.669  1.00  0.00    -0.338 A  
HETATM   16  C   UNL     1      -9.884   7.345  68.481  1.00  0.00    -0.164 A  
HETATM   17  C   UNL     1     -10.877   9.503  68.921  1.00  0.00    -0.177 A  
ENDBRANCH   3  12
TORSDOF 1
ENDMDL
MODEL      151
REMARK 921   NORMALIZED FREE ENERGY PREDICTED BY IDOCK:   -2.79 KCAL/MOL
REMARK 922        TOTAL FREE ENERGY PREDICTED BY IDOCK:   -3.14 KCAL/MOL
REMARK 923 INTER-LIGAND FREE ENERGY PREDICTED BY IDOCK:   -2.67 KCAL/MOL
REMARK 924 INTRA-LIGAND FREE ENERGY PREDICTED BY IDOCK:   -0.48 KCAL/MOL
REMARK 927      BINDING AFFINITY PREDICTED BY RF-SCORE:    0.00 PKD
ROOT
HETATM    1  O   UNL     1      -9.764   6.780  69.990  1.00  0.00    -0.163 OA 
HETATM    2  C   UNL     1      -9.712   5.930  69.119  1.00  0.00    -0.140 C  
HETATM    3  C   UNL     1      -9.818   6.123  67.612  1.00  0.00    -0.131 C  
HETATM    4  C   UNL     1      -9.550   4.504  69.397  1.00  0.00    -0.264 A  
HETATM    5  C   UNL     1      -9.785   4.698  67.084  1.00  0.00    -0.192 C  
HETATM    6  C   UNL     1      -9.352   3.883  70.616  1.00  0.00    -0.225 A  
HETATM    7  C   UNL     1      -9.606   3.784  68.212  1.00  0.00    -0.171 A  
HETATM    8  O   UNL     1      -9.878   4.320  65.929  1.00  0.00    -0.192 OA 
HETATM    9  C   UNL     1      -9.475   2.407  68.192  1.00  0.00    -0.215 A  
HETATM   10  C   UNL     1      -9.211   2.492  70.617  1.00  0.00    -0.203 A  
HETATM   11  C   UNL     1      -9.275   1.760  69.415  1.00  0.00    -0.173 A  
ENDROOT
BRANCH   3  12
HETATM   12  C   UNL     1      -8.726   7.029  67.084  1.00  0.00    -0.121 A  
HETATM   13  C   UNL     1      -6.364   7.373  66.604  1.00  0.00    -0.045 A  
HETATM   14  C   UNL     1      -7.971   9.042  65.943  1.00  0.00    -0.103 A  
HETATM   15  C   UNL     1      -9.003   8.263  66.474  1.00  0.00    -0.189 A  
HETATM   16  C   UNL     1      -7.392   6.593  67.136  1.00  0.00    -0.083 A  
HETATM   17  C   UNL     1      -6.654   8.597  66.007  1.00  0.00    -0.057 A  
ENDBRANCH   3  12
TORSDOF 1
ENDMDL
MODEL      152
REMARK 921   NORMALIZED FREE ENERGY PREDICTED BY IDOCK:   -2.67 KCAL/MOL
REMARK 922        TOTAL FREE ENERGY PREDICTED BY IDOCK:   -3.02 KCAL/MOL
REMARK 923 INTER-LIGAND FREE ENERGY PREDICTED BY IDOCK:   -2.67 KCAL/MOL
REMARK 924 INTRA-LIGAND FREE ENERGY PREDICTED BY IDOCK:   -0.36 KCAL/MOL
REMARK 927      BINDING AFFINITY PREDICTED BY RF-SCORE:    0.00 PKD
ROOT
HETATM    1  O   UNL     1      -8.994   7.239  72.897  1.00  0.00    -0.127 OA 
HETATM    2  C   UNL     1      -9.258   6.662  71.857  1.00  0.00    -0.147 C  
HETATM    3  C   UNL     1     -10.179   7.124  70.736  1.00  0.00    -0.208 C  
HETATM    4  C   UNL     1      -8.719   5.349  71.508  1.00  0.00    -0.139 A  
HETATM    5  C   UNL     1     -10.174   5.939  69.782  1.00  0.00    -0.218 C  
HETATM    6  C   UNL     1      -7.797   4.586  72.201  1.00  0.00    -0.095 A  
HETATM    7  C   UNL     1      -9.262   4.921  70.305  1.00  0.00    -0.192 A  
HETATM    8  O   UNL     1     -10.794   5.807  68.742  1.00  0.00    -0.264 OA 
HETATM    9  C   UNL     1      -8.916   3.706  69.743  1.00  0.00    -0.171 A  
HETATM   10  C   UNL     1      -7.428   3.357  71.646  1.00  0.00    -0.051 A  
HETATM   11  C   UNL     1      -7.985   2.920  70.428  1.00  0.00    -0.050 A  
ENDROOT
BRANCH   3  12
HETATM   12  C   UNL     1      -9.717   8.434  70.134  1.00  0.00    -0.175 A  
HETATM   13  C   UNL     1     -10.295  10.598  69.178  1.00  0.00    -0.242 A  
HETATM   14  C   UNL     1      -7.982  10.045  69.569  1.00  0.00    -0.161 A  
HETATM   15  C   UNL     1      -8.363   8.799  70.075  1.00  0.00    -0.127 A  
HETATM   16  C   UNL     1     -10.678   9.355  69.683  1.00  0.00    -0.251 A  
HETATM   17  C   UNL     1      -8.947  10.943  69.122  1.00  0.00    -0.052 A  
ENDBRANCH   3  12
TORSDOF 1
ENDMDL
MODEL      153
REMARK 921   NORMALIZED FREE ENERGY PREDICTED BY IDOCK:   -2.67 KCAL/MOL
REMARK 922        TOTAL FREE ENERGY PREDICTED BY IDOCK:   -3.02 KCAL/MOL
REMARK 923 INTER-LIGAND FREE ENERGY PREDICTED BY IDOCK:   -3.13 KCAL/MOL
REMARK 924 INTRA-LIGAND FREE ENERGY PREDICTED BY IDOCK:    0.11 KCAL/MOL
REMARK 927      BINDING AFFINITY PREDICTED BY RF-SCORE:    0.00 PKD
ROOT
HETATM    1  O   UNL     1      -7.210   9.781  64.913  1.00  0.00    -0.116 OA 
HETATM    2  C   UNL     1      -7.837   8.900  65.475  1.00  0.00    -0.100 C  
HETATM    3  C   UNL     1      -8.574   8.977  66.805  1.00  0.00    -0.129 C  
HETATM    4  C   UNL     1      -7.974   7.546  64.943  1.00  0.00    -0.132 A  
HETATM    5  C   UNL     1      -9.057   7.550  67.008  1.00  0.00    -0.135 C  
HETATM    6  C   UNL     1      -7.521   7.047  63.735  1.00  0.00    -0.096 A  
HETATM    7  C   UNL     1      -8.673   6.755  65.842  1.00  0.00    -0.147 A  
HETATM    8  O   UNL     1      -9.672   7.091  67.955  1.00  0.00    -0.128 OA 
HETATM    9  C   UNL     1      -8.946   5.425  65.580  1.00  0.00    -0.160 A  
HETATM   10  C   UNL     1      -7.792   5.706  63.448  1.00  0.00    -0.101 A  
HETATM   11  C   UNL     1      -8.497   4.901  64.365  1.00  0.00    -0.137 A  
ENDROOT
BRANCH   3  12
HETATM   12  C   UNL     1      -9.664  10.027  66.783  1.00  0.00    -0.239 A  
HETATM   13  C   UNL     1     -10.849  11.766  65.557  1.00  0.00    -0.348 A  
HETATM   14  C   UNL     1     -11.610  11.123  67.751  1.00  0.00    -0.303 A  
HETATM   15  C   UNL     1     -10.579  10.184  67.837  1.00  0.00    -0.294 A  
HETATM   16  C   UNL     1      -9.819  10.828  65.640  1.00  0.00    -0.299 A  
HETATM   17  C   UNL     1     -11.745  11.912  66.613  1.00  0.00    -0.264 A  
ENDBRANCH   3  12
TORSDOF 1
ENDMDL
MODEL      154
REMARK 921   NORMALIZED FREE ENERGY PREDICTED BY IDOCK:   -1.51 KCAL/MOL
REMARK 922        TOTAL FREE ENERGY PREDICTED BY IDOCK:   -1.79 KCAL/MOL
REMARK 923 INTER-LIGAND FREE ENERGY PREDICTED BY IDOCK:   -1.80 KCAL/MOL
REMARK 924 INTRA-LIGAND FREE ENERGY PREDICTED BY IDOCK:    0.00 KCAL/MOL
REMARK 927      BINDING AFFINITY PREDICTED BY RF-SCORE:    0.00 PKD
ROOT
HETATM    1  O   UNL     1      -6.657   4.555  70.748  1.00  0.00    -0.032 OA 
HETATM    2  C   UNL     1      -6.605   5.765  70.621  1.00  0.00    -0.044 C  
HETATM    3  C   UNL     1      -6.841   6.587  69.361  1.00  0.00    -0.065 C  
HETATM    4  C   UNL     1      -6.269   6.674  71.715  1.00  0.00    -0.042 A  
HETATM    5  C   UNL     1      -6.532   8.004  69.817  1.00  0.00    -0.037 C  
HETATM    6  C   UNL     1      -6.040   6.371  73.045  1.00  0.00    -0.054 A  
HETATM    7  C   UNL     1      -6.213   7.978  71.245  1.00  0.00    -0.034 A  
HETATM    8  O   UNL     1      -6.542   9.027  69.155  1.00  0.00    -0.049 OA 
HETATM    9  C   UNL     1      -5.918   9.040  72.080  1.00  0.00    -0.068 A  
HETATM   10  C   UNL     1      -5.746   7.431  73.907  1.00  0.00    -0.053 A  
HETATM   11  C   UNL     1      -5.683   8.755  73.428  1.00  0.00    -0.105 A  
ENDROOT
BRANCH   3  12
HETATM   12  C   UNL     1      -8.235   6.380  68.808  1.00  0.00    -0.121 A  
HETATM   13  C   UNL     1     -10.375   7.341  68.157  1.00  0.00    -0.234 A  
HETATM   14  C   UNL     1      -9.944   5.005  67.753  1.00  0.00    -0.198 A  
HETATM   15  C   UNL     1      -8.671   5.140  68.313  1.00  0.00    -0.104 A  
HETATM   16  C   UNL     1      -9.104   7.479  68.717  1.00  0.00    -0.135 A  
HETATM   17  C   UNL     1     -10.795   6.104  67.675  1.00  0.00    -0.421 A  
ENDBRANCH   3  12
TORSDOF 1
ENDMDL
MODEL      155
REMARK 921   NORMALIZED FREE ENERGY PREDICTED BY IDOCK:   -0.42 KCAL/MOL
REMARK 922        TOTAL FREE ENERGY PREDICTED BY IDOCK:   -0.64 KCAL/MOL
REMARK 923 INTER-LIGAND FREE ENERGY PREDICTED BY IDOCK:   -0.74 KCAL/MOL
REMARK 924 INTRA-LIGAND FREE ENERGY PREDICTED BY IDOCK:    0.10 KCAL/MOL
REMARK 927      BINDING AFFINITY PREDICTED BY RF-SCORE:    0.00 PKD
ROOT
HETATM    1  O   UNL     1     -10.896  18.148  71.590  1.00  0.00     1.819 OA 
HETATM    2  C   UNL     1     -10.647  17.495  70.592  1.00  0.00     1.529 C  
HETATM    3  C   UNL     1     -10.529  15.981  70.468  1.00  0.00     0.100 C  
HETATM    4  C   UNL     1     -10.387  18.092  69.284  1.00  0.00     0.047 A  
HETATM    5  C   UNL     1     -10.106  15.791  69.020  1.00  0.00    -0.225 C  
HETATM    6  C   UNL     1     -10.450  19.425  68.920  1.00  0.00    -0.028 A  
HETATM    7  C   UNL     1     -10.059  17.101  68.370  1.00  0.00    -0.314 A  
HETATM    8  O   UNL     1      -9.847  14.750  68.441  1.00  0.00    -0.208 OA 
HETATM    9  C   UNL     1      -9.769  17.397  67.050  1.00  0.00    -0.276 A  
HETATM   10  C   UNL     1     -10.167  19.744  67.588  1.00  0.00    -0.569 A  
HETATM   11  C   UNL     1      -9.827  18.738  66.662  1.00  0.00    -0.387 A  
ENDROOT
BRANCH   3  12
HETATM   12  C   UNL     1     -11.815  15.284  70.858  1.00  0.00    -0.387 A  
HETATM   13  C   UNL     1     -13.060  13.205  71.095  1.00  0.00    -0.202 A  
HETATM   14  C   UNL     1     -14.036  15.274  71.854  1.00  0.00    -0.644 A  
HETATM   15  C   UNL     1     -12.890  15.965  71.451  1.00  0.00    -0.352 A  
HETATM   16  C   UNL     1     -11.915  13.893  70.692  1.00  0.00    -0.364 A  
HETATM   17  C   UNL     1     -14.120  13.896  71.677  1.00  0.00    -0.282 A  
ENDBRANCH   3  12
TORSDOF 1
ENDMDL
