MODEL        1
REMARK 921   NORMALIZED FREE ENERGY PREDICTED BY IDOCK:   -4.83 KCAL/MOL
REMARK 922        TOTAL FREE ENERGY PREDICTED BY IDOCK:   -5.79 KCAL/MOL
REMARK 923 INTER-LIGAND FREE ENERGY PREDICTED BY IDOCK:   -5.68 KCAL/MOL
REMARK 924 INTRA-LIGAND FREE ENERGY PREDICTED BY IDOCK:   -0.11 KCAL/MOL
REMARK 927      BINDING AFFINITY PREDICTED BY RF-SCORE:    0.00 PKD
ROOT
HETATM    1  N   UNL     1     -11.871  16.235  63.862  1.00  0.00    -1.412 NA 
HETATM    2  H1  UNL     1     -12.526  16.764  63.286  1.00  0.00     0.000 HD 
HETATM    3  H2  UNL     1     -10.898  16.435  63.629  1.00  0.00     0.000 HD 
HETATM    4  N   UNL     1     -12.184  14.832  63.755  1.00  0.00    -1.039 NA 
HETATM    5  H   UNL     1     -12.200  14.510  62.788  1.00  0.00     0.000 HD 
ENDROOT
BRANCH   4   6
HETATM    6  C   UNL     1     -11.240  14.069  64.584  1.00  0.00    -0.374 C  
BRANCH   6   7
HETATM    7  C   UNL     1     -11.918  12.830  65.180  1.00  0.00    -0.466 C  
BRANCH   7   8
HETATM    8  C   UNL     1     -11.804  12.820  66.685  1.00  0.00    -0.462 A  
HETATM    9  C   UNL     1     -11.638  11.612  67.375  1.00  0.00    -0.330 A  
HETATM   10  C   UNL     1     -11.591  11.596  68.770  1.00  0.00    -0.374 A  
HETATM   11  C   UNL     1     -11.713  12.785  69.486  1.00  0.00    -0.383 A  
HETATM   12  C   UNL     1     -11.875  13.992  68.810  1.00  0.00    -0.396 A  
HETATM   13  C   UNL     1     -11.922  14.011  67.414  1.00  0.00    -0.439 A  
ENDBRANCH   7   8
ENDBRANCH   6   7
ENDBRANCH   4   6
TORSDOF 3
ENDMDL
MODEL        2
REMARK 921   NORMALIZED FREE ENERGY PREDICTED BY IDOCK:   -4.82 KCAL/MOL
REMARK 922        TOTAL FREE ENERGY PREDICTED BY IDOCK:   -5.78 KCAL/MOL
REMARK 923 INTER-LIGAND FREE ENERGY PREDICTED BY IDOCK:   -5.69 KCAL/MOL
REMARK 924 INTRA-LIGAND FREE ENERGY PREDICTED BY IDOCK:   -0.08 KCAL/MOL
REMARK 927      BINDING AFFINITY PREDICTED BY RF-SCORE:    0.00 PKD
ROOT
HETATM    1  N   UNL     1     -11.751  16.327  63.738  1.00  0.00    -1.488 NA 
HETATM    2  H1  UNL     1     -12.086  16.759  62.877  1.00  0.00     0.000 HD 
HETATM    3  H2  UNL     1     -10.734  16.243  63.763  1.00  0.00     0.000 HD 
HETATM    4  N   UNL     1     -12.411  15.057  63.909  1.00  0.00    -1.059 NA 
HETATM    5  H   UNL     1     -12.299  14.448  63.099  1.00  0.00     0.000 HD 
ENDROOT
BRANCH   4   6
HETATM    6  C   UNL     1     -11.928  14.433  65.150  1.00  0.00    -0.391 C  
BRANCH   6   7
HETATM    7  C   UNL     1     -12.436  12.991  65.267  1.00  0.00    -0.555 C  
BRANCH   7   8
HETATM    8  C   UNL     1     -11.325  12.003  65.005  1.00  0.00    -0.365 A  
HETATM    9  C   UNL     1     -10.906  11.740  63.693  1.00  0.00    -0.508 A  
HETATM   10  C   UNL     1      -9.920  10.784  63.446  1.00  0.00    -0.385 A  
HETATM   11  C   UNL     1      -9.346  10.083  64.504  1.00  0.00    -0.345 A  
HETATM   12  C   UNL     1      -9.753  10.339  65.812  1.00  0.00    -0.297 A  
HETATM   13  C   UNL     1     -10.739  11.295  66.063  1.00  0.00    -0.301 A  
ENDBRANCH   7   8
ENDBRANCH   6   7
ENDBRANCH   4   6
TORSDOF 3
ENDMDL
MODEL        3
REMARK 921   NORMALIZED FREE ENERGY PREDICTED BY IDOCK:   -4.79 KCAL/MOL
REMARK 922        TOTAL FREE ENERGY PREDICTED BY IDOCK:   -5.74 KCAL/MOL
REMARK 923 INTER-LIGAND FREE ENERGY PREDICTED BY IDOCK:   -5.66 KCAL/MOL
REMARK 924 INTRA-LIGAND FREE ENERGY PREDICTED BY IDOCK:   -0.08 KCAL/MOL
REMARK 927      BINDING AFFINITY PREDICTED BY RF-SCORE:    0.00 PKD
ROOT
HETATM    1  N   UNL     1     -11.618  16.333  63.835  1.00  0.00    -1.573 NA 
HETATM    2  H1  UNL     1     -11.953  17.058  63.199  1.00  0.00     0.000 HD 
HETATM    3  H2  UNL     1     -10.656  16.056  63.638  1.00  0.00     0.000 HD 
HETATM    4  N   UNL     1     -12.531  15.219  63.792  1.00  0.00    -0.948 NA 
HETATM    5  H   UNL     1     -12.675  14.870  62.844  1.00  0.00     0.000 HD 
ENDROOT
BRANCH   4   6
HETATM    6  C   UNL     1     -12.049  14.174  64.707  1.00  0.00    -0.441 C  
BRANCH   6   7
HETATM    7  C   UNL     1     -11.627  12.922  63.929  1.00  0.00    -0.515 C  
BRANCH   7   8
HETATM    8  C   UNL     1     -11.101  11.857  64.861  1.00  0.00    -0.363 A  
HETATM    9  C   UNL     1     -11.387  11.911  66.231  1.00  0.00    -0.394 A  
HETATM   10  C   UNL     1     -10.853  10.960  67.102  1.00  0.00    -0.337 A  
HETATM   11  C   UNL     1     -10.029   9.949  66.612  1.00  0.00    -0.277 A  
HETATM   12  C   UNL     1      -9.741   9.885  65.250  1.00  0.00    -0.383 A  
HETATM   13  C   UNL     1     -10.274  10.835  64.377  1.00  0.00    -0.432 A  
ENDBRANCH   7   8
ENDBRANCH   6   7
ENDBRANCH   4   6
TORSDOF 3
ENDMDL
MODEL        4
REMARK 921   NORMALIZED FREE ENERGY PREDICTED BY IDOCK:   -4.79 KCAL/MOL
REMARK 922        TOTAL FREE ENERGY PREDICTED BY IDOCK:   -5.73 KCAL/MOL
REMARK 923 INTER-LIGAND FREE ENERGY PREDICTED BY IDOCK:   -5.71 KCAL/MOL
REMARK 924 INTRA-LIGAND FREE ENERGY PREDICTED BY IDOCK:   -0.02 KCAL/MOL
REMARK 927      BINDING AFFINITY PREDICTED BY RF-SCORE:    0.00 PKD
ROOT
HETATM    1  N   UNL     1     -12.012  15.847  63.709  1.00  0.00    -1.266 NA 
HETATM    2  H1  UNL     1     -12.300  16.345  62.866  1.00  0.00     0.000 HD 
HETATM    3  H2  UNL     1     -12.806  15.561  64.284  1.00  0.00     0.000 HD 
HETATM    4  N   UNL     1     -11.074  16.665  64.436  1.00  0.00    -1.251 NA 
HETATM    5  H   UNL     1     -11.444  17.593  64.639  1.00  0.00     0.000 HD 
ENDROOT
BRANCH   4   6
HETATM    6  C   UNL     1     -10.659  15.948  65.651  1.00  0.00    -0.378 C  
BRANCH   6   7
HETATM    7  C   UNL     1      -9.291  16.443  66.133  1.00  0.00    -0.360 C  
BRANCH   7   8
HETATM    8  C   UNL     1      -9.363  17.883  66.582  1.00  0.00    -0.293 A  
HETATM    9  C   UNL     1      -8.298  18.758  66.329  1.00  0.00    -0.262 A  
HETATM   10  C   UNL     1      -8.339  20.073  66.795  1.00  0.00    -0.372 A  
HETATM   11  C   UNL     1      -9.442  20.523  67.519  1.00  0.00    -0.520 A  
HETATM   12  C   UNL     1     -10.506  19.662  67.774  1.00  0.00    -0.573 A  
HETATM   13  C   UNL     1     -10.468  18.346  67.308  1.00  0.00    -0.434 A  
ENDBRANCH   7   8
ENDBRANCH   6   7
ENDBRANCH   4   6
TORSDOF 3
ENDMDL
MODEL        5
REMARK 921   NORMALIZED FREE ENERGY PREDICTED BY IDOCK:   -4.71 KCAL/MOL
REMARK 922        TOTAL FREE ENERGY PREDICTED BY IDOCK:   -5.65 KCAL/MOL
REMARK 923 INTER-LIGAND FREE ENERGY PREDICTED BY IDOCK:   -5.59 KCAL/MOL
REMARK 924 INTRA-LIGAND FREE ENERGY PREDICTED BY IDOCK:   -0.06 KCAL/MOL
REMARK 927      BINDING AFFINITY PREDICTED BY RF-SCORE:    0.00 PKD
ROOT
HETATM    1  N   UNL     1     -11.498  16.567  63.939  1.00  0.00    -1.599 NA 
HETATM    2  H1  UNL     1     -11.872  17.218  63.248  1.00  0.00     0.000 HD 
HETATM    3  H2  UNL     1     -10.478  16.521  63.920  1.00  0.00     0.000 HD 
HETATM    4  N   UNL     1     -12.109  15.277  63.743  1.00  0.00    -0.949 NA 
HETATM    5  H   UNL     1     -12.000  14.936  62.788  1.00  0.00     0.000 HD 
ENDROOT
BRANCH   4   6
HETATM    6  C   UNL     1     -11.570  14.338  64.738  1.00  0.00    -0.401 C  
BRANCH   6   7
HETATM    7  C   UNL     1     -12.643  13.959  65.765  1.00  0.00    -0.533 C  
BRANCH   7   8
HETATM    8  C   UNL     1     -12.036  13.227  66.938  1.00  0.00    -0.430 A  
HETATM    9  C   UNL     1     -11.577  11.911  66.790  1.00  0.00    -0.341 A  
HETATM   10  C   UNL     1     -11.070  11.213  67.887  1.00  0.00    -0.331 A  
HETATM   11  C   UNL     1     -11.018  11.823  69.140  1.00  0.00    -0.261 A  
HETATM   12  C   UNL     1     -11.469  13.132  69.296  1.00  0.00    -0.348 A  
HETATM   13  C   UNL     1     -11.977  13.832  68.200  1.00  0.00    -0.394 A  
ENDBRANCH   7   8
ENDBRANCH   6   7
ENDBRANCH   4   6
TORSDOF 3
ENDMDL
MODEL        6
REMARK 921   NORMALIZED FREE ENERGY PREDICTED BY IDOCK:   -4.69 KCAL/MOL
REMARK 922        TOTAL FREE ENERGY PREDICTED BY IDOCK:   -5.63 KCAL/MOL
REMARK 923 INTER-LIGAND FREE ENERGY PREDICTED BY IDOCK:   -5.52 KCAL/MOL
REMARK 924 INTRA-LIGAND FREE ENERGY PREDICTED BY IDOCK:   -0.11 KCAL/MOL
REMARK 927      BINDING AFFINITY PREDICTED BY RF-SCORE:    0.00 PKD
ROOT
HETATM    1  N   UNL     1     -12.029  15.961  63.712  1.00  0.00    -1.266 NA 
HETATM    2  H1  UNL     1     -12.733  16.530  63.241  1.00  0.00     0.000 HD 
HETATM    3  H2  UNL     1     -11.087  16.141  63.363  1.00  0.00     0.000 HD 
HETATM    4  N   UNL     1     -12.400  14.573  63.602  1.00  0.00    -1.104 NA 
HETATM    5  H   UNL     1     -12.550  14.286  62.634  1.00  0.00     0.000 HD 
ENDROOT
BRANCH   4   6
HETATM    6  C   UNL     1     -11.385  13.753  64.279  1.00  0.00    -0.326 C  
BRANCH   6   7
HETATM    7  C   UNL     1     -12.045  12.629  65.086  1.00  0.00    -0.508 C  
BRANCH   7   8
HETATM    8  C   UNL     1     -11.901  12.871  66.570  1.00  0.00    -0.473 A  
HETATM    9  C   UNL     1     -11.876  14.178  67.075  1.00  0.00    -0.458 A  
HETATM   10  C   UNL     1     -11.684  14.404  68.438  1.00  0.00    -0.367 A  
HETATM   11  C   UNL     1     -11.515  13.328  69.308  1.00  0.00    -0.345 A  
HETATM   12  C   UNL     1     -11.542  12.024  68.816  1.00  0.00    -0.366 A  
HETATM   13  C   UNL     1     -11.734  11.795  67.452  1.00  0.00    -0.304 A  
ENDBRANCH   7   8
ENDBRANCH   6   7
ENDBRANCH   4   6
TORSDOF 3
ENDMDL
MODEL        7
REMARK 921   NORMALIZED FREE ENERGY PREDICTED BY IDOCK:   -4.65 KCAL/MOL
REMARK 922        TOTAL FREE ENERGY PREDICTED BY IDOCK:   -5.58 KCAL/MOL
REMARK 923 INTER-LIGAND FREE ENERGY PREDICTED BY IDOCK:   -5.50 KCAL/MOL
REMARK 924 INTRA-LIGAND FREE ENERGY PREDICTED BY IDOCK:   -0.08 KCAL/MOL
REMARK 927      BINDING AFFINITY PREDICTED BY RF-SCORE:    0.00 PKD
ROOT
HETATM    1  N   UNL     1     -11.659  16.296  63.909  1.00  0.00    -1.573 NA 
HETATM    2  H1  UNL     1     -12.047  17.045  63.335  1.00  0.00     0.000 HD 
HETATM    3  H2  UNL     1     -10.702  16.058  63.646  1.00  0.00     0.000 HD 
HETATM    4  N   UNL     1     -12.543  15.159  63.852  1.00  0.00    -0.932 NA 
HETATM    5  H   UNL     1     -12.729  14.859  62.896  1.00  0.00     0.000 HD 
ENDROOT
BRANCH   4   6
HETATM    6  C   UNL     1     -11.984  14.080  64.680  1.00  0.00    -0.430 C  
BRANCH   6   7
HETATM    7  C   UNL     1     -12.275  14.326  66.165  1.00  0.00    -0.430 C  
BRANCH   7   8
HETATM    8  C   UNL     1     -11.868  13.138  67.001  1.00  0.00    -0.435 A  
HETATM    9  C   UNL     1     -12.033  13.161  68.393  1.00  0.00    -0.324 A  
HETATM   10  C   UNL     1     -11.603  12.087  69.173  1.00  0.00    -0.370 A  
HETATM   11  C   UNL     1     -11.003  10.983  68.571  1.00  0.00    -0.276 A  
HETATM   12  C   UNL     1     -10.837  10.948  67.188  1.00  0.00    -0.337 A  
HETATM   13  C   UNL     1     -11.267  12.021  66.405  1.00  0.00    -0.389 A  
ENDBRANCH   7   8
ENDBRANCH   6   7
ENDBRANCH   4   6
TORSDOF 3
ENDMDL
MODEL        8
REMARK 921   NORMALIZED FREE ENERGY PREDICTED BY IDOCK:   -4.63 KCAL/MOL
REMARK 922        TOTAL FREE ENERGY PREDICTED BY IDOCK:   -5.55 KCAL/MOL
REMARK 923 INTER-LIGAND FREE ENERGY PREDICTED BY IDOCK:   -5.46 KCAL/MOL
REMARK 924 INTRA-LIGAND FREE ENERGY PREDICTED BY IDOCK:   -0.09 KCAL/MOL
REMARK 927      BINDING AFFINITY PREDICTED BY RF-SCORE:    0.00 PKD
ROOT
HETATM    1  N   UNL     1     -11.599  16.220  63.709  1.00  0.00    -1.482 NA 
HETATM    2  H1  UNL     1     -11.993  16.849  63.009  1.00  0.00     0.000 HD 
HETATM    3  H2  UNL     1     -10.634  15.961  63.501  1.00  0.00     0.000 HD 
HETATM    4  N   UNL     1     -12.459  15.071  63.842  1.00  0.00    -1.043 NA 
HETATM    5  H   UNL     1     -12.626  14.606  62.950  1.00  0.00     0.000 HD 
ENDROOT
BRANCH   4   6
HETATM    6  C   UNL     1     -11.890  14.165  64.850  1.00  0.00    -0.402 C  
BRANCH   6   7
HETATM    7  C   UNL     1     -11.054  14.944  65.872  1.00  0.00    -0.338 C  
BRANCH   7   8
HETATM    8  C   UNL     1     -11.429  14.561  67.283  1.00  0.00    -0.381 A  
HETATM    9  C   UNL     1     -11.511  15.539  68.284  1.00  0.00    -0.359 A  
HETATM   10  C   UNL     1     -11.799  15.179  69.601  1.00  0.00    -0.362 A  
HETATM   11  C   UNL     1     -12.007  13.840  69.929  1.00  0.00    -0.412 A  
HETATM   12  C   UNL     1     -11.931  12.861  68.941  1.00  0.00    -0.291 A  
HETATM   13  C   UNL     1     -11.643  13.219  67.622  1.00  0.00    -0.386 A  
ENDBRANCH   7   8
ENDBRANCH   6   7
ENDBRANCH   4   6
TORSDOF 3
ENDMDL
MODEL        9
REMARK 921   NORMALIZED FREE ENERGY PREDICTED BY IDOCK:   -4.59 KCAL/MOL
REMARK 922        TOTAL FREE ENERGY PREDICTED BY IDOCK:   -5.50 KCAL/MOL
REMARK 923 INTER-LIGAND FREE ENERGY PREDICTED BY IDOCK:   -5.42 KCAL/MOL
REMARK 924 INTRA-LIGAND FREE ENERGY PREDICTED BY IDOCK:   -0.08 KCAL/MOL
REMARK 927      BINDING AFFINITY PREDICTED BY RF-SCORE:    0.00 PKD
ROOT
HETATM    1  N   UNL     1     -11.669  16.222  63.799  1.00  0.00    -1.488 NA 
HETATM    2  H1  UNL     1     -12.131  17.008  63.341  1.00  0.00     0.000 HD 
HETATM    3  H2  UNL     1     -10.755  16.018  63.395  1.00  0.00     0.000 HD 
HETATM    4  N   UNL     1     -12.550  15.082  63.769  1.00  0.00    -0.965 NA 
HETATM    5  H   UNL     1     -12.860  14.855  62.824  1.00  0.00     0.000 HD 
ENDROOT
BRANCH   4   6
HETATM    6  C   UNL     1     -11.885  13.949  64.429  1.00  0.00    -0.429 C  
BRANCH   6   7
HETATM    7  C   UNL     1     -12.203  13.930  65.928  1.00  0.00    -0.497 C  
BRANCH   7   8
HETATM    8  C   UNL     1     -11.617  12.707  66.591  1.00  0.00    -0.443 A  
HETATM    9  C   UNL     1     -11.006  11.708  65.820  1.00  0.00    -0.329 A  
HETATM   10  C   UNL     1     -10.516  10.550  66.426  1.00  0.00    -0.258 A  
HETATM   11  C   UNL     1     -10.633  10.380  67.804  1.00  0.00    -0.294 A  
HETATM   12  C   UNL     1     -11.235  11.368  68.580  1.00  0.00    -0.309 A  
HETATM   13  C   UNL     1     -11.726  12.528  67.976  1.00  0.00    -0.410 A  
ENDBRANCH   7   8
ENDBRANCH   6   7
ENDBRANCH   4   6
TORSDOF 3
ENDMDL
MODEL       10
REMARK 921   NORMALIZED FREE ENERGY PREDICTED BY IDOCK:   -4.46 KCAL/MOL
REMARK 922        TOTAL FREE ENERGY PREDICTED BY IDOCK:   -5.35 KCAL/MOL
REMARK 923 INTER-LIGAND FREE ENERGY PREDICTED BY IDOCK:   -5.36 KCAL/MOL
REMARK 924 INTRA-LIGAND FREE ENERGY PREDICTED BY IDOCK:    0.01 KCAL/MOL
REMARK 927      BINDING AFFINITY PREDICTED BY RF-SCORE:    0.00 PKD
ROOT
HETATM    1  N   UNL     1     -12.264  15.657  63.643  1.00  0.00    -0.932 NA 
HETATM    2  H1  UNL     1     -12.612  16.144  62.816  1.00  0.00     0.000 HD 
HETATM    3  H2  UNL     1     -12.999  15.480  64.328  1.00  0.00     0.000 HD 
HETATM    4  N   UNL     1     -11.165  16.406  64.197  1.00  0.00    -1.371 NA 
HETATM    5  H   UNL     1     -11.414  17.376  64.392  1.00  0.00     0.000 HD 
ENDROOT
BRANCH   4   6
HETATM    6  C   UNL     1     -10.664  15.705  65.388  1.00  0.00    -0.408 C  
BRANCH   6   7
HETATM    7  C   UNL     1      -9.318  16.287  65.836  1.00  0.00    -0.299 C  
BRANCH   7   8
HETATM    8  C   UNL     1      -9.517  17.517  66.689  1.00  0.00    -0.285 A  
HETATM    9  C   UNL     1      -9.577  17.409  68.085  1.00  0.00    -0.287 A  
HETATM   10  C   UNL     1      -9.820  18.536  68.870  1.00  0.00    -0.377 A  
HETATM   11  C   UNL     1     -10.005  19.780  68.269  1.00  0.00    -0.557 A  
HETATM   12  C   UNL     1      -9.944  19.899  66.882  1.00  0.00    -0.563 A  
HETATM   13  C   UNL     1      -9.701  18.772  66.094  1.00  0.00    -0.280 A  
ENDBRANCH   7   8
ENDBRANCH   6   7
ENDBRANCH   4   6
TORSDOF 3
ENDMDL
MODEL       11
REMARK 921   NORMALIZED FREE ENERGY PREDICTED BY IDOCK:   -4.45 KCAL/MOL
REMARK 922        TOTAL FREE ENERGY PREDICTED BY IDOCK:   -5.34 KCAL/MOL
REMARK 923 INTER-LIGAND FREE ENERGY PREDICTED BY IDOCK:   -5.24 KCAL/MOL
REMARK 924 INTRA-LIGAND FREE ENERGY PREDICTED BY IDOCK:   -0.11 KCAL/MOL
REMARK 927      BINDING AFFINITY PREDICTED BY RF-SCORE:    0.00 PKD
ROOT
HETATM    1  N   UNL     1     -12.876  16.165  74.555  1.00  0.00    -0.978 NA 
HETATM    2  H1  UNL     1     -12.129  16.593  75.103  1.00  0.00     0.000 HD 
HETATM    3  H2  UNL     1     -13.132  15.240  74.901  1.00  0.00     0.000 HD 
HETATM    4  N   UNL     1     -12.484  16.145  73.169  1.00  0.00    -0.496 NA 
HETATM    5  H   UNL     1     -11.585  15.686  73.025  1.00  0.00     0.000 HD 
ENDROOT
BRANCH   4   6
HETATM    6  C   UNL     1     -13.560  15.528  72.379  1.00  0.00    -0.538 C  
BRANCH   6   7
HETATM    7  C   UNL     1     -13.051  15.119  70.992  1.00  0.00    -0.513 C  
BRANCH   7   8
HETATM    8  C   UNL     1     -12.780  13.635  70.930  1.00  0.00    -0.382 A  
HETATM    9  C   UNL     1     -12.018  13.097  69.884  1.00  0.00    -0.387 A  
HETATM   10  C   UNL     1     -11.817  11.719  69.794  1.00  0.00    -0.420 A  
HETATM   11  C   UNL     1     -12.376  10.868  70.746  1.00  0.00    -0.487 A  
HETATM   12  C   UNL     1     -13.132  11.393  71.791  1.00  0.00    -0.523 A  
HETATM   13  C   UNL     1     -13.335  12.771  71.884  1.00  0.00    -0.510 A  
ENDBRANCH   7   8
ENDBRANCH   6   7
ENDBRANCH   4   6
TORSDOF 3
ENDMDL
MODEL       12
REMARK 921   NORMALIZED FREE ENERGY PREDICTED BY IDOCK:   -4.42 KCAL/MOL
REMARK 922        TOTAL FREE ENERGY PREDICTED BY IDOCK:   -5.31 KCAL/MOL
REMARK 923 INTER-LIGAND FREE ENERGY PREDICTED BY IDOCK:   -5.18 KCAL/MOL
REMARK 924 INTRA-LIGAND FREE ENERGY PREDICTED BY IDOCK:   -0.13 KCAL/MOL
REMARK 927      BINDING AFFINITY PREDICTED BY RF-SCORE:    0.00 PKD
ROOT
HETATM    1  N   UNL     1     -12.273  15.682  63.714  1.00  0.00    -1.018 NA 
HETATM    2  H1  UNL     1     -12.769  16.224  63.006  1.00  0.00     0.000 HD 
HETATM    3  H2  UNL     1     -12.891  15.354  64.457  1.00  0.00     0.000 HD 
HETATM    4  N   UNL     1     -11.176  16.469  64.218  1.00  0.00    -1.353 NA 
HETATM    5  H   UNL     1     -11.477  17.379  64.565  1.00  0.00     0.000 HD 
ENDROOT
BRANCH   4   6
HETATM    6  C   UNL     1     -10.461  15.688  65.239  1.00  0.00    -0.412 C  
BRANCH   6   7
HETATM    7  C   UNL     1     -11.396  14.668  65.897  1.00  0.00    -0.338 C  
BRANCH   7   8
HETATM    8  C   UNL     1     -11.428  14.850  67.396  1.00  0.00    -0.354 A  
HETATM    9  C   UNL     1     -11.756  13.775  68.233  1.00  0.00    -0.394 A  
HETATM   10  C   UNL     1     -11.844  13.957  69.614  1.00  0.00    -0.385 A  
HETATM   11  C   UNL     1     -11.606  15.213  70.169  1.00  0.00    -0.326 A  
HETATM   12  C   UNL     1     -11.277  16.287  69.346  1.00  0.00    -0.311 A  
HETATM   13  C   UNL     1     -11.188  16.108  67.964  1.00  0.00    -0.291 A  
ENDBRANCH   7   8
ENDBRANCH   6   7
ENDBRANCH   4   6
TORSDOF 3
ENDMDL
MODEL       13
REMARK 921   NORMALIZED FREE ENERGY PREDICTED BY IDOCK:   -4.39 KCAL/MOL
REMARK 922        TOTAL FREE ENERGY PREDICTED BY IDOCK:   -5.27 KCAL/MOL
REMARK 923 INTER-LIGAND FREE ENERGY PREDICTED BY IDOCK:   -5.24 KCAL/MOL
REMARK 924 INTRA-LIGAND FREE ENERGY PREDICTED BY IDOCK:   -0.03 KCAL/MOL
REMARK 927      BINDING AFFINITY PREDICTED BY RF-SCORE:    0.00 PKD
ROOT
HETATM    1  N   UNL     1     -14.058   8.858  73.165  1.00  0.00    -1.225 NA 
HETATM    2  H1  UNL     1     -14.952   8.364  73.171  1.00  0.00     0.000 HD 
HETATM    3  H2  UNL     1     -14.080   9.710  73.726  1.00  0.00     0.000 HD 
HETATM    4  N   UNL     1     -13.674   9.109  71.799  1.00  0.00    -0.405 NA 
HETATM    5  H   UNL     1     -14.396   9.605  71.277  1.00  0.00     0.000 HD 
ENDROOT
BRANCH   4   6
HETATM    6  C   UNL     1     -12.387   9.820  71.791  1.00  0.00    -0.386 C  
BRANCH   6   7
HETATM    7  C   UNL     1     -12.275  10.726  70.559  1.00  0.00    -0.457 C  
BRANCH   7   8
HETATM    8  C   UNL     1     -12.622  12.154  70.903  1.00  0.00    -0.340 A  
HETATM    9  C   UNL     1     -12.152  13.208  70.108  1.00  0.00    -0.392 A  
HETATM   10  C   UNL     1     -12.423  14.532  70.459  1.00  0.00    -0.408 A  
HETATM   11  C   UNL     1     -13.164  14.813  71.606  1.00  0.00    -0.431 A  
HETATM   12  C   UNL     1     -13.638  13.772  72.401  1.00  0.00    -0.690 A  
HETATM   13  C   UNL     1     -13.368  12.447  72.052  1.00  0.00    -0.511 A  
ENDBRANCH   7   8
ENDBRANCH   6   7
ENDBRANCH   4   6
TORSDOF 3
ENDMDL
MODEL       14
REMARK 921   NORMALIZED FREE ENERGY PREDICTED BY IDOCK:   -4.34 KCAL/MOL
REMARK 922        TOTAL FREE ENERGY PREDICTED BY IDOCK:   -5.21 KCAL/MOL
REMARK 923 INTER-LIGAND FREE ENERGY PREDICTED BY IDOCK:   -5.11 KCAL/MOL
REMARK 924 INTRA-LIGAND FREE ENERGY PREDICTED BY IDOCK:   -0.11 KCAL/MOL
REMARK 927      BINDING AFFINITY PREDICTED BY RF-SCORE:    0.00 PKD
ROOT
HETATM    1  N   UNL     1     -12.401   7.912  72.760  1.00  0.00    -0.591 NA 
HETATM    2  H1  UNL     1     -12.248   7.389  73.623  1.00  0.00     0.000 HD 
HETATM    3  H2  UNL     1     -11.543   8.333  72.402  1.00  0.00     0.000 HD 
HETATM    4  N   UNL     1     -13.439   8.886  72.983  1.00  0.00    -0.952 NA 
HETATM    5  H   UNL     1     -13.238   9.494  73.776  1.00  0.00     0.000 HD 
ENDROOT
BRANCH   4   6
HETATM    6  C   UNL     1     -13.660   9.639  71.739  1.00  0.00    -0.343 C  
BRANCH   6   7
HETATM    7  C   UNL     1     -12.383  10.374  71.315  1.00  0.00    -0.507 C  
BRANCH   7   8
HETATM    8  C   UNL     1     -12.615  11.863  71.236  1.00  0.00    -0.383 A  
HETATM    9  C   UNL     1     -13.415  12.507  72.191  1.00  0.00    -0.523 A  
HETATM   10  C   UNL     1     -13.679  13.873  72.085  1.00  0.00    -0.619 A  
HETATM   11  C   UNL     1     -13.148  14.607  71.025  1.00  0.00    -0.427 A  
HETATM   12  C   UNL     1     -12.350  13.977  70.073  1.00  0.00    -0.397 A  
HETATM   13  C   UNL     1     -12.084  12.610  70.177  1.00  0.00    -0.368 A  
ENDBRANCH   7   8
ENDBRANCH   6   7
ENDBRANCH   4   6
TORSDOF 3
ENDMDL
MODEL       15
REMARK 921   NORMALIZED FREE ENERGY PREDICTED BY IDOCK:   -4.33 KCAL/MOL
REMARK 922        TOTAL FREE ENERGY PREDICTED BY IDOCK:   -5.20 KCAL/MOL
REMARK 923 INTER-LIGAND FREE ENERGY PREDICTED BY IDOCK:   -5.14 KCAL/MOL
REMARK 924 INTRA-LIGAND FREE ENERGY PREDICTED BY IDOCK:   -0.07 KCAL/MOL
REMARK 927      BINDING AFFINITY PREDICTED BY RF-SCORE:    0.00 PKD
ROOT
HETATM    1  N   UNL     1     -12.365  13.775  63.114  1.00  0.00    -1.106 NA 
HETATM    2  H1  UNL     1     -12.454  13.454  62.150  1.00  0.00     0.000 HD 
HETATM    3  H2  UNL     1     -11.440  14.158  63.313  1.00  0.00     0.000 HD 
HETATM    4  N   UNL     1     -12.714  12.694  64.000  1.00  0.00    -0.722 NA 
HETATM    5  H   UNL     1     -12.169  11.851  63.818  1.00  0.00     0.000 HD 
ENDROOT
BRANCH   4   6
HETATM    6  C   UNL     1     -12.585  13.156  65.390  1.00  0.00    -0.454 C  
BRANCH   6   7
HETATM    7  C   UNL     1     -11.593  12.281  66.164  1.00  0.00    -0.450 C  
BRANCH   7   8
HETATM    8  C   UNL     1     -11.743  12.480  67.653  1.00  0.00    -0.423 A  
HETATM    9  C   UNL     1     -11.761  11.376  68.517  1.00  0.00    -0.386 A  
HETATM   10  C   UNL     1     -11.959  11.555  69.887  1.00  0.00    -0.426 A  
HETATM   11  C   UNL     1     -12.141  12.836  70.405  1.00  0.00    -0.382 A  
HETATM   12  C   UNL     1     -12.121  13.940  69.555  1.00  0.00    -0.393 A  
HETATM   13  C   UNL     1     -11.924  13.764  68.184  1.00  0.00    -0.394 A  
ENDBRANCH   7   8
ENDBRANCH   6   7
ENDBRANCH   4   6
TORSDOF 3
ENDMDL
MODEL       16
REMARK 921   NORMALIZED FREE ENERGY PREDICTED BY IDOCK:   -4.33 KCAL/MOL
REMARK 922        TOTAL FREE ENERGY PREDICTED BY IDOCK:   -5.20 KCAL/MOL
REMARK 923 INTER-LIGAND FREE ENERGY PREDICTED BY IDOCK:   -5.10 KCAL/MOL
REMARK 924 INTRA-LIGAND FREE ENERGY PREDICTED BY IDOCK:   -0.09 KCAL/MOL
REMARK 927      BINDING AFFINITY PREDICTED BY RF-SCORE:    0.00 PKD
ROOT
HETATM    1  N   UNL     1     -11.126   9.428  68.474  1.00  0.00    -0.470 NA 
HETATM    2  H1  UNL     1     -11.482   8.745  67.804  1.00  0.00     0.000 HD 
HETATM    3  H2  UNL     1     -11.013   9.034  69.409  1.00  0.00     0.000 HD 
HETATM    4  N   UNL     1     -11.987  10.583  68.465  1.00  0.00    -0.786 NA 
HETATM    5  H   UNL     1     -12.963  10.342  68.636  1.00  0.00     0.000 HD 
ENDROOT
BRANCH   4   6
HETATM    6  C   UNL     1     -11.475  11.567  69.430  1.00  0.00    -0.309 C  
BRANCH   6   7
HETATM    7  C   UNL     1     -12.322  11.567  70.708  1.00  0.00    -0.472 C  
BRANCH   7   8
HETATM    8  C   UNL     1     -12.723  12.971  71.092  1.00  0.00    -0.372 A  
HETATM    9  C   UNL     1     -12.352  14.058  70.288  1.00  0.00    -0.425 A  
HETATM   10  C   UNL     1     -12.670  15.361  70.672  1.00  0.00    -0.490 A  
HETATM   11  C   UNL     1     -13.360  15.589  71.862  1.00  0.00    -0.569 A  
HETATM   12  C   UNL     1     -13.735  14.516  72.667  1.00  0.00    -0.543 A  
HETATM   13  C   UNL     1     -13.418  13.211  72.284  1.00  0.00    -0.665 A  
ENDBRANCH   7   8
ENDBRANCH   6   7
ENDBRANCH   4   6
TORSDOF 3
ENDMDL
MODEL       17
REMARK 921   NORMALIZED FREE ENERGY PREDICTED BY IDOCK:   -4.29 KCAL/MOL
REMARK 922        TOTAL FREE ENERGY PREDICTED BY IDOCK:   -5.15 KCAL/MOL
REMARK 923 INTER-LIGAND FREE ENERGY PREDICTED BY IDOCK:   -5.06 KCAL/MOL
REMARK 924 INTRA-LIGAND FREE ENERGY PREDICTED BY IDOCK:   -0.09 KCAL/MOL
REMARK 927      BINDING AFFINITY PREDICTED BY RF-SCORE:    0.00 PKD
ROOT
HETATM    1  N   UNL     1     -11.231  16.719  64.080  1.00  0.00    -1.383 NA 
HETATM    2  H1  UNL     1     -11.379  17.664  63.724  1.00  0.00     0.000 HD 
HETATM    3  H2  UNL     1     -10.361  16.307  63.741  1.00  0.00     0.000 HD 
HETATM    4  N   UNL     1     -12.382  15.914  63.760  1.00  0.00    -1.018 NA 
HETATM    5  H   UNL     1     -12.599  15.924  62.764  1.00  0.00     0.000 HD 
ENDROOT
BRANCH   4   6
HETATM    6  C   UNL     1     -12.169  14.553  64.273  1.00  0.00    -0.415 C  
BRANCH   6   7
HETATM    7  C   UNL     1     -10.752  14.401  64.839  1.00  0.00    -0.444 C  
BRANCH   7   8
HETATM    8  C   UNL     1     -10.788  14.099  66.318  1.00  0.00    -0.300 A  
HETATM    9  C   UNL     1     -11.896  13.450  66.881  1.00  0.00    -0.453 A  
HETATM   10  C   UNL     1     -11.957  13.223  68.256  1.00  0.00    -0.338 A  
HETATM   11  C   UNL     1     -10.915  13.644  69.081  1.00  0.00    -0.235 A  
HETATM   12  C   UNL     1      -9.808  14.287  68.530  1.00  0.00    -0.231 A  
HETATM   13  C   UNL     1      -9.744  14.515  67.154  1.00  0.00    -0.240 A  
ENDBRANCH   7   8
ENDBRANCH   6   7
ENDBRANCH   4   6
TORSDOF 3
ENDMDL
MODEL       18
REMARK 921   NORMALIZED FREE ENERGY PREDICTED BY IDOCK:   -4.27 KCAL/MOL
REMARK 922        TOTAL FREE ENERGY PREDICTED BY IDOCK:   -5.13 KCAL/MOL
REMARK 923 INTER-LIGAND FREE ENERGY PREDICTED BY IDOCK:   -5.05 KCAL/MOL
REMARK 924 INTRA-LIGAND FREE ENERGY PREDICTED BY IDOCK:   -0.09 KCAL/MOL
REMARK 927      BINDING AFFINITY PREDICTED BY RF-SCORE:    0.00 PKD
ROOT
HETATM    1  N   UNL     1     -12.309  13.956  63.272  1.00  0.00    -1.148 NA 
HETATM    2  H1  UNL     1     -12.739  14.156  62.368  1.00  0.00     0.000 HD 
HETATM    3  H2  UNL     1     -12.840  13.273  63.813  1.00  0.00     0.000 HD 
HETATM    4  N   UNL     1     -12.124  15.196  63.984  1.00  0.00    -0.936 NA 
HETATM    5  H   UNL     1     -12.991  15.726  64.072  1.00  0.00     0.000 HD 
ENDROOT
BRANCH   4   6
HETATM    6  C   UNL     1     -11.506  14.909  65.287  1.00  0.00    -0.336 C  
BRANCH   6   7
HETATM    7  C   UNL     1     -10.166  15.641  65.425  1.00  0.00    -0.401 C  
BRANCH   7   8
HETATM    8  C   UNL     1     -10.301  16.855  66.313  1.00  0.00    -0.312 A  
HETATM    9  C   UNL     1     -10.530  18.119  65.753  1.00  0.00    -0.215 A  
HETATM   10  C   UNL     1     -10.596  19.250  66.568  1.00  0.00    -0.538 A  
HETATM   11  C   UNL     1     -10.433  19.128  67.946  1.00  0.00    -0.492 A  
HETATM   12  C   UNL     1     -10.208  17.876  68.513  1.00  0.00    -0.393 A  
HETATM   13  C   UNL     1     -10.142  16.742  67.700  1.00  0.00    -0.275 A  
ENDBRANCH   7   8
ENDBRANCH   6   7
ENDBRANCH   4   6
TORSDOF 3
ENDMDL
MODEL       19
REMARK 921   NORMALIZED FREE ENERGY PREDICTED BY IDOCK:   -4.26 KCAL/MOL
REMARK 922        TOTAL FREE ENERGY PREDICTED BY IDOCK:   -5.12 KCAL/MOL
REMARK 923 INTER-LIGAND FREE ENERGY PREDICTED BY IDOCK:   -5.02 KCAL/MOL
REMARK 924 INTRA-LIGAND FREE ENERGY PREDICTED BY IDOCK:   -0.10 KCAL/MOL
REMARK 927      BINDING AFFINITY PREDICTED BY RF-SCORE:    0.00 PKD
ROOT
HETATM    1  N   UNL     1     -14.085   8.816  73.153  1.00  0.00    -1.183 NA 
HETATM    2  H1  UNL     1     -14.438   8.132  73.824  1.00  0.00     0.000 HD 
HETATM    3  H2  UNL     1     -14.800   9.116  72.490  1.00  0.00     0.000 HD 
HETATM    4  N   UNL     1     -12.923   8.270  72.499  1.00  0.00    -0.588 NA 
HETATM    5  H   UNL     1     -13.108   7.364  72.070  1.00  0.00     0.000 HD 
ENDROOT
BRANCH   4   6
HETATM    6  C   UNL     1     -12.414   9.255  71.533  1.00  0.00    -0.355 C  
BRANCH   6   7
HETATM    7  C   UNL     1     -13.003  10.643  71.810  1.00  0.00    -0.577 C  
BRANCH   7   8
HETATM    8  C   UNL     1     -12.463  11.665  70.838  1.00  0.00    -0.440 A  
HETATM    9  C   UNL     1     -11.765  11.254  69.695  1.00  0.00    -0.420 A  
HETATM   10  C   UNL     1     -11.214  12.198  68.827  1.00  0.00    -0.314 A  
HETATM   11  C   UNL     1     -11.355  13.559  69.095  1.00  0.00    -0.333 A  
HETATM   12  C   UNL     1     -12.050  13.977  70.227  1.00  0.00    -0.425 A  
HETATM   13  C   UNL     1     -12.603  13.035  71.097  1.00  0.00    -0.388 A  
ENDBRANCH   7   8
ENDBRANCH   6   7
ENDBRANCH   4   6
TORSDOF 3
ENDMDL
MODEL       20
REMARK 921   NORMALIZED FREE ENERGY PREDICTED BY IDOCK:   -4.23 KCAL/MOL
REMARK 922        TOTAL FREE ENERGY PREDICTED BY IDOCK:   -5.08 KCAL/MOL
REMARK 923 INTER-LIGAND FREE ENERGY PREDICTED BY IDOCK:   -4.94 KCAL/MOL
REMARK 924 INTRA-LIGAND FREE ENERGY PREDICTED BY IDOCK:   -0.15 KCAL/MOL
REMARK 927      BINDING AFFINITY PREDICTED BY RF-SCORE:    0.00 PKD
ROOT
HETATM    1  N   UNL     1     -10.185  11.517  62.909  1.00  0.00    -0.646 NA 
HETATM    2  H1  UNL     1      -9.821  10.632  62.553  1.00  0.00     0.000 HD 
HETATM    3  H2  UNL     1      -9.761  11.782  63.798  1.00  0.00     0.000 HD 
HETATM    4  N   UNL     1     -11.621  11.434  62.988  1.00  0.00    -0.853 NA 
HETATM    5  H   UNL     1     -11.934  10.634  63.538  1.00  0.00     0.000 HD 
ENDROOT
BRANCH   4   6
HETATM    6  C   UNL     1     -12.144  12.708  63.501  1.00  0.00    -0.561 C  
BRANCH   6   7
HETATM    7  C   UNL     1     -12.366  12.634  65.016  1.00  0.00    -0.561 C  
BRANCH   7   8
HETATM    8  C   UNL     1     -11.739  13.817  65.714  1.00  0.00    -0.365 A  
HETATM    9  C   UNL     1     -10.898  14.690  65.010  1.00  0.00    -0.431 A  
HETATM   10  C   UNL     1     -10.272  15.749  65.668  1.00  0.00    -0.407 A  
HETATM   11  C   UNL     1     -10.479  15.945  67.032  1.00  0.00    -0.306 A  
HETATM   12  C   UNL     1     -11.316  15.085  67.740  1.00  0.00    -0.340 A  
HETATM   13  C   UNL     1     -11.944  14.024  67.084  1.00  0.00    -0.465 A  
ENDBRANCH   7   8
ENDBRANCH   6   7
ENDBRANCH   4   6
TORSDOF 3
ENDMDL
MODEL       21
REMARK 921   NORMALIZED FREE ENERGY PREDICTED BY IDOCK:   -4.22 KCAL/MOL
REMARK 922        TOTAL FREE ENERGY PREDICTED BY IDOCK:   -5.07 KCAL/MOL
REMARK 923 INTER-LIGAND FREE ENERGY PREDICTED BY IDOCK:   -5.00 KCAL/MOL
REMARK 924 INTRA-LIGAND FREE ENERGY PREDICTED BY IDOCK:   -0.07 KCAL/MOL
REMARK 927      BINDING AFFINITY PREDICTED BY RF-SCORE:    0.00 PKD
ROOT
HETATM    1  N   UNL     1     -12.388  15.517  63.838  1.00  0.00    -0.920 NA 
HETATM    2  H1  UNL     1     -12.518  16.162  63.058  1.00  0.00     0.000 HD 
HETATM    3  H2  UNL     1     -11.547  15.722  64.377  1.00  0.00     0.000 HD 
HETATM    4  N   UNL     1     -12.402  14.167  63.332  1.00  0.00    -1.144 NA 
HETATM    5  H   UNL     1     -11.718  14.024  62.590  1.00  0.00     0.000 HD 
ENDROOT
BRANCH   4   6
HETATM    6  C   UNL     1     -12.214  13.237  64.455  1.00  0.00    -0.400 C  
BRANCH   6   7
HETATM    7  C   UNL     1     -10.908  12.449  64.297  1.00  0.00    -0.395 C  
BRANCH   7   8
HETATM    8  C   UNL     1     -10.727  11.468  65.429  1.00  0.00    -0.335 A  
HETATM    9  C   UNL     1     -10.024  10.273  65.224  1.00  0.00    -0.387 A  
HETATM   10  C   UNL     1      -9.906   9.338  66.254  1.00  0.00    -0.361 A  
HETATM   11  C   UNL     1     -10.489   9.589  67.495  1.00  0.00    -0.336 A  
HETATM   12  C   UNL     1     -11.187  10.776  67.710  1.00  0.00    -0.385 A  
HETATM   13  C   UNL     1     -11.306  11.713  66.681  1.00  0.00    -0.338 A  
ENDBRANCH   7   8
ENDBRANCH   6   7
ENDBRANCH   4   6
TORSDOF 3
ENDMDL
MODEL       22
REMARK 921   NORMALIZED FREE ENERGY PREDICTED BY IDOCK:   -4.20 KCAL/MOL
REMARK 922        TOTAL FREE ENERGY PREDICTED BY IDOCK:   -5.04 KCAL/MOL
REMARK 923 INTER-LIGAND FREE ENERGY PREDICTED BY IDOCK:   -4.90 KCAL/MOL
REMARK 924 INTRA-LIGAND FREE ENERGY PREDICTED BY IDOCK:   -0.14 KCAL/MOL
REMARK 927      BINDING AFFINITY PREDICTED BY RF-SCORE:    0.00 PKD
ROOT
HETATM    1  N   UNL     1     -12.827  11.684  63.096  1.00  0.00    -0.865 NA 
HETATM    2  H1  UNL     1     -13.214  11.013  62.432  1.00  0.00     0.000 HD 
HETATM    3  H2  UNL     1     -13.082  12.646  62.871  1.00  0.00     0.000 HD 
HETATM    4  N   UNL     1     -11.401  11.496  63.172  1.00  0.00    -0.848 NA 
HETATM    5  H   UNL     1     -10.952  11.550  62.257  1.00  0.00     0.000 HD 
ENDROOT
BRANCH   4   6
HETATM    6  C   UNL     1     -10.843  12.463  64.128  1.00  0.00    -0.372 C  
BRANCH   6   7
HETATM    7  C   UNL     1     -11.962  13.241  64.829  1.00  0.00    -0.431 C  
BRANCH   7   8
HETATM    8  C   UNL     1     -11.818  13.162  66.330  1.00  0.00    -0.455 A  
HETATM    9  C   UNL     1     -11.595  11.928  66.956  1.00  0.00    -0.365 A  
HETATM   10  C   UNL     1     -11.521  11.845  68.347  1.00  0.00    -0.357 A  
HETATM   11  C   UNL     1     -11.671  12.992  69.124  1.00  0.00    -0.378 A  
HETATM   12  C   UNL     1     -11.891  14.224  68.512  1.00  0.00    -0.382 A  
HETATM   13  C   UNL     1     -11.965  14.310  67.120  1.00  0.00    -0.449 A  
ENDBRANCH   7   8
ENDBRANCH   6   7
ENDBRANCH   4   6
TORSDOF 3
ENDMDL
MODEL       23
REMARK 921   NORMALIZED FREE ENERGY PREDICTED BY IDOCK:   -4.19 KCAL/MOL
REMARK 922        TOTAL FREE ENERGY PREDICTED BY IDOCK:   -5.04 KCAL/MOL
REMARK 923 INTER-LIGAND FREE ENERGY PREDICTED BY IDOCK:   -4.90 KCAL/MOL
REMARK 924 INTRA-LIGAND FREE ENERGY PREDICTED BY IDOCK:   -0.13 KCAL/MOL
REMARK 927      BINDING AFFINITY PREDICTED BY RF-SCORE:    0.00 PKD
ROOT
HETATM    1  N   UNL     1     -11.783  16.227  63.730  1.00  0.00    -1.488 NA 
HETATM    2  H1  UNL     1     -12.158  16.697  62.905  1.00  0.00     0.000 HD 
HETATM    3  H2  UNL     1     -10.764  16.176  63.720  1.00  0.00     0.000 HD 
HETATM    4  N   UNL     1     -12.397  14.928  63.845  1.00  0.00    -1.064 NA 
HETATM    5  H   UNL     1     -12.291  14.371  62.997  1.00  0.00     0.000 HD 
ENDROOT
BRANCH   4   6
HETATM    6  C   UNL     1     -11.857  14.250  65.033  1.00  0.00    -0.396 C  
BRANCH   6   7
HETATM    7  C   UNL     1     -10.336  14.425  65.114  1.00  0.00    -0.447 C  
BRANCH   7   8
HETATM    8  C   UNL     1      -9.923  14.950  66.468  1.00  0.00    -0.277 A  
HETATM    9  C   UNL     1      -8.702  14.560  67.036  1.00  0.00    -0.256 A  
HETATM   10  C   UNL     1      -8.346  14.997  68.313  1.00  0.00    -0.145 A  
HETATM   11  C   UNL     1      -9.206  15.824  69.033  1.00  0.00    -0.243 A  
HETATM   12  C   UNL     1     -10.421  16.220  68.476  1.00  0.00    -0.278 A  
HETATM   13  C   UNL     1     -10.779  15.784  67.199  1.00  0.00    -0.312 A  
ENDBRANCH   7   8
ENDBRANCH   6   7
ENDBRANCH   4   6
TORSDOF 3
ENDMDL
MODEL       24
REMARK 921   NORMALIZED FREE ENERGY PREDICTED BY IDOCK:   -4.16 KCAL/MOL
REMARK 922        TOTAL FREE ENERGY PREDICTED BY IDOCK:   -5.00 KCAL/MOL
REMARK 923 INTER-LIGAND FREE ENERGY PREDICTED BY IDOCK:   -4.85 KCAL/MOL
REMARK 924 INTRA-LIGAND FREE ENERGY PREDICTED BY IDOCK:   -0.15 KCAL/MOL
REMARK 927      BINDING AFFINITY PREDICTED BY RF-SCORE:    0.00 PKD
ROOT
HETATM    1  N   UNL     1     -10.450  11.196  62.957  1.00  0.00    -0.766 NA 
HETATM    2  H1  UNL     1     -10.183  10.253  62.674  1.00  0.00     0.000 HD 
HETATM    3  H2  UNL     1      -9.985  11.491  63.817  1.00  0.00     0.000 HD 
HETATM    4  N   UNL     1     -11.886  11.264  63.058  1.00  0.00    -0.762 NA 
HETATM    5  H   UNL     1     -12.266  10.548  63.677  1.00  0.00     0.000 HD 
ENDROOT
BRANCH   4   6
HETATM    6  C   UNL     1     -12.271  12.622  63.467  1.00  0.00    -0.547 C  
BRANCH   6   7
HETATM    7  C   UNL     1     -12.491  12.692  64.983  1.00  0.00    -0.556 C  
BRANCH   7   8
HETATM    8  C   UNL     1     -11.682  13.809  65.597  1.00  0.00    -0.360 A  
HETATM    9  C   UNL     1     -11.962  14.254  66.896  1.00  0.00    -0.467 A  
HETATM   10  C   UNL     1     -11.254  15.325  67.442  1.00  0.00    -0.311 A  
HETATM   11  C   UNL     1     -10.263  15.961  66.697  1.00  0.00    -0.293 A  
HETATM   12  C   UNL     1      -9.975  15.524  65.406  1.00  0.00    -0.339 A  
HETATM   13  C   UNL     1     -10.681  14.452  64.856  1.00  0.00    -0.444 A  
ENDBRANCH   7   8
ENDBRANCH   6   7
ENDBRANCH   4   6
TORSDOF 3
ENDMDL
MODEL       25
REMARK 921   NORMALIZED FREE ENERGY PREDICTED BY IDOCK:   -4.13 KCAL/MOL
REMARK 922        TOTAL FREE ENERGY PREDICTED BY IDOCK:   -4.96 KCAL/MOL
REMARK 923 INTER-LIGAND FREE ENERGY PREDICTED BY IDOCK:   -4.87 KCAL/MOL
REMARK 924 INTRA-LIGAND FREE ENERGY PREDICTED BY IDOCK:   -0.09 KCAL/MOL
REMARK 927      BINDING AFFINITY PREDICTED BY RF-SCORE:    0.00 PKD
ROOT
HETATM    1  N   UNL     1      -9.519  12.520  68.720  1.00  0.00    -0.411 NA 
HETATM    2  H1  UNL     1      -8.499  12.488  68.740  1.00  0.00     0.000 HD 
HETATM    3  H2  UNL     1      -9.901  12.180  67.837  1.00  0.00     0.000 HD 
HETATM    4  N   UNL     1      -9.950  13.861  69.026  1.00  0.00    -0.427 NA 
HETATM    5  H   UNL     1      -9.526  14.555  68.410  1.00  0.00     0.000 HD 
ENDROOT
BRANCH   4   6
HETATM    6  C   UNL     1     -11.419  13.907  68.995  1.00  0.00    -0.299 C  
BRANCH   6   7
HETATM    7  C   UNL     1     -11.924  15.330  69.257  1.00  0.00    -0.327 C  
BRANCH   7   8
HETATM    8  C   UNL     1     -12.431  15.474  70.672  1.00  0.00    -0.483 A  
HETATM    9  C   UNL     1     -13.776  15.216  70.971  1.00  0.00    -0.450 A  
HETATM   10  C   UNL     1     -14.259  15.405  72.267  1.00  0.00    -0.639 A  
HETATM   11  C   UNL     1     -13.404  15.855  73.272  1.00  0.00    -0.660 A  
HETATM   12  C   UNL     1     -12.065  16.111  72.985  1.00  0.00    -0.636 A  
HETATM   13  C   UNL     1     -11.579  15.922  71.690  1.00  0.00    -0.541 A  
ENDBRANCH   7   8
ENDBRANCH   6   7
ENDBRANCH   4   6
TORSDOF 3
ENDMDL
MODEL       26
REMARK 921   NORMALIZED FREE ENERGY PREDICTED BY IDOCK:   -4.10 KCAL/MOL
REMARK 922        TOTAL FREE ENERGY PREDICTED BY IDOCK:   -4.92 KCAL/MOL
REMARK 923 INTER-LIGAND FREE ENERGY PREDICTED BY IDOCK:   -4.80 KCAL/MOL
REMARK 924 INTRA-LIGAND FREE ENERGY PREDICTED BY IDOCK:   -0.12 KCAL/MOL
REMARK 927      BINDING AFFINITY PREDICTED BY RF-SCORE:    0.00 PKD
ROOT
HETATM    1  N   UNL     1      -9.811  12.975  68.543  1.00  0.00    -0.358 NA 
HETATM    2  H1  UNL     1      -9.116  12.288  68.838  1.00  0.00     0.000 HD 
HETATM    3  H2  UNL     1      -9.469  13.933  68.623  1.00  0.00     0.000 HD 
HETATM    4  N   UNL     1     -11.025  12.761  69.290  1.00  0.00    -0.443 NA 
HETATM    5  H   UNL     1     -10.869  12.773  70.297  1.00  0.00     0.000 HD 
ENDROOT
BRANCH   4   6
HETATM    6  C   UNL     1     -12.025  13.751  68.865  1.00  0.00    -0.359 C  
BRANCH   6   7
HETATM    7  C   UNL     1     -11.650  15.151  69.365  1.00  0.00    -0.343 C  
BRANCH   7   8
HETATM    8  C   UNL     1     -12.309  15.448  70.690  1.00  0.00    -0.451 A  
HETATM    9  C   UNL     1     -11.542  15.882  71.780  1.00  0.00    -0.541 A  
HETATM   10  C   UNL     1     -12.141  16.100  73.022  1.00  0.00    -0.636 A  
HETATM   11  C   UNL     1     -13.508  15.885  73.185  1.00  0.00    -0.650 A  
HETATM   12  C   UNL     1     -14.280  15.457  72.107  1.00  0.00    -0.660 A  
HETATM   13  C   UNL     1     -13.683  15.238  70.864  1.00  0.00    -0.363 A  
ENDBRANCH   7   8
ENDBRANCH   6   7
ENDBRANCH   4   6
TORSDOF 3
ENDMDL
MODEL       27
REMARK 921   NORMALIZED FREE ENERGY PREDICTED BY IDOCK:   -4.05 KCAL/MOL
REMARK 922        TOTAL FREE ENERGY PREDICTED BY IDOCK:   -4.87 KCAL/MOL
REMARK 923 INTER-LIGAND FREE ENERGY PREDICTED BY IDOCK:   -4.79 KCAL/MOL
REMARK 924 INTRA-LIGAND FREE ENERGY PREDICTED BY IDOCK:   -0.08 KCAL/MOL
REMARK 927      BINDING AFFINITY PREDICTED BY RF-SCORE:    0.00 PKD
ROOT
HETATM    1  N   UNL     1     -12.004  12.322  66.771  1.00  0.00    -0.605 NA 
HETATM    2  H1  UNL     1     -12.163  12.320  65.763  1.00  0.00     0.000 HD 
HETATM    3  H2  UNL     1     -12.562  11.617  67.254  1.00  0.00     0.000 HD 
HETATM    4  N   UNL     1     -12.239  13.650  67.277  1.00  0.00    -0.371 NA 
HETATM    5  H   UNL     1     -13.162  14.004  67.027  1.00  0.00     0.000 HD 
ENDROOT
BRANCH   4   6
HETATM    6  C   UNL     1     -12.011  13.654  68.729  1.00  0.00    -0.359 C  
BRANCH   6   7
HETATM    7  C   UNL     1     -11.846  15.086  69.251  1.00  0.00    -0.344 C  
BRANCH   7   8
HETATM    8  C   UNL     1     -12.366  15.212  70.662  1.00  0.00    -0.420 A  
HETATM    9  C   UNL     1     -13.557  14.576  71.038  1.00  0.00    -0.294 A  
HETATM   10  C   UNL     1     -14.069  14.740  72.325  1.00  0.00    -0.587 A  
HETATM   11  C   UNL     1     -13.398  15.541  73.247  1.00  0.00    -0.583 A  
HETATM   12  C   UNL     1     -12.212  16.175  72.885  1.00  0.00    -0.640 A  
HETATM   13  C   UNL     1     -11.697  16.012  71.598  1.00  0.00    -0.583 A  
ENDBRANCH   7   8
ENDBRANCH   6   7
ENDBRANCH   4   6
TORSDOF 3
ENDMDL
MODEL       28
REMARK 921   NORMALIZED FREE ENERGY PREDICTED BY IDOCK:   -4.03 KCAL/MOL
REMARK 922        TOTAL FREE ENERGY PREDICTED BY IDOCK:   -4.84 KCAL/MOL
REMARK 923 INTER-LIGAND FREE ENERGY PREDICTED BY IDOCK:   -4.73 KCAL/MOL
REMARK 924 INTRA-LIGAND FREE ENERGY PREDICTED BY IDOCK:   -0.11 KCAL/MOL
REMARK 927      BINDING AFFINITY PREDICTED BY RF-SCORE:    0.00 PKD
ROOT
HETATM    1  N   UNL     1     -14.138  15.425  70.824  1.00  0.00    -0.852 NA 
HETATM    2  H1  UNL     1     -14.641  16.299  70.667  1.00  0.00     0.000 HD 
HETATM    3  H2  UNL     1     -14.513  14.656  70.268  1.00  0.00     0.000 HD 
HETATM    4  N   UNL     1     -14.137  15.134  72.235  1.00  0.00    -0.511 NA 
HETATM    5  H   UNL     1     -15.077  15.119  72.630  1.00  0.00     0.000 HD 
ENDROOT
BRANCH   4   6
HETATM    6  C   UNL     1     -13.414  13.874  72.460  1.00  0.00    -0.572 C  
BRANCH   6   7
HETATM    7  C   UNL     1     -12.745  13.392  71.168  1.00  0.00    -0.411 C  
BRANCH   7   8
HETATM    8  C   UNL     1     -12.577  11.892  71.171  1.00  0.00    -0.390 A  
HETATM    9  C   UNL     1     -11.700  11.276  70.268  1.00  0.00    -0.415 A  
HETATM   10  C   UNL     1     -11.588   9.885  70.230  1.00  0.00    -0.319 A  
HETATM   11  C   UNL     1     -12.351   9.099  71.092  1.00  0.00    -0.330 A  
HETATM   12  C   UNL     1     -13.223   9.702  71.996  1.00  0.00    -0.546 A  
HETATM   13  C   UNL     1     -13.337  11.093  72.036  1.00  0.00    -0.384 A  
ENDBRANCH   7   8
ENDBRANCH   6   7
ENDBRANCH   4   6
TORSDOF 3
ENDMDL
MODEL       29
REMARK 921   NORMALIZED FREE ENERGY PREDICTED BY IDOCK:   -3.99 KCAL/MOL
REMARK 922        TOTAL FREE ENERGY PREDICTED BY IDOCK:   -4.80 KCAL/MOL
REMARK 923 INTER-LIGAND FREE ENERGY PREDICTED BY IDOCK:   -4.72 KCAL/MOL
REMARK 924 INTRA-LIGAND FREE ENERGY PREDICTED BY IDOCK:   -0.09 KCAL/MOL
REMARK 927      BINDING AFFINITY PREDICTED BY RF-SCORE:    0.00 PKD
ROOT
HETATM    1  N   UNL     1     -13.544  16.059  73.595  1.00  0.00    -0.844 NA 
HETATM    2  H1  UNL     1     -13.010  16.483  74.354  1.00  0.00     0.000 HD 
HETATM    3  H2  UNL     1     -14.550  16.087  73.764  1.00  0.00     0.000 HD 
HETATM    4  N   UNL     1     -13.060  14.720  73.376  1.00  0.00    -0.565 NA 
HETATM    5  H   UNL     1     -13.077  14.156  74.227  1.00  0.00     0.000 HD 
ENDROOT
BRANCH   4   6
HETATM    6  C   UNL     1     -13.829  14.108  72.283  1.00  0.00    -0.544 C  
BRANCH   6   7
HETATM    7  C   UNL     1     -13.447  12.633  72.108  1.00  0.00    -0.561 C  
BRANCH   7   8
HETATM    8  C   UNL     1     -12.622  12.432  70.860  1.00  0.00    -0.337 A  
HETATM    9  C   UNL     1     -12.246  11.142  70.460  1.00  0.00    -0.475 A  
HETATM   10  C   UNL     1     -11.435  10.959  69.340  1.00  0.00    -0.373 A  
HETATM   11  C   UNL     1     -10.991  12.061  68.611  1.00  0.00    -0.281 A  
HETATM   12  C   UNL     1     -11.362  13.347  68.998  1.00  0.00    -0.335 A  
HETATM   13  C   UNL     1     -12.174  13.533  70.119  1.00  0.00    -0.400 A  
ENDBRANCH   7   8
ENDBRANCH   6   7
ENDBRANCH   4   6
TORSDOF 3
ENDMDL
MODEL       30
REMARK 921   NORMALIZED FREE ENERGY PREDICTED BY IDOCK:   -3.97 KCAL/MOL
REMARK 922        TOTAL FREE ENERGY PREDICTED BY IDOCK:   -4.78 KCAL/MOL
REMARK 923 INTER-LIGAND FREE ENERGY PREDICTED BY IDOCK:   -4.69 KCAL/MOL
REMARK 924 INTRA-LIGAND FREE ENERGY PREDICTED BY IDOCK:   -0.09 KCAL/MOL
REMARK 927      BINDING AFFINITY PREDICTED BY RF-SCORE:    0.00 PKD
ROOT
HETATM    1  N   UNL     1     -11.666  11.472  67.049  1.00  0.00    -0.550 NA 
HETATM    2  H1  UNL     1     -11.854  11.468  66.046  1.00  0.00     0.000 HD 
HETATM    3  H2  UNL     1     -12.239  10.796  67.556  1.00  0.00     0.000 HD 
HETATM    4  N   UNL     1     -11.828  12.814  67.549  1.00  0.00    -0.363 NA 
HETATM    5  H   UNL     1     -12.742  13.205  67.322  1.00  0.00     0.000 HD 
ENDROOT
BRANCH   4   6
HETATM    6  C   UNL     1     -11.557  12.820  68.994  1.00  0.00    -0.316 C  
BRANCH   6   7
HETATM    7  C   UNL     1     -11.225  14.236  69.479  1.00  0.00    -0.286 C  
BRANCH   7   8
HETATM    8  C   UNL     1     -11.978  14.565  70.745  1.00  0.00    -0.388 A  
HETATM    9  C   UNL     1     -11.786  15.799  71.382  1.00  0.00    -0.508 A  
HETATM   10  C   UNL     1     -12.437  16.081  72.584  1.00  0.00    -0.572 A  
HETATM   11  C   UNL     1     -13.283  15.134  73.159  1.00  0.00    -0.603 A  
HETATM   12  C   UNL     1     -13.484  13.907  72.532  1.00  0.00    -0.676 A  
HETATM   13  C   UNL     1     -12.834  13.622  71.329  1.00  0.00    -0.424 A  
ENDBRANCH   7   8
ENDBRANCH   6   7
ENDBRANCH   4   6
TORSDOF 3
ENDMDL
MODEL       31
REMARK 921   NORMALIZED FREE ENERGY PREDICTED BY IDOCK:   -3.97 KCAL/MOL
REMARK 922        TOTAL FREE ENERGY PREDICTED BY IDOCK:   -4.77 KCAL/MOL
REMARK 923 INTER-LIGAND FREE ENERGY PREDICTED BY IDOCK:   -4.68 KCAL/MOL
REMARK 924 INTRA-LIGAND FREE ENERGY PREDICTED BY IDOCK:   -0.10 KCAL/MOL
REMARK 927      BINDING AFFINITY PREDICTED BY RF-SCORE:    0.00 PKD
ROOT
HETATM    1  N   UNL     1     -11.517  12.805  63.080  1.00  0.00    -0.795 NA 
HETATM    2  H1  UNL     1     -11.525  12.394  62.146  1.00  0.00     0.000 HD 
HETATM    3  H2  UNL     1     -11.774  12.133  63.804  1.00  0.00     0.000 HD 
HETATM    4  N   UNL     1     -12.366  13.969  63.084  1.00  0.00    -1.094 NA 
HETATM    5  H   UNL     1     -13.310  13.763  62.757  1.00  0.00     0.000 HD 
ENDROOT
BRANCH   4   6
HETATM    6  C   UNL     1     -12.355  14.562  64.430  1.00  0.00    -0.413 C  
BRANCH   6   7
HETATM    7  C   UNL     1     -10.969  14.427  65.072  1.00  0.00    -0.398 C  
BRANCH   7   8
HETATM    8  C   UNL     1     -11.050  14.577  66.572  1.00  0.00    -0.332 A  
HETATM    9  C   UNL     1     -11.817  13.684  67.333  1.00  0.00    -0.429 A  
HETATM   10  C   UNL     1     -11.940  13.858  68.712  1.00  0.00    -0.393 A  
HETATM   11  C   UNL     1     -11.300  14.924  69.342  1.00  0.00    -0.312 A  
HETATM   12  C   UNL     1     -10.533  15.815  68.595  1.00  0.00    -0.231 A  
HETATM   13  C   UNL     1     -10.408  15.644  67.215  1.00  0.00    -0.277 A  
ENDBRANCH   7   8
ENDBRANCH   6   7
ENDBRANCH   4   6
TORSDOF 3
ENDMDL
MODEL       32
REMARK 921   NORMALIZED FREE ENERGY PREDICTED BY IDOCK:   -3.96 KCAL/MOL
REMARK 922        TOTAL FREE ENERGY PREDICTED BY IDOCK:   -4.76 KCAL/MOL
REMARK 923 INTER-LIGAND FREE ENERGY PREDICTED BY IDOCK:   -4.61 KCAL/MOL
REMARK 924 INTRA-LIGAND FREE ENERGY PREDICTED BY IDOCK:   -0.15 KCAL/MOL
REMARK 927      BINDING AFFINITY PREDICTED BY RF-SCORE:    0.00 PKD
ROOT
HETATM    1  N   UNL     1     -11.313   9.511  68.402  1.00  0.00    -0.457 NA 
HETATM    2  H1  UNL     1     -11.900   8.687  68.538  1.00  0.00     0.000 HD 
HETATM    3  H2  UNL     1     -10.479   9.497  68.989  1.00  0.00     0.000 HD 
HETATM    4  N   UNL     1     -12.113  10.691  68.613  1.00  0.00    -0.812 NA 
HETATM    5  H   UNL     1     -12.578  10.689  69.521  1.00  0.00     0.000 HD 
ENDROOT
BRANCH   4   6
HETATM    6  C   UNL     1     -11.269  11.879  68.419  1.00  0.00    -0.258 C  
BRANCH   6   7
HETATM    7  C   UNL     1     -11.918  12.850  67.426  1.00  0.00    -0.360 C  
BRANCH   7   8
HETATM    8  C   UNL     1     -11.564  12.488  66.003  1.00  0.00    -0.456 A  
HETATM    9  C   UNL     1     -10.342  11.864  65.715  1.00  0.00    -0.285 A  
HETATM   10  C   UNL     1      -9.988  11.582  64.395  1.00  0.00    -0.311 A  
HETATM   11  C   UNL     1     -10.849  11.922  63.353  1.00  0.00    -0.469 A  
HETATM   12  C   UNL     1     -12.067  12.539  63.629  1.00  0.00    -0.642 A  
HETATM   13  C   UNL     1     -12.424  12.822  64.949  1.00  0.00    -0.563 A  
ENDBRANCH   7   8
ENDBRANCH   6   7
ENDBRANCH   4   6
TORSDOF 3
ENDMDL
MODEL       33
REMARK 921   NORMALIZED FREE ENERGY PREDICTED BY IDOCK:   -3.91 KCAL/MOL
REMARK 922        TOTAL FREE ENERGY PREDICTED BY IDOCK:   -4.70 KCAL/MOL
REMARK 923 INTER-LIGAND FREE ENERGY PREDICTED BY IDOCK:   -4.58 KCAL/MOL
REMARK 924 INTRA-LIGAND FREE ENERGY PREDICTED BY IDOCK:   -0.12 KCAL/MOL
REMARK 927      BINDING AFFINITY PREDICTED BY RF-SCORE:    0.00 PKD
ROOT
HETATM    1  N   UNL     1     -12.308  15.763  63.667  1.00  0.00    -0.892 NA 
HETATM    2  H1  UNL     1     -12.574  16.210  62.789  1.00  0.00     0.000 HD 
HETATM    3  H2  UNL     1     -13.083  15.716  64.330  1.00  0.00     0.000 HD 
HETATM    4  N   UNL     1     -11.161  16.446  64.209  1.00  0.00    -1.298 NA 
HETATM    5  H   UNL     1     -11.319  17.448  64.315  1.00  0.00     0.000 HD 
ENDROOT
BRANCH   4   6
HETATM    6  C   UNL     1     -10.778  15.802  65.475  1.00  0.00    -0.383 C  
BRANCH   6   7
HETATM    7  C   UNL     1     -11.745  14.663  65.819  1.00  0.00    -0.302 C  
BRANCH   7   8
HETATM    8  C   UNL     1     -11.005  13.481  66.397  1.00  0.00    -0.297 A  
HETATM    9  C   UNL     1     -11.711  12.366  66.870  1.00  0.00    -0.432 A  
HETATM   10  C   UNL     1     -11.031  11.298  67.458  1.00  0.00    -0.319 A  
HETATM   11  C   UNL     1      -9.643  11.336  67.580  1.00  0.00    -0.181 A  
HETATM   12  C   UNL     1      -8.932  12.437  67.109  1.00  0.00    -0.195 A  
HETATM   13  C   UNL     1      -9.609  13.507  66.520  1.00  0.00    -0.284 A  
ENDBRANCH   7   8
ENDBRANCH   6   7
ENDBRANCH   4   6
TORSDOF 3
ENDMDL
MODEL       34
REMARK 921   NORMALIZED FREE ENERGY PREDICTED BY IDOCK:   -3.90 KCAL/MOL
REMARK 922        TOTAL FREE ENERGY PREDICTED BY IDOCK:   -4.70 KCAL/MOL
REMARK 923 INTER-LIGAND FREE ENERGY PREDICTED BY IDOCK:   -4.61 KCAL/MOL
REMARK 924 INTRA-LIGAND FREE ENERGY PREDICTED BY IDOCK:   -0.09 KCAL/MOL
REMARK 927      BINDING AFFINITY PREDICTED BY RF-SCORE:    0.00 PKD
ROOT
HETATM    1  N   UNL     1     -13.182  16.172  73.894  1.00  0.00    -0.930 NA 
HETATM    2  H1  UNL     1     -13.295  16.031  74.898  1.00  0.00     0.000 HD 
HETATM    3  H2  UNL     1     -13.466  17.107  73.597  1.00  0.00     0.000 HD 
HETATM    4  N   UNL     1     -13.894  15.134  73.194  1.00  0.00    -0.566 NA 
HETATM    5  H   UNL     1     -14.874  15.079  73.472  1.00  0.00     0.000 HD 
ENDROOT
BRANCH   4   6
HETATM    6  C   UNL     1     -13.732  15.337  71.747  1.00  0.00    -0.504 C  
BRANCH   6   7
HETATM    7  C   UNL     1     -12.304  15.788  71.418  1.00  0.00    -0.505 C  
BRANCH   7   8
HETATM    8  C   UNL     1     -11.920  15.389  70.013  1.00  0.00    -0.383 A  
HETATM    9  C   UNL     1     -12.251  14.119  69.522  1.00  0.00    -0.351 A  
HETATM   10  C   UNL     1     -11.846  13.728  68.246  1.00  0.00    -0.413 A  
HETATM   11  C   UNL     1     -11.105  14.600  67.450  1.00  0.00    -0.331 A  
HETATM   12  C   UNL     1     -10.773  15.866  67.928  1.00  0.00    -0.312 A  
HETATM   13  C   UNL     1     -11.178  16.260  69.205  1.00  0.00    -0.312 A  
ENDBRANCH   7   8
ENDBRANCH   6   7
ENDBRANCH   4   6
TORSDOF 3
ENDMDL
MODEL       35
REMARK 921   NORMALIZED FREE ENERGY PREDICTED BY IDOCK:   -3.90 KCAL/MOL
REMARK 922        TOTAL FREE ENERGY PREDICTED BY IDOCK:   -4.69 KCAL/MOL
REMARK 923 INTER-LIGAND FREE ENERGY PREDICTED BY IDOCK:   -4.61 KCAL/MOL
REMARK 924 INTRA-LIGAND FREE ENERGY PREDICTED BY IDOCK:   -0.08 KCAL/MOL
REMARK 927      BINDING AFFINITY PREDICTED BY RF-SCORE:    0.00 PKD
ROOT
HETATM    1  N   UNL     1     -13.897   9.049  73.093  1.00  0.00    -1.177 NA 
HETATM    2  H1  UNL     1     -14.717   8.991  73.698  1.00  0.00     0.000 HD 
HETATM    3  H2  UNL     1     -13.030   8.847  73.590  1.00  0.00     0.000 HD 
HETATM    4  N   UNL     1     -13.878  10.342  72.457  1.00  0.00    -0.402 NA 
HETATM    5  H   UNL     1     -13.919  11.107  73.130  1.00  0.00     0.000 HD 
ENDROOT
BRANCH   4   6
HETATM    6  C   UNL     1     -12.698  10.425  71.584  1.00  0.00    -0.455 C  
BRANCH   6   7
HETATM    7  C   UNL     1     -12.452  11.871  71.138  1.00  0.00    -0.365 C  
BRANCH   7   8
HETATM    8  C   UNL     1     -11.948  11.922  69.716  1.00  0.00    -0.377 A  
HETATM    9  C   UNL     1     -11.906  13.139  69.023  1.00  0.00    -0.358 A  
HETATM   10  C   UNL     1     -11.496  13.178  67.689  1.00  0.00    -0.366 A  
HETATM   11  C   UNL     1     -11.127  12.002  67.038  1.00  0.00    -0.351 A  
HETATM   12  C   UNL     1     -11.163  10.788  67.719  1.00  0.00    -0.385 A  
HETATM   13  C   UNL     1     -11.572  10.746  69.053  1.00  0.00    -0.370 A  
ENDBRANCH   7   8
ENDBRANCH   6   7
ENDBRANCH   4   6
TORSDOF 3
ENDMDL
MODEL       36
REMARK 921   NORMALIZED FREE ENERGY PREDICTED BY IDOCK:   -3.89 KCAL/MOL
REMARK 922        TOTAL FREE ENERGY PREDICTED BY IDOCK:   -4.68 KCAL/MOL
REMARK 923 INTER-LIGAND FREE ENERGY PREDICTED BY IDOCK:   -4.59 KCAL/MOL
REMARK 924 INTRA-LIGAND FREE ENERGY PREDICTED BY IDOCK:   -0.09 KCAL/MOL
REMARK 927      BINDING AFFINITY PREDICTED BY RF-SCORE:    0.00 PKD
ROOT
HETATM    1  N   UNL     1     -14.403   8.845  73.139  1.00  0.00    -1.145 NA 
HETATM    2  H1  UNL     1     -15.170   9.419  73.490  1.00  0.00     0.000 HD 
HETATM    3  H2  UNL     1     -13.911   8.353  73.887  1.00  0.00     0.000 HD 
HETATM    4  N   UNL     1     -13.522   9.672  72.354  1.00  0.00    -0.625 NA 
HETATM    5  H   UNL     1     -13.194  10.489  72.869  1.00  0.00     0.000 HD 
ENDROOT
BRANCH   4   6
HETATM    6  C   UNL     1     -12.416   8.846  71.850  1.00  0.00    -0.378 C  
BRANCH   6   7
HETATM    7  C   UNL     1     -11.196   9.714  71.518  1.00  0.00    -0.377 C  
BRANCH   7   8
HETATM    8  C   UNL     1     -11.195  10.111  70.061  1.00  0.00    -0.361 A  
HETATM    9  C   UNL     1     -10.627   9.266  69.098  1.00  0.00    -0.228 A  
HETATM   10  C   UNL     1     -10.572   9.658  67.759  1.00  0.00    -0.320 A  
HETATM   11  C   UNL     1     -11.082  10.897  67.373  1.00  0.00    -0.373 A  
HETATM   12  C   UNL     1     -11.652  11.742  68.323  1.00  0.00    -0.373 A  
HETATM   13  C   UNL     1     -11.708  11.352  69.662  1.00  0.00    -0.415 A  
ENDBRANCH   7   8
ENDBRANCH   6   7
ENDBRANCH   4   6
TORSDOF 3
ENDMDL
MODEL       37
REMARK 921   NORMALIZED FREE ENERGY PREDICTED BY IDOCK:   -3.87 KCAL/MOL
REMARK 922        TOTAL FREE ENERGY PREDICTED BY IDOCK:   -4.65 KCAL/MOL
REMARK 923 INTER-LIGAND FREE ENERGY PREDICTED BY IDOCK:   -4.55 KCAL/MOL
REMARK 924 INTRA-LIGAND FREE ENERGY PREDICTED BY IDOCK:   -0.10 KCAL/MOL
REMARK 927      BINDING AFFINITY PREDICTED BY RF-SCORE:    0.00 PKD
ROOT
HETATM    1  N   UNL     1     -12.363  15.028  68.855  1.00  0.00    -0.594 NA 
HETATM    2  H1  UNL     1     -12.597  15.881  68.346  1.00  0.00     0.000 HD 
HETATM    3  H2  UNL     1     -12.598  14.185  68.331  1.00  0.00     0.000 HD 
HETATM    4  N   UNL     1     -12.998  15.068  70.148  1.00  0.00    -0.630 NA 
HETATM    5  H   UNL     1     -14.005  15.218  70.082  1.00  0.00     0.000 HD 
ENDROOT
BRANCH   4   6
HETATM    6  C   UNL     1     -12.662  13.840  70.882  1.00  0.00    -0.323 C  
BRANCH   6   7
HETATM    7  C   UNL     1     -12.033  12.801  69.945  1.00  0.00    -0.368 C  
BRANCH   7   8
HETATM    8  C   UNL     1     -12.037  11.430  70.576  1.00  0.00    -0.487 A  
HETATM    9  C   UNL     1     -13.017  11.086  71.516  1.00  0.00    -0.553 A  
HETATM   10  C   UNL     1     -12.987   9.839  72.143  1.00  0.00    -0.483 A  
HETATM   11  C   UNL     1     -11.977   8.928  71.838  1.00  0.00    -0.441 A  
HETATM   12  C   UNL     1     -11.000   9.260  70.902  1.00  0.00    -0.368 A  
HETATM   13  C   UNL     1     -11.028  10.506  70.273  1.00  0.00    -0.306 A  
ENDBRANCH   7   8
ENDBRANCH   6   7
ENDBRANCH   4   6
TORSDOF 3
ENDMDL
MODEL       38
REMARK 921   NORMALIZED FREE ENERGY PREDICTED BY IDOCK:   -3.84 KCAL/MOL
REMARK 922        TOTAL FREE ENERGY PREDICTED BY IDOCK:   -4.62 KCAL/MOL
REMARK 923 INTER-LIGAND FREE ENERGY PREDICTED BY IDOCK:   -4.54 KCAL/MOL
REMARK 924 INTRA-LIGAND FREE ENERGY PREDICTED BY IDOCK:   -0.08 KCAL/MOL
REMARK 927      BINDING AFFINITY PREDICTED BY RF-SCORE:    0.00 PKD
ROOT
HETATM    1  N   UNL     1     -11.363  14.149  69.907  1.00  0.00    -0.422 NA 
HETATM    2  H1  UNL     1     -11.559  14.405  70.875  1.00  0.00     0.000 HD 
HETATM    3  H2  UNL     1     -10.426  14.427  69.613  1.00  0.00     0.000 HD 
HETATM    4  N   UNL     1     -12.390  14.699  69.061  1.00  0.00    -0.583 NA 
HETATM    5  H   UNL     1     -12.497  15.706  69.183  1.00  0.00     0.000 HD 
ENDROOT
BRANCH   4   6
HETATM    6  C   UNL     1     -12.107  14.330  67.666  1.00  0.00    -0.297 C  
BRANCH   6   7
HETATM    7  C   UNL     1     -11.770  12.838  67.556  1.00  0.00    -0.422 C  
BRANCH   7   8
HETATM    8  C   UNL     1     -11.548  12.438  66.118  1.00  0.00    -0.452 A  
HETATM    9  C   UNL     1     -12.439  12.857  65.121  1.00  0.00    -0.561 A  
HETATM   10  C   UNL     1     -12.268  12.439  63.800  1.00  0.00    -0.626 A  
HETATM   11  C   UNL     1     -11.209  11.598  63.466  1.00  0.00    -0.462 A  
HETATM   12  C   UNL     1     -10.316  11.177  64.449  1.00  0.00    -0.407 A  
HETATM   13  C   UNL     1     -10.484  11.595  65.771  1.00  0.00    -0.308 A  
ENDBRANCH   7   8
ENDBRANCH   6   7
ENDBRANCH   4   6
TORSDOF 3
ENDMDL
MODEL       39
REMARK 921   NORMALIZED FREE ENERGY PREDICTED BY IDOCK:   -3.83 KCAL/MOL
REMARK 922        TOTAL FREE ENERGY PREDICTED BY IDOCK:   -4.61 KCAL/MOL
REMARK 923 INTER-LIGAND FREE ENERGY PREDICTED BY IDOCK:   -4.52 KCAL/MOL
REMARK 924 INTRA-LIGAND FREE ENERGY PREDICTED BY IDOCK:   -0.09 KCAL/MOL
REMARK 927      BINDING AFFINITY PREDICTED BY RF-SCORE:    0.00 PKD
ROOT
HETATM    1  N   UNL     1     -12.295  15.528  69.339  1.00  0.00    -0.595 NA 
HETATM    2  H1  UNL     1     -12.694  16.033  70.131  1.00  0.00     0.000 HD 
HETATM    3  H2  UNL     1     -12.697  15.822  68.448  1.00  0.00     0.000 HD 
HETATM    4  N   UNL     1     -12.441  14.113  69.567  1.00  0.00    -0.481 NA 
HETATM    5  H   UNL     1     -13.408  13.846  69.753  1.00  0.00     0.000 HD 
ENDROOT
BRANCH   4   6
HETATM    6  C   UNL     1     -11.867  13.385  68.426  1.00  0.00    -0.366 C  
BRANCH   6   7
HETATM    7  C   UNL     1     -11.800  14.284  67.186  1.00  0.00    -0.454 C  
BRANCH   7   8
HETATM    8  C   UNL     1     -11.666  13.462  65.927  1.00  0.00    -0.389 A  
HETATM    9  C   UNL     1     -12.217  13.918  64.721  1.00  0.00    -0.441 A  
HETATM   10  C   UNL     1     -12.144  13.132  63.571  1.00  0.00    -0.585 A  
HETATM   11  C   UNL     1     -11.522  11.885  63.614  1.00  0.00    -0.551 A  
HETATM   12  C   UNL     1     -10.968  11.424  64.807  1.00  0.00    -0.303 A  
HETATM   13  C   UNL     1     -11.039  12.209  65.960  1.00  0.00    -0.354 A  
ENDBRANCH   7   8
ENDBRANCH   6   7
ENDBRANCH   4   6
TORSDOF 3
ENDMDL
MODEL       40
REMARK 921   NORMALIZED FREE ENERGY PREDICTED BY IDOCK:   -3.82 KCAL/MOL
REMARK 922        TOTAL FREE ENERGY PREDICTED BY IDOCK:   -4.60 KCAL/MOL
REMARK 923 INTER-LIGAND FREE ENERGY PREDICTED BY IDOCK:   -4.50 KCAL/MOL
REMARK 924 INTRA-LIGAND FREE ENERGY PREDICTED BY IDOCK:   -0.10 KCAL/MOL
REMARK 927      BINDING AFFINITY PREDICTED BY RF-SCORE:    0.00 PKD
ROOT
HETATM    1  N   UNL     1     -14.155  15.269  71.024  1.00  0.00    -0.779 NA 
HETATM    2  H1  UNL     1     -14.726  16.036  71.382  1.00  0.00     0.000 HD 
HETATM    3  H2  UNL     1     -13.843  14.638  71.763  1.00  0.00     0.000 HD 
HETATM    4  N   UNL     1     -13.057  15.820  70.271  1.00  0.00    -0.705 NA 
HETATM    5  H   UNL     1     -12.512  16.491  70.812  1.00  0.00     0.000 HD 
ENDROOT
BRANCH   4   6
HETATM    6  C   UNL     1     -12.233  14.716  69.755  1.00  0.00    -0.302 C  
BRANCH   6   7
HETATM    7  C   UNL     1     -11.057  15.254  68.932  1.00  0.00    -0.269 C  
BRANCH   7   8
HETATM    8  C   UNL     1     -11.270  15.008  67.458  1.00  0.00    -0.333 A  
HETATM    9  C   UNL     1     -10.594  15.783  66.506  1.00  0.00    -0.306 A  
HETATM   10  C   UNL     1     -10.834  15.595  65.144  1.00  0.00    -0.448 A  
HETATM   11  C   UNL     1     -11.752  14.635  64.722  1.00  0.00    -0.429 A  
HETATM   12  C   UNL     1     -12.427  13.857  65.660  1.00  0.00    -0.538 A  
HETATM   13  C   UNL     1     -12.188  14.042  67.024  1.00  0.00    -0.387 A  
ENDBRANCH   7   8
ENDBRANCH   6   7
ENDBRANCH   4   6
TORSDOF 3
ENDMDL
MODEL       41
REMARK 921   NORMALIZED FREE ENERGY PREDICTED BY IDOCK:   -3.79 KCAL/MOL
REMARK 922        TOTAL FREE ENERGY PREDICTED BY IDOCK:   -4.56 KCAL/MOL
REMARK 923 INTER-LIGAND FREE ENERGY PREDICTED BY IDOCK:   -4.48 KCAL/MOL
REMARK 924 INTRA-LIGAND FREE ENERGY PREDICTED BY IDOCK:   -0.08 KCAL/MOL
REMARK 927      BINDING AFFINITY PREDICTED BY RF-SCORE:    0.00 PKD
ROOT
HETATM    1  N   UNL     1     -11.511  12.820  63.070  1.00  0.00    -0.729 NA 
HETATM    2  H1  UNL     1     -11.609  12.514  62.102  1.00  0.00     0.000 HD 
HETATM    3  H2  UNL     1     -11.657  12.061  63.736  1.00  0.00     0.000 HD 
HETATM    4  N   UNL     1     -12.399  13.931  63.300  1.00  0.00    -1.148 NA 
HETATM    5  H   UNL     1     -13.365  13.714  63.057  1.00  0.00     0.000 HD 
ENDROOT
BRANCH   4   6
HETATM    6  C   UNL     1     -12.257  14.373  64.695  1.00  0.00    -0.464 C  
BRANCH   6   7
HETATM    7  C   UNL     1     -10.796  14.277  65.150  1.00  0.00    -0.387 C  
BRANCH   7   8
HETATM    8  C   UNL     1     -10.665  13.389  66.364  1.00  0.00    -0.289 A  
HETATM    9  C   UNL     1     -11.752  13.206  67.229  1.00  0.00    -0.425 A  
HETATM   10  C   UNL     1     -11.614  12.433  68.383  1.00  0.00    -0.373 A  
HETATM   11  C   UNL     1     -10.390  11.838  68.683  1.00  0.00    -0.228 A  
HETATM   12  C   UNL     1      -9.304  12.011  67.828  1.00  0.00    -0.190 A  
HETATM   13  C   UNL     1      -9.439  12.784  66.673  1.00  0.00    -0.249 A  
ENDBRANCH   7   8
ENDBRANCH   6   7
ENDBRANCH   4   6
TORSDOF 3
ENDMDL
MODEL       42
REMARK 921   NORMALIZED FREE ENERGY PREDICTED BY IDOCK:   -3.77 KCAL/MOL
REMARK 922        TOTAL FREE ENERGY PREDICTED BY IDOCK:   -4.54 KCAL/MOL
REMARK 923 INTER-LIGAND FREE ENERGY PREDICTED BY IDOCK:   -4.39 KCAL/MOL
REMARK 924 INTRA-LIGAND FREE ENERGY PREDICTED BY IDOCK:   -0.16 KCAL/MOL
REMARK 927      BINDING AFFINITY PREDICTED BY RF-SCORE:    0.00 PKD
ROOT
HETATM    1  N   UNL     1     -12.524  14.115  63.448  1.00  0.00    -1.116 NA 
HETATM    2  H1  UNL     1     -13.243  14.218  62.732  1.00  0.00     0.000 HD 
HETATM    3  H2  UNL     1     -11.597  13.963  63.050  1.00  0.00     0.000 HD 
HETATM    4  N   UNL     1     -12.914  13.062  64.351  1.00  0.00    -0.652 NA 
HETATM    5  H   UNL     1     -13.109  12.186  63.866  1.00  0.00     0.000 HD 
ENDROOT
BRANCH   4   6
HETATM    6  C   UNL     1     -11.877  12.912  65.383  1.00  0.00    -0.403 C  
BRANCH   6   7
HETATM    7  C   UNL     1     -12.246  13.706  66.642  1.00  0.00    -0.437 C  
BRANCH   7   8
HETATM    8  C   UNL     1     -11.138  14.658  67.026  1.00  0.00    -0.333 A  
HETATM    9  C   UNL     1     -11.240  15.429  68.192  1.00  0.00    -0.326 A  
HETATM   10  C   UNL     1     -10.244  16.352  68.516  1.00  0.00    -0.257 A  
HETATM   11  C   UNL     1      -9.142  16.513  67.679  1.00  0.00    -0.199 A  
HETATM   12  C   UNL     1      -9.030  15.749  66.519  1.00  0.00    -0.341 A  
HETATM   13  C   UNL     1     -10.024  14.825  66.193  1.00  0.00    -0.324 A  
ENDBRANCH   7   8
ENDBRANCH   6   7
ENDBRANCH   4   6
TORSDOF 3
ENDMDL
MODEL       43
REMARK 921   NORMALIZED FREE ENERGY PREDICTED BY IDOCK:   -3.77 KCAL/MOL
REMARK 922        TOTAL FREE ENERGY PREDICTED BY IDOCK:   -4.54 KCAL/MOL
REMARK 923 INTER-LIGAND FREE ENERGY PREDICTED BY IDOCK:   -4.43 KCAL/MOL
REMARK 924 INTRA-LIGAND FREE ENERGY PREDICTED BY IDOCK:   -0.11 KCAL/MOL
REMARK 927      BINDING AFFINITY PREDICTED BY RF-SCORE:    0.00 PKD
ROOT
HETATM    1  N   UNL     1     -12.095  16.167  70.657  1.00  0.00    -0.467 NA 
HETATM    2  H1  UNL     1     -12.662  15.887  71.458  1.00  0.00     0.000 HD 
HETATM    3  H2  UNL     1     -12.185  17.161  70.444  1.00  0.00     0.000 HD 
HETATM    4  N   UNL     1     -12.434  15.332  69.532  1.00  0.00    -0.597 NA 
HETATM    5  H   UNL     1     -13.432  15.343  69.326  1.00  0.00     0.000 HD 
ENDROOT
BRANCH   4   6
HETATM    6  C   UNL     1     -11.618  15.734  68.378  1.00  0.00    -0.338 C  
BRANCH   6   7
HETATM    7  C   UNL     1     -10.413  16.570  68.828  1.00  0.00    -0.309 C  
BRANCH   7   8
HETATM    8  C   UNL     1     -10.303  17.840  68.020  1.00  0.00    -0.395 A  
HETATM    9  C   UNL     1     -10.466  17.810  66.628  1.00  0.00    -0.300 A  
HETATM   10  C   UNL     1     -10.305  18.974  65.874  1.00  0.00    -0.435 A  
HETATM   11  C   UNL     1      -9.980  20.174  66.503  1.00  0.00    -0.586 A  
HETATM   12  C   UNL     1      -9.819  20.215  67.886  1.00  0.00    -0.525 A  
HETATM   13  C   UNL     1      -9.979  19.053  68.643  1.00  0.00    -0.482 A  
ENDBRANCH   7   8
ENDBRANCH   6   7
ENDBRANCH   4   6
TORSDOF 3
ENDMDL
MODEL       44
REMARK 921   NORMALIZED FREE ENERGY PREDICTED BY IDOCK:   -3.75 KCAL/MOL
REMARK 922        TOTAL FREE ENERGY PREDICTED BY IDOCK:   -4.52 KCAL/MOL
REMARK 923 INTER-LIGAND FREE ENERGY PREDICTED BY IDOCK:   -4.44 KCAL/MOL
REMARK 924 INTRA-LIGAND FREE ENERGY PREDICTED BY IDOCK:   -0.08 KCAL/MOL
REMARK 927      BINDING AFFINITY PREDICTED BY RF-SCORE:    0.00 PKD
ROOT
HETATM    1  N   UNL     1     -12.188  10.008  69.987  1.00  0.00    -0.491 NA 
HETATM    2  H1  UNL     1     -13.024  10.009  70.572  1.00  0.00     0.000 HD 
HETATM    3  H2  UNL     1     -11.367  10.358  70.481  1.00  0.00     0.000 HD 
HETATM    4  N   UNL     1     -12.462  10.749  68.782  1.00  0.00    -0.721 NA 
HETATM    5  H   UNL     1     -12.802  11.691  68.973  1.00  0.00     0.000 HD 
ENDROOT
BRANCH   4   6
HETATM    6  C   UNL     1     -11.257  10.748  67.939  1.00  0.00    -0.318 C  
BRANCH   6   7
HETATM    7  C   UNL     1     -10.876  12.177  67.534  1.00  0.00    -0.283 C  
BRANCH   7   8
HETATM    8  C   UNL     1     -11.116  12.406  66.062  1.00  0.00    -0.344 A  
HETATM    9  C   UNL     1     -11.928  13.465  65.633  1.00  0.00    -0.439 A  
HETATM   10  C   UNL     1     -12.198  13.642  64.275  1.00  0.00    -0.445 A  
HETATM   11  C   UNL     1     -11.663  12.763  63.336  1.00  0.00    -0.556 A  
HETATM   12  C   UNL     1     -10.853  11.708  63.752  1.00  0.00    -0.493 A  
HETATM   13  C   UNL     1     -10.580  11.529  65.109  1.00  0.00    -0.350 A  
ENDBRANCH   7   8
ENDBRANCH   6   7
ENDBRANCH   4   6
TORSDOF 3
ENDMDL
MODEL       45
REMARK 921   NORMALIZED FREE ENERGY PREDICTED BY IDOCK:   -3.74 KCAL/MOL
REMARK 922        TOTAL FREE ENERGY PREDICTED BY IDOCK:   -4.51 KCAL/MOL
REMARK 923 INTER-LIGAND FREE ENERGY PREDICTED BY IDOCK:   -4.43 KCAL/MOL
REMARK 924 INTRA-LIGAND FREE ENERGY PREDICTED BY IDOCK:   -0.08 KCAL/MOL
REMARK 927      BINDING AFFINITY PREDICTED BY RF-SCORE:    0.00 PKD
ROOT
HETATM    1  N   UNL     1      -8.698  11.271  62.548  1.00  0.00    -0.473 NA 
HETATM    2  H1  UNL     1      -8.407  11.080  61.588  1.00  0.00     0.000 HD 
HETATM    3  H2  UNL     1      -8.069  10.853  63.235  1.00  0.00     0.000 HD 
HETATM    4  N   UNL     1     -10.062  10.838  62.717  1.00  0.00    -0.750 NA 
HETATM    5  H   UNL     1     -10.195   9.861  62.456  1.00  0.00     0.000 HD 
ENDROOT
BRANCH   4   6
HETATM    6  C   UNL     1     -10.480  11.113  64.099  1.00  0.00    -0.377 C  
BRANCH   6   7
HETATM    7  C   UNL     1     -11.326  12.390  64.168  1.00  0.00    -0.442 C  
BRANCH   7   8
HETATM    8  C   UNL     1     -11.539  12.822  65.599  1.00  0.00    -0.410 A  
HETATM    9  C   UNL     1     -11.729  14.176  65.909  1.00  0.00    -0.369 A  
HETATM   10  C   UNL     1     -11.867  14.583  67.236  1.00  0.00    -0.419 A  
HETATM   11  C   UNL     1     -11.815  13.643  68.264  1.00  0.00    -0.404 A  
HETATM   12  C   UNL     1     -11.629  12.295  67.966  1.00  0.00    -0.408 A  
HETATM   13  C   UNL     1     -11.491  11.885  66.639  1.00  0.00    -0.382 A  
ENDBRANCH   7   8
ENDBRANCH   6   7
ENDBRANCH   4   6
TORSDOF 3
ENDMDL
MODEL       46
REMARK 921   NORMALIZED FREE ENERGY PREDICTED BY IDOCK:   -3.71 KCAL/MOL
REMARK 922        TOTAL FREE ENERGY PREDICTED BY IDOCK:   -4.47 KCAL/MOL
REMARK 923 INTER-LIGAND FREE ENERGY PREDICTED BY IDOCK:   -4.36 KCAL/MOL
REMARK 924 INTRA-LIGAND FREE ENERGY PREDICTED BY IDOCK:   -0.11 KCAL/MOL
REMARK 927      BINDING AFFINITY PREDICTED BY RF-SCORE:    0.00 PKD
ROOT
HETATM    1  N   UNL     1     -11.656  10.180  68.025  1.00  0.00    -0.667 NA 
HETATM    2  H1  UNL     1     -11.056   9.394  67.772  1.00  0.00     0.000 HD 
HETATM    3  H2  UNL     1     -12.564  10.141  67.561  1.00  0.00     0.000 HD 
HETATM    4  N   UNL     1     -10.953  11.408  67.755  1.00  0.00    -0.229 NA 
HETATM    5  H   UNL     1     -10.623  11.464  66.792  1.00  0.00     0.000 HD 
ENDROOT
BRANCH   4   6
HETATM    6  C   UNL     1     -11.817  12.541  68.119  1.00  0.00    -0.317 C  
BRANCH   6   7
HETATM    7  C   UNL     1     -11.069  13.526  69.025  1.00  0.00    -0.293 C  
BRANCH   7   8
HETATM    8  C   UNL     1     -11.914  13.919  70.213  1.00  0.00    -0.401 A  
HETATM    9  C   UNL     1     -12.568  12.938  70.971  1.00  0.00    -0.376 A  
HETATM   10  C   UNL     1     -13.397  13.304  72.033  1.00  0.00    -0.582 A  
HETATM   11  C   UNL     1     -13.579  14.650  72.345  1.00  0.00    -0.555 A  
HETATM   12  C   UNL     1     -12.930  15.632  71.600  1.00  0.00    -0.551 A  
HETATM   13  C   UNL     1     -12.101  15.269  70.537  1.00  0.00    -0.395 A  
ENDBRANCH   7   8
ENDBRANCH   6   7
ENDBRANCH   4   6
TORSDOF 3
ENDMDL
MODEL       47
REMARK 921   NORMALIZED FREE ENERGY PREDICTED BY IDOCK:   -3.71 KCAL/MOL
REMARK 922        TOTAL FREE ENERGY PREDICTED BY IDOCK:   -4.47 KCAL/MOL
REMARK 923 INTER-LIGAND FREE ENERGY PREDICTED BY IDOCK:   -4.35 KCAL/MOL
REMARK 924 INTRA-LIGAND FREE ENERGY PREDICTED BY IDOCK:   -0.12 KCAL/MOL
REMARK 927      BINDING AFFINITY PREDICTED BY RF-SCORE:    0.00 PKD
ROOT
HETATM    1  N   UNL     1     -14.394   8.911  73.307  1.00  0.00    -1.177 NA 
HETATM    2  H1  UNL     1     -14.851   8.534  74.137  1.00  0.00     0.000 HD 
HETATM    3  H2  UNL     1     -14.844   9.762  72.967  1.00  0.00     0.000 HD 
HETATM    4  N   UNL     1     -14.333   7.882  72.300  1.00  0.00    -0.628 NA 
HETATM    5  H   UNL     1     -15.250   7.486  72.093  1.00  0.00     0.000 HD 
ENDROOT
BRANCH   4   6
HETATM    6  C   UNL     1     -13.675   8.426  71.103  1.00  0.00    -0.013 C  
BRANCH   6   7
HETATM    7  C   UNL     1     -12.973   9.751  71.423  1.00  0.00    -0.490 C  
BRANCH   7   8
HETATM    8  C   UNL     1     -11.531   9.722  70.978  1.00  0.00    -0.458 A  
HETATM    9  C   UNL     1     -11.157  10.288  69.751  1.00  0.00    -0.340 A  
HETATM   10  C   UNL     1      -9.835  10.209  69.312  1.00  0.00    -0.235 A  
HETATM   11  C   UNL     1      -8.877   9.564  70.092  1.00  0.00    -0.266 A  
HETATM   12  C   UNL     1      -9.237   9.001  71.314  1.00  0.00    -0.314 A  
HETATM   13  C   UNL     1     -10.560   9.079  71.756  1.00  0.00    -0.426 A  
ENDBRANCH   7   8
ENDBRANCH   6   7
ENDBRANCH   4   6
TORSDOF 3
ENDMDL
MODEL       48
REMARK 921   NORMALIZED FREE ENERGY PREDICTED BY IDOCK:   -3.70 KCAL/MOL
REMARK 922        TOTAL FREE ENERGY PREDICTED BY IDOCK:   -4.45 KCAL/MOL
REMARK 923 INTER-LIGAND FREE ENERGY PREDICTED BY IDOCK:   -4.35 KCAL/MOL
REMARK 924 INTRA-LIGAND FREE ENERGY PREDICTED BY IDOCK:   -0.10 KCAL/MOL
REMARK 927      BINDING AFFINITY PREDICTED BY RF-SCORE:    0.00 PKD
ROOT
HETATM    1  N   UNL     1     -11.082   5.343  66.120  1.00  0.00    -0.784 NA 
HETATM    2  H1  UNL     1     -11.816   5.231  65.419  1.00  0.00     0.000 HD 
HETATM    3  H2  UNL     1     -10.834   4.460  66.567  1.00  0.00     0.000 HD 
HETATM    4  N   UNL     1     -11.494   6.343  67.072  1.00  0.00    -0.702 NA 
HETATM    5  H   UNL     1     -12.401   6.134  67.487  1.00  0.00     0.000 HD 
ENDROOT
BRANCH   4   6
HETATM    6  C   UNL     1     -10.438   6.503  68.082  1.00  0.00    -0.217 C  
BRANCH   6   7
HETATM    7  C   UNL     1     -10.951   6.112  69.472  1.00  0.00    -0.463 C  
BRANCH   7   8
HETATM    8  C   UNL     1     -11.325   7.335  70.275  1.00  0.00    -0.266 A  
HETATM    9  C   UNL     1     -12.324   7.259  71.256  1.00  0.00    -0.401 A  
HETATM   10  C   UNL     1     -12.711   8.402  71.957  1.00  0.00    -0.399 A  
HETATM   11  C   UNL     1     -12.106   9.627  71.686  1.00  0.00    -0.481 A  
HETATM   12  C   UNL     1     -11.110   9.712  70.716  1.00  0.00    -0.403 A  
HETATM   13  C   UNL     1     -10.720   8.570  70.012  1.00  0.00    -0.234 A  
ENDBRANCH   7   8
ENDBRANCH   6   7
ENDBRANCH   4   6
TORSDOF 3
ENDMDL
MODEL       49
REMARK 921   NORMALIZED FREE ENERGY PREDICTED BY IDOCK:   -3.67 KCAL/MOL
REMARK 922        TOTAL FREE ENERGY PREDICTED BY IDOCK:   -4.42 KCAL/MOL
REMARK 923 INTER-LIGAND FREE ENERGY PREDICTED BY IDOCK:   -4.37 KCAL/MOL
REMARK 924 INTRA-LIGAND FREE ENERGY PREDICTED BY IDOCK:   -0.06 KCAL/MOL
REMARK 927      BINDING AFFINITY PREDICTED BY RF-SCORE:    0.00 PKD
ROOT
HETATM    1  N   UNL     1     -10.420  16.963  66.616  1.00  0.00    -0.290 NA 
HETATM    2  H1  UNL     1      -9.972  17.782  66.204  1.00  0.00     0.000 HD 
HETATM    3  H2  UNL     1     -11.224  16.645  66.074  1.00  0.00     0.000 HD 
HETATM    4  N   UNL     1     -10.762  17.258  67.984  1.00  0.00    -0.389 NA 
HETATM    5  H   UNL     1     -11.332  18.098  68.070  1.00  0.00     0.000 HD 
ENDROOT
BRANCH   4   6
HETATM    6  C   UNL     1     -11.408  16.078  68.578  1.00  0.00    -0.382 C  
BRANCH   6   7
HETATM    7  C   UNL     1     -11.072  15.968  70.070  1.00  0.00    -0.362 C  
BRANCH   7   8
HETATM    8  C   UNL     1     -12.131  15.183  70.807  1.00  0.00    -0.387 A  
HETATM    9  C   UNL     1     -13.026  15.835  71.666  1.00  0.00    -0.509 A  
HETATM   10  C   UNL     1     -13.967  15.103  72.392  1.00  0.00    -0.616 A  
HETATM   11  C   UNL     1     -14.019  13.716  72.268  1.00  0.00    -0.661 A  
HETATM   12  C   UNL     1     -13.136  13.059  71.415  1.00  0.00    -0.336 A  
HETATM   13  C   UNL     1     -12.194  13.789  70.687  1.00  0.00    -0.434 A  
ENDBRANCH   7   8
ENDBRANCH   6   7
ENDBRANCH   4   6
TORSDOF 3
ENDMDL
MODEL       50
REMARK 921   NORMALIZED FREE ENERGY PREDICTED BY IDOCK:   -3.67 KCAL/MOL
REMARK 922        TOTAL FREE ENERGY PREDICTED BY IDOCK:   -4.42 KCAL/MOL
REMARK 923 INTER-LIGAND FREE ENERGY PREDICTED BY IDOCK:   -4.27 KCAL/MOL
REMARK 924 INTRA-LIGAND FREE ENERGY PREDICTED BY IDOCK:   -0.15 KCAL/MOL
REMARK 927      BINDING AFFINITY PREDICTED BY RF-SCORE:    0.00 PKD
ROOT
HETATM    1  N   UNL     1     -14.389   8.814  73.029  1.00  0.00    -1.133 NA 
HETATM    2  H1  UNL     1     -15.221   8.731  73.616  1.00  0.00     0.000 HD 
HETATM    3  H2  UNL     1     -14.386   9.673  72.478  1.00  0.00     0.000 HD 
HETATM    4  N   UNL     1     -14.277   7.634  72.210  1.00  0.00    -0.596 NA 
HETATM    5  H   UNL     1     -15.121   7.457  71.666  1.00  0.00     0.000 HD 
ENDROOT
BRANCH   4   6
HETATM    6  C   UNL     1     -13.080   7.754  71.365  1.00  0.00    -0.272 C  
BRANCH   6   7
HETATM    7  C   UNL     1     -12.197   8.916  71.835  1.00  0.00    -0.445 C  
BRANCH   7   8
HETATM    8  C   UNL     1     -10.828   8.425  72.243  1.00  0.00    -0.422 A  
HETATM    9  C   UNL     1      -9.679   8.948  71.634  1.00  0.00    -0.379 A  
HETATM   10  C   UNL     1      -8.417   8.453  71.968  1.00  0.00    -0.245 A  
HETATM   11  C   UNL     1      -8.293   7.434  72.910  1.00  0.00    -0.140 A  
HETATM   12  C   UNL     1      -9.429   6.911  73.523  1.00  0.00    -0.207 A  
HETATM   13  C   UNL     1     -10.693   7.403  73.191  1.00  0.00    -0.436 A  
ENDBRANCH   7   8
ENDBRANCH   6   7
ENDBRANCH   4   6
TORSDOF 3
ENDMDL
MODEL       51
REMARK 921   NORMALIZED FREE ENERGY PREDICTED BY IDOCK:   -3.66 KCAL/MOL
REMARK 922        TOTAL FREE ENERGY PREDICTED BY IDOCK:   -4.40 KCAL/MOL
REMARK 923 INTER-LIGAND FREE ENERGY PREDICTED BY IDOCK:   -4.30 KCAL/MOL
REMARK 924 INTRA-LIGAND FREE ENERGY PREDICTED BY IDOCK:   -0.10 KCAL/MOL
REMARK 927      BINDING AFFINITY PREDICTED BY RF-SCORE:    0.00 PKD
ROOT
HETATM    1  N   UNL     1     -11.119   5.773  66.429  1.00  0.00    -0.767 NA 
HETATM    2  H1  UNL     1     -11.320   6.154  65.504  1.00  0.00     0.000 HD 
HETATM    3  H2  UNL     1     -11.613   4.898  66.605  1.00  0.00     0.000 HD 
HETATM    4  N   UNL     1     -11.409   6.777  67.420  1.00  0.00    -0.739 NA 
HETATM    5  H   UNL     1     -12.362   7.134  67.345  1.00  0.00     0.000 HD 
ENDROOT
BRANCH   4   6
HETATM    6  C   UNL     1     -11.120   6.228  68.753  1.00  0.00    -0.346 C  
BRANCH   6   7
HETATM    7  C   UNL     1     -10.247   7.195  69.562  1.00  0.00    -0.201 C  
BRANCH   7   8
HETATM    8  C   UNL     1     -11.090   8.248  70.240  1.00  0.00    -0.220 A  
HETATM    9  C   UNL     1     -10.991   9.591  69.854  1.00  0.00    -0.263 A  
HETATM   10  C   UNL     1     -11.726  10.573  70.521  1.00  0.00    -0.443 A  
HETATM   11  C   UNL     1     -12.564  10.221  71.577  1.00  0.00    -0.544 A  
HETATM   12  C   UNL     1     -12.672   8.888  71.966  1.00  0.00    -0.456 A  
HETATM   13  C   UNL     1     -11.938   7.904  71.301  1.00  0.00    -0.321 A  
ENDBRANCH   7   8
ENDBRANCH   6   7
ENDBRANCH   4   6
TORSDOF 3
ENDMDL
MODEL       52
REMARK 921   NORMALIZED FREE ENERGY PREDICTED BY IDOCK:   -3.63 KCAL/MOL
REMARK 922        TOTAL FREE ENERGY PREDICTED BY IDOCK:   -4.37 KCAL/MOL
REMARK 923 INTER-LIGAND FREE ENERGY PREDICTED BY IDOCK:   -4.28 KCAL/MOL
REMARK 924 INTRA-LIGAND FREE ENERGY PREDICTED BY IDOCK:   -0.10 KCAL/MOL
REMARK 927      BINDING AFFINITY PREDICTED BY RF-SCORE:    0.00 PKD
ROOT
HETATM    1  N   UNL     1      -8.688   8.813  63.352  1.00  0.00    -0.429 NA 
HETATM    2  H1  UNL     1      -8.485   7.864  63.035  1.00  0.00     0.000 HD 
HETATM    3  H2  UNL     1      -9.091   8.833  64.289  1.00  0.00     0.000 HD 
HETATM    4  N   UNL     1      -9.532   9.458  62.378  1.00  0.00    -0.575 NA 
HETATM    5  H   UNL     1     -10.378   8.923  62.181  1.00  0.00     0.000 HD 
ENDROOT
BRANCH   4   6
HETATM    6  C   UNL     1      -9.826  10.825  62.833  1.00  0.00    -0.256 C  
BRANCH   6   7
HETATM    7  C   UNL     1      -9.943  10.875  64.361  1.00  0.00    -0.381 C  
BRANCH   7   8
HETATM    8  C   UNL     1     -10.883  11.973  64.796  1.00  0.00    -0.354 A  
HETATM    9  C   UNL     1     -11.345  12.918  63.870  1.00  0.00    -0.489 A  
HETATM   10  C   UNL     1     -12.167  13.968  64.283  1.00  0.00    -0.453 A  
HETATM   11  C   UNL     1     -12.533  14.083  65.623  1.00  0.00    -0.531 A  
HETATM   12  C   UNL     1     -12.082  13.146  66.551  1.00  0.00    -0.423 A  
HETATM   13  C   UNL     1     -11.260  12.095  66.140  1.00  0.00    -0.386 A  
ENDBRANCH   7   8
ENDBRANCH   6   7
ENDBRANCH   4   6
TORSDOF 3
ENDMDL
MODEL       53
REMARK 921   NORMALIZED FREE ENERGY PREDICTED BY IDOCK:   -3.61 KCAL/MOL
REMARK 922        TOTAL FREE ENERGY PREDICTED BY IDOCK:   -4.35 KCAL/MOL
REMARK 923 INTER-LIGAND FREE ENERGY PREDICTED BY IDOCK:   -4.21 KCAL/MOL
REMARK 924 INTRA-LIGAND FREE ENERGY PREDICTED BY IDOCK:   -0.14 KCAL/MOL
REMARK 927      BINDING AFFINITY PREDICTED BY RF-SCORE:    0.00 PKD
ROOT
HETATM    1  N   UNL     1     -13.857  15.428  70.679  1.00  0.00    -0.837 NA 
HETATM    2  H1  UNL     1     -14.526  16.041  71.146  1.00  0.00     0.000 HD 
HETATM    3  H2  UNL     1     -13.906  14.467  71.020  1.00  0.00     0.000 HD 
HETATM    4  N   UNL     1     -12.537  15.991  70.811  1.00  0.00    -0.532 NA 
HETATM    5  H   UNL     1     -12.287  16.172  71.782  1.00  0.00     0.000 HD 
ENDROOT
BRANCH   4   6
HETATM    6  C   UNL     1     -11.573  15.107  70.139  1.00  0.00    -0.292 C  
BRANCH   6   7
HETATM    7  C   UNL     1     -12.250  13.807  69.688  1.00  0.00    -0.359 C  
BRANCH   7   8
HETATM    8  C   UNL     1     -12.011  13.552  68.219  1.00  0.00    -0.377 A  
HETATM    9  C   UNL     1     -11.875  12.242  67.741  1.00  0.00    -0.341 A  
HETATM   10  C   UNL     1     -11.595  12.008  66.394  1.00  0.00    -0.381 A  
HETATM   11  C   UNL     1     -11.447  13.080  65.515  1.00  0.00    -0.352 A  
HETATM   12  C   UNL     1     -11.584  14.386  65.980  1.00  0.00    -0.364 A  
HETATM   13  C   UNL     1     -11.864  14.623  67.327  1.00  0.00    -0.375 A  
ENDBRANCH   7   8
ENDBRANCH   6   7
ENDBRANCH   4   6
TORSDOF 3
ENDMDL
MODEL       54
REMARK 921   NORMALIZED FREE ENERGY PREDICTED BY IDOCK:   -3.60 KCAL/MOL
REMARK 922        TOTAL FREE ENERGY PREDICTED BY IDOCK:   -4.34 KCAL/MOL
REMARK 923 INTER-LIGAND FREE ENERGY PREDICTED BY IDOCK:   -4.24 KCAL/MOL
REMARK 924 INTRA-LIGAND FREE ENERGY PREDICTED BY IDOCK:   -0.09 KCAL/MOL
REMARK 927      BINDING AFFINITY PREDICTED BY RF-SCORE:    0.00 PKD
ROOT
HETATM    1  N   UNL     1     -11.072   4.762  65.740  1.00  0.00    -0.876 NA 
HETATM    2  H1  UNL     1     -11.440   4.818  64.790  1.00  0.00     0.000 HD 
HETATM    3  H2  UNL     1     -11.481   3.992  66.272  1.00  0.00     0.000 HD 
HETATM    4  N   UNL     1     -11.257   6.035  66.388  1.00  0.00    -0.722 NA 
HETATM    5  H   UNL     1     -12.228   6.346  66.364  1.00  0.00     0.000 HD 
ENDROOT
BRANCH   4   6
HETATM    6  C   UNL     1     -10.727   5.955  67.757  1.00  0.00    -0.265 C  
BRANCH   6   7
HETATM    7  C   UNL     1     -10.345   7.347  68.275  1.00  0.00    -0.231 C  
BRANCH   7   8
HETATM    8  C   UNL     1     -10.777   7.528  69.710  1.00  0.00    -0.249 A  
HETATM    9  C   UNL     1     -11.742   6.680  70.271  1.00  0.00    -0.432 A  
HETATM   10  C   UNL     1     -12.185   6.884  71.579  1.00  0.00    -0.415 A  
HETATM   11  C   UNL     1     -11.670   7.934  72.336  1.00  0.00    -0.423 A  
HETATM   12  C   UNL     1     -10.707   8.780  71.788  1.00  0.00    -0.413 A  
HETATM   13  C   UNL     1     -10.262   8.579  70.480  1.00  0.00    -0.220 A  
ENDBRANCH   7   8
ENDBRANCH   6   7
ENDBRANCH   4   6
TORSDOF 3
ENDMDL
MODEL       55
REMARK 921   NORMALIZED FREE ENERGY PREDICTED BY IDOCK:   -3.59 KCAL/MOL
REMARK 922        TOTAL FREE ENERGY PREDICTED BY IDOCK:   -4.33 KCAL/MOL
REMARK 923 INTER-LIGAND FREE ENERGY PREDICTED BY IDOCK:   -4.24 KCAL/MOL
REMARK 924 INTRA-LIGAND FREE ENERGY PREDICTED BY IDOCK:   -0.09 KCAL/MOL
REMARK 927      BINDING AFFINITY PREDICTED BY RF-SCORE:    0.00 PKD
ROOT
HETATM    1  N   UNL     1     -11.168   4.836  65.661  1.00  0.00    -0.927 NA 
HETATM    2  H1  UNL     1     -11.441   4.959  64.685  1.00  0.00     0.000 HD 
HETATM    3  H2  UNL     1     -11.704   4.103  66.126  1.00  0.00     0.000 HD 
HETATM    4  N   UNL     1     -11.270   6.104  66.337  1.00  0.00    -0.688 NA 
HETATM    5  H   UNL     1     -12.195   6.523  66.241  1.00  0.00     0.000 HD 
ENDROOT
BRANCH   4   6
HETATM    6  C   UNL     1     -10.877   5.927  67.743  1.00  0.00    -0.235 C  
BRANCH   6   7
HETATM    7  C   UNL     1     -10.290   7.225  68.310  1.00  0.00    -0.227 C  
BRANCH   7   8
HETATM    8  C   UNL     1     -10.876   7.536  69.667  1.00  0.00    -0.210 A  
HETATM    9  C   UNL     1     -10.657   8.786  70.262  1.00  0.00    -0.239 A  
HETATM   10  C   UNL     1     -11.148   9.054  71.541  1.00  0.00    -0.419 A  
HETATM   11  C   UNL     1     -11.859   8.077  72.235  1.00  0.00    -0.424 A  
HETATM   12  C   UNL     1     -12.084   6.832  71.651  1.00  0.00    -0.404 A  
HETATM   13  C   UNL     1     -11.594   6.562  70.372  1.00  0.00    -0.470 A  
ENDBRANCH   7   8
ENDBRANCH   6   7
ENDBRANCH   4   6
TORSDOF 3
ENDMDL
MODEL       56
REMARK 921   NORMALIZED FREE ENERGY PREDICTED BY IDOCK:   -3.59 KCAL/MOL
REMARK 922        TOTAL FREE ENERGY PREDICTED BY IDOCK:   -4.33 KCAL/MOL
REMARK 923 INTER-LIGAND FREE ENERGY PREDICTED BY IDOCK:   -4.25 KCAL/MOL
REMARK 924 INTRA-LIGAND FREE ENERGY PREDICTED BY IDOCK:   -0.07 KCAL/MOL
REMARK 927      BINDING AFFINITY PREDICTED BY RF-SCORE:    0.00 PKD
ROOT
HETATM    1  N   UNL     1     -11.768  13.917  70.266  1.00  0.00    -0.457 NA 
HETATM    2  H1  UNL     1     -12.490  13.198  70.333  1.00  0.00     0.000 HD 
HETATM    3  H2  UNL     1     -11.402  14.187  71.180  1.00  0.00     0.000 HD 
HETATM    4  N   UNL     1     -12.294  15.039  69.530  1.00  0.00    -0.550 NA 
HETATM    5  H   UNL     1     -13.161  15.395  69.931  1.00  0.00     0.000 HD 
ENDROOT
BRANCH   4   6
HETATM    6  C   UNL     1     -11.254  16.074  69.434  1.00  0.00    -0.349 C  
BRANCH   6   7
HETATM    7  C   UNL     1     -10.831  16.286  67.976  1.00  0.00    -0.339 C  
BRANCH   7   8
HETATM    8  C   UNL     1     -10.319  17.689  67.759  1.00  0.00    -0.365 A  
HETATM    9  C   UNL     1      -9.744  18.405  68.818  1.00  0.00    -0.369 A  
HETATM   10  C   UNL     1      -9.324  19.723  68.634  1.00  0.00    -0.328 A  
HETATM   11  C   UNL     1      -9.476  20.337  67.392  1.00  0.00    -0.547 A  
HETATM   12  C   UNL     1     -10.043  19.633  66.332  1.00  0.00    -0.573 A  
HETATM   13  C   UNL     1     -10.464  18.314  66.513  1.00  0.00    -0.378 A  
ENDBRANCH   7   8
ENDBRANCH   6   7
ENDBRANCH   4   6
TORSDOF 3
ENDMDL
MODEL       57
REMARK 921   NORMALIZED FREE ENERGY PREDICTED BY IDOCK:   -3.59 KCAL/MOL
REMARK 922        TOTAL FREE ENERGY PREDICTED BY IDOCK:   -4.33 KCAL/MOL
REMARK 923 INTER-LIGAND FREE ENERGY PREDICTED BY IDOCK:   -4.25 KCAL/MOL
REMARK 924 INTRA-LIGAND FREE ENERGY PREDICTED BY IDOCK:   -0.07 KCAL/MOL
REMARK 927      BINDING AFFINITY PREDICTED BY RF-SCORE:    0.00 PKD
ROOT
HETATM    1  N   UNL     1     -12.149  16.150  63.913  1.00  0.00    -1.261 NA 
HETATM    2  H1  UNL     1     -12.587  16.707  63.178  1.00  0.00     0.000 HD 
HETATM    3  H2  UNL     1     -12.823  15.816  64.603  1.00  0.00     0.000 HD 
HETATM    4  N   UNL     1     -11.086  16.919  64.509  1.00  0.00    -1.120 NA 
HETATM    5  H   UNL     1     -11.405  17.827  64.847  1.00  0.00     0.000 HD 
ENDROOT
BRANCH   4   6
HETATM    6  C   UNL     1     -10.455  16.117  65.568  1.00  0.00    -0.386 C  
BRANCH   6   7
HETATM    7  C   UNL     1      -9.408  16.943  66.324  1.00  0.00    -0.292 C  
BRANCH   7   8
HETATM    8  C   UNL     1      -8.348  16.053  66.928  1.00  0.00    -0.278 A  
HETATM    9  C   UNL     1      -7.019  16.490  67.008  1.00  0.00    -0.250 A  
HETATM   10  C   UNL     1      -6.028  15.645  67.511  1.00  0.00    -0.123 A  
HETATM   11  C   UNL     1      -6.356  14.359  67.937  1.00  0.00    -0.173 A  
HETATM   12  C   UNL     1      -7.676  13.917  67.864  1.00  0.00    -0.161 A  
HETATM   13  C   UNL     1      -8.669  14.760  67.361  1.00  0.00    -0.210 A  
ENDBRANCH   7   8
ENDBRANCH   6   7
ENDBRANCH   4   6
TORSDOF 3
ENDMDL
MODEL       58
REMARK 921   NORMALIZED FREE ENERGY PREDICTED BY IDOCK:   -3.58 KCAL/MOL
REMARK 922        TOTAL FREE ENERGY PREDICTED BY IDOCK:   -4.32 KCAL/MOL
REMARK 923 INTER-LIGAND FREE ENERGY PREDICTED BY IDOCK:   -4.31 KCAL/MOL
REMARK 924 INTRA-LIGAND FREE ENERGY PREDICTED BY IDOCK:   -0.01 KCAL/MOL
REMARK 927      BINDING AFFINITY PREDICTED BY RF-SCORE:    0.00 PKD
ROOT
HETATM    1  N   UNL     1     -11.287   6.369  67.945  1.00  0.00    -0.625 NA 
HETATM    2  H1  UNL     1     -11.988   6.578  67.235  1.00  0.00     0.000 HD 
HETATM    3  H2  UNL     1     -10.922   5.419  67.866  1.00  0.00     0.000 HD 
HETATM    4  N   UNL     1     -11.847   6.635  69.246  1.00  0.00    -0.530 NA 
HETATM    5  H   UNL     1     -12.721   6.134  69.403  1.00  0.00     0.000 HD 
ENDROOT
BRANCH   4   6
HETATM    6  C   UNL     1     -10.836   6.334  70.270  1.00  0.00    -0.304 C  
BRANCH   6   7
HETATM    7  C   UNL     1     -10.177   7.622  70.779  1.00  0.00    -0.201 C  
BRANCH   7   8
HETATM    8  C   UNL     1     -11.217   8.658  71.136  1.00  0.00    -0.329 A  
HETATM    9  C   UNL     1     -12.212   8.366  72.079  1.00  0.00    -0.419 A  
HETATM   10  C   UNL     1     -13.207   9.301  72.366  1.00  0.00    -0.501 A  
HETATM   11  C   UNL     1     -13.218  10.533  71.714  1.00  0.00    -0.522 A  
HETATM   12  C   UNL     1     -12.231  10.833  70.778  1.00  0.00    -0.480 A  
HETATM   13  C   UNL     1     -11.234   9.900  70.488  1.00  0.00    -0.399 A  
ENDBRANCH   7   8
ENDBRANCH   6   7
ENDBRANCH   4   6
TORSDOF 3
ENDMDL
MODEL       59
REMARK 921   NORMALIZED FREE ENERGY PREDICTED BY IDOCK:   -3.58 KCAL/MOL
REMARK 922        TOTAL FREE ENERGY PREDICTED BY IDOCK:   -4.31 KCAL/MOL
REMARK 923 INTER-LIGAND FREE ENERGY PREDICTED BY IDOCK:   -4.20 KCAL/MOL
REMARK 924 INTRA-LIGAND FREE ENERGY PREDICTED BY IDOCK:   -0.11 KCAL/MOL
REMARK 927      BINDING AFFINITY PREDICTED BY RF-SCORE:    0.00 PKD
ROOT
HETATM    1  N   UNL     1      -8.815  14.782  69.548  1.00  0.00    -0.424 NA 
HETATM    2  H1  UNL     1      -7.969  14.870  70.112  1.00  0.00     0.000 HD 
HETATM    3  H2  UNL     1      -8.746  15.285  68.663  1.00  0.00     0.000 HD 
HETATM    4  N   UNL     1      -9.946  15.207  70.335  1.00  0.00    -0.428 NA 
HETATM    5  H   UNL     1      -9.825  16.146  70.713  1.00  0.00     0.000 HD 
ENDROOT
BRANCH   4   6
HETATM    6  C   UNL     1     -11.165  15.081  69.522  1.00  0.00    -0.276 C  
BRANCH   6   7
HETATM    7  C   UNL     1     -12.360  14.680  70.394  1.00  0.00    -0.399 C  
BRANCH   7   8
HETATM    8  C   UNL     1     -12.400  13.186  70.606  1.00  0.00    -0.405 A  
HETATM    9  C   UNL     1     -11.818  12.322  69.667  1.00  0.00    -0.393 A  
HETATM   10  C   UNL     1     -11.905  10.939  69.831  1.00  0.00    -0.427 A  
HETATM   11  C   UNL     1     -12.575  10.408  70.932  1.00  0.00    -0.478 A  
HETATM   12  C   UNL     1     -13.154  11.257  71.872  1.00  0.00    -0.510 A  
HETATM   13  C   UNL     1     -13.068  12.642  71.711  1.00  0.00    -0.461 A  
ENDBRANCH   7   8
ENDBRANCH   6   7
ENDBRANCH   4   6
TORSDOF 3
ENDMDL
MODEL       60
REMARK 921   NORMALIZED FREE ENERGY PREDICTED BY IDOCK:   -3.55 KCAL/MOL
REMARK 922        TOTAL FREE ENERGY PREDICTED BY IDOCK:   -4.28 KCAL/MOL
REMARK 923 INTER-LIGAND FREE ENERGY PREDICTED BY IDOCK:   -4.19 KCAL/MOL
REMARK 924 INTRA-LIGAND FREE ENERGY PREDICTED BY IDOCK:   -0.09 KCAL/MOL
REMARK 927      BINDING AFFINITY PREDICTED BY RF-SCORE:    0.00 PKD
ROOT
HETATM    1  N   UNL     1      -9.779  12.760  63.733  1.00  0.00    -0.648 NA 
HETATM    2  H1  UNL     1      -9.988  12.976  62.758  1.00  0.00     0.000 HD 
HETATM    3  H2  UNL     1     -10.132  11.844  64.013  1.00  0.00     0.000 HD 
HETATM    4  N   UNL     1     -10.285  13.822  64.565  1.00  0.00    -0.675 NA 
HETATM    5  H   UNL     1     -11.277  13.999  64.409  1.00  0.00     0.000 HD 
ENDROOT
BRANCH   4   6
HETATM    6  C   UNL     1      -9.984  13.510  65.970  1.00  0.00    -0.299 C  
BRANCH   6   7
HETATM    7  C   UNL     1     -11.225  12.957  66.681  1.00  0.00    -0.342 C  
BRANCH   7   8
HETATM    8  C   UNL     1     -11.502  13.717  67.956  1.00  0.00    -0.345 A  
HETATM    9  C   UNL     1     -11.937  13.040  69.103  1.00  0.00    -0.320 A  
HETATM   10  C   UNL     1     -12.251  13.748  70.264  1.00  0.00    -0.429 A  
HETATM   11  C   UNL     1     -12.134  15.137  70.289  1.00  0.00    -0.385 A  
HETATM   12  C   UNL     1     -11.699  15.819  69.154  1.00  0.00    -0.398 A  
HETATM   13  C   UNL     1     -11.384  15.113  67.991  1.00  0.00    -0.346 A  
ENDBRANCH   7   8
ENDBRANCH   6   7
ENDBRANCH   4   6
TORSDOF 3
ENDMDL
MODEL       61
REMARK 921   NORMALIZED FREE ENERGY PREDICTED BY IDOCK:   -3.54 KCAL/MOL
REMARK 922        TOTAL FREE ENERGY PREDICTED BY IDOCK:   -4.27 KCAL/MOL
REMARK 923 INTER-LIGAND FREE ENERGY PREDICTED BY IDOCK:   -4.19 KCAL/MOL
REMARK 924 INTRA-LIGAND FREE ENERGY PREDICTED BY IDOCK:   -0.09 KCAL/MOL
REMARK 927      BINDING AFFINITY PREDICTED BY RF-SCORE:    0.00 PKD
ROOT
HETATM    1  N   UNL     1     -11.075   5.555  66.169  1.00  0.00    -0.778 NA 
HETATM    2  H1  UNL     1     -11.662   4.723  66.250  1.00  0.00     0.000 HD 
HETATM    3  H2  UNL     1     -10.080   5.330  66.163  1.00  0.00     0.000 HD 
HETATM    4  N   UNL     1     -11.424   6.476  67.221  1.00  0.00    -0.743 NA 
HETATM    5  H   UNL     1     -11.369   6.049  68.145  1.00  0.00     0.000 HD 
ENDROOT
BRANCH   4   6
HETATM    6  C   UNL     1     -10.580   7.673  67.104  1.00  0.00    -0.340 C  
BRANCH   6   7
HETATM    7  C   UNL     1     -10.260   8.250  68.489  1.00  0.00    -0.234 C  
BRANCH   7   8
HETATM    8  C   UNL     1     -10.726   9.682  68.600  1.00  0.00    -0.233 A  
HETATM    9  C   UNL     1     -11.093  10.212  69.844  1.00  0.00    -0.346 A  
HETATM   10  C   UNL     1     -11.579  11.516  69.940  1.00  0.00    -0.387 A  
HETATM   11  C   UNL     1     -11.704  12.301  68.794  1.00  0.00    -0.390 A  
HETATM   12  C   UNL     1     -11.338  11.784  67.553  1.00  0.00    -0.377 A  
HETATM   13  C   UNL     1     -10.851  10.479  67.455  1.00  0.00    -0.357 A  
ENDBRANCH   7   8
ENDBRANCH   6   7
ENDBRANCH   4   6
TORSDOF 3
ENDMDL
MODEL       62
REMARK 921   NORMALIZED FREE ENERGY PREDICTED BY IDOCK:   -3.54 KCAL/MOL
REMARK 922        TOTAL FREE ENERGY PREDICTED BY IDOCK:   -4.26 KCAL/MOL
REMARK 923 INTER-LIGAND FREE ENERGY PREDICTED BY IDOCK:   -4.13 KCAL/MOL
REMARK 924 INTRA-LIGAND FREE ENERGY PREDICTED BY IDOCK:   -0.13 KCAL/MOL
REMARK 927      BINDING AFFINITY PREDICTED BY RF-SCORE:    0.00 PKD
ROOT
HETATM    1  N   UNL     1      -9.133  13.767  69.068  1.00  0.00    -0.372 NA 
HETATM    2  H1  UNL     1      -8.554  14.425  69.590  1.00  0.00     0.000 HD 
HETATM    3  H2  UNL     1      -8.823  13.657  68.102  1.00  0.00     0.000 HD 
HETATM    4  N   UNL     1     -10.509  14.183  69.160  1.00  0.00    -0.394 NA 
HETATM    5  H   UNL     1     -10.645  15.147  68.856  1.00  0.00     0.000 HD 
ENDROOT
BRANCH   4   6
HETATM    6  C   UNL     1     -11.344  13.235  68.407  1.00  0.00    -0.291 C  
BRANCH   6   7
HETATM    7  C   UNL     1     -12.040  13.936  67.234  1.00  0.00    -0.403 C  
BRANCH   7   8
HETATM    8  C   UNL     1     -11.822  13.180  65.946  1.00  0.00    -0.453 A  
HETATM    9  C   UNL     1     -10.949  12.084  65.907  1.00  0.00    -0.342 A  
HETATM   10  C   UNL     1     -10.702  11.421  64.704  1.00  0.00    -0.378 A  
HETATM   11  C   UNL     1     -11.324  11.847  63.531  1.00  0.00    -0.516 A  
HETATM   12  C   UNL     1     -12.197  12.932  63.560  1.00  0.00    -0.595 A  
HETATM   13  C   UNL     1     -12.446  13.597  64.763  1.00  0.00    -0.391 A  
ENDBRANCH   7   8
ENDBRANCH   6   7
ENDBRANCH   4   6
TORSDOF 3
ENDMDL
MODEL       63
REMARK 921   NORMALIZED FREE ENERGY PREDICTED BY IDOCK:   -3.53 KCAL/MOL
REMARK 922        TOTAL FREE ENERGY PREDICTED BY IDOCK:   -4.26 KCAL/MOL
REMARK 923 INTER-LIGAND FREE ENERGY PREDICTED BY IDOCK:   -4.19 KCAL/MOL
REMARK 924 INTRA-LIGAND FREE ENERGY PREDICTED BY IDOCK:   -0.07 KCAL/MOL
REMARK 927      BINDING AFFINITY PREDICTED BY RF-SCORE:    0.00 PKD
ROOT
HETATM    1  N   UNL     1     -13.628  14.091  72.711  1.00  0.00    -0.689 NA 
HETATM    2  H1  UNL     1     -14.264  14.514  73.388  1.00  0.00     0.000 HD 
HETATM    3  H2  UNL     1     -13.645  14.568  71.810  1.00  0.00     0.000 HD 
HETATM    4  N   UNL     1     -13.937  12.688  72.596  1.00  0.00    -0.586 NA 
HETATM    5  H   UNL     1     -14.917  12.523  72.365  1.00  0.00     0.000 HD 
ENDROOT
BRANCH   4   6
HETATM    6  C   UNL     1     -13.022  12.078  71.620  1.00  0.00    -0.334 C  
BRANCH   6   7
HETATM    7  C   UNL     1     -12.958  10.558  71.811  1.00  0.00    -0.582 C  
BRANCH   7   8
HETATM    8  C   UNL     1     -11.702   9.987  71.200  1.00  0.00    -0.472 A  
HETATM    9  C   UNL     1     -11.038   8.917  71.815  1.00  0.00    -0.433 A  
HETATM   10  C   UNL     1      -9.844   8.427  71.283  1.00  0.00    -0.255 A  
HETATM   11  C   UNL     1      -9.304   9.002  70.134  1.00  0.00    -0.213 A  
HETATM   12  C   UNL     1      -9.957  10.064  69.513  1.00  0.00    -0.249 A  
HETATM   13  C   UNL     1     -11.152  10.556  70.043  1.00  0.00    -0.376 A  
ENDBRANCH   7   8
ENDBRANCH   6   7
ENDBRANCH   4   6
TORSDOF 3
ENDMDL
MODEL       64
REMARK 921   NORMALIZED FREE ENERGY PREDICTED BY IDOCK:   -3.53 KCAL/MOL
REMARK 922        TOTAL FREE ENERGY PREDICTED BY IDOCK:   -4.26 KCAL/MOL
REMARK 923 INTER-LIGAND FREE ENERGY PREDICTED BY IDOCK:   -4.17 KCAL/MOL
REMARK 924 INTRA-LIGAND FREE ENERGY PREDICTED BY IDOCK:   -0.09 KCAL/MOL
REMARK 927      BINDING AFFINITY PREDICTED BY RF-SCORE:    0.00 PKD
ROOT
HETATM    1  N   UNL     1      -9.347   7.474  66.044  1.00  0.00    -0.388 NA 
HETATM    2  H1  UNL     1      -9.164   6.500  65.802  1.00  0.00     0.000 HD 
HETATM    3  H2  UNL     1     -10.315   7.628  66.329  1.00  0.00     0.000 HD 
HETATM    4  N   UNL     1      -8.960   8.311  64.937  1.00  0.00    -0.393 NA 
HETATM    5  H   UNL     1      -9.411   8.035  64.065  1.00  0.00     0.000 HD 
ENDROOT
BRANCH   4   6
HETATM    6  C   UNL     1      -9.225   9.714  65.286  1.00  0.00    -0.237 C  
BRANCH   6   7
HETATM    7  C   UNL     1      -9.699  10.499  64.057  1.00  0.00    -0.383 C  
BRANCH   7   8
HETATM    8  C   UNL     1     -10.710  11.553  64.444  1.00  0.00    -0.404 A  
HETATM    9  C   UNL     1     -11.312  12.350  63.462  1.00  0.00    -0.553 A  
HETATM   10  C   UNL     1     -12.201  13.363  63.824  1.00  0.00    -0.482 A  
HETATM   11  C   UNL     1     -12.495  13.588  65.168  1.00  0.00    -0.495 A  
HETATM   12  C   UNL     1     -11.904  12.799  66.151  1.00  0.00    -0.484 A  
HETATM   13  C   UNL     1     -11.014  11.784  65.792  1.00  0.00    -0.353 A  
ENDBRANCH   7   8
ENDBRANCH   6   7
ENDBRANCH   4   6
TORSDOF 3
ENDMDL
MODEL       65
REMARK 921   NORMALIZED FREE ENERGY PREDICTED BY IDOCK:   -3.52 KCAL/MOL
REMARK 922        TOTAL FREE ENERGY PREDICTED BY IDOCK:   -4.24 KCAL/MOL
REMARK 923 INTER-LIGAND FREE ENERGY PREDICTED BY IDOCK:   -4.29 KCAL/MOL
REMARK 924 INTRA-LIGAND FREE ENERGY PREDICTED BY IDOCK:    0.05 KCAL/MOL
REMARK 927      BINDING AFFINITY PREDICTED BY RF-SCORE:    0.00 PKD
ROOT
HETATM    1  N   UNL     1     -10.020   9.971  62.331  1.00  0.00    -0.654 NA 
HETATM    2  H1  UNL     1     -10.190   9.251  61.627  1.00  0.00     0.000 HD 
HETATM    3  H2  UNL     1      -9.545  10.787  61.946  1.00  0.00     0.000 HD 
HETATM    4  N   UNL     1      -9.301   9.384  63.433  1.00  0.00    -0.459 NA 
HETATM    5  H   UNL     1      -8.443   8.921  63.134  1.00  0.00     0.000 HD 
ENDROOT
BRANCH   4   6
HETATM    6  C   UNL     1      -9.056  10.420  64.447  1.00  0.00    -0.234 C  
BRANCH   6   7
HETATM    7  C   UNL     1     -10.158  10.408  65.513  1.00  0.00    -0.352 C  
BRANCH   7   8
HETATM    8  C   UNL     1     -10.975  11.677  65.462  1.00  0.00    -0.327 A  
HETATM    9  C   UNL     1     -11.469  12.249  66.642  1.00  0.00    -0.431 A  
HETATM   10  C   UNL     1     -12.273  13.388  66.591  1.00  0.00    -0.391 A  
HETATM   11  C   UNL     1     -12.592  13.964  65.363  1.00  0.00    -0.538 A  
HETATM   12  C   UNL     1     -12.103  13.405  64.184  1.00  0.00    -0.491 A  
HETATM   13  C   UNL     1     -11.298  12.265  64.232  1.00  0.00    -0.415 A  
ENDBRANCH   7   8
ENDBRANCH   6   7
ENDBRANCH   4   6
TORSDOF 3
ENDMDL
MODEL       66
REMARK 921   NORMALIZED FREE ENERGY PREDICTED BY IDOCK:   -3.51 KCAL/MOL
REMARK 922        TOTAL FREE ENERGY PREDICTED BY IDOCK:   -4.24 KCAL/MOL
REMARK 923 INTER-LIGAND FREE ENERGY PREDICTED BY IDOCK:   -4.14 KCAL/MOL
REMARK 924 INTRA-LIGAND FREE ENERGY PREDICTED BY IDOCK:   -0.10 KCAL/MOL
REMARK 927      BINDING AFFINITY PREDICTED BY RF-SCORE:    0.00 PKD
ROOT
HETATM    1  N   UNL     1      -9.088  13.162  65.954  1.00  0.00    -0.395 NA 
HETATM    2  H1  UNL     1      -8.615  12.440  65.409  1.00  0.00     0.000 HD 
HETATM    3  H2  UNL     1      -9.531  12.787  66.794  1.00  0.00     0.000 HD 
HETATM    4  N   UNL     1     -10.021  13.854  65.102  1.00  0.00    -0.583 NA 
HETATM    5  H   UNL     1     -10.676  13.219  64.646  1.00  0.00     0.000 HD 
ENDROOT
BRANCH   4   6
HETATM    6  C   UNL     1     -10.703  14.893  65.888  1.00  0.00    -0.323 C  
BRANCH   6   7
HETATM    7  C   UNL     1     -10.513  16.272  65.245  1.00  0.00    -0.324 C  
BRANCH   7   8
HETATM    8  C   UNL     1     -10.348  17.342  66.298  1.00  0.00    -0.323 A  
HETATM    9  C   UNL     1      -9.977  16.998  67.605  1.00  0.00    -0.280 A  
HETATM   10  C   UNL     1      -9.882  17.979  68.593  1.00  0.00    -0.383 A  
HETATM   11  C   UNL     1     -10.158  19.310  68.285  1.00  0.00    -0.516 A  
HETATM   12  C   UNL     1     -10.525  19.662  66.988  1.00  0.00    -0.600 A  
HETATM   13  C   UNL     1     -10.620  18.683  65.997  1.00  0.00    -0.410 A  
ENDBRANCH   7   8
ENDBRANCH   6   7
ENDBRANCH   4   6
TORSDOF 3
ENDMDL
MODEL       67
REMARK 921   NORMALIZED FREE ENERGY PREDICTED BY IDOCK:   -3.50 KCAL/MOL
REMARK 922        TOTAL FREE ENERGY PREDICTED BY IDOCK:   -4.23 KCAL/MOL
REMARK 923 INTER-LIGAND FREE ENERGY PREDICTED BY IDOCK:   -4.15 KCAL/MOL
REMARK 924 INTRA-LIGAND FREE ENERGY PREDICTED BY IDOCK:   -0.08 KCAL/MOL
REMARK 927      BINDING AFFINITY PREDICTED BY RF-SCORE:    0.00 PKD
ROOT
HETATM    1  N   UNL     1     -11.403  15.803  69.548  1.00  0.00    -0.302 NA 
HETATM    2  H1  UNL     1     -11.844  16.506  70.142  1.00  0.00     0.000 HD 
HETATM    3  H2  UNL     1     -10.584  16.165  69.058  1.00  0.00     0.000 HD 
HETATM    4  N   UNL     1     -12.391  15.268  68.646  1.00  0.00    -0.560 NA 
HETATM    5  H   UNL     1     -12.859  15.996  68.106  1.00  0.00     0.000 HD 
ENDROOT
BRANCH   4   6
HETATM    6  C   UNL     1     -11.755  14.256  67.790  1.00  0.00    -0.374 C  
BRANCH   6   7
HETATM    7  C   UNL     1     -12.487  14.142  66.447  1.00  0.00    -0.353 C  
BRANCH   7   8
HETATM    8  C   UNL     1     -11.835  13.107  65.561  1.00  0.00    -0.420 A  
HETATM    9  C   UNL     1     -11.081  12.068  66.123  1.00  0.00    -0.367 A  
HETATM   10  C   UNL     1     -10.430  11.146  65.303  1.00  0.00    -0.326 A  
HETATM   11  C   UNL     1     -10.525  11.255  63.917  1.00  0.00    -0.452 A  
HETATM   12  C   UNL     1     -11.275  12.282  63.349  1.00  0.00    -0.497 A  
HETATM   13  C   UNL     1     -11.928  13.206  64.167  1.00  0.00    -0.499 A  
ENDBRANCH   7   8
ENDBRANCH   6   7
ENDBRANCH   4   6
TORSDOF 3
ENDMDL
MODEL       68
REMARK 921   NORMALIZED FREE ENERGY PREDICTED BY IDOCK:   -3.50 KCAL/MOL
REMARK 922        TOTAL FREE ENERGY PREDICTED BY IDOCK:   -4.23 KCAL/MOL
REMARK 923 INTER-LIGAND FREE ENERGY PREDICTED BY IDOCK:   -4.15 KCAL/MOL
REMARK 924 INTRA-LIGAND FREE ENERGY PREDICTED BY IDOCK:   -0.08 KCAL/MOL
REMARK 927      BINDING AFFINITY PREDICTED BY RF-SCORE:    0.00 PKD
ROOT
HETATM    1  N   UNL     1     -11.140   8.975  68.230  1.00  0.00    -0.467 NA 
HETATM    2  H1  UNL     1     -11.713   8.222  68.614  1.00  0.00     0.000 HD 
HETATM    3  H2  UNL     1     -10.194   8.978  68.612  1.00  0.00     0.000 HD 
HETATM    4  N   UNL     1     -11.820  10.228  68.435  1.00  0.00    -0.717 NA 
HETATM    5  H   UNL     1     -12.063  10.384  69.413  1.00  0.00     0.000 HD 
ENDROOT
BRANCH   4   6
HETATM    6  C   UNL     1     -10.996  11.313  67.882  1.00  0.00    -0.248 C  
BRANCH   6   7
HETATM    7  C   UNL     1     -11.596  12.682  68.226  1.00  0.00    -0.377 C  
BRANCH   7   8
HETATM    8  C   UNL     1     -11.564  13.603  67.031  1.00  0.00    -0.389 A  
HETATM    9  C   UNL     1     -12.291  13.288  65.875  1.00  0.00    -0.479 A  
HETATM   10  C   UNL     1     -12.215  14.109  64.748  1.00  0.00    -0.457 A  
HETATM   11  C   UNL     1     -11.413  15.248  64.767  1.00  0.00    -0.364 A  
HETATM   12  C   UNL     1     -10.689  15.572  65.913  1.00  0.00    -0.346 A  
HETATM   13  C   UNL     1     -10.763  14.753  67.041  1.00  0.00    -0.300 A  
ENDBRANCH   7   8
ENDBRANCH   6   7
ENDBRANCH   4   6
TORSDOF 3
ENDMDL
MODEL       69
REMARK 921   NORMALIZED FREE ENERGY PREDICTED BY IDOCK:   -3.50 KCAL/MOL
REMARK 922        TOTAL FREE ENERGY PREDICTED BY IDOCK:   -4.23 KCAL/MOL
REMARK 923 INTER-LIGAND FREE ENERGY PREDICTED BY IDOCK:   -4.13 KCAL/MOL
REMARK 924 INTRA-LIGAND FREE ENERGY PREDICTED BY IDOCK:   -0.10 KCAL/MOL
REMARK 927      BINDING AFFINITY PREDICTED BY RF-SCORE:    0.00 PKD
ROOT
HETATM    1  N   UNL     1     -11.819  11.481  67.273  1.00  0.00    -0.604 NA 
HETATM    2  H1  UNL     1     -12.644  11.954  66.903  1.00  0.00     0.000 HD 
HETATM    3  H2  UNL     1     -11.392  10.851  66.593  1.00  0.00     0.000 HD 
HETATM    4  N   UNL     1     -12.177  10.809  68.496  1.00  0.00    -0.822 NA 
HETATM    5  H   UNL     1     -12.967  10.175  68.375  1.00  0.00     0.000 HD 
ENDROOT
BRANCH   4   6
HETATM    6  C   UNL     1     -10.989  10.127  69.031  1.00  0.00    -0.226 C  
BRANCH   6   7
HETATM    7  C   UNL     1     -11.051  10.044  70.560  1.00  0.00    -0.400 C  
BRANCH   7   8
HETATM    8  C   UNL     1     -11.037   8.608  71.026  1.00  0.00    -0.316 A  
HETATM    9  C   UNL     1     -11.013   7.562  70.094  1.00  0.00    -0.267 A  
HETATM   10  C   UNL     1     -11.059   6.235  70.522  1.00  0.00    -0.399 A  
HETATM   11  C   UNL     1     -11.131   5.942  71.883  1.00  0.00    -0.325 A  
HETATM   12  C   UNL     1     -11.152   6.975  72.818  1.00  0.00    -0.320 A  
HETATM   13  C   UNL     1     -11.105   8.304  72.392  1.00  0.00    -0.447 A  
ENDBRANCH   7   8
ENDBRANCH   6   7
ENDBRANCH   4   6
TORSDOF 3
ENDMDL
MODEL       70
REMARK 921   NORMALIZED FREE ENERGY PREDICTED BY IDOCK:   -3.50 KCAL/MOL
REMARK 922        TOTAL FREE ENERGY PREDICTED BY IDOCK:   -4.22 KCAL/MOL
REMARK 923 INTER-LIGAND FREE ENERGY PREDICTED BY IDOCK:   -4.14 KCAL/MOL
REMARK 924 INTRA-LIGAND FREE ENERGY PREDICTED BY IDOCK:   -0.08 KCAL/MOL
REMARK 927      BINDING AFFINITY PREDICTED BY RF-SCORE:    0.00 PKD
ROOT
HETATM    1  N   UNL     1     -11.450   4.579  64.987  1.00  0.00    -1.108 NA 
HETATM    2  H1  UNL     1     -11.224   4.190  64.071  1.00  0.00     0.000 HD 
HETATM    3  H2  UNL     1     -12.144   5.325  64.934  1.00  0.00     0.000 HD 
HETATM    4  N   UNL     1     -10.231   5.008  65.625  1.00  0.00    -0.417 NA 
HETATM    5  H   UNL     1      -9.697   5.657  65.047  1.00  0.00     0.000 HD 
ENDROOT
BRANCH   4   6
HETATM    6  C   UNL     1     -10.556   5.568  66.945  1.00  0.00    -0.278 C  
BRANCH   6   7
HETATM    7  C   UNL     1      -9.760   4.859  68.047  1.00  0.00    -0.202 C  
BRANCH   7   8
HETATM    8  C   UNL     1     -10.218   5.301  69.416  1.00  0.00    -0.321 A  
HETATM    9  C   UNL     1      -9.694   4.698  70.567  1.00  0.00    -0.284 A  
HETATM   10  C   UNL     1     -10.160   5.064  71.830  1.00  0.00    -0.257 A  
HETATM   11  C   UNL     1     -11.153   6.035  71.954  1.00  0.00    -0.331 A  
HETATM   12  C   UNL     1     -11.678   6.643  70.816  1.00  0.00    -0.445 A  
HETATM   13  C   UNL     1     -11.213   6.278  69.551  1.00  0.00    -0.500 A  
ENDBRANCH   7   8
ENDBRANCH   6   7
ENDBRANCH   4   6
TORSDOF 3
ENDMDL
MODEL       71
REMARK 921   NORMALIZED FREE ENERGY PREDICTED BY IDOCK:   -3.44 KCAL/MOL
REMARK 922        TOTAL FREE ENERGY PREDICTED BY IDOCK:   -4.15 KCAL/MOL
REMARK 923 INTER-LIGAND FREE ENERGY PREDICTED BY IDOCK:   -4.07 KCAL/MOL
REMARK 924 INTRA-LIGAND FREE ENERGY PREDICTED BY IDOCK:   -0.08 KCAL/MOL
REMARK 927      BINDING AFFINITY PREDICTED BY RF-SCORE:    0.00 PKD
ROOT
HETATM    1  N   UNL     1     -11.677   5.138  73.229  1.00  0.00    -0.511 NA 
HETATM    2  H1  UNL     1     -12.227   4.341  73.549  1.00  0.00     0.000 HD 
HETATM    3  H2  UNL     1     -11.214   5.625  73.996  1.00  0.00     0.000 HD 
HETATM    4  N   UNL     1     -12.527   6.011  72.458  1.00  0.00    -0.513 NA 
HETATM    5  H   UNL     1     -13.361   6.294  72.971  1.00  0.00     0.000 HD 
ENDROOT
BRANCH   4   6
HETATM    6  C   UNL     1     -11.735   7.160  71.996  1.00  0.00    -0.289 C  
BRANCH   6   7
HETATM    7  C   UNL     1     -12.418   8.479  72.376  1.00  0.00    -0.416 C  
BRANCH   7   8
HETATM    8  C   UNL     1     -12.001   9.593  71.447  1.00  0.00    -0.480 A  
HETATM    9  C   UNL     1     -12.695  10.811  71.445  1.00  0.00    -0.544 A  
HETATM   10  C   UNL     1     -12.347  11.819  70.545  1.00  0.00    -0.387 A  
HETATM   11  C   UNL     1     -11.307  11.620  69.640  1.00  0.00    -0.308 A  
HETATM   12  C   UNL     1     -10.609  10.414  69.636  1.00  0.00    -0.289 A  
HETATM   13  C   UNL     1     -10.954   9.403  70.535  1.00  0.00    -0.332 A  
ENDBRANCH   7   8
ENDBRANCH   6   7
ENDBRANCH   4   6
TORSDOF 3
ENDMDL
MODEL       72
REMARK 921   NORMALIZED FREE ENERGY PREDICTED BY IDOCK:   -3.42 KCAL/MOL
REMARK 922        TOTAL FREE ENERGY PREDICTED BY IDOCK:   -4.13 KCAL/MOL
REMARK 923 INTER-LIGAND FREE ENERGY PREDICTED BY IDOCK:   -4.02 KCAL/MOL
REMARK 924 INTRA-LIGAND FREE ENERGY PREDICTED BY IDOCK:   -0.11 KCAL/MOL
REMARK 927      BINDING AFFINITY PREDICTED BY RF-SCORE:    0.00 PKD
ROOT
HETATM    1  N   UNL     1     -11.028   5.729  66.298  1.00  0.00    -0.737 NA 
HETATM    2  H1  UNL     1     -11.789   5.100  66.040  1.00  0.00     0.000 HD 
HETATM    3  H2  UNL     1     -10.186   5.227  66.581  1.00  0.00     0.000 HD 
HETATM    4  N   UNL     1     -11.497   6.633  67.318  1.00  0.00    -0.749 NA 
HETATM    5  H   UNL     1     -11.887   6.142  68.123  1.00  0.00     0.000 HD 
ENDROOT
BRANCH   4   6
HETATM    6  C   UNL     1     -10.401   7.539  67.691  1.00  0.00    -0.229 C  
BRANCH   6   7
HETATM    7  C   UNL     1     -10.013   8.437  66.511  1.00  0.00    -0.335 C  
BRANCH   7   8
HETATM    8  C   UNL     1     -10.510   9.848  66.716  1.00  0.00    -0.261 A  
HETATM    9  C   UNL     1     -10.323  10.816  65.721  1.00  0.00    -0.295 A  
HETATM   10  C   UNL     1     -10.729  12.134  65.933  1.00  0.00    -0.302 A  
HETATM   11  C   UNL     1     -11.323  12.496  67.141  1.00  0.00    -0.381 A  
HETATM   12  C   UNL     1     -11.516  11.540  68.136  1.00  0.00    -0.385 A  
HETATM   13  C   UNL     1     -11.111  10.220  67.926  1.00  0.00    -0.341 A  
ENDBRANCH   7   8
ENDBRANCH   6   7
ENDBRANCH   4   6
TORSDOF 3
ENDMDL
MODEL       73
REMARK 921   NORMALIZED FREE ENERGY PREDICTED BY IDOCK:   -3.42 KCAL/MOL
REMARK 922        TOTAL FREE ENERGY PREDICTED BY IDOCK:   -4.12 KCAL/MOL
REMARK 923 INTER-LIGAND FREE ENERGY PREDICTED BY IDOCK:   -4.01 KCAL/MOL
REMARK 924 INTRA-LIGAND FREE ENERGY PREDICTED BY IDOCK:   -0.12 KCAL/MOL
REMARK 927      BINDING AFFINITY PREDICTED BY RF-SCORE:    0.00 PKD
ROOT
HETATM    1  N   UNL     1      -9.753  11.571  69.130  1.00  0.00    -0.412 NA 
HETATM    2  H1  UNL     1      -8.949  12.184  68.996  1.00  0.00     0.000 HD 
HETATM    3  H2  UNL     1      -9.876  10.915  68.359  1.00  0.00     0.000 HD 
HETATM    4  N   UNL     1     -10.924  12.380  69.355  1.00  0.00    -0.453 NA 
HETATM    5  H   UNL     1     -11.074  13.062  68.611  1.00  0.00     0.000 HD 
ENDROOT
BRANCH   4   6
HETATM    6  C   UNL     1     -12.083  11.497  69.548  1.00  0.00    -0.284 C  
BRANCH   6   7
HETATM    7  C   UNL     1     -12.309  11.215  71.038  1.00  0.00    -0.487 C  
BRANCH   7   8
HETATM    8  C   UNL     1     -12.673   9.767  71.266  1.00  0.00    -0.464 A  
HETATM    9  C   UNL     1     -11.709   8.762  71.108  1.00  0.00    -0.344 A  
HETATM   10  C   UNL     1     -12.059   7.420  71.261  1.00  0.00    -0.359 A  
HETATM   11  C   UNL     1     -13.372   7.071  71.571  1.00  0.00    -0.370 A  
HETATM   12  C   UNL     1     -14.336   8.063  71.734  1.00  0.00    -0.583 A  
HETATM   13  C   UNL     1     -13.989   9.407  71.582  1.00  0.00    -0.250 A  
ENDBRANCH   7   8
ENDBRANCH   6   7
ENDBRANCH   4   6
TORSDOF 3
ENDMDL
MODEL       74
REMARK 921   NORMALIZED FREE ENERGY PREDICTED BY IDOCK:   -3.41 KCAL/MOL
REMARK 922        TOTAL FREE ENERGY PREDICTED BY IDOCK:   -4.12 KCAL/MOL
REMARK 923 INTER-LIGAND FREE ENERGY PREDICTED BY IDOCK:   -4.00 KCAL/MOL
REMARK 924 INTRA-LIGAND FREE ENERGY PREDICTED BY IDOCK:   -0.12 KCAL/MOL
REMARK 927      BINDING AFFINITY PREDICTED BY RF-SCORE:    0.00 PKD
ROOT
HETATM    1  N   UNL     1      -8.955  20.248  66.022  1.00  0.00    -0.594 NA 
HETATM    2  H1  UNL     1      -8.198  20.933  66.017  1.00  0.00     0.000 HD 
HETATM    3  H2  UNL     1      -9.674  20.458  65.330  1.00  0.00     0.000 HD 
HETATM    4  N   UNL     1      -9.489  20.154  67.358  1.00  0.00    -0.378 NA 
HETATM    5  H   UNL     1      -9.780  21.060  67.725  1.00  0.00     0.000 HD 
ENDROOT
BRANCH   4   6
HETATM    6  C   UNL     1     -10.580  19.168  67.366  1.00  0.00    -0.481 C  
BRANCH   6   7
HETATM    7  C   UNL     1     -10.166  17.905  68.130  1.00  0.00    -0.386 C  
BRANCH   7   8
HETATM    8  C   UNL     1     -10.606  16.661  67.397  1.00  0.00    -0.295 A  
HETATM    9  C   UNL     1     -11.311  15.655  68.071  1.00  0.00    -0.324 A  
HETATM   10  C   UNL     1     -11.667  14.478  67.410  1.00  0.00    -0.425 A  
HETATM   11  C   UNL     1     -11.320  14.296  66.072  1.00  0.00    -0.335 A  
HETATM   12  C   UNL     1     -10.622  15.292  65.393  1.00  0.00    -0.413 A  
HETATM   13  C   UNL     1     -10.265  16.470  66.051  1.00  0.00    -0.372 A  
ENDBRANCH   7   8
ENDBRANCH   6   7
ENDBRANCH   4   6
TORSDOF 3
ENDMDL
MODEL       75
REMARK 921   NORMALIZED FREE ENERGY PREDICTED BY IDOCK:   -3.41 KCAL/MOL
REMARK 922        TOTAL FREE ENERGY PREDICTED BY IDOCK:   -4.11 KCAL/MOL
REMARK 923 INTER-LIGAND FREE ENERGY PREDICTED BY IDOCK:   -4.02 KCAL/MOL
REMARK 924 INTRA-LIGAND FREE ENERGY PREDICTED BY IDOCK:   -0.09 KCAL/MOL
REMARK 927      BINDING AFFINITY PREDICTED BY RF-SCORE:    0.00 PKD
ROOT
HETATM    1  N   UNL     1      -8.432  12.428  68.553  1.00  0.00    -0.322 NA 
HETATM    2  H1  UNL     1      -7.902  13.281  68.371  1.00  0.00     0.000 HD 
HETATM    3  H2  UNL     1      -8.272  11.712  67.844  1.00  0.00     0.000 HD 
HETATM    4  N   UNL     1      -9.827  12.766  68.688  1.00  0.00    -0.398 NA 
HETATM    5  H   UNL     1     -10.182  13.281  67.882  1.00  0.00     0.000 HD 
ENDROOT
BRANCH   4   6
HETATM    6  C   UNL     1     -10.591  11.537  68.949  1.00  0.00    -0.204 C  
BRANCH   6   7
HETATM    7  C   UNL     1     -11.673  11.785  70.006  1.00  0.00    -0.386 C  
BRANCH   7   8
HETATM    8  C   UNL     1     -11.883  10.560  70.864  1.00  0.00    -0.455 A  
HETATM    9  C   UNL     1     -13.120  10.332  71.481  1.00  0.00    -0.534 A  
HETATM   10  C   UNL     1     -13.297   9.232  72.322  1.00  0.00    -0.547 A  
HETATM   11  C   UNL     1     -12.240   8.353  72.554  1.00  0.00    -0.381 A  
HETATM   12  C   UNL     1     -11.008   8.569  71.942  1.00  0.00    -0.394 A  
HETATM   13  C   UNL     1     -10.828   9.669  71.100  1.00  0.00    -0.404 A  
ENDBRANCH   7   8
ENDBRANCH   6   7
ENDBRANCH   4   6
TORSDOF 3
ENDMDL
MODEL       76
REMARK 921   NORMALIZED FREE ENERGY PREDICTED BY IDOCK:   -3.40 KCAL/MOL
REMARK 922        TOTAL FREE ENERGY PREDICTED BY IDOCK:   -4.11 KCAL/MOL
REMARK 923 INTER-LIGAND FREE ENERGY PREDICTED BY IDOCK:   -3.99 KCAL/MOL
REMARK 924 INTRA-LIGAND FREE ENERGY PREDICTED BY IDOCK:   -0.11 KCAL/MOL
REMARK 927      BINDING AFFINITY PREDICTED BY RF-SCORE:    0.00 PKD
ROOT
HETATM    1  N   UNL     1     -14.164   9.035  72.775  1.00  0.00    -1.052 NA 
HETATM    2  H1  UNL     1     -14.912   9.728  72.725  1.00  0.00     0.000 HD 
HETATM    3  H2  UNL     1     -13.393   9.337  73.370  1.00  0.00     0.000 HD 
HETATM    4  N   UNL     1     -13.734   8.717  71.437  1.00  0.00    -0.541 NA 
HETATM    5  H   UNL     1     -13.462   9.546  70.908  1.00  0.00     0.000 HD 
ENDROOT
BRANCH   4   6
HETATM    6  C   UNL     1     -12.656   7.720  71.508  1.00  0.00    -0.333 C  
BRANCH   6   7
HETATM    7  C   UNL     1     -11.628   8.105  72.579  1.00  0.00    -0.468 C  
BRANCH   7   8
HETATM    8  C   UNL     1     -10.288   8.416  71.957  1.00  0.00    -0.374 A  
HETATM    9  C   UNL     1      -9.108   7.940  72.544  1.00  0.00    -0.245 A  
HETATM   10  C   UNL     1      -7.866   8.276  72.003  1.00  0.00    -0.168 A  
HETATM   11  C   UNL     1      -7.793   9.089  70.873  1.00  0.00    -0.172 A  
HETATM   12  C   UNL     1      -8.960   9.564  70.280  1.00  0.00    -0.288 A  
HETATM   13  C   UNL     1     -10.204   9.229  70.819  1.00  0.00    -0.353 A  
ENDBRANCH   7   8
ENDBRANCH   6   7
ENDBRANCH   4   6
TORSDOF 3
ENDMDL
MODEL       77
REMARK 921   NORMALIZED FREE ENERGY PREDICTED BY IDOCK:   -3.39 KCAL/MOL
REMARK 922        TOTAL FREE ENERGY PREDICTED BY IDOCK:   -4.10 KCAL/MOL
REMARK 923 INTER-LIGAND FREE ENERGY PREDICTED BY IDOCK:   -4.02 KCAL/MOL
REMARK 924 INTRA-LIGAND FREE ENERGY PREDICTED BY IDOCK:   -0.08 KCAL/MOL
REMARK 927      BINDING AFFINITY PREDICTED BY RF-SCORE:    0.00 PKD
ROOT
HETATM    1  N   UNL     1     -14.281   8.897  73.255  1.00  0.00    -1.237 NA 
HETATM    2  H1  UNL     1     -14.309   9.694  73.891  1.00  0.00     0.000 HD 
HETATM    3  H2  UNL     1     -14.581   8.031  73.703  1.00  0.00     0.000 HD 
HETATM    4  N   UNL     1     -12.959   8.795  72.693  1.00  0.00    -0.579 NA 
HETATM    5  H   UNL     1     -12.234   8.748  73.409  1.00  0.00     0.000 HD 
ENDROOT
BRANCH   4   6
HETATM    6  C   UNL     1     -12.918   7.646  71.776  1.00  0.00    -0.328 C  
BRANCH   6   7
HETATM    7  C   UNL     1     -11.539   6.976  71.806  1.00  0.00    -0.315 C  
BRANCH   7   8
HETATM    8  C   UNL     1     -10.844   7.106  70.472  1.00  0.00    -0.269 A  
HETATM    9  C   UNL     1      -9.796   8.022  70.306  1.00  0.00    -0.184 A  
HETATM   10  C   UNL     1      -9.193   8.185  69.058  1.00  0.00    -0.148 A  
HETATM   11  C   UNL     1      -9.631   7.436  67.967  1.00  0.00    -0.152 A  
HETATM   12  C   UNL     1     -10.670   6.521  68.123  1.00  0.00    -0.347 A  
HETATM   13  C   UNL     1     -11.275   6.356  69.370  1.00  0.00    -0.459 A  
ENDBRANCH   7   8
ENDBRANCH   6   7
ENDBRANCH   4   6
TORSDOF 3
ENDMDL
MODEL       78
REMARK 921   NORMALIZED FREE ENERGY PREDICTED BY IDOCK:   -3.39 KCAL/MOL
REMARK 922        TOTAL FREE ENERGY PREDICTED BY IDOCK:   -4.09 KCAL/MOL
REMARK 923 INTER-LIGAND FREE ENERGY PREDICTED BY IDOCK:   -3.99 KCAL/MOL
REMARK 924 INTRA-LIGAND FREE ENERGY PREDICTED BY IDOCK:   -0.11 KCAL/MOL
REMARK 927      BINDING AFFINITY PREDICTED BY RF-SCORE:    0.00 PKD
ROOT
HETATM    1  N   UNL     1     -14.157   8.818  73.175  1.00  0.00    -1.183 NA 
HETATM    2  H1  UNL     1     -14.265   9.791  73.465  1.00  0.00     0.000 HD 
HETATM    3  H2  UNL     1     -13.545   8.292  73.800  1.00  0.00     0.000 HD 
HETATM    4  N   UNL     1     -13.704   8.787  71.808  1.00  0.00    -0.400 NA 
HETATM    5  H   UNL     1     -12.853   9.332  71.667  1.00  0.00     0.000 HD 
ENDROOT
BRANCH   4   6
HETATM    6  C   UNL     1     -13.548   7.386  71.391  1.00  0.00    -0.325 C  
BRANCH   6   7
HETATM    7  C   UNL     1     -12.445   6.696  72.203  1.00  0.00    -0.207 C  
BRANCH   7   8
HETATM    8  C   UNL     1     -11.385   6.119  71.297  1.00  0.00    -0.335 A  
HETATM    9  C   UNL     1     -11.425   6.360  69.917  1.00  0.00    -0.483 A  
HETATM   10  C   UNL     1     -10.480   5.778  69.071  1.00  0.00    -0.336 A  
HETATM   11  C   UNL     1      -9.488   4.952  69.595  1.00  0.00    -0.216 A  
HETATM   12  C   UNL     1      -9.437   4.708  70.966  1.00  0.00    -0.227 A  
HETATM   13  C   UNL     1     -10.382   5.289  71.815  1.00  0.00    -0.277 A  
ENDBRANCH   7   8
ENDBRANCH   6   7
ENDBRANCH   4   6
TORSDOF 3
ENDMDL
MODEL       79
REMARK 921   NORMALIZED FREE ENERGY PREDICTED BY IDOCK:   -3.38 KCAL/MOL
REMARK 922        TOTAL FREE ENERGY PREDICTED BY IDOCK:   -4.09 KCAL/MOL
REMARK 923 INTER-LIGAND FREE ENERGY PREDICTED BY IDOCK:   -3.96 KCAL/MOL
REMARK 924 INTRA-LIGAND FREE ENERGY PREDICTED BY IDOCK:   -0.12 KCAL/MOL
REMARK 927      BINDING AFFINITY PREDICTED BY RF-SCORE:    0.00 PKD
ROOT
HETATM    1  N   UNL     1      -6.579  21.108  64.013  1.00  0.00    -0.495 NA 
HETATM    2  H1  UNL     1      -6.529  21.426  63.044  1.00  0.00     0.000 HD 
HETATM    3  H2  UNL     1      -5.984  21.657  64.634  1.00  0.00     0.000 HD 
HETATM    4  N   UNL     1      -6.271  19.701  64.059  1.00  0.00    -0.362 NA 
HETATM    5  H   UNL     1      -5.375  19.485  63.624  1.00  0.00     0.000 HD 
ENDROOT
BRANCH   4   6
HETATM    6  C   UNL     1      -6.342  19.244  65.454  1.00  0.00    -0.268 C  
BRANCH   6   7
HETATM    7  C   UNL     1      -6.872  20.357  66.365  1.00  0.00    -0.290 C  
BRANCH   7   8
HETATM    8  C   UNL     1      -8.221  19.994  66.937  1.00  0.00    -0.368 A  
HETATM    9  C   UNL     1      -8.329  19.528  68.255  1.00  0.00    -0.375 A  
HETATM   10  C   UNL     1      -9.568  19.136  68.765  1.00  0.00    -0.474 A  
HETATM   11  C   UNL     1     -10.707  19.204  67.964  1.00  0.00    -0.318 A  
HETATM   12  C   UNL     1     -10.610  19.668  66.654  1.00  0.00    -0.599 A  
HETATM   13  C   UNL     1      -9.372  20.062  66.141  1.00  0.00    -0.415 A  
ENDBRANCH   7   8
ENDBRANCH   6   7
ENDBRANCH   4   6
TORSDOF 3
ENDMDL
MODEL       80
REMARK 921   NORMALIZED FREE ENERGY PREDICTED BY IDOCK:   -3.34 KCAL/MOL
REMARK 922        TOTAL FREE ENERGY PREDICTED BY IDOCK:   -4.03 KCAL/MOL
REMARK 923 INTER-LIGAND FREE ENERGY PREDICTED BY IDOCK:   -3.95 KCAL/MOL
REMARK 924 INTRA-LIGAND FREE ENERGY PREDICTED BY IDOCK:   -0.08 KCAL/MOL
REMARK 927      BINDING AFFINITY PREDICTED BY RF-SCORE:    0.00 PKD
ROOT
HETATM    1  N   UNL     1      -8.859   7.708  65.003  1.00  0.00    -0.364 NA 
HETATM    2  H1  UNL     1      -8.721   6.786  65.419  1.00  0.00     0.000 HD 
HETATM    3  H2  UNL     1      -8.002   8.082  64.593  1.00  0.00     0.000 HD 
HETATM    4  N   UNL     1      -9.424   8.588  65.994  1.00  0.00    -0.367 NA 
HETATM    5  H   UNL     1      -8.864   8.625  66.846  1.00  0.00     0.000 HD 
ENDROOT
BRANCH   4   6
HETATM    6  C   UNL     1      -9.622   9.916  65.394  1.00  0.00    -0.285 C  
BRANCH   6   7
HETATM    7  C   UNL     1     -10.489  10.798  66.301  1.00  0.00    -0.287 C  
BRANCH   7   8
HETATM    8  C   UNL     1     -11.118  11.925  65.518  1.00  0.00    -0.356 A  
HETATM    9  C   UNL     1     -11.660  13.032  66.183  1.00  0.00    -0.412 A  
HETATM   10  C   UNL     1     -12.295  14.047  65.465  1.00  0.00    -0.503 A  
HETATM   11  C   UNL     1     -12.394  13.962  64.077  1.00  0.00    -0.355 A  
HETATM   12  C   UNL     1     -11.856  12.866  63.406  1.00  0.00    -0.576 A  
HETATM   13  C   UNL     1     -11.220  11.850  64.122  1.00  0.00    -0.446 A  
ENDBRANCH   7   8
ENDBRANCH   6   7
ENDBRANCH   4   6
TORSDOF 3
ENDMDL
MODEL       81
REMARK 921   NORMALIZED FREE ENERGY PREDICTED BY IDOCK:   -3.33 KCAL/MOL
REMARK 922        TOTAL FREE ENERGY PREDICTED BY IDOCK:   -4.03 KCAL/MOL
REMARK 923 INTER-LIGAND FREE ENERGY PREDICTED BY IDOCK:   -3.96 KCAL/MOL
REMARK 924 INTRA-LIGAND FREE ENERGY PREDICTED BY IDOCK:   -0.07 KCAL/MOL
REMARK 927      BINDING AFFINITY PREDICTED BY RF-SCORE:    0.00 PKD
ROOT
HETATM    1  N   UNL     1     -11.654  16.247  63.850  1.00  0.00    -1.573 NA 
HETATM    2  H1  UNL     1     -12.569  16.069  63.435  1.00  0.00     0.000 HD 
HETATM    3  H2  UNL     1     -10.932  16.406  63.146  1.00  0.00     0.000 HD 
HETATM    4  N   UNL     1     -11.326  15.160  64.737  1.00  0.00    -0.514 NA 
HETATM    5  H   UNL     1     -11.374  14.252  64.275  1.00  0.00     0.000 HD 
ENDROOT
BRANCH   4   6
HETATM    6  C   UNL     1     -10.007  15.415  65.335  1.00  0.00    -0.321 C  
BRANCH   6   7
HETATM    7  C   UNL     1     -10.112  15.520  66.861  1.00  0.00    -0.263 C  
BRANCH   7   8
HETATM    8  C   UNL     1      -8.916  16.237  67.438  1.00  0.00    -0.197 A  
HETATM    9  C   UNL     1      -9.090  17.249  68.392  1.00  0.00    -0.265 A  
HETATM   10  C   UNL     1      -7.990  17.953  68.883  1.00  0.00    -0.175 A  
HETATM   11  C   UNL     1      -6.708  17.653  68.425  1.00  0.00    -0.203 A  
HETATM   12  C   UNL     1      -6.524  16.647  67.480  1.00  0.00    -0.183 A  
HETATM   13  C   UNL     1      -7.623  15.941  66.987  1.00  0.00    -0.264 A  
ENDBRANCH   7   8
ENDBRANCH   6   7
ENDBRANCH   4   6
TORSDOF 3
ENDMDL
MODEL       82
REMARK 921   NORMALIZED FREE ENERGY PREDICTED BY IDOCK:   -3.32 KCAL/MOL
REMARK 922        TOTAL FREE ENERGY PREDICTED BY IDOCK:   -4.01 KCAL/MOL
REMARK 923 INTER-LIGAND FREE ENERGY PREDICTED BY IDOCK:   -3.88 KCAL/MOL
REMARK 924 INTRA-LIGAND FREE ENERGY PREDICTED BY IDOCK:   -0.12 KCAL/MOL
REMARK 927      BINDING AFFINITY PREDICTED BY RF-SCORE:    0.00 PKD
ROOT
HETATM    1  N   UNL     1     -12.024   6.812  69.802  1.00  0.00    -0.647 NA 
HETATM    2  H1  UNL     1     -12.638   6.036  70.054  1.00  0.00     0.000 HD 
HETATM    3  H2  UNL     1     -11.066   6.508  69.623  1.00  0.00     0.000 HD 
HETATM    4  N   UNL     1     -12.099   7.819  70.829  1.00  0.00    -0.485 NA 
HETATM    5  H   UNL     1     -11.893   7.445  71.756  1.00  0.00     0.000 HD 
ENDROOT
BRANCH   4   6
HETATM    6  C   UNL     1     -11.214   8.936  70.466  1.00  0.00    -0.252 C  
BRANCH   6   7
HETATM    7  C   UNL     1     -11.992  10.257  70.436  1.00  0.00    -0.391 C  
BRANCH   7   8
HETATM    8  C   UNL     1     -11.724  11.015  69.158  1.00  0.00    -0.403 A  
HETATM    9  C   UNL     1     -11.157  10.363  68.055  1.00  0.00    -0.359 A  
HETATM   10  C   UNL     1     -10.855  11.075  66.893  1.00  0.00    -0.324 A  
HETATM   11  C   UNL     1     -11.115  12.443  66.825  1.00  0.00    -0.333 A  
HETATM   12  C   UNL     1     -11.682  13.099  67.915  1.00  0.00    -0.398 A  
HETATM   13  C   UNL     1     -11.986  12.389  69.078  1.00  0.00    -0.291 A  
ENDBRANCH   7   8
ENDBRANCH   6   7
ENDBRANCH   4   6
TORSDOF 3
ENDMDL
MODEL       83
REMARK 921   NORMALIZED FREE ENERGY PREDICTED BY IDOCK:   -3.27 KCAL/MOL
REMARK 922        TOTAL FREE ENERGY PREDICTED BY IDOCK:   -3.95 KCAL/MOL
REMARK 923 INTER-LIGAND FREE ENERGY PREDICTED BY IDOCK:   -3.80 KCAL/MOL
REMARK 924 INTRA-LIGAND FREE ENERGY PREDICTED BY IDOCK:   -0.16 KCAL/MOL
REMARK 927      BINDING AFFINITY PREDICTED BY RF-SCORE:    0.00 PKD
ROOT
HETATM    1  N   UNL     1      -9.928  12.722  63.456  1.00  0.00    -0.687 NA 
HETATM    2  H1  UNL     1      -9.846  12.250  62.555  1.00  0.00     0.000 HD 
HETATM    3  H2  UNL     1      -9.518  12.181  64.218  1.00  0.00     0.000 HD 
HETATM    4  N   UNL     1     -11.313  13.041  63.691  1.00  0.00    -0.592 NA 
HETATM    5  H   UNL     1     -11.917  12.222  63.625  1.00  0.00     0.000 HD 
ENDROOT
BRANCH   4   6
HETATM    6  C   UNL     1     -11.431  13.722  64.989  1.00  0.00    -0.332 C  
BRANCH   6   7
HETATM    7  C   UNL     1     -11.374  15.244  64.812  1.00  0.00    -0.396 C  
BRANCH   7   8
HETATM    8  C   UNL     1     -10.293  15.849  65.675  1.00  0.00    -0.413 A  
HETATM    9  C   UNL     1     -10.224  17.238  65.853  1.00  0.00    -0.273 A  
HETATM   10  C   UNL     1      -9.191  17.803  66.602  1.00  0.00    -0.280 A  
HETATM   11  C   UNL     1      -8.219  16.986  67.178  1.00  0.00    -0.214 A  
HETATM   12  C   UNL     1      -8.281  15.605  67.011  1.00  0.00    -0.268 A  
HETATM   13  C   UNL     1      -9.314  15.037  66.262  1.00  0.00    -0.341 A  
ENDBRANCH   7   8
ENDBRANCH   6   7
ENDBRANCH   4   6
TORSDOF 3
ENDMDL
MODEL       84
REMARK 921   NORMALIZED FREE ENERGY PREDICTED BY IDOCK:   -3.25 KCAL/MOL
REMARK 922        TOTAL FREE ENERGY PREDICTED BY IDOCK:   -3.93 KCAL/MOL
REMARK 923 INTER-LIGAND FREE ENERGY PREDICTED BY IDOCK:   -3.87 KCAL/MOL
REMARK 924 INTRA-LIGAND FREE ENERGY PREDICTED BY IDOCK:   -0.07 KCAL/MOL
REMARK 927      BINDING AFFINITY PREDICTED BY RF-SCORE:    0.00 PKD
ROOT
HETATM    1  N   UNL     1      -8.193  18.001  66.029  1.00  0.00    -0.516 NA 
HETATM    2  H1  UNL     1      -8.105  18.977  66.312  1.00  0.00     0.000 HD 
HETATM    3  H2  UNL     1      -7.942  17.855  65.051  1.00  0.00     0.000 HD 
HETATM    4  N   UNL     1      -9.528  17.548  66.328  1.00  0.00    -0.413 NA 
HETATM    5  H   UNL     1     -10.243  18.141  65.908  1.00  0.00     0.000 HD 
ENDROOT
BRANCH   4   6
HETATM    6  C   UNL     1      -9.655  16.141  65.920  1.00  0.00    -0.324 C  
BRANCH   6   7
HETATM    7  C   UNL     1     -10.949  15.920  65.128  1.00  0.00    -0.389 C  
BRANCH   7   8
HETATM    8  C   UNL     1     -11.209  14.448  64.914  1.00  0.00    -0.392 A  
HETATM    9  C   UNL     1     -10.163  13.591  64.545  1.00  0.00    -0.296 A  
HETATM   10  C   UNL     1     -10.412  12.242  64.289  1.00  0.00    -0.375 A  
HETATM   11  C   UNL     1     -11.707  11.738  64.399  1.00  0.00    -0.301 A  
HETATM   12  C   UNL     1     -12.753  12.581  64.769  1.00  0.00    -0.415 A  
HETATM   13  C   UNL     1     -12.506  13.931  65.025  1.00  0.00    -0.447 A  
ENDBRANCH   7   8
ENDBRANCH   6   7
ENDBRANCH   4   6
TORSDOF 3
ENDMDL
MODEL       85
REMARK 921   NORMALIZED FREE ENERGY PREDICTED BY IDOCK:   -3.24 KCAL/MOL
REMARK 922        TOTAL FREE ENERGY PREDICTED BY IDOCK:   -3.91 KCAL/MOL
REMARK 923 INTER-LIGAND FREE ENERGY PREDICTED BY IDOCK:   -3.81 KCAL/MOL
REMARK 924 INTRA-LIGAND FREE ENERGY PREDICTED BY IDOCK:   -0.10 KCAL/MOL
REMARK 927      BINDING AFFINITY PREDICTED BY RF-SCORE:    0.00 PKD
ROOT
HETATM    1  N   UNL     1      -9.096  17.929  65.941  1.00  0.00    -0.500 NA 
HETATM    2  H1  UNL     1      -8.132  18.260  65.999  1.00  0.00     0.000 HD 
HETATM    3  H2  UNL     1      -9.666  18.253  66.722  1.00  0.00     0.000 HD 
HETATM    4  N   UNL     1      -9.089  16.493  65.825  1.00  0.00    -0.482 NA 
HETATM    5  H   UNL     1      -8.567  16.044  66.577  1.00  0.00     0.000 HD 
ENDROOT
BRANCH   4   6
HETATM    6  C   UNL     1     -10.477  16.016  65.741  1.00  0.00    -0.374 C  
BRANCH   6   7
HETATM    7  C   UNL     1     -10.687  14.795  66.646  1.00  0.00    -0.309 C  
BRANCH   7   8
HETATM    8  C   UNL     1     -10.506  13.511  65.873  1.00  0.00    -0.292 A  
HETATM    9  C   UNL     1     -10.674  13.492  64.482  1.00  0.00    -0.431 A  
HETATM   10  C   UNL     1     -10.564  12.294  63.774  1.00  0.00    -0.488 A  
HETATM   11  C   UNL     1     -10.287  11.107  64.449  1.00  0.00    -0.407 A  
HETATM   12  C   UNL     1     -10.115  11.116  65.832  1.00  0.00    -0.296 A  
HETATM   13  C   UNL     1     -10.224  12.313  66.542  1.00  0.00    -0.235 A  
ENDBRANCH   7   8
ENDBRANCH   6   7
ENDBRANCH   4   6
TORSDOF 3
ENDMDL
MODEL       86
REMARK 921   NORMALIZED FREE ENERGY PREDICTED BY IDOCK:   -3.23 KCAL/MOL
REMARK 922        TOTAL FREE ENERGY PREDICTED BY IDOCK:   -3.91 KCAL/MOL
REMARK 923 INTER-LIGAND FREE ENERGY PREDICTED BY IDOCK:   -3.81 KCAL/MOL
REMARK 924 INTRA-LIGAND FREE ENERGY PREDICTED BY IDOCK:   -0.10 KCAL/MOL
REMARK 927      BINDING AFFINITY PREDICTED BY RF-SCORE:    0.00 PKD
ROOT
HETATM    1  N   UNL     1      -9.947   4.728  74.019  1.00  0.00    -0.156 NA 
HETATM    2  H1  UNL     1     -10.257   3.758  74.086  1.00  0.00     0.000 HD 
HETATM    3  H2  UNL     1      -9.482   5.048  74.869  1.00  0.00     0.000 HD 
HETATM    4  N   UNL     1     -11.074   5.554  73.666  1.00  0.00    -0.439 NA 
HETATM    5  H   UNL     1     -11.857   5.439  74.308  1.00  0.00     0.000 HD 
ENDROOT
BRANCH   4   6
HETATM    6  C   UNL     1     -10.628   6.951  73.569  1.00  0.00    -0.348 C  
BRANCH   6   7
HETATM    7  C   UNL     1     -10.503   7.382  72.103  1.00  0.00    -0.243 C  
BRANCH   7   8
HETATM    8  C   UNL     1     -11.430   8.534  71.797  1.00  0.00    -0.378 A  
HETATM    9  C   UNL     1     -11.006   9.584  70.970  1.00  0.00    -0.424 A  
HETATM   10  C   UNL     1     -11.840  10.677  70.734  1.00  0.00    -0.459 A  
HETATM   11  C   UNL     1     -13.102  10.733  71.321  1.00  0.00    -0.427 A  
HETATM   12  C   UNL     1     -13.535   9.693  72.142  1.00  0.00    -0.516 A  
HETATM   13  C   UNL     1     -12.702   8.597  72.380  1.00  0.00    -0.423 A  
ENDBRANCH   7   8
ENDBRANCH   6   7
ENDBRANCH   4   6
TORSDOF 3
ENDMDL
MODEL       87
REMARK 921   NORMALIZED FREE ENERGY PREDICTED BY IDOCK:   -3.23 KCAL/MOL
REMARK 922        TOTAL FREE ENERGY PREDICTED BY IDOCK:   -3.90 KCAL/MOL
REMARK 923 INTER-LIGAND FREE ENERGY PREDICTED BY IDOCK:   -3.79 KCAL/MOL
REMARK 924 INTRA-LIGAND FREE ENERGY PREDICTED BY IDOCK:   -0.11 KCAL/MOL
REMARK 927      BINDING AFFINITY PREDICTED BY RF-SCORE:    0.00 PKD
ROOT
HETATM    1  N   UNL     1     -10.754  18.686  68.108  1.00  0.00    -0.318 NA 
HETATM    2  H1  UNL     1     -10.848  19.532  68.671  1.00  0.00     0.000 HD 
HETATM    3  H2  UNL     1      -9.997  18.084  68.433  1.00  0.00     0.000 HD 
HETATM    4  N   UNL     1     -10.603  19.062  66.725  1.00  0.00    -0.424 NA 
HETATM    5  H   UNL     1      -9.831  19.713  66.581  1.00  0.00     0.000 HD 
ENDROOT
BRANCH   4   6
HETATM    6  C   UNL     1     -10.467  17.844  65.913  1.00  0.00    -0.253 C  
BRANCH   6   7
HETATM    7  C   UNL     1     -10.224  16.620  66.805  1.00  0.00    -0.301 C  
BRANCH   7   8
HETATM    8  C   UNL     1     -10.953  15.410  66.275  1.00  0.00    -0.278 A  
HETATM    9  C   UNL     1     -11.271  15.314  64.913  1.00  0.00    -0.422 A  
HETATM   10  C   UNL     1     -11.997  14.224  64.432  1.00  0.00    -0.476 A  
HETATM   11  C   UNL     1     -12.412  13.221  65.307  1.00  0.00    -0.543 A  
HETATM   12  C   UNL     1     -12.099  13.305  66.662  1.00  0.00    -0.421 A  
HETATM   13  C   UNL     1     -11.372  14.395  67.145  1.00  0.00    -0.356 A  
ENDBRANCH   7   8
ENDBRANCH   6   7
ENDBRANCH   4   6
TORSDOF 3
ENDMDL
MODEL       88
REMARK 921   NORMALIZED FREE ENERGY PREDICTED BY IDOCK:   -3.21 KCAL/MOL
REMARK 922        TOTAL FREE ENERGY PREDICTED BY IDOCK:   -3.88 KCAL/MOL
REMARK 923 INTER-LIGAND FREE ENERGY PREDICTED BY IDOCK:   -3.73 KCAL/MOL
REMARK 924 INTRA-LIGAND FREE ENERGY PREDICTED BY IDOCK:   -0.15 KCAL/MOL
REMARK 927      BINDING AFFINITY PREDICTED BY RF-SCORE:    0.00 PKD
ROOT
HETATM    1  N   UNL     1      -5.950  17.091  69.929  1.00  0.00    -0.228 NA 
HETATM    2  H1  UNL     1      -5.294  16.310  69.979  1.00  0.00     0.000 HD 
HETATM    3  H2  UNL     1      -6.760  16.882  69.346  1.00  0.00     0.000 HD 
HETATM    4  N   UNL     1      -5.242  18.266  69.487  1.00  0.00    -0.187 NA 
HETATM    5  H   UNL     1      -4.749  18.115  68.608  1.00  0.00     0.000 HD 
ENDROOT
BRANCH   4   6
HETATM    6  C   UNL     1      -6.186  19.391  69.415  1.00  0.00    -0.297 C  
BRANCH   6   7
HETATM    7  C   UNL     1      -6.485  19.757  67.956  1.00  0.00    -0.276 C  
BRANCH   7   8
HETATM    8  C   UNL     1      -7.964  19.661  67.666  1.00  0.00    -0.320 A  
HETATM    9  C   UNL     1      -8.870  19.377  68.697  1.00  0.00    -0.417 A  
HETATM   10  C   UNL     1     -10.230  19.230  68.420  1.00  0.00    -0.503 A  
HETATM   11  C   UNL     1     -10.695  19.364  67.112  1.00  0.00    -0.593 A  
HETATM   12  C   UNL     1      -9.802  19.650  66.082  1.00  0.00    -0.523 A  
HETATM   13  C   UNL     1      -8.441  19.797  66.356  1.00  0.00    -0.391 A  
ENDBRANCH   7   8
ENDBRANCH   6   7
ENDBRANCH   4   6
TORSDOF 3
ENDMDL
MODEL       89
REMARK 921   NORMALIZED FREE ENERGY PREDICTED BY IDOCK:   -3.20 KCAL/MOL
REMARK 922        TOTAL FREE ENERGY PREDICTED BY IDOCK:   -3.87 KCAL/MOL
REMARK 923 INTER-LIGAND FREE ENERGY PREDICTED BY IDOCK:   -3.78 KCAL/MOL
REMARK 924 INTRA-LIGAND FREE ENERGY PREDICTED BY IDOCK:   -0.09 KCAL/MOL
REMARK 927      BINDING AFFINITY PREDICTED BY RF-SCORE:    0.00 PKD
ROOT
HETATM    1  N   UNL     1     -12.750  10.732  70.716  1.00  0.00    -0.361 NA 
HETATM    2  H1  UNL     1     -13.042  11.172  69.843  1.00  0.00     0.000 HD 
HETATM    3  H2  UNL     1     -11.735  10.668  70.799  1.00  0.00     0.000 HD 
HETATM    4  N   UNL     1     -13.394   9.448  70.830  1.00  0.00    -0.562 NA 
HETATM    5  H   UNL     1     -13.223   8.854  70.019  1.00  0.00     0.000 HD 
ENDROOT
BRANCH   4   6
HETATM    6  C   UNL     1     -12.973   8.815  72.088  1.00  0.00    -0.406 C  
BRANCH   6   7
HETATM    7  C   UNL     1     -11.448   8.669  72.139  1.00  0.00    -0.443 C  
BRANCH   7   8
HETATM    8  C   UNL     1     -11.050   7.361  72.780  1.00  0.00    -0.394 A  
HETATM    9  C   UNL     1     -11.674   6.166  72.397  1.00  0.00    -0.319 A  
HETATM   10  C   UNL     1     -11.349   4.965  73.029  1.00  0.00    -0.354 A  
HETATM   11  C   UNL     1     -10.400   4.949  74.050  1.00  0.00    -0.298 A  
HETATM   12  C   UNL     1      -9.771   6.130  74.436  1.00  0.00    -0.265 A  
HETATM   13  C   UNL     1     -10.094   7.333  73.804  1.00  0.00    -0.375 A  
ENDBRANCH   7   8
ENDBRANCH   6   7
ENDBRANCH   4   6
TORSDOF 3
ENDMDL
MODEL       90
REMARK 921   NORMALIZED FREE ENERGY PREDICTED BY IDOCK:   -3.20 KCAL/MOL
REMARK 922        TOTAL FREE ENERGY PREDICTED BY IDOCK:   -3.87 KCAL/MOL
REMARK 923 INTER-LIGAND FREE ENERGY PREDICTED BY IDOCK:   -3.79 KCAL/MOL
REMARK 924 INTRA-LIGAND FREE ENERGY PREDICTED BY IDOCK:   -0.07 KCAL/MOL
REMARK 927      BINDING AFFINITY PREDICTED BY RF-SCORE:    0.00 PKD
ROOT
HETATM    1  N   UNL     1     -11.514  15.898  68.676  1.00  0.00    -0.382 NA 
HETATM    2  H1  UNL     1     -12.009  16.789  68.720  1.00  0.00     0.000 HD 
HETATM    3  H2  UNL     1     -10.650  15.959  68.136  1.00  0.00     0.000 HD 
HETATM    4  N   UNL     1     -12.410  14.891  68.168  1.00  0.00    -0.538 NA 
HETATM    5  H   UNL     1     -12.822  15.153  67.272  1.00  0.00     0.000 HD 
ENDROOT
BRANCH   4   6
HETATM    6  C   UNL     1     -11.697  13.607  68.103  1.00  0.00    -0.357 C  
BRANCH   6   7
HETATM    7  C   UNL     1     -11.591  13.116  66.654  1.00  0.00    -0.403 C  
BRANCH   7   8
HETATM    8  C   UNL     1     -10.972  11.741  66.593  1.00  0.00    -0.342 A  
HETATM    9  C   UNL     1     -10.272  11.330  65.450  1.00  0.00    -0.323 A  
HETATM   10  C   UNL     1      -9.750  10.039  65.368  1.00  0.00    -0.368 A  
HETATM   11  C   UNL     1      -9.923   9.147  66.425  1.00  0.00    -0.358 A  
HETATM   12  C   UNL     1     -10.614   9.546  67.567  1.00  0.00    -0.338 A  
HETATM   13  C   UNL     1     -11.137  10.838  67.651  1.00  0.00    -0.384 A  
ENDBRANCH   7   8
ENDBRANCH   6   7
ENDBRANCH   4   6
TORSDOF 3
ENDMDL
MODEL       91
REMARK 921   NORMALIZED FREE ENERGY PREDICTED BY IDOCK:   -3.19 KCAL/MOL
REMARK 922        TOTAL FREE ENERGY PREDICTED BY IDOCK:   -3.86 KCAL/MOL
REMARK 923 INTER-LIGAND FREE ENERGY PREDICTED BY IDOCK:   -3.76 KCAL/MOL
REMARK 924 INTRA-LIGAND FREE ENERGY PREDICTED BY IDOCK:   -0.10 KCAL/MOL
REMARK 927      BINDING AFFINITY PREDICTED BY RF-SCORE:    0.00 PKD
ROOT
HETATM    1  N   UNL     1      -6.949   8.697  73.395  1.00  0.00    -0.327 NA 
HETATM    2  H1  UNL     1      -6.485   9.259  74.110  1.00  0.00     0.000 HD 
HETATM    3  H2  UNL     1      -6.716   9.000  72.449  1.00  0.00     0.000 HD 
HETATM    4  N   UNL     1      -8.369   8.710  73.642  1.00  0.00    -0.350 NA 
HETATM    5  H   UNL     1      -8.745   9.656  73.699  1.00  0.00     0.000 HD 
ENDROOT
BRANCH   4   6
HETATM    6  C   UNL     1      -9.038   7.901  72.612  1.00  0.00    -0.197 C  
BRANCH   6   7
HETATM    7  C   UNL     1      -9.303   8.735  71.353  1.00  0.00    -0.328 C  
BRANCH   7   8
HETATM    8  C   UNL     1     -10.721   9.250  71.333  1.00  0.00    -0.432 A  
HETATM    9  C   UNL     1     -11.710   8.632  72.110  1.00  0.00    -0.442 A  
HETATM   10  C   UNL     1     -13.034   9.070  72.048  1.00  0.00    -0.470 A  
HETATM   11  C   UNL     1     -13.380  10.128  71.208  1.00  0.00    -0.394 A  
HETATM   12  C   UNL     1     -12.404  10.751  70.434  1.00  0.00    -0.438 A  
HETATM   13  C   UNL     1     -11.079  10.315  70.495  1.00  0.00    -0.381 A  
ENDBRANCH   7   8
ENDBRANCH   6   7
ENDBRANCH   4   6
TORSDOF 3
ENDMDL
MODEL       92
REMARK 921   NORMALIZED FREE ENERGY PREDICTED BY IDOCK:   -3.19 KCAL/MOL
REMARK 922        TOTAL FREE ENERGY PREDICTED BY IDOCK:   -3.86 KCAL/MOL
REMARK 923 INTER-LIGAND FREE ENERGY PREDICTED BY IDOCK:   -3.72 KCAL/MOL
REMARK 924 INTRA-LIGAND FREE ENERGY PREDICTED BY IDOCK:   -0.15 KCAL/MOL
REMARK 927      BINDING AFFINITY PREDICTED BY RF-SCORE:    0.00 PKD
ROOT
HETATM    1  N   UNL     1      -9.402   5.782  71.340  1.00  0.00    -0.146 NA 
HETATM    2  H1  UNL     1      -8.726   5.049  71.556  1.00  0.00     0.000 HD 
HETATM    3  H2  UNL     1      -9.810   6.195  72.179  1.00  0.00     0.000 HD 
HETATM    4  N   UNL     1     -10.401   5.246  70.450  1.00  0.00    -0.275 NA 
HETATM    5  H   UNL     1     -10.843   4.406  70.822  1.00  0.00     0.000 HD 
ENDROOT
BRANCH   4   6
HETATM    6  C   UNL     1     -11.376   6.302  70.138  1.00  0.00    -0.406 C  
BRANCH   6   7
HETATM    7  C   UNL     1     -11.960   6.899  71.424  1.00  0.00    -0.393 C  
BRANCH   7   8
HETATM    8  C   UNL     1     -12.121   8.395  71.302  1.00  0.00    -0.315 A  
HETATM    9  C   UNL     1     -11.229   9.142  70.519  1.00  0.00    -0.309 A  
HETATM   10  C   UNL     1     -11.341  10.531  70.453  1.00  0.00    -0.411 A  
HETATM   11  C   UNL     1     -12.342  11.186  71.168  1.00  0.00    -0.451 A  
HETATM   12  C   UNL     1     -13.235  10.453  71.946  1.00  0.00    -0.535 A  
HETATM   13  C   UNL     1     -13.126   9.062  72.014  1.00  0.00    -0.474 A  
ENDBRANCH   7   8
ENDBRANCH   6   7
ENDBRANCH   4   6
TORSDOF 3
ENDMDL
MODEL       93
REMARK 921   NORMALIZED FREE ENERGY PREDICTED BY IDOCK:   -3.19 KCAL/MOL
REMARK 922        TOTAL FREE ENERGY PREDICTED BY IDOCK:   -3.85 KCAL/MOL
REMARK 923 INTER-LIGAND FREE ENERGY PREDICTED BY IDOCK:   -3.77 KCAL/MOL
REMARK 924 INTRA-LIGAND FREE ENERGY PREDICTED BY IDOCK:   -0.08 KCAL/MOL
REMARK 927      BINDING AFFINITY PREDICTED BY RF-SCORE:    0.00 PKD
ROOT
HETATM    1  N   UNL     1     -10.601  19.299  66.519  1.00  0.00    -0.442 NA 
HETATM    2  H1  UNL     1     -10.162  20.168  66.213  1.00  0.00     0.000 HD 
HETATM    3  H2  UNL     1     -10.479  19.132  67.518  1.00  0.00     0.000 HD 
HETATM    4  N   UNL     1     -10.096  18.215  65.715  1.00  0.00    -0.566 NA 
HETATM    5  H   UNL     1      -9.078  18.163  65.727  1.00  0.00     0.000 HD 
ENDROOT
BRANCH   4   6
HETATM    6  C   UNL     1     -10.728  16.962  66.155  1.00  0.00    -0.109 C  
BRANCH   6   7
HETATM    7  C   UNL     1     -10.802  15.956  65.001  1.00  0.00    -0.444 C  
BRANCH   7   8
HETATM    8  C   UNL     1     -11.130  14.572  65.509  1.00  0.00    -0.339 A  
HETATM    9  C   UNL     1     -11.187  14.319  66.886  1.00  0.00    -0.333 A  
HETATM   10  C   UNL     1     -11.431  13.028  67.357  1.00  0.00    -0.380 A  
HETATM   11  C   UNL     1     -11.620  11.980  66.456  1.00  0.00    -0.384 A  
HETATM   12  C   UNL     1     -11.569  12.223  65.086  1.00  0.00    -0.402 A  
HETATM   13  C   UNL     1     -11.324  13.514  64.612  1.00  0.00    -0.375 A  
ENDBRANCH   7   8
ENDBRANCH   6   7
ENDBRANCH   4   6
TORSDOF 3
ENDMDL
MODEL       94
REMARK 921   NORMALIZED FREE ENERGY PREDICTED BY IDOCK:   -3.18 KCAL/MOL
REMARK 922        TOTAL FREE ENERGY PREDICTED BY IDOCK:   -3.85 KCAL/MOL
REMARK 923 INTER-LIGAND FREE ENERGY PREDICTED BY IDOCK:   -3.73 KCAL/MOL
REMARK 924 INTRA-LIGAND FREE ENERGY PREDICTED BY IDOCK:   -0.12 KCAL/MOL
REMARK 927      BINDING AFFINITY PREDICTED BY RF-SCORE:    0.00 PKD
ROOT
HETATM    1  N   UNL     1      -9.143  17.070  65.659  1.00  0.00    -0.413 NA 
HETATM    2  H1  UNL     1      -8.834  18.039  65.745  1.00  0.00     0.000 HD 
HETATM    3  H2  UNL     1      -8.515  16.511  65.081  1.00  0.00     0.000 HD 
HETATM    4  N   UNL     1     -10.499  17.055  65.173  1.00  0.00    -0.655 NA 
HETATM    5  H   UNL     1     -10.606  17.576  64.303  1.00  0.00     0.000 HD 
ENDROOT
BRANCH   4   6
HETATM    6  C   UNL     1     -10.944  15.659  65.048  1.00  0.00    -0.431 C  
BRANCH   6   7
HETATM    7  C   UNL     1      -9.940  14.707  65.710  1.00  0.00    -0.365 C  
BRANCH   7   8
HETATM    8  C   UNL     1     -10.635  13.763  66.662  1.00  0.00    -0.274 A  
HETATM    9  C   UNL     1     -10.834  14.128  68.000  1.00  0.00    -0.256 A  
HETATM   10  C   UNL     1     -11.423  13.233  68.895  1.00  0.00    -0.342 A  
HETATM   11  C   UNL     1     -11.815  11.968  68.461  1.00  0.00    -0.369 A  
HETATM   12  C   UNL     1     -11.625  11.598  67.132  1.00  0.00    -0.291 A  
HETATM   13  C   UNL     1     -11.036  12.491  66.234  1.00  0.00    -0.336 A  
ENDBRANCH   7   8
ENDBRANCH   6   7
ENDBRANCH   4   6
TORSDOF 3
ENDMDL
MODEL       95
REMARK 921   NORMALIZED FREE ENERGY PREDICTED BY IDOCK:   -3.18 KCAL/MOL
REMARK 922        TOTAL FREE ENERGY PREDICTED BY IDOCK:   -3.85 KCAL/MOL
REMARK 923 INTER-LIGAND FREE ENERGY PREDICTED BY IDOCK:   -3.78 KCAL/MOL
REMARK 924 INTRA-LIGAND FREE ENERGY PREDICTED BY IDOCK:   -0.06 KCAL/MOL
REMARK 927      BINDING AFFINITY PREDICTED BY RF-SCORE:    0.00 PKD
ROOT
HETATM    1  N   UNL     1     -11.540   8.814  70.194  1.00  0.00    -0.462 NA 
HETATM    2  H1  UNL     1     -11.124   7.959  69.824  1.00  0.00     0.000 HD 
HETATM    3  H2  UNL     1     -12.498   8.673  70.516  1.00  0.00     0.000 HD 
HETATM    4  N   UNL     1     -11.444   9.849  69.196  1.00  0.00    -0.462 NA 
HETATM    5  H   UNL     1     -11.854   9.570  68.305  1.00  0.00     0.000 HD 
ENDROOT
BRANCH   4   6
HETATM    6  C   UNL     1     -12.044  11.081  69.729  1.00  0.00    -0.353 C  
BRANCH   6   7
HETATM    7  C   UNL     1     -11.896  12.234  68.729  1.00  0.00    -0.356 C  
BRANCH   7   8
HETATM    8  C   UNL     1     -11.709  13.551  69.445  1.00  0.00    -0.381 A  
HETATM    9  C   UNL     1     -12.571  13.919  70.486  1.00  0.00    -0.382 A  
HETATM   10  C   UNL     1     -12.436  15.161  71.109  1.00  0.00    -0.416 A  
HETATM   11  C   UNL     1     -11.441  16.045  70.695  1.00  0.00    -0.427 A  
HETATM   12  C   UNL     1     -10.576  15.687  69.663  1.00  0.00    -0.284 A  
HETATM   13  C   UNL     1     -10.709  14.444  69.039  1.00  0.00    -0.261 A  
ENDBRANCH   7   8
ENDBRANCH   6   7
ENDBRANCH   4   6
TORSDOF 3
ENDMDL
MODEL       96
REMARK 921   NORMALIZED FREE ENERGY PREDICTED BY IDOCK:   -3.18 KCAL/MOL
REMARK 922        TOTAL FREE ENERGY PREDICTED BY IDOCK:   -3.84 KCAL/MOL
REMARK 923 INTER-LIGAND FREE ENERGY PREDICTED BY IDOCK:   -3.76 KCAL/MOL
REMARK 924 INTRA-LIGAND FREE ENERGY PREDICTED BY IDOCK:   -0.08 KCAL/MOL
REMARK 927      BINDING AFFINITY PREDICTED BY RF-SCORE:    0.00 PKD
ROOT
HETATM    1  N   UNL     1      -9.434  10.975  69.369  1.00  0.00    -0.419 NA 
HETATM    2  H1  UNL     1      -9.133  10.828  70.333  1.00  0.00     0.000 HD 
HETATM    3  H2  UNL     1     -10.148  11.700  69.290  1.00  0.00     0.000 HD 
HETATM    4  N   UNL     1      -9.865   9.716  68.818  1.00  0.00    -0.160 NA 
HETATM    5  H   UNL     1     -10.584   9.268  69.386  1.00  0.00     0.000 HD 
ENDROOT
BRANCH   4   6
HETATM    6  C   UNL     1     -10.298   9.927  67.429  1.00  0.00    -0.246 C  
BRANCH   6   7
HETATM    7  C   UNL     1      -9.989  11.358  66.974  1.00  0.00    -0.227 C  
BRANCH   7   8
HETATM    8  C   UNL     1     -10.888  11.772  65.835  1.00  0.00    -0.339 A  
HETATM    9  C   UNL     1     -10.630  11.327  64.531  1.00  0.00    -0.401 A  
HETATM   10  C   UNL     1     -11.425  11.755  63.468  1.00  0.00    -0.489 A  
HETATM   11  C   UNL     1     -12.484  12.632  63.697  1.00  0.00    -0.523 A  
HETATM   12  C   UNL     1     -12.752  13.078  64.990  1.00  0.00    -0.475 A  
HETATM   13  C   UNL     1     -11.957  12.650  66.056  1.00  0.00    -0.478 A  
ENDBRANCH   7   8
ENDBRANCH   6   7
ENDBRANCH   4   6
TORSDOF 3
ENDMDL
MODEL       97
REMARK 921   NORMALIZED FREE ENERGY PREDICTED BY IDOCK:   -3.17 KCAL/MOL
REMARK 922        TOTAL FREE ENERGY PREDICTED BY IDOCK:   -3.83 KCAL/MOL
REMARK 923 INTER-LIGAND FREE ENERGY PREDICTED BY IDOCK:   -3.73 KCAL/MOL
REMARK 924 INTRA-LIGAND FREE ENERGY PREDICTED BY IDOCK:   -0.10 KCAL/MOL
REMARK 927      BINDING AFFINITY PREDICTED BY RF-SCORE:    0.00 PKD
ROOT
HETATM    1  N   UNL     1     -11.092   6.380  68.004  1.00  0.00    -0.471 NA 
HETATM    2  H1  UNL     1     -11.678   5.594  67.723  1.00  0.00     0.000 HD 
HETATM    3  H2  UNL     1     -11.396   6.798  68.884  1.00  0.00     0.000 HD 
HETATM    4  N   UNL     1     -11.049   7.337  66.927  1.00  0.00    -0.574 NA 
HETATM    5  H   UNL     1     -11.979   7.631  66.631  1.00  0.00     0.000 HD 
ENDROOT
BRANCH   4   6
HETATM    6  C   UNL     1     -10.204   8.471  67.332  1.00  0.00    -0.261 C  
BRANCH   6   7
HETATM    7  C   UNL     1      -9.910   9.384  66.136  1.00  0.00    -0.356 C  
BRANCH   7   8
HETATM    8  C   UNL     1     -10.463  10.770  66.363  1.00  0.00    -0.293 A  
HETATM    9  C   UNL     1     -11.224  11.050  67.507  1.00  0.00    -0.372 A  
HETATM   10  C   UNL     1     -11.785  12.315  67.689  1.00  0.00    -0.403 A  
HETATM   11  C   UNL     1     -11.592  13.309  66.731  1.00  0.00    -0.408 A  
HETATM   12  C   UNL     1     -10.835  13.042  65.593  1.00  0.00    -0.293 A  
HETATM   13  C   UNL     1     -10.272  11.777  65.408  1.00  0.00    -0.301 A  
ENDBRANCH   7   8
ENDBRANCH   6   7
ENDBRANCH   4   6
TORSDOF 3
ENDMDL
MODEL       98
REMARK 921   NORMALIZED FREE ENERGY PREDICTED BY IDOCK:   -3.16 KCAL/MOL
REMARK 922        TOTAL FREE ENERGY PREDICTED BY IDOCK:   -3.82 KCAL/MOL
REMARK 923 INTER-LIGAND FREE ENERGY PREDICTED BY IDOCK:   -3.70 KCAL/MOL
REMARK 924 INTRA-LIGAND FREE ENERGY PREDICTED BY IDOCK:   -0.12 KCAL/MOL
REMARK 927      BINDING AFFINITY PREDICTED BY RF-SCORE:    0.00 PKD
ROOT
HETATM    1  N   UNL     1      -8.757  13.019  66.608  1.00  0.00    -0.421 NA 
HETATM    2  H1  UNL     1      -7.896  12.813  66.101  1.00  0.00     0.000 HD 
HETATM    3  H2  UNL     1      -9.476  12.312  66.458  1.00  0.00     0.000 HD 
HETATM    4  N   UNL     1      -9.204  14.342  66.251  1.00  0.00    -0.487 NA 
HETATM    5  H   UNL     1      -9.308  14.458  65.243  1.00  0.00     0.000 HD 
ENDROOT
BRANCH   4   6
HETATM    6  C   UNL     1     -10.445  14.639  66.981  1.00  0.00    -0.269 C  
BRANCH   6   7
HETATM    7  C   UNL     1     -10.882  13.434  67.823  1.00  0.00    -0.267 C  
BRANCH   7   8
HETATM    8  C   UNL     1     -11.484  13.878  69.134  1.00  0.00    -0.345 A  
HETATM    9  C   UNL     1     -11.496  15.235  69.483  1.00  0.00    -0.318 A  
HETATM   10  C   UNL     1     -11.999  15.641  70.720  1.00  0.00    -0.438 A  
HETATM   11  C   UNL     1     -12.492  14.695  71.618  1.00  0.00    -0.410 A  
HETATM   12  C   UNL     1     -12.488  13.344  71.278  1.00  0.00    -0.368 A  
HETATM   13  C   UNL     1     -11.986  12.936  70.041  1.00  0.00    -0.380 A  
ENDBRANCH   7   8
ENDBRANCH   6   7
ENDBRANCH   4   6
TORSDOF 3
ENDMDL
MODEL       99
REMARK 921   NORMALIZED FREE ENERGY PREDICTED BY IDOCK:   -3.13 KCAL/MOL
REMARK 922        TOTAL FREE ENERGY PREDICTED BY IDOCK:   -3.79 KCAL/MOL
REMARK 923 INTER-LIGAND FREE ENERGY PREDICTED BY IDOCK:   -3.67 KCAL/MOL
REMARK 924 INTRA-LIGAND FREE ENERGY PREDICTED BY IDOCK:   -0.11 KCAL/MOL
REMARK 927      BINDING AFFINITY PREDICTED BY RF-SCORE:    0.00 PKD
ROOT
HETATM    1  N   UNL     1      -7.285  14.622  67.040  1.00  0.00    -0.342 NA 
HETATM    2  H1  UNL     1      -7.264  13.721  66.563  1.00  0.00     0.000 HD 
HETATM    3  H2  UNL     1      -6.354  14.940  67.312  1.00  0.00     0.000 HD 
HETATM    4  N   UNL     1      -8.185  14.535  68.162  1.00  0.00    -0.137 NA 
HETATM    5  H   UNL     1      -7.950  13.767  68.791  1.00  0.00     0.000 HD 
ENDROOT
BRANCH   4   6
HETATM    6  C   UNL     1      -8.214  15.834  68.850  1.00  0.00    -0.210 C  
BRANCH   6   7
HETATM    7  C   UNL     1      -9.654  16.342  68.993  1.00  0.00    -0.257 C  
BRANCH   7   8
HETATM    8  C   UNL     1      -9.864  17.606  68.196  1.00  0.00    -0.318 A  
HETATM    9  C   UNL     1      -9.786  18.858  68.820  1.00  0.00    -0.461 A  
HETATM   10  C   UNL     1     -10.039  20.025  68.097  1.00  0.00    -0.547 A  
HETATM   11  C   UNL     1     -10.373  19.950  66.746  1.00  0.00    -0.599 A  
HETATM   12  C   UNL     1     -10.450  18.711  66.115  1.00  0.00    -0.473 A  
HETATM   13  C   UNL     1     -10.197  17.542  66.836  1.00  0.00    -0.329 A  
ENDBRANCH   7   8
ENDBRANCH   6   7
ENDBRANCH   4   6
TORSDOF 3
ENDMDL
MODEL      100
REMARK 921   NORMALIZED FREE ENERGY PREDICTED BY IDOCK:   -3.11 KCAL/MOL
REMARK 922        TOTAL FREE ENERGY PREDICTED BY IDOCK:   -3.77 KCAL/MOL
REMARK 923 INTER-LIGAND FREE ENERGY PREDICTED BY IDOCK:   -3.66 KCAL/MOL
REMARK 924 INTRA-LIGAND FREE ENERGY PREDICTED BY IDOCK:   -0.11 KCAL/MOL
REMARK 927      BINDING AFFINITY PREDICTED BY RF-SCORE:    0.00 PKD
ROOT
HETATM    1  N   UNL     1     -10.692   4.452  65.320  1.00  0.00    -0.650 NA 
HETATM    2  H1  UNL     1     -11.424   4.156  64.673  1.00  0.00     0.000 HD 
HETATM    3  H2  UNL     1     -10.289   3.670  65.837  1.00  0.00     0.000 HD 
HETATM    4  N   UNL     1     -11.224   5.470  66.191  1.00  0.00    -0.761 NA 
HETATM    5  H   UNL     1     -12.070   5.167  66.672  1.00  0.00     0.000 HD 
ENDROOT
BRANCH   4   6
HETATM    6  C   UNL     1     -10.170   5.897  67.123  1.00  0.00    -0.203 C  
BRANCH   6   7
HETATM    7  C   UNL     1      -9.229   6.906  66.455  1.00  0.00    -0.195 C  
BRANCH   7   8
HETATM    8  C   UNL     1      -9.727   8.319  66.643  1.00  0.00    -0.321 A  
HETATM    9  C   UNL     1     -10.502   8.653  67.762  1.00  0.00    -0.287 A  
HETATM   10  C   UNL     1     -11.013   9.944  67.906  1.00  0.00    -0.281 A  
HETATM   11  C   UNL     1     -10.756  10.909  66.935  1.00  0.00    -0.318 A  
HETATM   12  C   UNL     1      -9.984  10.588  65.820  1.00  0.00    -0.318 A  
HETATM   13  C   UNL     1      -9.471   9.297  65.674  1.00  0.00    -0.324 A  
ENDBRANCH   7   8
ENDBRANCH   6   7
ENDBRANCH   4   6
TORSDOF 3
ENDMDL
MODEL      101
REMARK 921   NORMALIZED FREE ENERGY PREDICTED BY IDOCK:   -3.10 KCAL/MOL
REMARK 922        TOTAL FREE ENERGY PREDICTED BY IDOCK:   -3.75 KCAL/MOL
REMARK 923 INTER-LIGAND FREE ENERGY PREDICTED BY IDOCK:   -3.67 KCAL/MOL
REMARK 924 INTRA-LIGAND FREE ENERGY PREDICTED BY IDOCK:   -0.08 KCAL/MOL
REMARK 927      BINDING AFFINITY PREDICTED BY RF-SCORE:    0.00 PKD
ROOT
HETATM    1  N   UNL     1      -8.728  17.172  65.920  1.00  0.00    -0.537 NA 
HETATM    2  H1  UNL     1      -8.405  17.858  65.237  1.00  0.00     0.000 HD 
HETATM    3  H2  UNL     1      -8.165  16.322  65.914  1.00  0.00     0.000 HD 
HETATM    4  N   UNL     1     -10.126  16.907  65.688  1.00  0.00    -0.586 NA 
HETATM    5  H   UNL     1     -10.313  16.619  64.728  1.00  0.00     0.000 HD 
ENDROOT
BRANCH   4   6
HETATM    6  C   UNL     1     -10.592  15.919  66.672  1.00  0.00    -0.305 C  
BRANCH   6   7
HETATM    7  C   UNL     1      -9.844  16.080  68.001  1.00  0.00    -0.222 C  
BRANCH   7   8
HETATM    8  C   UNL     1     -10.719  15.685  69.166  1.00  0.00    -0.243 A  
HETATM    9  C   UNL     1     -10.865  16.543  70.265  1.00  0.00    -0.156 A  
HETATM   10  C   UNL     1     -11.626  16.153  71.368  1.00  0.00    -0.495 A  
HETATM   11  C   UNL     1     -12.246  14.905  71.383  1.00  0.00    -0.391 A  
HETATM   12  C   UNL     1     -12.110  14.046  70.295  1.00  0.00    -0.425 A  
HETATM   13  C   UNL     1     -11.349  14.434  69.189  1.00  0.00    -0.308 A  
ENDBRANCH   7   8
ENDBRANCH   6   7
ENDBRANCH   4   6
TORSDOF 3
ENDMDL
MODEL      102
REMARK 921   NORMALIZED FREE ENERGY PREDICTED BY IDOCK:   -3.09 KCAL/MOL
REMARK 922        TOTAL FREE ENERGY PREDICTED BY IDOCK:   -3.74 KCAL/MOL
REMARK 923 INTER-LIGAND FREE ENERGY PREDICTED BY IDOCK:   -3.62 KCAL/MOL
REMARK 924 INTRA-LIGAND FREE ENERGY PREDICTED BY IDOCK:   -0.12 KCAL/MOL
REMARK 927      BINDING AFFINITY PREDICTED BY RF-SCORE:    0.00 PKD
ROOT
HETATM    1  N   UNL     1      -6.920  11.530  66.418  1.00  0.00    -0.360 NA 
HETATM    2  H1  UNL     1      -5.917  11.359  66.340  1.00  0.00     0.000 HD 
HETATM    3  H2  UNL     1      -7.402  11.433  65.524  1.00  0.00     0.000 HD 
HETATM    4  N   UNL     1      -7.126  12.825  67.016  1.00  0.00    -0.366 NA 
HETATM    5  H   UNL     1      -6.642  13.568  66.512  1.00  0.00     0.000 HD 
ENDROOT
BRANCH   4   6
HETATM    6  C   UNL     1      -8.571  13.073  67.128  1.00  0.00    -0.195 C  
BRANCH   6   7
HETATM    7  C   UNL     1      -9.370  11.899  66.549  1.00  0.00    -0.222 C  
BRANCH   7   8
HETATM    8  C   UNL     1     -10.406  12.383  65.563  1.00  0.00    -0.298 A  
HETATM    9  C   UNL     1     -10.745  11.601  64.451  1.00  0.00    -0.387 A  
HETATM   10  C   UNL     1     -11.658  12.073  63.507  1.00  0.00    -0.553 A  
HETATM   11  C   UNL     1     -12.239  13.330  63.666  1.00  0.00    -0.522 A  
HETATM   12  C   UNL     1     -11.911  14.114  64.770  1.00  0.00    -0.441 A  
HETATM   13  C   UNL     1     -10.998  13.644  65.716  1.00  0.00    -0.281 A  
ENDBRANCH   7   8
ENDBRANCH   6   7
ENDBRANCH   4   6
TORSDOF 3
ENDMDL
MODEL      103
REMARK 921   NORMALIZED FREE ENERGY PREDICTED BY IDOCK:   -3.09 KCAL/MOL
REMARK 922        TOTAL FREE ENERGY PREDICTED BY IDOCK:   -3.74 KCAL/MOL
REMARK 923 INTER-LIGAND FREE ENERGY PREDICTED BY IDOCK:   -3.66 KCAL/MOL
REMARK 924 INTRA-LIGAND FREE ENERGY PREDICTED BY IDOCK:   -0.08 KCAL/MOL
REMARK 927      BINDING AFFINITY PREDICTED BY RF-SCORE:    0.00 PKD
ROOT
HETATM    1  N   UNL     1     -10.022   8.563  66.143  1.00  0.00    -0.468 NA 
HETATM    2  H1  UNL     1     -10.134   9.078  65.269  1.00  0.00     0.000 HD 
HETATM    3  H2  UNL     1     -10.702   7.809  66.241  1.00  0.00     0.000 HD 
HETATM    4  N   UNL     1     -10.072   9.494  67.242  1.00  0.00    -0.200 NA 
HETATM    5  H   UNL     1     -10.919  10.063  67.231  1.00  0.00     0.000 HD 
ENDROOT
BRANCH   4   6
HETATM    6  C   UNL     1      -9.911   8.752  68.502  1.00  0.00    -0.182 C  
BRANCH   6   7
HETATM    7  C   UNL     1      -9.768   9.716  69.686  1.00  0.00    -0.230 C  
BRANCH   7   8
HETATM    8  C   UNL     1     -10.978   9.652  70.586  1.00  0.00    -0.386 A  
HETATM    9  C   UNL     1     -11.928  10.683  70.569  1.00  0.00    -0.446 A  
HETATM   10  C   UNL     1     -13.016  10.654  71.443  1.00  0.00    -0.545 A  
HETATM   11  C   UNL     1     -13.163   9.598  72.340  1.00  0.00    -0.413 A  
HETATM   12  C   UNL     1     -12.227   8.567  72.362  1.00  0.00    -0.432 A  
HETATM   13  C   UNL     1     -11.137   8.593  71.489  1.00  0.00    -0.358 A  
ENDBRANCH   7   8
ENDBRANCH   6   7
ENDBRANCH   4   6
TORSDOF 3
ENDMDL
MODEL      104
REMARK 921   NORMALIZED FREE ENERGY PREDICTED BY IDOCK:   -3.08 KCAL/MOL
REMARK 922        TOTAL FREE ENERGY PREDICTED BY IDOCK:   -3.73 KCAL/MOL
REMARK 923 INTER-LIGAND FREE ENERGY PREDICTED BY IDOCK:   -3.67 KCAL/MOL
REMARK 924 INTRA-LIGAND FREE ENERGY PREDICTED BY IDOCK:   -0.06 KCAL/MOL
REMARK 927      BINDING AFFINITY PREDICTED BY RF-SCORE:    0.00 PKD
ROOT
HETATM    1  N   UNL     1      -7.698  18.191  65.738  1.00  0.00    -0.538 NA 
HETATM    2  H1  UNL     1      -7.537  19.196  65.653  1.00  0.00     0.000 HD 
HETATM    3  H2  UNL     1      -7.355  17.672  64.929  1.00  0.00     0.000 HD 
HETATM    4  N   UNL     1      -9.100  17.964  65.982  1.00  0.00    -0.518 NA 
HETATM    5  H   UNL     1      -9.693  18.395  65.273  1.00  0.00     0.000 HD 
ENDROOT
BRANCH   4   6
HETATM    6  C   UNL     1      -9.333  16.517  66.104  1.00  0.00    -0.304 C  
BRANCH   6   7
HETATM    7  C   UNL     1     -10.571  16.236  66.964  1.00  0.00    -0.284 C  
BRANCH   7   8
HETATM    8  C   UNL     1     -10.920  14.767  66.947  1.00  0.00    -0.328 A  
HETATM    9  C   UNL     1     -11.783  14.256  65.969  1.00  0.00    -0.384 A  
HETATM   10  C   UNL     1     -12.154  12.911  65.988  1.00  0.00    -0.484 A  
HETATM   11  C   UNL     1     -11.666  12.066  66.984  1.00  0.00    -0.341 A  
HETATM   12  C   UNL     1     -10.804  12.564  67.959  1.00  0.00    -0.252 A  
HETATM   13  C   UNL     1     -10.432  13.910  67.942  1.00  0.00    -0.242 A  
ENDBRANCH   7   8
ENDBRANCH   6   7
ENDBRANCH   4   6
TORSDOF 3
ENDMDL
MODEL      105
REMARK 921   NORMALIZED FREE ENERGY PREDICTED BY IDOCK:   -3.07 KCAL/MOL
REMARK 922        TOTAL FREE ENERGY PREDICTED BY IDOCK:   -3.72 KCAL/MOL
REMARK 923 INTER-LIGAND FREE ENERGY PREDICTED BY IDOCK:   -3.63 KCAL/MOL
REMARK 924 INTRA-LIGAND FREE ENERGY PREDICTED BY IDOCK:   -0.09 KCAL/MOL
REMARK 927      BINDING AFFINITY PREDICTED BY RF-SCORE:    0.00 PKD
ROOT
HETATM    1  N   UNL     1      -9.554  11.092  65.868  1.00  0.00    -0.209 NA 
HETATM    2  H1  UNL     1      -8.696  11.534  65.535  1.00  0.00     0.000 HD 
HETATM    3  H2  UNL     1     -10.247  10.982  65.127  1.00  0.00     0.000 HD 
HETATM    4  N   UNL     1     -10.060  11.844  66.988  1.00  0.00    -0.204 NA 
HETATM    5  H   UNL     1     -10.191  12.831  66.767  1.00  0.00     0.000 HD 
ENDROOT
BRANCH   4   6
HETATM    6  C   UNL     1     -11.296  11.208  67.467  1.00  0.00    -0.278 C  
BRANCH   6   7
HETATM    7  C   UNL     1     -11.758  11.842  68.785  1.00  0.00    -0.389 C  
BRANCH   7   8
HETATM    8  C   UNL     1     -11.660  10.856  69.924  1.00  0.00    -0.410 A  
HETATM    9  C   UNL     1     -10.509  10.073  70.084  1.00  0.00    -0.338 A  
HETATM   10  C   UNL     1     -10.440   9.120  71.102  1.00  0.00    -0.385 A  
HETATM   11  C   UNL     1     -11.520   8.941  71.966  1.00  0.00    -0.431 A  
HETATM   12  C   UNL     1     -12.666   9.718  71.817  1.00  0.00    -0.519 A  
HETATM   13  C   UNL     1     -12.738  10.672  70.800  1.00  0.00    -0.468 A  
ENDBRANCH   7   8
ENDBRANCH   6   7
ENDBRANCH   4   6
TORSDOF 3
ENDMDL
MODEL      106
REMARK 921   NORMALIZED FREE ENERGY PREDICTED BY IDOCK:   -3.06 KCAL/MOL
REMARK 922        TOTAL FREE ENERGY PREDICTED BY IDOCK:   -3.71 KCAL/MOL
REMARK 923 INTER-LIGAND FREE ENERGY PREDICTED BY IDOCK:   -3.61 KCAL/MOL
REMARK 924 INTRA-LIGAND FREE ENERGY PREDICTED BY IDOCK:   -0.10 KCAL/MOL
REMARK 927      BINDING AFFINITY PREDICTED BY RF-SCORE:    0.00 PKD
ROOT
HETATM    1  N   UNL     1      -9.339  10.990  69.371  1.00  0.00    -0.403 NA 
HETATM    2  H1  UNL     1      -8.364  10.695  69.306  1.00  0.00     0.000 HD 
HETATM    3  H2  UNL     1      -9.983  10.292  68.996  1.00  0.00     0.000 HD 
HETATM    4  N   UNL     1      -9.482  12.271  68.728  1.00  0.00    -0.403 NA 
HETATM    5  H   UNL     1      -9.140  12.265  67.767  1.00  0.00     0.000 HD 
ENDROOT
BRANCH   4   6
HETATM    6  C   UNL     1     -10.886  12.696  68.821  1.00  0.00    -0.231 C  
BRANCH   6   7
HETATM    7  C   UNL     1     -11.015  14.204  68.575  1.00  0.00    -0.271 C  
BRANCH   7   8
HETATM    8  C   UNL     1     -11.279  14.495  67.117  1.00  0.00    -0.341 A  
HETATM    9  C   UNL     1     -10.517  15.456  66.438  1.00  0.00    -0.307 A  
HETATM   10  C   UNL     1     -10.799  15.767  65.107  1.00  0.00    -0.444 A  
HETATM   11  C   UNL     1     -11.843  15.124  64.445  1.00  0.00    -0.314 A  
HETATM   12  C   UNL     1     -12.603  14.165  65.110  1.00  0.00    -0.426 A  
HETATM   13  C   UNL     1     -12.324  13.851  66.441  1.00  0.00    -0.468 A  
ENDBRANCH   7   8
ENDBRANCH   6   7
ENDBRANCH   4   6
TORSDOF 3
ENDMDL
MODEL      107
REMARK 921   NORMALIZED FREE ENERGY PREDICTED BY IDOCK:   -3.04 KCAL/MOL
REMARK 922        TOTAL FREE ENERGY PREDICTED BY IDOCK:   -3.68 KCAL/MOL
REMARK 923 INTER-LIGAND FREE ENERGY PREDICTED BY IDOCK:   -3.54 KCAL/MOL
REMARK 924 INTRA-LIGAND FREE ENERGY PREDICTED BY IDOCK:   -0.14 KCAL/MOL
REMARK 927      BINDING AFFINITY PREDICTED BY RF-SCORE:    0.00 PKD
ROOT
HETATM    1  N   UNL     1     -12.628   8.155  70.732  1.00  0.00    -0.485 NA 
HETATM    2  H1  UNL     1     -13.171   7.296  70.824  1.00  0.00     0.000 HD 
HETATM    3  H2  UNL     1     -11.800   8.159  71.328  1.00  0.00     0.000 HD 
HETATM    4  N   UNL     1     -13.491   9.282  70.982  1.00  0.00    -0.572 NA 
HETATM    5  H   UNL     1     -13.965   9.215  71.883  1.00  0.00     0.000 HD 
ENDROOT
BRANCH   4   6
HETATM    6  C   UNL     1     -12.709  10.519  70.850  1.00  0.00    -0.402 C  
BRANCH   6   7
HETATM    7  C   UNL     1     -11.275  10.211  70.403  1.00  0.00    -0.402 C  
BRANCH   7   8
HETATM    8  C   UNL     1     -10.914  10.992  69.162  1.00  0.00    -0.289 A  
HETATM    9  C   UNL     1      -9.581  11.073  68.739  1.00  0.00    -0.194 A  
HETATM   10  C   UNL     1      -9.239  11.843  67.626  1.00  0.00    -0.183 A  
HETATM   11  C   UNL     1     -10.225  12.538  66.928  1.00  0.00    -0.237 A  
HETATM   12  C   UNL     1     -11.554  12.461  67.339  1.00  0.00    -0.433 A  
HETATM   13  C   UNL     1     -11.899  11.691  68.452  1.00  0.00    -0.346 A  
ENDBRANCH   7   8
ENDBRANCH   6   7
ENDBRANCH   4   6
TORSDOF 3
ENDMDL
MODEL      108
REMARK 921   NORMALIZED FREE ENERGY PREDICTED BY IDOCK:   -3.03 KCAL/MOL
REMARK 922        TOTAL FREE ENERGY PREDICTED BY IDOCK:   -3.67 KCAL/MOL
REMARK 923 INTER-LIGAND FREE ENERGY PREDICTED BY IDOCK:   -3.56 KCAL/MOL
REMARK 924 INTRA-LIGAND FREE ENERGY PREDICTED BY IDOCK:   -0.11 KCAL/MOL
REMARK 927      BINDING AFFINITY PREDICTED BY RF-SCORE:    0.00 PKD
ROOT
HETATM    1  N   UNL     1      -8.353   8.830  66.316  1.00  0.00    -0.114 NA 
HETATM    2  H1  UNL     1      -8.244   7.956  66.830  1.00  0.00     0.000 HD 
HETATM    3  H2  UNL     1      -8.772   9.567  66.884  1.00  0.00     0.000 HD 
HETATM    4  N   UNL     1      -9.101   8.572  65.112  1.00  0.00    -0.426 NA 
HETATM    5  H   UNL     1      -9.994   8.116  65.299  1.00  0.00     0.000 HD 
ENDROOT
BRANCH   4   6
HETATM    6  C   UNL     1      -9.258   9.832  64.370  1.00  0.00    -0.245 C  
BRANCH   6   7
HETATM    7  C   UNL     1      -9.315  11.025  65.331  1.00  0.00    -0.244 C  
BRANCH   7   8
HETATM    8  C   UNL     1     -10.344  12.034  64.882  1.00  0.00    -0.316 A  
HETATM    9  C   UNL     1     -11.328  11.675  63.951  1.00  0.00    -0.457 A  
HETATM   10  C   UNL     1     -12.244  12.623  63.491  1.00  0.00    -0.638 A  
HETATM   11  C   UNL     1     -12.182  13.936  63.955  1.00  0.00    -0.413 A  
HETATM   12  C   UNL     1     -11.209  14.302  64.882  1.00  0.00    -0.381 A  
HETATM   13  C   UNL     1     -10.293  13.356  65.345  1.00  0.00    -0.321 A  
ENDBRANCH   7   8
ENDBRANCH   6   7
ENDBRANCH   4   6
TORSDOF 3
ENDMDL
MODEL      109
REMARK 921   NORMALIZED FREE ENERGY PREDICTED BY IDOCK:   -3.00 KCAL/MOL
REMARK 922        TOTAL FREE ENERGY PREDICTED BY IDOCK:   -3.64 KCAL/MOL
REMARK 923 INTER-LIGAND FREE ENERGY PREDICTED BY IDOCK:   -3.53 KCAL/MOL
REMARK 924 INTRA-LIGAND FREE ENERGY PREDICTED BY IDOCK:   -0.10 KCAL/MOL
REMARK 927      BINDING AFFINITY PREDICTED BY RF-SCORE:    0.00 PKD
ROOT
HETATM    1  N   UNL     1      -8.463  10.778  64.880  1.00  0.00    -0.333 NA 
HETATM    2  H1  UNL     1      -7.443  10.758  64.848  1.00  0.00     0.000 HD 
HETATM    3  H2  UNL     1      -8.879  10.937  63.962  1.00  0.00     0.000 HD 
HETATM    4  N   UNL     1      -8.880  11.759  65.850  1.00  0.00    -0.397 NA 
HETATM    5  H   UNL     1      -8.479  12.679  65.669  1.00  0.00     0.000 HD 
ENDROOT
BRANCH   4   6
HETATM    6  C   UNL     1     -10.350  11.788  65.896  1.00  0.00    -0.241 C  
BRANCH   6   7
HETATM    7  C   UNL     1     -10.872  10.976  67.087  1.00  0.00    -0.336 C  
BRANCH   7   8
HETATM    8  C   UNL     1     -11.412  11.883  68.166  1.00  0.00    -0.384 A  
HETATM    9  C   UNL     1     -11.617  13.245  67.909  1.00  0.00    -0.370 A  
HETATM   10  C   UNL     1     -12.060  14.096  68.923  1.00  0.00    -0.339 A  
HETATM   11  C   UNL     1     -12.300  13.593  70.201  1.00  0.00    -0.372 A  
HETATM   12  C   UNL     1     -12.102  12.240  70.466  1.00  0.00    -0.371 A  
HETATM   13  C   UNL     1     -11.659  11.387  69.453  1.00  0.00    -0.391 A  
ENDBRANCH   7   8
ENDBRANCH   6   7
ENDBRANCH   4   6
TORSDOF 3
ENDMDL
MODEL      110
REMARK 921   NORMALIZED FREE ENERGY PREDICTED BY IDOCK:   -3.00 KCAL/MOL
REMARK 922        TOTAL FREE ENERGY PREDICTED BY IDOCK:   -3.63 KCAL/MOL
REMARK 923 INTER-LIGAND FREE ENERGY PREDICTED BY IDOCK:   -3.50 KCAL/MOL
REMARK 924 INTRA-LIGAND FREE ENERGY PREDICTED BY IDOCK:   -0.12 KCAL/MOL
REMARK 927      BINDING AFFINITY PREDICTED BY RF-SCORE:    0.00 PKD
ROOT
HETATM    1  N   UNL     1      -7.433  14.170  67.108  1.00  0.00    -0.319 NA 
HETATM    2  H1  UNL     1      -6.488  13.825  67.284  1.00  0.00     0.000 HD 
HETATM    3  H2  UNL     1      -7.538  15.156  67.350  1.00  0.00     0.000 HD 
HETATM    4  N   UNL     1      -8.373  13.330  67.804  1.00  0.00    -0.157 NA 
HETATM    5  H   UNL     1      -8.165  13.255  68.800  1.00  0.00     0.000 HD 
ENDROOT
BRANCH   4   6
HETATM    6  C   UNL     1      -9.734  13.827  67.552  1.00  0.00    -0.230 C  
BRANCH   6   7
HETATM    7  C   UNL     1      -9.852  14.389  66.130  1.00  0.00    -0.340 C  
BRANCH   7   8
HETATM    8  C   UNL     1     -10.702  13.493  65.263  1.00  0.00    -0.328 A  
HETATM    9  C   UNL     1     -10.103  12.623  64.342  1.00  0.00    -0.281 A  
HETATM   10  C   UNL     1     -10.889  11.837  63.498  1.00  0.00    -0.496 A  
HETATM   11  C   UNL     1     -12.279  11.915  63.566  1.00  0.00    -0.591 A  
HETATM   12  C   UNL     1     -12.885  12.774  64.481  1.00  0.00    -0.323 A  
HETATM   13  C   UNL     1     -12.100  13.561  65.326  1.00  0.00    -0.439 A  
ENDBRANCH   7   8
ENDBRANCH   6   7
ENDBRANCH   4   6
TORSDOF 3
ENDMDL
MODEL      111
REMARK 921   NORMALIZED FREE ENERGY PREDICTED BY IDOCK:   -2.99 KCAL/MOL
REMARK 922        TOTAL FREE ENERGY PREDICTED BY IDOCK:   -3.63 KCAL/MOL
REMARK 923 INTER-LIGAND FREE ENERGY PREDICTED BY IDOCK:   -3.56 KCAL/MOL
REMARK 924 INTRA-LIGAND FREE ENERGY PREDICTED BY IDOCK:   -0.07 KCAL/MOL
REMARK 927      BINDING AFFINITY PREDICTED BY RF-SCORE:    0.00 PKD
ROOT
HETATM    1  N   UNL     1     -12.180  14.671  67.901  1.00  0.00    -0.603 NA 
HETATM    2  H1  UNL     1     -13.064  14.164  67.839  1.00  0.00     0.000 HD 
HETATM    3  H2  UNL     1     -11.376  14.046  67.959  1.00  0.00     0.000 HD 
HETATM    4  N   UNL     1     -12.246  15.587  69.011  1.00  0.00    -0.611 NA 
HETATM    5  H   UNL     1     -12.491  15.122  69.885  1.00  0.00     0.000 HD 
ENDROOT
BRANCH   4   6
HETATM    6  C   UNL     1     -10.973  16.317  69.102  1.00  0.00    -0.324 C  
BRANCH   6   7
HETATM    7  C   UNL     1     -10.792  17.244  67.894  1.00  0.00    -0.283 C  
BRANCH   7   8
HETATM    8  C   UNL     1      -9.417  17.868  67.892  1.00  0.00    -0.272 A  
HETATM    9  C   UNL     1      -8.362  17.253  67.203  1.00  0.00    -0.220 A  
HETATM   10  C   UNL     1      -7.077  17.797  67.249  1.00  0.00    -0.201 A  
HETATM   11  C   UNL     1      -6.836  18.957  67.983  1.00  0.00    -0.251 A  
HETATM   12  C   UNL     1      -7.878  19.577  68.668  1.00  0.00    -0.383 A  
HETATM   13  C   UNL     1      -9.165  19.035  68.624  1.00  0.00    -0.414 A  
ENDBRANCH   7   8
ENDBRANCH   6   7
ENDBRANCH   4   6
TORSDOF 3
ENDMDL
MODEL      112
REMARK 921   NORMALIZED FREE ENERGY PREDICTED BY IDOCK:   -2.99 KCAL/MOL
REMARK 922        TOTAL FREE ENERGY PREDICTED BY IDOCK:   -3.62 KCAL/MOL
REMARK 923 INTER-LIGAND FREE ENERGY PREDICTED BY IDOCK:   -3.50 KCAL/MOL
REMARK 924 INTRA-LIGAND FREE ENERGY PREDICTED BY IDOCK:   -0.12 KCAL/MOL
REMARK 927      BINDING AFFINITY PREDICTED BY RF-SCORE:    0.00 PKD
ROOT
HETATM    1  N   UNL     1     -12.021  16.570  72.325  1.00  0.00    -0.620 NA 
HETATM    2  H1  UNL     1     -12.774  16.962  72.892  1.00  0.00     0.000 HD 
HETATM    3  H2  UNL     1     -11.307  17.261  72.095  1.00  0.00     0.000 HD 
HETATM    4  N   UNL     1     -12.592  15.958  71.152  1.00  0.00    -0.546 NA 
HETATM    5  H   UNL     1     -13.181  16.602  70.625  1.00  0.00     0.000 HD 
ENDROOT
BRANCH   4   6
HETATM    6  C   UNL     1     -11.508  15.393  70.335  1.00  0.00    -0.330 C  
BRANCH   6   7
HETATM    7  C   UNL     1     -11.756  15.657  68.845  1.00  0.00    -0.396 C  
BRANCH   7   8
HETATM    8  C   UNL     1     -10.557  16.312  68.204  1.00  0.00    -0.307 A  
HETATM    9  C   UNL     1      -9.645  17.037  68.983  1.00  0.00    -0.197 A  
HETATM   10  C   UNL     1      -8.568  17.692  68.384  1.00  0.00    -0.284 A  
HETATM   11  C   UNL     1      -8.394  17.630  67.002  1.00  0.00    -0.239 A  
HETATM   12  C   UNL     1      -9.293  16.909  66.219  1.00  0.00    -0.292 A  
HETATM   13  C   UNL     1     -10.371  16.252  66.816  1.00  0.00    -0.296 A  
ENDBRANCH   7   8
ENDBRANCH   6   7
ENDBRANCH   4   6
TORSDOF 3
ENDMDL
MODEL      113
REMARK 921   NORMALIZED FREE ENERGY PREDICTED BY IDOCK:   -2.99 KCAL/MOL
REMARK 922        TOTAL FREE ENERGY PREDICTED BY IDOCK:   -3.62 KCAL/MOL
REMARK 923 INTER-LIGAND FREE ENERGY PREDICTED BY IDOCK:   -3.50 KCAL/MOL
REMARK 924 INTRA-LIGAND FREE ENERGY PREDICTED BY IDOCK:   -0.11 KCAL/MOL
REMARK 927      BINDING AFFINITY PREDICTED BY RF-SCORE:    0.00 PKD
ROOT
HETATM    1  N   UNL     1     -10.943  14.789  68.999  1.00  0.00    -0.239 NA 
HETATM    2  H1  UNL     1     -11.568  15.036  69.767  1.00  0.00     0.000 HD 
HETATM    3  H2  UNL     1      -9.960  14.907  69.244  1.00  0.00     0.000 HD 
HETATM    4  N   UNL     1     -11.315  15.550  67.833  1.00  0.00    -0.330 NA 
HETATM    5  H   UNL     1     -11.333  16.553  68.013  1.00  0.00     0.000 HD 
ENDROOT
BRANCH   4   6
HETATM    6  C   UNL     1     -10.415  15.194  66.726  1.00  0.00    -0.283 C  
BRANCH   6   7
HETATM    7  C   UNL     1     -10.330  16.336  65.706  1.00  0.00    -0.393 C  
BRANCH   7   8
HETATM    8  C   UNL     1      -9.805  17.597  66.348  1.00  0.00    -0.315 A  
HETATM    9  C   UNL     1      -8.527  17.620  66.924  1.00  0.00    -0.261 A  
HETATM   10  C   UNL     1      -8.064  18.767  67.570  1.00  0.00    -0.273 A  
HETATM   11  C   UNL     1      -8.873  19.900  67.646  1.00  0.00    -0.406 A  
HETATM   12  C   UNL     1     -10.143  19.889  67.074  1.00  0.00    -0.578 A  
HETATM   13  C   UNL     1     -10.608  18.742  66.427  1.00  0.00    -0.429 A  
ENDBRANCH   7   8
ENDBRANCH   6   7
ENDBRANCH   4   6
TORSDOF 3
ENDMDL
MODEL      114
REMARK 921   NORMALIZED FREE ENERGY PREDICTED BY IDOCK:   -2.97 KCAL/MOL
REMARK 922        TOTAL FREE ENERGY PREDICTED BY IDOCK:   -3.60 KCAL/MOL
REMARK 923 INTER-LIGAND FREE ENERGY PREDICTED BY IDOCK:   -3.60 KCAL/MOL
REMARK 924 INTRA-LIGAND FREE ENERGY PREDICTED BY IDOCK:   -0.01 KCAL/MOL
REMARK 927      BINDING AFFINITY PREDICTED BY RF-SCORE:    0.00 PKD
ROOT
HETATM    1  N   UNL     1     -11.650  15.875  68.647  1.00  0.00    -0.395 NA 
HETATM    2  H1  UNL     1     -11.585  15.279  69.473  1.00  0.00     0.000 HD 
HETATM    3  H2  UNL     1     -12.073  15.395  67.852  1.00  0.00     0.000 HD 
HETATM    4  N   UNL     1     -10.340  16.392  68.342  1.00  0.00    -0.268 NA 
HETATM    5  H   UNL     1      -9.645  15.653  68.235  1.00  0.00     0.000 HD 
ENDROOT
BRANCH   4   6
HETATM    6  C   UNL     1     -10.432  17.250  67.152  1.00  0.00    -0.297 C  
BRANCH   6   7
HETATM    7  C   UNL     1     -10.555  18.725  67.553  1.00  0.00    -0.497 C  
BRANCH   7   8
HETATM    8  C   UNL     1      -9.193  19.352  67.734  1.00  0.00    -0.382 A  
HETATM    9  C   UNL     1      -8.598  20.067  66.686  1.00  0.00    -0.382 A  
HETATM   10  C   UNL     1      -7.315  20.596  66.832  1.00  0.00    -0.339 A  
HETATM   11  C   UNL     1      -6.616  20.415  68.024  1.00  0.00    -0.340 A  
HETATM   12  C   UNL     1      -7.200  19.709  69.073  1.00  0.00    -0.379 A  
HETATM   13  C   UNL     1      -8.484  19.178  68.930  1.00  0.00    -0.318 A  
ENDBRANCH   7   8
ENDBRANCH   6   7
ENDBRANCH   4   6
TORSDOF 3
ENDMDL
MODEL      115
REMARK 921   NORMALIZED FREE ENERGY PREDICTED BY IDOCK:   -2.96 KCAL/MOL
REMARK 922        TOTAL FREE ENERGY PREDICTED BY IDOCK:   -3.58 KCAL/MOL
REMARK 923 INTER-LIGAND FREE ENERGY PREDICTED BY IDOCK:   -3.52 KCAL/MOL
REMARK 924 INTRA-LIGAND FREE ENERGY PREDICTED BY IDOCK:   -0.07 KCAL/MOL
REMARK 927      BINDING AFFINITY PREDICTED BY RF-SCORE:    0.00 PKD
ROOT
HETATM    1  N   UNL     1      -6.389   9.792  71.649  1.00  0.00    -0.305 NA 
HETATM    2  H1  UNL     1      -5.563  10.386  71.576  1.00  0.00     0.000 HD 
HETATM    3  H2  UNL     1      -6.165   8.800  71.560  1.00  0.00     0.000 HD 
HETATM    4  N   UNL     1      -7.362  10.225  70.678  1.00  0.00    -0.428 NA 
HETATM    5  H   UNL     1      -6.983  10.250  69.732  1.00  0.00     0.000 HD 
ENDROOT
BRANCH   4   6
HETATM    6  C   UNL     1      -8.553   9.369  70.784  1.00  0.00    -0.145 C  
BRANCH   6   7
HETATM    7  C   UNL     1      -9.750  10.013  70.073  1.00  0.00    -0.224 C  
BRANCH   7   8
HETATM    8  C   UNL     1     -11.054   9.504  70.639  1.00  0.00    -0.364 A  
HETATM    9  C   UNL     1     -12.054  10.403  71.032  1.00  0.00    -0.488 A  
HETATM   10  C   UNL     1     -13.236   9.936  71.609  1.00  0.00    -0.519 A  
HETATM   11  C   UNL     1     -13.427   8.569  71.800  1.00  0.00    -0.400 A  
HETATM   12  C   UNL     1     -12.440   7.667  71.410  1.00  0.00    -0.359 A  
HETATM   13  C   UNL     1     -11.257   8.131  70.832  1.00  0.00    -0.286 A  
ENDBRANCH   7   8
ENDBRANCH   6   7
ENDBRANCH   4   6
TORSDOF 3
ENDMDL
MODEL      116
REMARK 921   NORMALIZED FREE ENERGY PREDICTED BY IDOCK:   -2.92 KCAL/MOL
REMARK 922        TOTAL FREE ENERGY PREDICTED BY IDOCK:   -3.54 KCAL/MOL
REMARK 923 INTER-LIGAND FREE ENERGY PREDICTED BY IDOCK:   -3.44 KCAL/MOL
REMARK 924 INTRA-LIGAND FREE ENERGY PREDICTED BY IDOCK:   -0.10 KCAL/MOL
REMARK 927      BINDING AFFINITY PREDICTED BY RF-SCORE:    0.00 PKD
ROOT
HETATM    1  N   UNL     1      -8.077  14.936  69.646  1.00  0.00    -0.417 NA 
HETATM    2  H1  UNL     1      -8.136  13.934  69.466  1.00  0.00     0.000 HD 
HETATM    3  H2  UNL     1      -8.965  15.413  69.492  1.00  0.00     0.000 HD 
HETATM    4  N   UNL     1      -7.010  15.490  68.852  1.00  0.00    -0.122 NA 
HETATM    5  H   UNL     1      -7.114  15.279  67.859  1.00  0.00     0.000 HD 
ENDROOT
BRANCH   4   6
HETATM    6  C   UNL     1      -6.924  16.935  69.111  1.00  0.00    -0.234 C  
BRANCH   6   7
HETATM    7  C   UNL     1      -6.912  17.724  67.797  1.00  0.00    -0.191 C  
BRANCH   7   8
HETATM    8  C   UNL     1      -8.257  18.358  67.533  1.00  0.00    -0.255 A  
HETATM    9  C   UNL     1      -8.978  18.033  66.377  1.00  0.00    -0.249 A  
HETATM   10  C   UNL     1     -10.193  18.663  66.103  1.00  0.00    -0.450 A  
HETATM   11  C   UNL     1     -10.697  19.622  66.980  1.00  0.00    -0.575 A  
HETATM   12  C   UNL     1      -9.989  19.949  68.134  1.00  0.00    -0.551 A  
HETATM   13  C   UNL     1      -8.773  19.321  68.411  1.00  0.00    -0.395 A  
ENDBRANCH   7   8
ENDBRANCH   6   7
ENDBRANCH   4   6
TORSDOF 3
ENDMDL
MODEL      117
REMARK 921   NORMALIZED FREE ENERGY PREDICTED BY IDOCK:   -2.92 KCAL/MOL
REMARK 922        TOTAL FREE ENERGY PREDICTED BY IDOCK:   -3.54 KCAL/MOL
REMARK 923 INTER-LIGAND FREE ENERGY PREDICTED BY IDOCK:   -3.39 KCAL/MOL
REMARK 924 INTRA-LIGAND FREE ENERGY PREDICTED BY IDOCK:   -0.15 KCAL/MOL
REMARK 927      BINDING AFFINITY PREDICTED BY RF-SCORE:    0.00 PKD
ROOT
HETATM    1  N   UNL     1     -10.587  19.196  65.541  1.00  0.00    -0.499 NA 
HETATM    2  H1  UNL     1     -11.159  19.167  64.696  1.00  0.00     0.000 HD 
HETATM    3  H2  UNL     1      -9.760  19.784  65.431  1.00  0.00     0.000 HD 
HETATM    4  N   UNL     1     -10.254  17.847  65.925  1.00  0.00    -0.578 NA 
HETATM    5  H   UNL     1      -9.808  17.327  65.169  1.00  0.00     0.000 HD 
ENDROOT
BRANCH   4   6
HETATM    6  C   UNL     1      -9.429  17.889  67.141  1.00  0.00    -0.263 C  
BRANCH   6   7
HETATM    7  C   UNL     1      -7.963  17.577  66.814  1.00  0.00    -0.273 C  
BRANCH   7   8
HETATM    8  C   UNL     1      -7.192  18.843  66.528  1.00  0.00    -0.247 A  
HETATM    9  C   UNL     1      -7.119  19.861  67.489  1.00  0.00    -0.288 A  
HETATM   10  C   UNL     1      -6.456  21.055  67.203  1.00  0.00    -0.411 A  
HETATM   11  C   UNL     1      -5.861  21.243  65.957  1.00  0.00    -0.281 A  
HETATM   12  C   UNL     1      -5.925  20.236  64.996  1.00  0.00    -0.277 A  
HETATM   13  C   UNL     1      -6.587  19.040  65.279  1.00  0.00    -0.270 A  
ENDBRANCH   7   8
ENDBRANCH   6   7
ENDBRANCH   4   6
TORSDOF 3
ENDMDL
MODEL      118
REMARK 921   NORMALIZED FREE ENERGY PREDICTED BY IDOCK:   -2.91 KCAL/MOL
REMARK 922        TOTAL FREE ENERGY PREDICTED BY IDOCK:   -3.53 KCAL/MOL
REMARK 923 INTER-LIGAND FREE ENERGY PREDICTED BY IDOCK:   -3.43 KCAL/MOL
REMARK 924 INTRA-LIGAND FREE ENERGY PREDICTED BY IDOCK:   -0.10 KCAL/MOL
REMARK 927      BINDING AFFINITY PREDICTED BY RF-SCORE:    0.00 PKD
ROOT
HETATM    1  N   UNL     1      -8.548  20.969  67.147  1.00  0.00    -0.517 NA 
HETATM    2  H1  UNL     1      -8.112  21.883  67.019  1.00  0.00     0.000 HD 
HETATM    3  H2  UNL     1      -7.892  20.270  67.497  1.00  0.00     0.000 HD 
HETATM    4  N   UNL     1      -9.166  20.570  65.907  1.00  0.00    -0.507 NA 
HETATM    5  H   UNL     1      -8.512  20.584  65.125  1.00  0.00     0.000 HD 
ENDROOT
BRANCH   4   6
HETATM    6  C   UNL     1      -9.794  19.254  66.091  1.00  0.00    -0.367 C  
BRANCH   6   7
HETATM    7  C   UNL     1      -9.840  18.876  67.576  1.00  0.00    -0.377 C  
BRANCH   7   8
HETATM    8  C   UNL     1     -10.101  17.399  67.751  1.00  0.00    -0.323 A  
HETATM    9  C   UNL     1     -10.443  16.605  66.648  1.00  0.00    -0.258 A  
HETATM   10  C   UNL     1     -10.742  15.252  66.818  1.00  0.00    -0.313 A  
HETATM   11  C   UNL     1     -10.703  14.683  68.089  1.00  0.00    -0.242 A  
HETATM   12  C   UNL     1     -10.361  15.463  69.192  1.00  0.00    -0.240 A  
HETATM   13  C   UNL     1     -10.061  16.816  69.025  1.00  0.00    -0.283 A  
ENDBRANCH   7   8
ENDBRANCH   6   7
ENDBRANCH   4   6
TORSDOF 3
ENDMDL
MODEL      119
REMARK 921   NORMALIZED FREE ENERGY PREDICTED BY IDOCK:   -2.91 KCAL/MOL
REMARK 922        TOTAL FREE ENERGY PREDICTED BY IDOCK:   -3.53 KCAL/MOL
REMARK 923 INTER-LIGAND FREE ENERGY PREDICTED BY IDOCK:   -3.43 KCAL/MOL
REMARK 924 INTRA-LIGAND FREE ENERGY PREDICTED BY IDOCK:   -0.10 KCAL/MOL
REMARK 927      BINDING AFFINITY PREDICTED BY RF-SCORE:    0.00 PKD
ROOT
HETATM    1  N   UNL     1      -7.926  10.527  64.551  1.00  0.00    -0.330 NA 
HETATM    2  H1  UNL     1      -6.923  10.711  64.595  1.00  0.00     0.000 HD 
HETATM    3  H2  UNL     1      -8.276  10.508  63.593  1.00  0.00     0.000 HD 
HETATM    4  N   UNL     1      -8.614  11.494  65.368  1.00  0.00    -0.381 NA 
HETATM    5  H   UNL     1      -8.382  12.454  65.113  1.00  0.00     0.000 HD 
ENDROOT
BRANCH   4   6
HETATM    6  C   UNL     1     -10.059  11.230  65.303  1.00  0.00    -0.267 C  
BRANCH   6   7
HETATM    7  C   UNL     1     -10.595  10.803  66.675  1.00  0.00    -0.291 C  
BRANCH   7   8
HETATM    8  C   UNL     1     -11.099  11.995  67.454  1.00  0.00    -0.337 A  
HETATM    9  C   UNL     1     -11.216  11.930  68.849  1.00  0.00    -0.310 A  
HETATM   10  C   UNL     1     -11.738  13.009  69.564  1.00  0.00    -0.381 A  
HETATM   11  C   UNL     1     -12.146  14.160  68.892  1.00  0.00    -0.339 A  
HETATM   12  C   UNL     1     -12.031  14.235  67.506  1.00  0.00    -0.411 A  
HETATM   13  C   UNL     1     -11.509  13.157  66.788  1.00  0.00    -0.386 A  
ENDBRANCH   7   8
ENDBRANCH   6   7
ENDBRANCH   4   6
TORSDOF 3
ENDMDL
MODEL      120
REMARK 921   NORMALIZED FREE ENERGY PREDICTED BY IDOCK:   -2.90 KCAL/MOL
REMARK 922        TOTAL FREE ENERGY PREDICTED BY IDOCK:   -3.52 KCAL/MOL
REMARK 923 INTER-LIGAND FREE ENERGY PREDICTED BY IDOCK:   -3.44 KCAL/MOL
REMARK 924 INTRA-LIGAND FREE ENERGY PREDICTED BY IDOCK:   -0.08 KCAL/MOL
REMARK 927      BINDING AFFINITY PREDICTED BY RF-SCORE:    0.00 PKD
ROOT
HETATM    1  N   UNL     1     -12.778   7.312  70.770  1.00  0.00    -0.604 NA 
HETATM    2  H1  UNL     1     -13.760   7.147  70.998  1.00  0.00     0.000 HD 
HETATM    3  H2  UNL     1     -12.146   6.766  71.356  1.00  0.00     0.000 HD 
HETATM    4  N   UNL     1     -12.513   8.726  70.845  1.00  0.00    -0.492 NA 
HETATM    5  H   UNL     1     -12.776   9.124  71.747  1.00  0.00     0.000 HD 
ENDROOT
BRANCH   4   6
HETATM    6  C   UNL     1     -11.100   8.963  70.518  1.00  0.00    -0.251 C  
BRANCH   6   7
HETATM    7  C   UNL     1     -10.715   8.247  69.218  1.00  0.00    -0.140 C  
BRANCH   7   8
HETATM    8  C   UNL     1     -10.585   9.228  68.077  1.00  0.00    -0.262 A  
HETATM    9  C   UNL     1     -11.133  10.513  68.183  1.00  0.00    -0.346 A  
HETATM   10  C   UNL     1     -11.066  11.400  67.108  1.00  0.00    -0.366 A  
HETATM   11  C   UNL     1     -10.453  11.010  65.918  1.00  0.00    -0.300 A  
HETATM   12  C   UNL     1      -9.902   9.735  65.804  1.00  0.00    -0.360 A  
HETATM   13  C   UNL     1      -9.968   8.846  66.879  1.00  0.00    -0.315 A  
ENDBRANCH   7   8
ENDBRANCH   6   7
ENDBRANCH   4   6
TORSDOF 3
ENDMDL
MODEL      121
REMARK 921   NORMALIZED FREE ENERGY PREDICTED BY IDOCK:   -2.90 KCAL/MOL
REMARK 922        TOTAL FREE ENERGY PREDICTED BY IDOCK:   -3.51 KCAL/MOL
REMARK 923 INTER-LIGAND FREE ENERGY PREDICTED BY IDOCK:   -3.44 KCAL/MOL
REMARK 924 INTRA-LIGAND FREE ENERGY PREDICTED BY IDOCK:   -0.07 KCAL/MOL
REMARK 927      BINDING AFFINITY PREDICTED BY RF-SCORE:    0.00 PKD
ROOT
HETATM    1  N   UNL     1     -11.307  10.741  69.523  1.00  0.00    -0.264 NA 
HETATM    2  H1  UNL     1     -11.456   9.831  69.960  1.00  0.00     0.000 HD 
HETATM    3  H2  UNL     1     -11.772  11.496  70.028  1.00  0.00     0.000 HD 
HETATM    4  N   UNL     1     -11.718  10.668  68.143  1.00  0.00    -0.747 NA 
HETATM    5  H   UNL     1     -12.678  10.339  68.040  1.00  0.00     0.000 HD 
ENDROOT
BRANCH   4   6
HETATM    6  C   UNL     1     -11.505  11.980  67.514  1.00  0.00    -0.333 C  
BRANCH   6   7
HETATM    7  C   UNL     1     -10.028  12.175  67.152  1.00  0.00    -0.210 C  
BRANCH   7   8
HETATM    8  C   UNL     1      -9.759  13.597  66.722  1.00  0.00    -0.275 A  
HETATM    9  C   UNL     1      -8.632  14.280  67.199  1.00  0.00    -0.234 A  
HETATM   10  C   UNL     1      -8.413  15.613  66.850  1.00  0.00    -0.286 A  
HETATM   11  C   UNL     1      -9.319  16.275  66.023  1.00  0.00    -0.361 A  
HETATM   12  C   UNL     1     -10.441  15.605  65.540  1.00  0.00    -0.426 A  
HETATM   13  C   UNL     1     -10.661  14.270  65.888  1.00  0.00    -0.304 A  
ENDBRANCH   7   8
ENDBRANCH   6   7
ENDBRANCH   4   6
TORSDOF 3
ENDMDL
MODEL      122
REMARK 921   NORMALIZED FREE ENERGY PREDICTED BY IDOCK:   -2.88 KCAL/MOL
REMARK 922        TOTAL FREE ENERGY PREDICTED BY IDOCK:   -3.50 KCAL/MOL
REMARK 923 INTER-LIGAND FREE ENERGY PREDICTED BY IDOCK:   -3.38 KCAL/MOL
REMARK 924 INTRA-LIGAND FREE ENERGY PREDICTED BY IDOCK:   -0.12 KCAL/MOL
REMARK 927      BINDING AFFINITY PREDICTED BY RF-SCORE:    0.00 PKD
ROOT
HETATM    1  N   UNL     1     -10.977  10.787  69.981  1.00  0.00    -0.430 NA 
HETATM    2  H1  UNL     1     -11.116  10.036  70.658  1.00  0.00     0.000 HD 
HETATM    3  H2  UNL     1     -10.992  11.711  70.415  1.00  0.00     0.000 HD 
HETATM    4  N   UNL     1     -11.956  10.657  68.932  1.00  0.00    -0.694 NA 
HETATM    5  H   UNL     1     -12.910  10.629  69.292  1.00  0.00     0.000 HD 
ENDROOT
BRANCH   4   6
HETATM    6  C   UNL     1     -11.756  11.739  67.957  1.00  0.00    -0.293 C  
BRANCH   6   7
HETATM    7  C   UNL     1     -10.379  12.387  68.138  1.00  0.00    -0.231 C  
BRANCH   7   8
HETATM    8  C   UNL     1     -10.505  13.873  68.372  1.00  0.00    -0.250 A  
HETATM    9  C   UNL     1      -9.365  14.688  68.385  1.00  0.00    -0.201 A  
HETATM   10  C   UNL     1      -9.475  16.051  68.660  1.00  0.00    -0.224 A  
HETATM   11  C   UNL     1     -10.723  16.612  68.925  1.00  0.00    -0.337 A  
HETATM   12  C   UNL     1     -11.863  15.812  68.911  1.00  0.00    -0.354 A  
HETATM   13  C   UNL     1     -11.756  14.447  68.636  1.00  0.00    -0.367 A  
ENDBRANCH   7   8
ENDBRANCH   6   7
ENDBRANCH   4   6
TORSDOF 3
ENDMDL
MODEL      123
REMARK 921   NORMALIZED FREE ENERGY PREDICTED BY IDOCK:   -2.88 KCAL/MOL
REMARK 922        TOTAL FREE ENERGY PREDICTED BY IDOCK:   -3.50 KCAL/MOL
REMARK 923 INTER-LIGAND FREE ENERGY PREDICTED BY IDOCK:   -3.43 KCAL/MOL
REMARK 924 INTRA-LIGAND FREE ENERGY PREDICTED BY IDOCK:   -0.06 KCAL/MOL
REMARK 927      BINDING AFFINITY PREDICTED BY RF-SCORE:    0.00 PKD
ROOT
HETATM    1  N   UNL     1     -12.091  14.814  67.916  1.00  0.00    -0.580 NA 
HETATM    2  H1  UNL     1     -13.006  14.365  67.882  1.00  0.00     0.000 HD 
HETATM    3  H2  UNL     1     -11.332  14.143  68.035  1.00  0.00     0.000 HD 
HETATM    4  N   UNL     1     -12.103  15.819  68.950  1.00  0.00    -0.559 NA 
HETATM    5  H   UNL     1     -12.386  15.443  69.854  1.00  0.00     0.000 HD 
ENDROOT
BRANCH   4   6
HETATM    6  C   UNL     1     -10.784  16.466  69.000  1.00  0.00    -0.322 C  
BRANCH   6   7
HETATM    7  C   UNL     1     -10.522  17.267  67.719  1.00  0.00    -0.371 C  
BRANCH   7   8
HETATM    8  C   UNL     1      -9.128  17.847  67.718  1.00  0.00    -0.258 A  
HETATM    9  C   UNL     1      -8.900  19.140  68.208  1.00  0.00    -0.377 A  
HETATM   10  C   UNL     1      -7.623  19.700  68.153  1.00  0.00    -0.342 A  
HETATM   11  C   UNL     1      -6.565  18.975  67.609  1.00  0.00    -0.216 A  
HETATM   12  C   UNL     1      -6.780  17.687  67.123  1.00  0.00    -0.192 A  
HETATM   13  C   UNL     1      -8.057  17.124  67.176  1.00  0.00    -0.215 A  
ENDBRANCH   7   8
ENDBRANCH   6   7
ENDBRANCH   4   6
TORSDOF 3
ENDMDL
MODEL      124
REMARK 921   NORMALIZED FREE ENERGY PREDICTED BY IDOCK:   -2.88 KCAL/MOL
REMARK 922        TOTAL FREE ENERGY PREDICTED BY IDOCK:   -3.49 KCAL/MOL
REMARK 923 INTER-LIGAND FREE ENERGY PREDICTED BY IDOCK:   -3.41 KCAL/MOL
REMARK 924 INTRA-LIGAND FREE ENERGY PREDICTED BY IDOCK:   -0.08 KCAL/MOL
REMARK 927      BINDING AFFINITY PREDICTED BY RF-SCORE:    0.00 PKD
ROOT
HETATM    1  N   UNL     1     -10.164   8.369  69.198  1.00  0.00    -0.207 NA 
HETATM    2  H1  UNL     1      -9.234   8.047  69.468  1.00  0.00     0.000 HD 
HETATM    3  H2  UNL     1     -10.222   8.605  68.207  1.00  0.00     0.000 HD 
HETATM    4  N   UNL     1     -10.541   9.470  70.048  1.00  0.00    -0.226 NA 
HETATM    5  H   UNL     1      -9.852  10.221  70.040  1.00  0.00     0.000 HD 
ENDROOT
BRANCH   4   6
HETATM    6  C   UNL     1     -11.881   9.934  69.658  1.00  0.00     0.110 C  
BRANCH   6   7
HETATM    7  C   UNL     1     -12.731  10.240  70.897  1.00  0.00    -0.462 C  
BRANCH   7   8
HETATM    8  C   UNL     1     -12.812  11.727  71.145  1.00  0.00    -0.365 A  
HETATM    9  C   UNL     1     -13.589  12.229  72.198  1.00  0.00    -0.348 A  
HETATM   10  C   UNL     1     -13.711  13.605  72.391  1.00  0.00    -0.697 A  
HETATM   11  C   UNL     1     -13.060  14.492  71.535  1.00  0.00    -0.413 A  
HETATM   12  C   UNL     1     -12.282  14.003  70.487  1.00  0.00    -0.435 A  
HETATM   13  C   UNL     1     -12.158  12.626  70.292  1.00  0.00    -0.372 A  
ENDBRANCH   7   8
ENDBRANCH   6   7
ENDBRANCH   4   6
TORSDOF 3
ENDMDL
MODEL      125
REMARK 921   NORMALIZED FREE ENERGY PREDICTED BY IDOCK:   -2.88 KCAL/MOL
REMARK 922        TOTAL FREE ENERGY PREDICTED BY IDOCK:   -3.49 KCAL/MOL
REMARK 923 INTER-LIGAND FREE ENERGY PREDICTED BY IDOCK:   -3.39 KCAL/MOL
REMARK 924 INTRA-LIGAND FREE ENERGY PREDICTED BY IDOCK:   -0.10 KCAL/MOL
REMARK 927      BINDING AFFINITY PREDICTED BY RF-SCORE:    0.00 PKD
ROOT
HETATM    1  N   UNL     1     -12.086  11.483  68.533  1.00  0.00    -0.535 NA 
HETATM    2  H1  UNL     1     -12.897  10.974  68.887  1.00  0.00     0.000 HD 
HETATM    3  H2  UNL     1     -11.223  10.945  68.613  1.00  0.00     0.000 HD 
HETATM    4  N   UNL     1     -12.005  12.755  69.205  1.00  0.00    -0.276 NA 
HETATM    5  H   UNL     1     -11.992  12.658  70.220  1.00  0.00     0.000 HD 
ENDROOT
BRANCH   4   6
HETATM    6  C   UNL     1     -10.837  13.489  68.696  1.00  0.00    -0.259 C  
BRANCH   6   7
HETATM    7  C   UNL     1     -11.082  13.973  67.262  1.00  0.00    -0.314 C  
BRANCH   7   8
HETATM    8  C   UNL     1     -10.792  15.449  67.132  1.00  0.00    -0.321 A  
HETATM    9  C   UNL     1     -10.867  16.287  68.253  1.00  0.00    -0.340 A  
HETATM   10  C   UNL     1     -10.658  17.660  68.123  1.00  0.00    -0.359 A  
HETATM   11  C   UNL     1     -10.372  18.208  66.873  1.00  0.00    -0.386 A  
HETATM   12  C   UNL     1     -10.292  17.383  65.753  1.00  0.00    -0.226 A  
HETATM   13  C   UNL     1     -10.501  16.008  65.881  1.00  0.00    -0.373 A  
ENDBRANCH   7   8
ENDBRANCH   6   7
ENDBRANCH   4   6
TORSDOF 3
ENDMDL
MODEL      126
REMARK 921   NORMALIZED FREE ENERGY PREDICTED BY IDOCK:   -2.86 KCAL/MOL
REMARK 922        TOTAL FREE ENERGY PREDICTED BY IDOCK:   -3.47 KCAL/MOL
REMARK 923 INTER-LIGAND FREE ENERGY PREDICTED BY IDOCK:   -3.36 KCAL/MOL
REMARK 924 INTRA-LIGAND FREE ENERGY PREDICTED BY IDOCK:   -0.11 KCAL/MOL
REMARK 927      BINDING AFFINITY PREDICTED BY RF-SCORE:    0.00 PKD
ROOT
HETATM    1  N   UNL     1      -7.729  10.439  70.323  1.00  0.00    -0.434 NA 
HETATM    2  H1  UNL     1      -6.931  11.073  70.371  1.00  0.00     0.000 HD 
HETATM    3  H2  UNL     1      -7.449   9.472  70.158  1.00  0.00     0.000 HD 
HETATM    4  N   UNL     1      -8.650  10.923  69.326  1.00  0.00    -0.371 NA 
HETATM    5  H   UNL     1      -8.205  11.057  68.418  1.00  0.00     0.000 HD 
ENDROOT
BRANCH   4   6
HETATM    6  C   UNL     1      -9.800  10.010  69.257  1.00  0.00    -0.214 C  
BRANCH   6   7
HETATM    7  C   UNL     1     -10.624  10.074  70.549  1.00  0.00    -0.313 C  
BRANCH   7   8
HETATM    8  C   UNL     1     -10.938   8.688  71.060  1.00  0.00    -0.314 A  
HETATM    9  C   UNL     1     -10.872   8.409  72.432  1.00  0.00    -0.416 A  
HETATM   10  C   UNL     1     -11.105   7.115  72.900  1.00  0.00    -0.338 A  
HETATM   11  C   UNL     1     -11.403   6.090  72.003  1.00  0.00    -0.345 A  
HETATM   12  C   UNL     1     -11.474   6.359  70.638  1.00  0.00    -0.426 A  
HETATM   13  C   UNL     1     -11.242   7.653  70.167  1.00  0.00    -0.193 A  
ENDBRANCH   7   8
ENDBRANCH   6   7
ENDBRANCH   4   6
TORSDOF 3
ENDMDL
MODEL      127
REMARK 921   NORMALIZED FREE ENERGY PREDICTED BY IDOCK:   -2.85 KCAL/MOL
REMARK 922        TOTAL FREE ENERGY PREDICTED BY IDOCK:   -3.46 KCAL/MOL
REMARK 923 INTER-LIGAND FREE ENERGY PREDICTED BY IDOCK:   -3.38 KCAL/MOL
REMARK 924 INTRA-LIGAND FREE ENERGY PREDICTED BY IDOCK:   -0.08 KCAL/MOL
REMARK 927      BINDING AFFINITY PREDICTED BY RF-SCORE:    0.00 PKD
ROOT
HETATM    1  N   UNL     1      -8.620  10.994  64.743  1.00  0.00    -0.375 NA 
HETATM    2  H1  UNL     1      -7.680  11.048  64.351  1.00  0.00     0.000 HD 
HETATM    3  H2  UNL     1      -9.337  11.294  64.082  1.00  0.00     0.000 HD 
HETATM    4  N   UNL     1      -8.657  11.746  65.972  1.00  0.00    -0.389 NA 
HETATM    5  H   UNL     1      -8.341  12.708  65.848  1.00  0.00     0.000 HD 
ENDROOT
BRANCH   4   6
HETATM    6  C   UNL     1     -10.011  11.669  66.538  1.00  0.00    -0.203 C  
BRANCH   6   7
HETATM    7  C   UNL     1     -10.302  10.258  67.063  1.00  0.00    -0.299 C  
BRANCH   7   8
HETATM    8  C   UNL     1     -10.863  10.306  68.464  1.00  0.00    -0.281 A  
HETATM    9  C   UNL     1     -11.591  11.422  68.896  1.00  0.00    -0.388 A  
HETATM   10  C   UNL     1     -12.060  11.494  70.209  1.00  0.00    -0.444 A  
HETATM   11  C   UNL     1     -11.804  10.453  71.099  1.00  0.00    -0.432 A  
HETATM   12  C   UNL     1     -11.083   9.337  70.678  1.00  0.00    -0.335 A  
HETATM   13  C   UNL     1     -10.613   9.263  69.365  1.00  0.00    -0.234 A  
ENDBRANCH   7   8
ENDBRANCH   6   7
ENDBRANCH   4   6
TORSDOF 3
ENDMDL
MODEL      128
REMARK 921   NORMALIZED FREE ENERGY PREDICTED BY IDOCK:   -2.85 KCAL/MOL
REMARK 922        TOTAL FREE ENERGY PREDICTED BY IDOCK:   -3.46 KCAL/MOL
REMARK 923 INTER-LIGAND FREE ENERGY PREDICTED BY IDOCK:   -3.39 KCAL/MOL
REMARK 924 INTRA-LIGAND FREE ENERGY PREDICTED BY IDOCK:   -0.07 KCAL/MOL
REMARK 927      BINDING AFFINITY PREDICTED BY RF-SCORE:    0.00 PKD
ROOT
HETATM    1  N   UNL     1      -5.387  15.431  67.530  1.00  0.00    -0.329 NA 
HETATM    2  H1  UNL     1      -4.769  14.636  67.364  1.00  0.00     0.000 HD 
HETATM    3  H2  UNL     1      -6.360  15.148  67.654  1.00  0.00     0.000 HD 
HETATM    4  N   UNL     1      -5.223  16.381  66.459  1.00  0.00    -0.205 NA 
HETATM    5  H   UNL     1      -5.367  15.961  65.541  1.00  0.00     0.000 HD 
ENDROOT
BRANCH   4   6
HETATM    6  C   UNL     1      -6.113  17.526  66.698  1.00  0.00    -0.199 C  
BRANCH   6   7
HETATM    7  C   UNL     1      -7.581  17.081  66.706  1.00  0.00    -0.273 C  
BRANCH   7   8
HETATM    8  C   UNL     1      -8.480  18.189  67.200  1.00  0.00    -0.247 A  
HETATM    9  C   UNL     1      -8.786  18.297  68.564  1.00  0.00    -0.325 A  
HETATM   10  C   UNL     1      -9.663  19.284  69.014  1.00  0.00    -0.453 A  
HETATM   11  C   UNL     1     -10.244  20.169  68.106  1.00  0.00    -0.479 A  
HETATM   12  C   UNL     1      -9.944  20.072  66.750  1.00  0.00    -0.585 A  
HETATM   13  C   UNL     1      -9.065  19.085  66.297  1.00  0.00    -0.298 A  
ENDBRANCH   7   8
ENDBRANCH   6   7
ENDBRANCH   4   6
TORSDOF 3
ENDMDL
MODEL      129
REMARK 921   NORMALIZED FREE ENERGY PREDICTED BY IDOCK:   -2.83 KCAL/MOL
REMARK 922        TOTAL FREE ENERGY PREDICTED BY IDOCK:   -3.44 KCAL/MOL
REMARK 923 INTER-LIGAND FREE ENERGY PREDICTED BY IDOCK:   -3.36 KCAL/MOL
REMARK 924 INTRA-LIGAND FREE ENERGY PREDICTED BY IDOCK:   -0.07 KCAL/MOL
REMARK 927      BINDING AFFINITY PREDICTED BY RF-SCORE:    0.00 PKD
ROOT
HETATM    1  N   UNL     1     -11.393  15.143  72.013  1.00  0.00    -0.516 NA 
HETATM    2  H1  UNL     1     -11.606  15.733  72.818  1.00  0.00     0.000 HD 
HETATM    3  H2  UNL     1     -10.887  15.647  71.284  1.00  0.00     0.000 HD 
HETATM    4  N   UNL     1     -12.617  14.557  71.528  1.00  0.00    -0.329 NA 
HETATM    5  H   UNL     1     -13.328  15.258  71.320  1.00  0.00     0.000 HD 
ENDROOT
BRANCH   4   6
HETATM    6  C   UNL     1     -12.310  13.708  70.367  1.00  0.00    -0.345 C  
BRANCH   6   7
HETATM    7  C   UNL     1     -11.799  14.553  69.195  1.00  0.00    -0.354 C  
BRANCH   7   8
HETATM    8  C   UNL     1     -11.141  13.686  68.148  1.00  0.00    -0.281 A  
HETATM    9  C   UNL     1      -9.789  13.868  67.827  1.00  0.00    -0.237 A  
HETATM   10  C   UNL     1      -9.195  13.107  66.819  1.00  0.00    -0.232 A  
HETATM   11  C   UNL     1      -9.946  12.161  66.123  1.00  0.00    -0.253 A  
HETATM   12  C   UNL     1     -11.290  11.971  66.437  1.00  0.00    -0.411 A  
HETATM   13  C   UNL     1     -11.886  12.730  67.446  1.00  0.00    -0.404 A  
ENDBRANCH   7   8
ENDBRANCH   6   7
ENDBRANCH   4   6
TORSDOF 3
ENDMDL
MODEL      130
REMARK 921   NORMALIZED FREE ENERGY PREDICTED BY IDOCK:   -2.78 KCAL/MOL
REMARK 922        TOTAL FREE ENERGY PREDICTED BY IDOCK:   -3.38 KCAL/MOL
REMARK 923 INTER-LIGAND FREE ENERGY PREDICTED BY IDOCK:   -3.30 KCAL/MOL
REMARK 924 INTRA-LIGAND FREE ENERGY PREDICTED BY IDOCK:   -0.08 KCAL/MOL
REMARK 927      BINDING AFFINITY PREDICTED BY RF-SCORE:    0.00 PKD
ROOT
HETATM    1  N   UNL     1      -7.812  10.396  69.865  1.00  0.00    -0.340 NA 
HETATM    2  H1  UNL     1      -7.215   9.750  70.384  1.00  0.00     0.000 HD 
HETATM    3  H2  UNL     1      -8.641  10.670  70.393  1.00  0.00     0.000 HD 
HETATM    4  N   UNL     1      -8.140   9.807  68.592  1.00  0.00    -0.102 NA 
HETATM    5  H   UNL     1      -8.559   8.882  68.688  1.00  0.00     0.000 HD 
ENDROOT
BRANCH   4   6
HETATM    6  C   UNL     1      -9.000  10.737  67.845  1.00  0.00    -0.139 C  
BRANCH   6   7
HETATM    7  C   UNL     1      -9.112  10.313  66.376  1.00  0.00    -0.174 C  
BRANCH   7   8
HETATM    8  C   UNL     1     -10.209  11.078  65.674  1.00  0.00    -0.318 A  
HETATM    9  C   UNL     1     -11.103  11.867  66.409  1.00  0.00    -0.359 A  
HETATM   10  C   UNL     1     -12.153  12.527  65.767  1.00  0.00    -0.443 A  
HETATM   11  C   UNL     1     -12.318  12.403  64.389  1.00  0.00    -0.532 A  
HETATM   12  C   UNL     1     -11.432  11.623  63.649  1.00  0.00    -0.458 A  
HETATM   13  C   UNL     1     -10.381  10.962  64.288  1.00  0.00    -0.436 A  
ENDBRANCH   7   8
ENDBRANCH   6   7
ENDBRANCH   4   6
TORSDOF 3
ENDMDL
MODEL      131
REMARK 921   NORMALIZED FREE ENERGY PREDICTED BY IDOCK:   -2.78 KCAL/MOL
REMARK 922        TOTAL FREE ENERGY PREDICTED BY IDOCK:   -3.37 KCAL/MOL
REMARK 923 INTER-LIGAND FREE ENERGY PREDICTED BY IDOCK:   -3.24 KCAL/MOL
REMARK 924 INTRA-LIGAND FREE ENERGY PREDICTED BY IDOCK:   -0.13 KCAL/MOL
REMARK 927      BINDING AFFINITY PREDICTED BY RF-SCORE:    0.00 PKD
ROOT
HETATM    1  N   UNL     1      -9.671  13.152  68.796  1.00  0.00    -0.418 NA 
HETATM    2  H1  UNL     1     -10.125  13.104  69.708  1.00  0.00     0.000 HD 
HETATM    3  H2  UNL     1      -8.713  13.497  68.855  1.00  0.00     0.000 HD 
HETATM    4  N   UNL     1     -10.486  13.945  67.911  1.00  0.00    -0.239 NA 
HETATM    5  H   UNL     1     -10.691  14.868  68.293  1.00  0.00     0.000 HD 
ENDROOT
BRANCH   4   6
HETATM    6  C   UNL     1      -9.832  14.015  66.596  1.00  0.00    -0.284 C  
BRANCH   6   7
HETATM    7  C   UNL     1     -10.792  13.569  65.486  1.00  0.00    -0.293 C  
BRANCH   7   8
HETATM    8  C   UNL     1     -10.338  12.270  64.867  1.00  0.00    -0.319 A  
HETATM    9  C   UNL     1     -10.087  11.151  65.673  1.00  0.00    -0.304 A  
HETATM   10  C   UNL     1      -9.611   9.967  65.108  1.00  0.00    -0.356 A  
HETATM   11  C   UNL     1      -9.380   9.891  63.735  1.00  0.00    -0.250 A  
HETATM   12  C   UNL     1      -9.630  10.997  62.925  1.00  0.00    -0.369 A  
HETATM   13  C   UNL     1     -10.107  12.183  63.488  1.00  0.00    -0.410 A  
ENDBRANCH   7   8
ENDBRANCH   6   7
ENDBRANCH   4   6
TORSDOF 3
ENDMDL
MODEL      132
REMARK 921   NORMALIZED FREE ENERGY PREDICTED BY IDOCK:   -2.75 KCAL/MOL
REMARK 922        TOTAL FREE ENERGY PREDICTED BY IDOCK:   -3.34 KCAL/MOL
REMARK 923 INTER-LIGAND FREE ENERGY PREDICTED BY IDOCK:   -3.18 KCAL/MOL
REMARK 924 INTRA-LIGAND FREE ENERGY PREDICTED BY IDOCK:   -0.16 KCAL/MOL
REMARK 927      BINDING AFFINITY PREDICTED BY RF-SCORE:    0.00 PKD
ROOT
HETATM    1  N   UNL     1     -14.197   8.435  71.130  1.00  0.00    -0.644 NA 
HETATM    2  H1  UNL     1     -15.124   8.833  71.288  1.00  0.00     0.000 HD 
HETATM    3  H2  UNL     1     -14.239   7.494  70.740  1.00  0.00     0.000 HD 
HETATM    4  N   UNL     1     -13.452   8.487  72.363  1.00  0.00    -0.578 NA 
HETATM    5  H   UNL     1     -13.944   8.036  73.134  1.00  0.00     0.000 HD 
ENDROOT
BRANCH   4   6
HETATM    6  C   UNL     1     -12.117   7.914  72.136  1.00  0.00    -0.326 C  
BRANCH   6   7
HETATM    7  C   UNL     1     -11.091   9.019  71.859  1.00  0.00    -0.433 C  
BRANCH   7   8
HETATM    8  C   UNL     1     -10.379   8.781  70.550  1.00  0.00    -0.241 A  
HETATM    9  C   UNL     1     -10.849   7.811  69.654  1.00  0.00    -0.185 A  
HETATM   10  C   UNL     1     -10.157   7.548  68.471  1.00  0.00    -0.198 A  
HETATM   11  C   UNL     1      -8.991   8.251  68.173  1.00  0.00    -0.139 A  
HETATM   12  C   UNL     1      -8.517   9.220  69.055  1.00  0.00    -0.132 A  
HETATM   13  C   UNL     1      -9.208   9.484  70.240  1.00  0.00    -0.303 A  
ENDBRANCH   7   8
ENDBRANCH   6   7
ENDBRANCH   4   6
TORSDOF 3
ENDMDL
MODEL      133
REMARK 921   NORMALIZED FREE ENERGY PREDICTED BY IDOCK:   -2.73 KCAL/MOL
REMARK 922        TOTAL FREE ENERGY PREDICTED BY IDOCK:   -3.32 KCAL/MOL
REMARK 923 INTER-LIGAND FREE ENERGY PREDICTED BY IDOCK:   -3.20 KCAL/MOL
REMARK 924 INTRA-LIGAND FREE ENERGY PREDICTED BY IDOCK:   -0.12 KCAL/MOL
REMARK 927      BINDING AFFINITY PREDICTED BY RF-SCORE:    0.00 PKD
ROOT
HETATM    1  N   UNL     1     -11.893  10.986  67.640  1.00  0.00    -0.623 NA 
HETATM    2  H1  UNL     1     -12.763  11.512  67.551  1.00  0.00     0.000 HD 
HETATM    3  H2  UNL     1     -11.753  10.332  66.869  1.00  0.00     0.000 HD 
HETATM    4  N   UNL     1     -11.873  10.333  68.925  1.00  0.00    -0.597 NA 
HETATM    5  H   UNL     1     -12.698   9.752  69.079  1.00  0.00     0.000 HD 
ENDROOT
BRANCH   4   6
HETATM    6  C   UNL     1     -10.621   9.574  69.054  1.00  0.00    -0.219 C  
BRANCH   6   7
HETATM    7  C   UNL     1     -10.848   8.280  69.844  1.00  0.00    -0.213 C  
BRANCH   7   8
HETATM    8  C   UNL     1     -10.515   7.068  69.007  1.00  0.00    -0.219 A  
HETATM    9  C   UNL     1     -10.875   7.023  67.653  1.00  0.00    -0.312 A  
HETATM   10  C   UNL     1     -10.621   5.880  66.894  1.00  0.00    -0.384 A  
HETATM   11  C   UNL     1     -10.007   4.774  67.480  1.00  0.00    -0.194 A  
HETATM   12  C   UNL     1      -9.642   4.811  68.824  1.00  0.00    -0.227 A  
HETATM   13  C   UNL     1      -9.895   5.953  69.586  1.00  0.00    -0.215 A  
ENDBRANCH   7   8
ENDBRANCH   6   7
ENDBRANCH   4   6
TORSDOF 3
ENDMDL
MODEL      134
REMARK 921   NORMALIZED FREE ENERGY PREDICTED BY IDOCK:   -2.72 KCAL/MOL
REMARK 922        TOTAL FREE ENERGY PREDICTED BY IDOCK:   -3.30 KCAL/MOL
REMARK 923 INTER-LIGAND FREE ENERGY PREDICTED BY IDOCK:   -3.20 KCAL/MOL
REMARK 924 INTRA-LIGAND FREE ENERGY PREDICTED BY IDOCK:   -0.10 KCAL/MOL
REMARK 927      BINDING AFFINITY PREDICTED BY RF-SCORE:    0.00 PKD
ROOT
HETATM    1  N   UNL     1      -8.734  11.089  64.526  1.00  0.00    -0.374 NA 
HETATM    2  H1  UNL     1      -7.989  11.612  64.063  1.00  0.00     0.000 HD 
HETATM    3  H2  UNL     1      -9.622  11.153  64.027  1.00  0.00     0.000 HD 
HETATM    4  N   UNL     1      -8.838  11.537  65.891  1.00  0.00    -0.350 NA 
HETATM    5  H   UNL     1      -8.969  12.546  65.961  1.00  0.00     0.000 HD 
ENDROOT
BRANCH   4   6
HETATM    6  C   UNL     1      -9.911  10.786  66.558  1.00  0.00    -0.213 C  
BRANCH   6   7
HETATM    7  C   UNL     1      -9.979   9.349  66.028  1.00  0.00    -0.352 C  
BRANCH   7   8
HETATM    8  C   UNL     1     -10.324   8.379  67.133  1.00  0.00    -0.381 A  
HETATM    9  C   UNL     1     -10.643   7.048  66.832  1.00  0.00    -0.372 A  
HETATM   10  C   UNL     1     -11.019   6.166  67.847  1.00  0.00    -0.399 A  
HETATM   11  C   UNL     1     -11.080   6.607  69.168  1.00  0.00    -0.332 A  
HETATM   12  C   UNL     1     -10.762   7.927  69.477  1.00  0.00    -0.195 A  
HETATM   13  C   UNL     1     -10.385   8.812  68.464  1.00  0.00    -0.231 A  
ENDBRANCH   7   8
ENDBRANCH   6   7
ENDBRANCH   4   6
TORSDOF 3
ENDMDL
MODEL      135
REMARK 921   NORMALIZED FREE ENERGY PREDICTED BY IDOCK:   -2.68 KCAL/MOL
REMARK 922        TOTAL FREE ENERGY PREDICTED BY IDOCK:   -3.26 KCAL/MOL
REMARK 923 INTER-LIGAND FREE ENERGY PREDICTED BY IDOCK:   -3.11 KCAL/MOL
REMARK 924 INTRA-LIGAND FREE ENERGY PREDICTED BY IDOCK:   -0.15 KCAL/MOL
REMARK 927      BINDING AFFINITY PREDICTED BY RF-SCORE:    0.00 PKD
ROOT
HETATM    1  N   UNL     1      -9.797  13.057  63.670  1.00  0.00    -0.592 NA 
HETATM    2  H1  UNL     1      -9.354  13.826  63.166  1.00  0.00     0.000 HD 
HETATM    3  H2  UNL     1     -10.239  12.384  63.043  1.00  0.00     0.000 HD 
HETATM    4  N   UNL     1     -10.722  13.601  64.632  1.00  0.00    -0.405 NA 
HETATM    5  H   UNL     1     -11.402  14.230  64.205  1.00  0.00     0.000 HD 
ENDROOT
BRANCH   4   6
HETATM    6  C   UNL     1     -11.360  12.494  65.357  1.00  0.00    -0.325 C  
BRANCH   6   7
HETATM    7  C   UNL     1     -10.714  12.302  66.735  1.00  0.00    -0.272 C  
BRANCH   7   8
HETATM    8  C   UNL     1     -10.331  10.859  66.957  1.00  0.00    -0.276 A  
HETATM    9  C   UNL     1     -10.449  10.283  68.229  1.00  0.00    -0.230 A  
HETATM   10  C   UNL     1     -10.040   8.967  68.449  1.00  0.00    -0.215 A  
HETATM   11  C   UNL     1      -9.509   8.217  67.402  1.00  0.00    -0.191 A  
HETATM   12  C   UNL     1      -9.390   8.779  66.133  1.00  0.00    -0.297 A  
HETATM   13  C   UNL     1      -9.799  10.095  65.910  1.00  0.00    -0.308 A  
ENDBRANCH   7   8
ENDBRANCH   6   7
ENDBRANCH   4   6
TORSDOF 3
ENDMDL
MODEL      136
REMARK 921   NORMALIZED FREE ENERGY PREDICTED BY IDOCK:   -2.67 KCAL/MOL
REMARK 922        TOTAL FREE ENERGY PREDICTED BY IDOCK:   -3.25 KCAL/MOL
REMARK 923 INTER-LIGAND FREE ENERGY PREDICTED BY IDOCK:   -3.17 KCAL/MOL
REMARK 924 INTRA-LIGAND FREE ENERGY PREDICTED BY IDOCK:   -0.08 KCAL/MOL
REMARK 927      BINDING AFFINITY PREDICTED BY RF-SCORE:    0.00 PKD
ROOT
HETATM    1  N   UNL     1      -9.804   9.428  65.755  1.00  0.00    -0.358 NA 
HETATM    2  H1  UNL     1     -10.172   9.418  64.804  1.00  0.00     0.000 HD 
HETATM    3  H2  UNL     1      -8.810   9.657  65.786  1.00  0.00     0.000 HD 
HETATM    4  N   UNL     1     -10.096   8.165  66.383  1.00  0.00    -0.465 NA 
HETATM    5  H   UNL     1      -9.752   7.372  65.841  1.00  0.00     0.000 HD 
ENDROOT
BRANCH   4   6
HETATM    6  C   UNL     1      -9.566   8.179  67.754  1.00  0.00    -0.151 C  
BRANCH   6   7
HETATM    7  C   UNL     1     -10.462   9.015  68.675  1.00  0.00    -0.229 C  
BRANCH   7   8
HETATM    8  C   UNL     1     -10.626   8.350  70.020  1.00  0.00    -0.235 A  
HETATM    9  C   UNL     1     -11.271   7.111  70.123  1.00  0.00    -0.295 A  
HETATM   10  C   UNL     1     -11.476   6.523  71.373  1.00  0.00    -0.360 A  
HETATM   11  C   UNL     1     -11.039   7.169  72.528  1.00  0.00    -0.317 A  
HETATM   12  C   UNL     1     -10.394   8.400  72.436  1.00  0.00    -0.399 A  
HETATM   13  C   UNL     1     -10.188   8.990  71.187  1.00  0.00    -0.363 A  
ENDBRANCH   7   8
ENDBRANCH   6   7
ENDBRANCH   4   6
TORSDOF 3
ENDMDL
MODEL      137
REMARK 921   NORMALIZED FREE ENERGY PREDICTED BY IDOCK:   -2.65 KCAL/MOL
REMARK 922        TOTAL FREE ENERGY PREDICTED BY IDOCK:   -3.23 KCAL/MOL
REMARK 923 INTER-LIGAND FREE ENERGY PREDICTED BY IDOCK:   -3.15 KCAL/MOL
REMARK 924 INTRA-LIGAND FREE ENERGY PREDICTED BY IDOCK:   -0.08 KCAL/MOL
REMARK 927      BINDING AFFINITY PREDICTED BY RF-SCORE:    0.00 PKD
ROOT
HETATM    1  N   UNL     1      -8.454  10.076  65.169  1.00  0.00    -0.145 NA 
HETATM    2  H1  UNL     1      -7.764   9.487  65.635  1.00  0.00     0.000 HD 
HETATM    3  H2  UNL     1      -8.103  11.016  64.982  1.00  0.00     0.000 HD 
HETATM    4  N   UNL     1      -9.663  10.087  65.952  1.00  0.00    -0.228 NA 
HETATM    5  H   UNL     1      -9.498  10.371  66.918  1.00  0.00     0.000 HD 
ENDROOT
BRANCH   4   6
HETATM    6  C   UNL     1     -10.658  10.936  65.281  1.00  0.00    -0.189 C  
BRANCH   6   7
HETATM    7  C   UNL     1     -11.307  11.905  66.276  1.00  0.00    -0.394 C  
BRANCH   7   8
HETATM    8  C   UNL     1     -11.271  13.321  65.754  1.00  0.00    -0.313 A  
HETATM    9  C   UNL     1     -12.303  13.800  64.935  1.00  0.00    -0.435 A  
HETATM   10  C   UNL     1     -12.242  15.090  64.404  1.00  0.00    -0.353 A  
HETATM   11  C   UNL     1     -11.150  15.910  64.685  1.00  0.00    -0.368 A  
HETATM   12  C   UNL     1     -10.121  15.444  65.501  1.00  0.00    -0.405 A  
HETATM   13  C   UNL     1     -10.180  14.154  66.033  1.00  0.00    -0.318 A  
ENDBRANCH   7   8
ENDBRANCH   6   7
ENDBRANCH   4   6
TORSDOF 3
ENDMDL
MODEL      138
REMARK 921   NORMALIZED FREE ENERGY PREDICTED BY IDOCK:   -2.65 KCAL/MOL
REMARK 922        TOTAL FREE ENERGY PREDICTED BY IDOCK:   -3.22 KCAL/MOL
REMARK 923 INTER-LIGAND FREE ENERGY PREDICTED BY IDOCK:   -3.14 KCAL/MOL
REMARK 924 INTRA-LIGAND FREE ENERGY PREDICTED BY IDOCK:   -0.08 KCAL/MOL
REMARK 927      BINDING AFFINITY PREDICTED BY RF-SCORE:    0.00 PKD
ROOT
HETATM    1  N   UNL     1     -12.137  12.265  67.893  1.00  0.00    -0.434 NA 
HETATM    2  H1  UNL     1     -13.056  11.873  68.100  1.00  0.00     0.000 HD 
HETATM    3  H2  UNL     1     -11.383  11.595  68.047  1.00  0.00     0.000 HD 
HETATM    4  N   UNL     1     -11.963  13.473  68.658  1.00  0.00    -0.358 NA 
HETATM    5  H   UNL     1     -12.107  13.325  69.657  1.00  0.00     0.000 HD 
ENDROOT
BRANCH   4   6
HETATM    6  C   UNL     1     -10.638  14.039  68.361  1.00  0.00    -0.254 C  
BRANCH   6   7
HETATM    7  C   UNL     1     -10.679  14.870  67.073  1.00  0.00    -0.307 C  
BRANCH   7   8
HETATM    8  C   UNL     1      -9.788  16.084  67.184  1.00  0.00    -0.236 A  
HETATM    9  C   UNL     1      -8.725  16.265  66.290  1.00  0.00    -0.370 A  
HETATM   10  C   UNL     1      -7.865  17.356  66.427  1.00  0.00    -0.337 A  
HETATM   11  C   UNL     1      -8.060  18.273  67.459  1.00  0.00    -0.241 A  
HETATM   12  C   UNL     1      -9.116  18.103  68.351  1.00  0.00    -0.318 A  
HETATM   13  C   UNL     1      -9.978  17.013  68.215  1.00  0.00    -0.285 A  
ENDBRANCH   7   8
ENDBRANCH   6   7
ENDBRANCH   4   6
TORSDOF 3
ENDMDL
MODEL      139
REMARK 921   NORMALIZED FREE ENERGY PREDICTED BY IDOCK:   -2.64 KCAL/MOL
REMARK 922        TOTAL FREE ENERGY PREDICTED BY IDOCK:   -3.21 KCAL/MOL
REMARK 923 INTER-LIGAND FREE ENERGY PREDICTED BY IDOCK:   -3.12 KCAL/MOL
REMARK 924 INTRA-LIGAND FREE ENERGY PREDICTED BY IDOCK:   -0.09 KCAL/MOL
REMARK 927      BINDING AFFINITY PREDICTED BY RF-SCORE:    0.00 PKD
ROOT
HETATM    1  N   UNL     1     -11.139   3.243  64.279  1.00  0.00    -0.600 NA 
HETATM    2  H1  UNL     1     -11.788   3.361  63.500  1.00  0.00     0.000 HD 
HETATM    3  H2  UNL     1     -11.398   2.467  64.888  1.00  0.00     0.000 HD 
HETATM    4  N   UNL     1     -11.037   4.491  64.992  1.00  0.00    -0.892 NA 
HETATM    5  H   UNL     1     -11.945   4.843  65.292  1.00  0.00     0.000 HD 
ENDROOT
BRANCH   4   6
HETATM    6  C   UNL     1     -10.102   4.323  66.115  1.00  0.00    -0.187 C  
BRANCH   6   7
HETATM    7  C   UNL     1      -8.967   5.351  66.036  1.00  0.00    -0.147 C  
BRANCH   7   8
HETATM    8  C   UNL     1      -9.446   6.720  66.455  1.00  0.00    -0.193 A  
HETATM    9  C   UNL     1      -8.968   7.866  65.807  1.00  0.00    -0.125 A  
HETATM   10  C   UNL     1      -9.364   9.135  66.232  1.00  0.00    -0.274 A  
HETATM   11  C   UNL     1     -10.240   9.269  67.308  1.00  0.00    -0.315 A  
HETATM   12  C   UNL     1     -10.724   8.135  67.957  1.00  0.00    -0.108 A  
HETATM   13  C   UNL     1     -10.329   6.864  67.534  1.00  0.00    -0.277 A  
ENDBRANCH   7   8
ENDBRANCH   6   7
ENDBRANCH   4   6
TORSDOF 3
ENDMDL
MODEL      140
REMARK 921   NORMALIZED FREE ENERGY PREDICTED BY IDOCK:   -2.62 KCAL/MOL
REMARK 922        TOTAL FREE ENERGY PREDICTED BY IDOCK:   -3.19 KCAL/MOL
REMARK 923 INTER-LIGAND FREE ENERGY PREDICTED BY IDOCK:   -3.05 KCAL/MOL
REMARK 924 INTRA-LIGAND FREE ENERGY PREDICTED BY IDOCK:   -0.14 KCAL/MOL
REMARK 927      BINDING AFFINITY PREDICTED BY RF-SCORE:    0.00 PKD
ROOT
HETATM    1  N   UNL     1     -13.441   7.373  70.855  1.00  0.00    -0.592 NA 
HETATM    2  H1  UNL     1     -14.379   7.246  70.474  1.00  0.00     0.000 HD 
HETATM    3  H2  UNL     1     -13.229   6.706  71.599  1.00  0.00     0.000 HD 
HETATM    4  N   UNL     1     -13.292   8.740  71.284  1.00  0.00    -0.526 NA 
HETATM    5  H   UNL     1     -14.020   9.023  71.940  1.00  0.00     0.000 HD 
ENDROOT
BRANCH   4   6
HETATM    6  C   UNL     1     -11.941   8.922  71.833  1.00  0.00    -0.371 C  
BRANCH   6   7
HETATM    7  C   UNL     1     -10.968   7.901  71.233  1.00  0.00    -0.266 C  
BRANCH   7   8
HETATM    8  C   UNL     1     -10.055   7.333  72.294  1.00  0.00    -0.219 A  
HETATM    9  C   UNL     1     -10.581   6.880  73.512  1.00  0.00    -0.378 A  
HETATM   10  C   UNL     1      -9.733   6.411  74.516  1.00  0.00    -0.329 A  
HETATM   11  C   UNL     1      -8.354   6.391  74.313  1.00  0.00    -0.132 A  
HETATM   12  C   UNL     1      -7.822   6.836  73.105  1.00  0.00    -0.099 A  
HETATM   13  C   UNL     1      -8.668   7.306  72.098  1.00  0.00    -0.134 A  
ENDBRANCH   7   8
ENDBRANCH   6   7
ENDBRANCH   4   6
TORSDOF 3
ENDMDL
MODEL      141
REMARK 921   NORMALIZED FREE ENERGY PREDICTED BY IDOCK:   -2.62 KCAL/MOL
REMARK 922        TOTAL FREE ENERGY PREDICTED BY IDOCK:   -3.19 KCAL/MOL
REMARK 923 INTER-LIGAND FREE ENERGY PREDICTED BY IDOCK:   -3.12 KCAL/MOL
REMARK 924 INTRA-LIGAND FREE ENERGY PREDICTED BY IDOCK:   -0.07 KCAL/MOL
REMARK 927      BINDING AFFINITY PREDICTED BY RF-SCORE:    0.00 PKD
ROOT
HETATM    1  N   UNL     1      -7.710  19.454  68.657  1.00  0.00    -0.350 NA 
HETATM    2  H1  UNL     1      -7.323  20.354  68.369  1.00  0.00     0.000 HD 
HETATM    3  H2  UNL     1      -6.994  18.733  68.745  1.00  0.00     0.000 HD 
HETATM    4  N   UNL     1      -8.755  19.081  67.737  1.00  0.00    -0.293 NA 
HETATM    5  H   UNL     1      -8.437  19.077  66.768  1.00  0.00     0.000 HD 
ENDROOT
BRANCH   4   6
HETATM    6  C   UNL     1      -9.313  17.785  68.151  1.00  0.00    -0.281 C  
BRANCH   6   7
HETATM    7  C   UNL     1     -10.557  17.440  67.324  1.00  0.00    -0.284 C  
BRANCH   7   8
HETATM    8  C   UNL     1     -10.438  16.063  66.716  1.00  0.00    -0.308 A  
HETATM    9  C   UNL     1     -10.882  15.826  65.408  1.00  0.00    -0.376 A  
HETATM   10  C   UNL     1     -10.827  14.541  64.866  1.00  0.00    -0.436 A  
HETATM   11  C   UNL     1     -10.330  13.483  65.626  1.00  0.00    -0.303 A  
HETATM   12  C   UNL     1      -9.883  13.709  66.926  1.00  0.00    -0.261 A  
HETATM   13  C   UNL     1      -9.937  14.994  67.470  1.00  0.00    -0.226 A  
ENDBRANCH   7   8
ENDBRANCH   6   7
ENDBRANCH   4   6
TORSDOF 3
ENDMDL
MODEL      142
REMARK 921   NORMALIZED FREE ENERGY PREDICTED BY IDOCK:   -2.62 KCAL/MOL
REMARK 922        TOTAL FREE ENERGY PREDICTED BY IDOCK:   -3.19 KCAL/MOL
REMARK 923 INTER-LIGAND FREE ENERGY PREDICTED BY IDOCK:   -3.10 KCAL/MOL
REMARK 924 INTRA-LIGAND FREE ENERGY PREDICTED BY IDOCK:   -0.09 KCAL/MOL
REMARK 927      BINDING AFFINITY PREDICTED BY RF-SCORE:    0.00 PKD
ROOT
HETATM    1  N   UNL     1      -7.024   9.732  69.838  1.00  0.00    -0.077 NA 
HETATM    2  H1  UNL     1      -6.100   9.331  69.672  1.00  0.00     0.000 HD 
HETATM    3  H2  UNL     1      -7.497   9.303  70.634  1.00  0.00     0.000 HD 
HETATM    4  N   UNL     1      -7.796   9.640  68.625  1.00  0.00    -0.080 NA 
HETATM    5  H   UNL     1      -7.844   8.687  68.266  1.00  0.00     0.000 HD 
ENDROOT
BRANCH   4   6
HETATM    6  C   UNL     1      -9.127  10.217  68.863  1.00  0.00    -0.165 C  
BRANCH   6   7
HETATM    7  C   UNL     1     -10.119   9.133  69.304  1.00  0.00    -0.196 C  
BRANCH   7   8
HETATM    8  C   UNL     1     -11.158   9.698  70.242  1.00  0.00    -0.327 A  
HETATM    9  C   UNL     1     -11.795   8.869  71.175  1.00  0.00    -0.353 A  
HETATM   10  C   UNL     1     -12.797   9.378  72.002  1.00  0.00    -0.496 A  
HETATM   11  C   UNL     1     -13.172  10.717  71.903  1.00  0.00    -0.528 A  
HETATM   12  C   UNL     1     -12.543  11.550  70.981  1.00  0.00    -0.457 A  
HETATM   13  C   UNL     1     -11.539  11.043  70.153  1.00  0.00    -0.421 A  
ENDBRANCH   7   8
ENDBRANCH   6   7
ENDBRANCH   4   6
TORSDOF 3
ENDMDL
MODEL      143
REMARK 921   NORMALIZED FREE ENERGY PREDICTED BY IDOCK:   -2.60 KCAL/MOL
REMARK 922        TOTAL FREE ENERGY PREDICTED BY IDOCK:   -3.17 KCAL/MOL
REMARK 923 INTER-LIGAND FREE ENERGY PREDICTED BY IDOCK:   -3.09 KCAL/MOL
REMARK 924 INTRA-LIGAND FREE ENERGY PREDICTED BY IDOCK:   -0.08 KCAL/MOL
REMARK 927      BINDING AFFINITY PREDICTED BY RF-SCORE:    0.00 PKD
ROOT
HETATM    1  N   UNL     1     -10.525  10.517  69.989  1.00  0.00    -0.449 NA 
HETATM    2  H1  UNL     1     -10.609  11.299  69.339  1.00  0.00     0.000 HD 
HETATM    3  H2  UNL     1      -9.703   9.942  69.801  1.00  0.00     0.000 HD 
HETATM    4  N   UNL     1     -11.747   9.755  69.963  1.00  0.00    -0.435 NA 
HETATM    5  H   UNL     1     -11.998   9.454  69.021  1.00  0.00     0.000 HD 
ENDROOT
BRANCH   4   6
HETATM    6  C   UNL     1     -11.626   8.628  70.899  1.00  0.00    -0.269 C  
BRANCH   6   7
HETATM    7  C   UNL     1     -10.955   7.427  70.219  1.00  0.00    -0.272 C  
BRANCH   7   8
HETATM    8  C   UNL     1     -10.820   6.269  71.178  1.00  0.00    -0.320 A  
HETATM    9  C   UNL     1     -11.116   6.436  72.537  1.00  0.00    -0.298 A  
HETATM   10  C   UNL     1     -10.935   5.383  73.434  1.00  0.00    -0.349 A  
HETATM   11  C   UNL     1     -10.455   4.155  72.981  1.00  0.00    -0.247 A  
HETATM   12  C   UNL     1     -10.161   3.977  71.632  1.00  0.00    -0.183 A  
HETATM   13  C   UNL     1     -10.342   5.030  70.732  1.00  0.00    -0.265 A  
ENDBRANCH   7   8
ENDBRANCH   6   7
ENDBRANCH   4   6
TORSDOF 3
ENDMDL
MODEL      144
REMARK 921   NORMALIZED FREE ENERGY PREDICTED BY IDOCK:   -2.58 KCAL/MOL
REMARK 922        TOTAL FREE ENERGY PREDICTED BY IDOCK:   -3.14 KCAL/MOL
REMARK 923 INTER-LIGAND FREE ENERGY PREDICTED BY IDOCK:   -3.00 KCAL/MOL
REMARK 924 INTRA-LIGAND FREE ENERGY PREDICTED BY IDOCK:   -0.13 KCAL/MOL
REMARK 927      BINDING AFFINITY PREDICTED BY RF-SCORE:    0.00 PKD
ROOT
HETATM    1  N   UNL     1      -7.889  19.034  66.671  1.00  0.00    -0.253 NA 
HETATM    2  H1  UNL     1      -8.388  19.870  66.364  1.00  0.00     0.000 HD 
HETATM    3  H2  UNL     1      -6.882  19.104  66.523  1.00  0.00     0.000 HD 
HETATM    4  N   UNL     1      -8.462  17.884  66.019  1.00  0.00    -0.521 NA 
HETATM    5  H   UNL     1      -8.474  17.979  65.003  1.00  0.00     0.000 HD 
ENDROOT
BRANCH   4   6
HETATM    6  C   UNL     1      -7.744  16.679  66.460  1.00  0.00    -0.302 C  
BRANCH   6   7
HETATM    7  C   UNL     1      -8.261  16.207  67.824  1.00  0.00    -0.162 C  
BRANCH   7   8
HETATM    8  C   UNL     1      -9.576  15.478  67.682  1.00  0.00    -0.210 A  
HETATM    9  C   UNL     1     -10.668  15.826  68.489  1.00  0.00    -0.274 A  
HETATM   10  C   UNL     1     -11.865  15.114  68.400  1.00  0.00    -0.293 A  
HETATM   11  C   UNL     1     -11.981  14.050  67.507  1.00  0.00    -0.430 A  
HETATM   12  C   UNL     1     -10.902  13.699  66.698  1.00  0.00    -0.283 A  
HETATM   13  C   UNL     1      -9.703  14.410  66.785  1.00  0.00    -0.278 A  
ENDBRANCH   7   8
ENDBRANCH   6   7
ENDBRANCH   4   6
TORSDOF 3
ENDMDL
MODEL      145
REMARK 921   NORMALIZED FREE ENERGY PREDICTED BY IDOCK:   -2.56 KCAL/MOL
REMARK 922        TOTAL FREE ENERGY PREDICTED BY IDOCK:   -3.12 KCAL/MOL
REMARK 923 INTER-LIGAND FREE ENERGY PREDICTED BY IDOCK:   -3.04 KCAL/MOL
REMARK 924 INTRA-LIGAND FREE ENERGY PREDICTED BY IDOCK:   -0.08 KCAL/MOL
REMARK 927      BINDING AFFINITY PREDICTED BY RF-SCORE:    0.00 PKD
ROOT
HETATM    1  N   UNL     1     -14.406   7.263  72.248  1.00  0.00    -0.629 NA 
HETATM    2  H1  UNL     1     -15.095   6.515  72.326  1.00  0.00     0.000 HD 
HETATM    3  H2  UNL     1     -14.669   7.964  71.555  1.00  0.00     0.000 HD 
HETATM    4  N   UNL     1     -13.115   6.681  71.978  1.00  0.00    -0.508 NA 
HETATM    5  H   UNL     1     -13.126   6.074  71.158  1.00  0.00     0.000 HD 
ENDROOT
BRANCH   4   6
HETATM    6  C   UNL     1     -12.122   7.759  71.864  1.00  0.00    -0.304 C  
BRANCH   6   7
HETATM    7  C   UNL     1     -10.835   7.394  72.614  1.00  0.00    -0.349 C  
BRANCH   7   8
HETATM    8  C   UNL     1      -9.647   8.129  72.042  1.00  0.00    -0.284 A  
HETATM    9  C   UNL     1      -9.785   8.902  70.881  1.00  0.00    -0.300 A  
HETATM   10  C   UNL     1      -8.676   9.535  70.318  1.00  0.00    -0.270 A  
HETATM   11  C   UNL     1      -7.421   9.399  70.909  1.00  0.00    -0.097 A  
HETATM   12  C   UNL     1      -7.274   8.636  72.065  1.00  0.00    -0.074 A  
HETATM   13  C   UNL     1      -8.382   8.002  72.630  1.00  0.00    -0.221 A  
ENDBRANCH   7   8
ENDBRANCH   6   7
ENDBRANCH   4   6
TORSDOF 3
ENDMDL
MODEL      146
REMARK 921   NORMALIZED FREE ENERGY PREDICTED BY IDOCK:   -2.55 KCAL/MOL
REMARK 922        TOTAL FREE ENERGY PREDICTED BY IDOCK:   -3.10 KCAL/MOL
REMARK 923 INTER-LIGAND FREE ENERGY PREDICTED BY IDOCK:   -3.01 KCAL/MOL
REMARK 924 INTRA-LIGAND FREE ENERGY PREDICTED BY IDOCK:   -0.10 KCAL/MOL
REMARK 927      BINDING AFFINITY PREDICTED BY RF-SCORE:    0.00 PKD
ROOT
HETATM    1  N   UNL     1      -6.591  11.765  66.471  1.00  0.00    -0.361 NA 
HETATM    2  H1  UNL     1      -5.661  11.431  66.215  1.00  0.00     0.000 HD 
HETATM    3  H2  UNL     1      -7.226  11.799  65.673  1.00  0.00     0.000 HD 
HETATM    4  N   UNL     1      -6.463  13.041  67.128  1.00  0.00    -0.474 NA 
HETATM    5  H   UNL     1      -5.948  13.718  66.566  1.00  0.00     0.000 HD 
ENDROOT
BRANCH   4   6
HETATM    6  C   UNL     1      -7.803  13.522  67.497  1.00  0.00    -0.178 C  
BRANCH   6   7
HETATM    7  C   UNL     1      -8.843  12.406  67.343  1.00  0.00    -0.188 C  
BRANCH   7   8
HETATM    8  C   UNL     1     -10.005  12.615  68.284  1.00  0.00    -0.229 A  
HETATM    9  C   UNL     1     -10.356  13.906  68.700  1.00  0.00    -0.237 A  
HETATM   10  C   UNL     1     -11.392  14.095  69.615  1.00  0.00    -0.289 A  
HETATM   11  C   UNL     1     -12.084  12.997  70.124  1.00  0.00    -0.377 A  
HETATM   12  C   UNL     1     -11.745  11.710  69.715  1.00  0.00    -0.425 A  
HETATM   13  C   UNL     1     -10.709  11.518  68.798  1.00  0.00    -0.247 A  
ENDBRANCH   7   8
ENDBRANCH   6   7
ENDBRANCH   4   6
TORSDOF 3
ENDMDL
MODEL      147
REMARK 921   NORMALIZED FREE ENERGY PREDICTED BY IDOCK:   -2.52 KCAL/MOL
REMARK 922        TOTAL FREE ENERGY PREDICTED BY IDOCK:   -3.08 KCAL/MOL
REMARK 923 INTER-LIGAND FREE ENERGY PREDICTED BY IDOCK:   -2.98 KCAL/MOL
REMARK 924 INTRA-LIGAND FREE ENERGY PREDICTED BY IDOCK:   -0.09 KCAL/MOL
REMARK 927      BINDING AFFINITY PREDICTED BY RF-SCORE:    0.00 PKD
ROOT
HETATM    1  N   UNL     1      -8.828   8.652  63.523  1.00  0.00    -0.396 NA 
HETATM    2  H1  UNL     1      -8.042   8.358  62.943  1.00  0.00     0.000 HD 
HETATM    3  H2  UNL     1      -9.695   8.175  63.274  1.00  0.00     0.000 HD 
HETATM    4  N   UNL     1      -8.950  10.086  63.451  1.00  0.00    -0.237 NA 
HETATM    5  H   UNL     1      -9.027  10.423  62.492  1.00  0.00     0.000 HD 
ENDROOT
BRANCH   4   6
HETATM    6  C   UNL     1     -10.083  10.510  64.287  1.00  0.00    -0.310 C  
BRANCH   6   7
HETATM    7  C   UNL     1      -9.639  11.556  65.316  1.00  0.00    -0.244 C  
BRANCH   7   8
HETATM    8  C   UNL     1     -10.394  11.395  66.613  1.00  0.00    -0.272 A  
HETATM    9  C   UNL     1     -10.815  12.522  67.331  1.00  0.00    -0.272 A  
HETATM   10  C   UNL     1     -11.461  12.375  68.560  1.00  0.00    -0.350 A  
HETATM   11  C   UNL     1     -11.691  11.103  69.080  1.00  0.00    -0.408 A  
HETATM   12  C   UNL     1     -11.279   9.976  68.372  1.00  0.00    -0.187 A  
HETATM   13  C   UNL     1     -10.632  10.120  67.143  1.00  0.00    -0.308 A  
ENDBRANCH   7   8
ENDBRANCH   6   7
ENDBRANCH   4   6
TORSDOF 3
ENDMDL
MODEL      148
REMARK 921   NORMALIZED FREE ENERGY PREDICTED BY IDOCK:   -2.51 KCAL/MOL
REMARK 922        TOTAL FREE ENERGY PREDICTED BY IDOCK:   -3.06 KCAL/MOL
REMARK 923 INTER-LIGAND FREE ENERGY PREDICTED BY IDOCK:   -2.96 KCAL/MOL
REMARK 924 INTRA-LIGAND FREE ENERGY PREDICTED BY IDOCK:   -0.10 KCAL/MOL
REMARK 927      BINDING AFFINITY PREDICTED BY RF-SCORE:    0.00 PKD
ROOT
HETATM    1  N   UNL     1     -10.510   5.992  66.596  1.00  0.00    -0.377 NA 
HETATM    2  H1  UNL     1     -10.624   6.370  65.655  1.00  0.00     0.000 HD 
HETATM    3  H2  UNL     1     -10.614   4.977  66.623  1.00  0.00     0.000 HD 
HETATM    4  N   UNL     1     -11.430   6.661  67.481  1.00  0.00    -0.715 NA 
HETATM    5  H   UNL     1     -12.394   6.608  67.153  1.00  0.00     0.000 HD 
ENDROOT
BRANCH   4   6
HETATM    6  C   UNL     1     -11.267   6.117  68.837  1.00  0.00    -0.261 C  
BRANCH   6   7
HETATM    7  C   UNL     1      -9.803   6.204  69.286  1.00  0.00    -0.182 C  
BRANCH   7   8
HETATM    8  C   UNL     1      -9.694   6.815  70.662  1.00  0.00    -0.180 A  
HETATM    9  C   UNL     1     -10.616   7.784  71.081  1.00  0.00    -0.235 A  
HETATM   10  C   UNL     1     -10.481   8.392  72.330  1.00  0.00    -0.402 A  
HETATM   11  C   UNL     1      -9.425   8.039  73.169  1.00  0.00    -0.349 A  
HETATM   12  C   UNL     1      -8.506   7.074  72.763  1.00  0.00    -0.129 A  
HETATM   13  C   UNL     1      -8.638   6.464  71.514  1.00  0.00    -0.130 A  
ENDBRANCH   7   8
ENDBRANCH   6   7
ENDBRANCH   4   6
TORSDOF 3
ENDMDL
MODEL      149
REMARK 921   NORMALIZED FREE ENERGY PREDICTED BY IDOCK:   -2.51 KCAL/MOL
REMARK 922        TOTAL FREE ENERGY PREDICTED BY IDOCK:   -3.06 KCAL/MOL
REMARK 923 INTER-LIGAND FREE ENERGY PREDICTED BY IDOCK:   -3.00 KCAL/MOL
REMARK 924 INTRA-LIGAND FREE ENERGY PREDICTED BY IDOCK:   -0.06 KCAL/MOL
REMARK 927      BINDING AFFINITY PREDICTED BY RF-SCORE:    0.00 PKD
ROOT
HETATM    1  N   UNL     1      -7.985   4.364  68.831  1.00  0.00    -0.073 NA 
HETATM    2  H1  UNL     1      -7.652   3.553  68.308  1.00  0.00     0.000 HD 
HETATM    3  H2  UNL     1      -7.285   4.722  69.481  1.00  0.00     0.000 HD 
HETATM    4  N   UNL     1      -9.220   4.019  69.488  1.00  0.00    -0.135 NA 
HETATM    5  H   UNL     1      -9.131   3.188  70.072  1.00  0.00     0.000 HD 
ENDROOT
BRANCH   4   6
HETATM    6  C   UNL     1      -9.700   5.187  70.241  1.00  0.00    -0.203 C  
BRANCH   6   7
HETATM    7  C   UNL     1     -10.884   5.847  69.525  1.00  0.00    -0.442 C  
BRANCH   7   8
HETATM    8  C   UNL     1     -11.356   7.070  70.273  1.00  0.00    -0.339 A  
HETATM    9  C   UNL     1     -10.790   8.325  70.008  1.00  0.00    -0.232 A  
HETATM   10  C   UNL     1     -11.184   9.446  70.740  1.00  0.00    -0.367 A  
HETATM   11  C   UNL     1     -12.144   9.323  71.742  1.00  0.00    -0.457 A  
HETATM   12  C   UNL     1     -12.716   8.081  72.011  1.00  0.00    -0.331 A  
HETATM   13  C   UNL     1     -12.324   6.958  71.280  1.00  0.00    -0.422 A  
ENDBRANCH   7   8
ENDBRANCH   6   7
ENDBRANCH   4   6
TORSDOF 3
ENDMDL
MODEL      150
REMARK 921   NORMALIZED FREE ENERGY PREDICTED BY IDOCK:   -2.49 KCAL/MOL
REMARK 922        TOTAL FREE ENERGY PREDICTED BY IDOCK:   -3.04 KCAL/MOL
REMARK 923 INTER-LIGAND FREE ENERGY PREDICTED BY IDOCK:   -2.95 KCAL/MOL
REMARK 924 INTRA-LIGAND FREE ENERGY PREDICTED BY IDOCK:   -0.09 KCAL/MOL
REMARK 927      BINDING AFFINITY PREDICTED BY RF-SCORE:    0.00 PKD
ROOT
HETATM    1  N   UNL     1      -6.467  12.091  66.576  1.00  0.00    -0.441 NA 
HETATM    2  H1  UNL     1      -5.520  11.769  66.372  1.00  0.00     0.000 HD 
HETATM    3  H2  UNL     1      -7.056  12.117  65.744  1.00  0.00     0.000 HD 
HETATM    4  N   UNL     1      -6.392  13.369  67.237  1.00  0.00    -0.454 NA 
HETATM    5  H   UNL     1      -5.854  14.052  66.704  1.00  0.00     0.000 HD 
ENDROOT
BRANCH   4   6
HETATM    6  C   UNL     1      -7.756  13.834  67.530  1.00  0.00    -0.176 C  
BRANCH   6   7
HETATM    7  C   UNL     1      -7.725  15.160  68.300  1.00  0.00    -0.117 C  
BRANCH   7   8
HETATM    8  C   UNL     1      -8.604  16.192  67.636  1.00  0.00    -0.181 A  
HETATM    9  C   UNL     1      -8.768  17.458  68.213  1.00  0.00    -0.261 A  
HETATM   10  C   UNL     1      -9.627  18.393  67.632  1.00  0.00    -0.290 A  
HETATM   11  C   UNL     1     -10.330  18.069  66.472  1.00  0.00    -0.376 A  
HETATM   12  C   UNL     1     -10.171  16.814  65.889  1.00  0.00    -0.345 A  
HETATM   13  C   UNL     1      -9.312  15.877  66.468  1.00  0.00    -0.306 A  
ENDBRANCH   7   8
ENDBRANCH   6   7
ENDBRANCH   4   6
TORSDOF 3
ENDMDL
MODEL      151
REMARK 921   NORMALIZED FREE ENERGY PREDICTED BY IDOCK:   -2.38 KCAL/MOL
REMARK 922        TOTAL FREE ENERGY PREDICTED BY IDOCK:   -2.91 KCAL/MOL
REMARK 923 INTER-LIGAND FREE ENERGY PREDICTED BY IDOCK:   -2.83 KCAL/MOL
REMARK 924 INTRA-LIGAND FREE ENERGY PREDICTED BY IDOCK:   -0.08 KCAL/MOL
REMARK 927      BINDING AFFINITY PREDICTED BY RF-SCORE:    0.00 PKD
ROOT
HETATM    1  N   UNL     1      -9.311   9.448  66.077  1.00  0.00    -0.200 NA 
HETATM    2  H1  UNL     1      -9.661  10.116  65.389  1.00  0.00     0.000 HD 
HETATM    3  H2  UNL     1      -8.293   9.465  66.153  1.00  0.00     0.000 HD 
HETATM    4  N   UNL     1      -9.816   8.138  65.752  1.00  0.00    -0.341 NA 
HETATM    5  H   UNL     1      -9.598   7.863  64.795  1.00  0.00     0.000 HD 
ENDROOT
BRANCH   4   6
HETATM    6  C   UNL     1      -9.311   7.175  66.742  1.00  0.00    -0.161 C  
BRANCH   6   7
HETATM    7  C   UNL     1     -10.363   6.099  67.039  1.00  0.00    -0.295 C  
BRANCH   7   8
HETATM    8  C   UNL     1     -10.534   5.906  68.527  1.00  0.00    -0.297 A  
HETATM    9  C   UNL     1     -11.286   6.820  69.278  1.00  0.00    -0.261 A  
HETATM   10  C   UNL     1     -11.396   6.675  70.661  1.00  0.00    -0.401 A  
HETATM   11  C   UNL     1     -10.756   5.618  71.306  1.00  0.00    -0.312 A  
HETATM   12  C   UNL     1     -10.009   4.702  70.568  1.00  0.00    -0.295 A  
HETATM   13  C   UNL     1      -9.897   4.845  69.184  1.00  0.00    -0.263 A  
ENDBRANCH   7   8
ENDBRANCH   6   7
ENDBRANCH   4   6
TORSDOF 3
ENDMDL
MODEL      152
REMARK 921   NORMALIZED FREE ENERGY PREDICTED BY IDOCK:   -2.37 KCAL/MOL
REMARK 922        TOTAL FREE ENERGY PREDICTED BY IDOCK:   -2.90 KCAL/MOL
REMARK 923 INTER-LIGAND FREE ENERGY PREDICTED BY IDOCK:   -2.97 KCAL/MOL
REMARK 924 INTRA-LIGAND FREE ENERGY PREDICTED BY IDOCK:    0.07 KCAL/MOL
REMARK 927      BINDING AFFINITY PREDICTED BY RF-SCORE:    0.00 PKD
ROOT
HETATM    1  N   UNL     1      -6.966  10.911  64.958  1.00  0.00    -0.344 NA 
HETATM    2  H1  UNL     1      -6.449  11.716  65.312  1.00  0.00     0.000 HD 
HETATM    3  H2  UNL     1      -7.511  11.134  64.124  1.00  0.00     0.000 HD 
HETATM    4  N   UNL     1      -7.780  10.376  66.020  1.00  0.00    -0.131 NA 
HETATM    5  H   UNL     1      -8.391  11.079  66.434  1.00  0.00     0.000 HD 
ENDROOT
BRANCH   4   6
HETATM    6  C   UNL     1      -8.525   9.216  65.510  1.00  0.00    -0.147 C  
BRANCH   6   7
HETATM    7  C   UNL     1      -9.806   8.992  66.323  1.00  0.00    -0.361 C  
BRANCH   7   8
HETATM    8  C   UNL     1     -10.486  10.304  66.633  1.00  0.00    -0.260 A  
HETATM    9  C   UNL     1     -10.823  10.632  67.953  1.00  0.00    -0.328 A  
HETATM   10  C   UNL     1     -11.505  11.817  68.233  1.00  0.00    -0.370 A  
HETATM   11  C   UNL     1     -11.857  12.682  67.199  1.00  0.00    -0.399 A  
HETATM   12  C   UNL     1     -11.524  12.367  65.884  1.00  0.00    -0.422 A  
HETATM   13  C   UNL     1     -10.841  11.182  65.600  1.00  0.00    -0.206 A  
ENDBRANCH   7   8
ENDBRANCH   6   7
ENDBRANCH   4   6
TORSDOF 3
ENDMDL
MODEL      153
REMARK 921   NORMALIZED FREE ENERGY PREDICTED BY IDOCK:   -2.37 KCAL/MOL
REMARK 922        TOTAL FREE ENERGY PREDICTED BY IDOCK:   -2.90 KCAL/MOL
REMARK 923 INTER-LIGAND FREE ENERGY PREDICTED BY IDOCK:   -2.91 KCAL/MOL
REMARK 924 INTRA-LIGAND FREE ENERGY PREDICTED BY IDOCK:    0.01 KCAL/MOL
REMARK 927      BINDING AFFINITY PREDICTED BY RF-SCORE:    0.00 PKD
ROOT
HETATM    1  N   UNL     1     -12.482  10.724  68.492  1.00  0.00    -0.523 NA 
HETATM    2  H1  UNL     1     -13.345  11.185  68.784  1.00  0.00     0.000 HD 
HETATM    3  H2  UNL     1     -12.621  10.112  67.687  1.00  0.00     0.000 HD 
HETATM    4  N   UNL     1     -11.921  10.027  69.622  1.00  0.00    -0.475 NA 
HETATM    5  H   UNL     1     -12.584   9.380  70.048  1.00  0.00     0.000 HD 
ENDROOT
BRANCH   4   6
HETATM    6  C   UNL     1     -10.679   9.362  69.202  1.00  0.00    -0.197 C  
BRANCH   6   7
HETATM    7  C   UNL     1      -9.478   9.910  69.983  1.00  0.00    -0.246 C  
BRANCH   7   8
HETATM    8  C   UNL     1      -9.114   8.996  71.128  1.00  0.00    -0.316 A  
HETATM    9  C   UNL     1     -10.075   8.640  72.083  1.00  0.00    -0.388 A  
HETATM   10  C   UNL     1      -9.725   7.843  73.174  1.00  0.00    -0.353 A  
HETATM   11  C   UNL     1      -8.413   7.396  73.319  1.00  0.00    -0.173 A  
HETATM   12  C   UNL     1      -7.450   7.742  72.373  1.00  0.00    -0.098 A  
HETATM   13  C   UNL     1      -7.798   8.539  71.281  1.00  0.00    -0.140 A  
ENDBRANCH   7   8
ENDBRANCH   6   7
ENDBRANCH   4   6
TORSDOF 3
ENDMDL
MODEL      154
REMARK 921   NORMALIZED FREE ENERGY PREDICTED BY IDOCK:   -2.35 KCAL/MOL
REMARK 922        TOTAL FREE ENERGY PREDICTED BY IDOCK:   -2.87 KCAL/MOL
REMARK 923 INTER-LIGAND FREE ENERGY PREDICTED BY IDOCK:   -2.81 KCAL/MOL
REMARK 924 INTRA-LIGAND FREE ENERGY PREDICTED BY IDOCK:   -0.06 KCAL/MOL
REMARK 927      BINDING AFFINITY PREDICTED BY RF-SCORE:    0.00 PKD
ROOT
HETATM    1  N   UNL     1     -10.626   3.242  73.314  1.00  0.00    -0.170 NA 
HETATM    2  H1  UNL     1     -10.350   2.559  74.020  1.00  0.00     0.000 HD 
HETATM    3  H2  UNL     1      -9.935   3.331  72.568  1.00  0.00     0.000 HD 
HETATM    4  N   UNL     1     -10.899   4.499  73.964  1.00  0.00    -0.271 NA 
HETATM    5  H   UNL     1     -10.116   4.821  74.533  1.00  0.00     0.000 HD 
ENDROOT
BRANCH   4   6
HETATM    6  C   UNL     1     -11.295   5.484  72.947  1.00  0.00    -0.291 C  
BRANCH   6   7
HETATM    7  C   UNL     1     -10.707   6.863  73.268  1.00  0.00    -0.349 C  
BRANCH   7   8
HETATM    8  C   UNL     1     -10.832   7.794  72.085  1.00  0.00    -0.310 A  
HETATM    9  C   UNL     1     -11.840   8.766  72.053  1.00  0.00    -0.442 A  
HETATM   10  C   UNL     1     -11.993   9.587  70.934  1.00  0.00    -0.372 A  
HETATM   11  C   UNL     1     -11.141   9.443  69.840  1.00  0.00    -0.223 A  
HETATM   12  C   UNL     1     -10.134   8.481  69.864  1.00  0.00    -0.195 A  
HETATM   13  C   UNL     1      -9.979   7.659  70.982  1.00  0.00    -0.188 A  
ENDBRANCH   7   8
ENDBRANCH   6   7
ENDBRANCH   4   6
TORSDOF 3
ENDMDL
MODEL      155
REMARK 921   NORMALIZED FREE ENERGY PREDICTED BY IDOCK:   -2.35 KCAL/MOL
REMARK 922        TOTAL FREE ENERGY PREDICTED BY IDOCK:   -2.87 KCAL/MOL
REMARK 923 INTER-LIGAND FREE ENERGY PREDICTED BY IDOCK:   -2.78 KCAL/MOL
REMARK 924 INTRA-LIGAND FREE ENERGY PREDICTED BY IDOCK:   -0.09 KCAL/MOL
REMARK 927      BINDING AFFINITY PREDICTED BY RF-SCORE:    0.00 PKD
ROOT
HETATM    1  N   UNL     1      -9.961   6.697  71.702  1.00  0.00    -0.174 NA 
HETATM    2  H1  UNL     1      -9.423   6.128  72.357  1.00  0.00     0.000 HD 
HETATM    3  H2  UNL     1     -10.530   6.131  71.071  1.00  0.00     0.000 HD 
HETATM    4  N   UNL     1      -9.060   7.570  70.994  1.00  0.00    -0.148 NA 
HETATM    5  H   UNL     1      -8.303   7.061  70.538  1.00  0.00     0.000 HD 
ENDROOT
BRANCH   4   6
HETATM    6  C   UNL     1      -9.834   8.390  70.050  1.00  0.00    -0.182 C  
BRANCH   6   7
HETATM    7  C   UNL     1     -10.983   9.106  70.768  1.00  0.00    -0.332 C  
BRANCH   7   8
HETATM    8  C   UNL     1     -11.328  10.404  70.078  1.00  0.00    -0.384 A  
HETATM    9  C   UNL     1     -10.808  10.691  68.809  1.00  0.00    -0.269 A  
HETATM   10  C   UNL     1     -11.077  11.915  68.196  1.00  0.00    -0.294 A  
HETATM   11  C   UNL     1     -11.866  12.863  68.846  1.00  0.00    -0.352 A  
HETATM   12  C   UNL     1     -12.391  12.586  70.106  1.00  0.00    -0.210 A  
HETATM   13  C   UNL     1     -12.123  11.362  70.722  1.00  0.00    -0.433 A  
ENDBRANCH   7   8
ENDBRANCH   6   7
ENDBRANCH   4   6
TORSDOF 3
ENDMDL
MODEL      156
REMARK 921   NORMALIZED FREE ENERGY PREDICTED BY IDOCK:   -2.33 KCAL/MOL
REMARK 922        TOTAL FREE ENERGY PREDICTED BY IDOCK:   -2.85 KCAL/MOL
REMARK 923 INTER-LIGAND FREE ENERGY PREDICTED BY IDOCK:   -2.73 KCAL/MOL
REMARK 924 INTRA-LIGAND FREE ENERGY PREDICTED BY IDOCK:   -0.12 KCAL/MOL
REMARK 927      BINDING AFFINITY PREDICTED BY RF-SCORE:    0.00 PKD
ROOT
HETATM    1  N   UNL     1      -6.641  13.821  67.410  1.00  0.00    -0.399 NA 
HETATM    2  H1  UNL     1      -7.268  13.308  66.790  1.00  0.00     0.000 HD 
HETATM    3  H2  UNL     1      -6.856  13.667  68.396  1.00  0.00     0.000 HD 
HETATM    4  N   UNL     1      -6.670  15.216  67.053  1.00  0.00    -0.283 NA 
HETATM    5  H   UNL     1      -7.616  15.598  67.053  1.00  0.00     0.000 HD 
ENDROOT
BRANCH   4   6
HETATM    6  C   UNL     1      -5.767  15.956  67.947  1.00  0.00    -0.140 C  
BRANCH   6   7
HETATM    7  C   UNL     1      -5.288  17.253  67.284  1.00  0.00    -0.158 C  
BRANCH   7   8
HETATM    8  C   UNL     1      -6.418  18.246  67.156  1.00  0.00    -0.191 A  
HETATM    9  C   UNL     1      -6.747  18.786  65.906  1.00  0.00    -0.294 A  
HETATM   10  C   UNL     1      -7.752  19.748  65.796  1.00  0.00    -0.268 A  
HETATM   11  C   UNL     1      -8.436  20.178  66.932  1.00  0.00    -0.376 A  
HETATM   12  C   UNL     1      -8.118  19.644  68.179  1.00  0.00    -0.353 A  
HETATM   13  C   UNL     1      -7.113  18.681  68.292  1.00  0.00    -0.271 A  
ENDBRANCH   7   8
ENDBRANCH   6   7
ENDBRANCH   4   6
TORSDOF 3
ENDMDL
MODEL      157
REMARK 921   NORMALIZED FREE ENERGY PREDICTED BY IDOCK:   -2.31 KCAL/MOL
REMARK 922        TOTAL FREE ENERGY PREDICTED BY IDOCK:   -2.82 KCAL/MOL
REMARK 923 INTER-LIGAND FREE ENERGY PREDICTED BY IDOCK:   -2.74 KCAL/MOL
REMARK 924 INTRA-LIGAND FREE ENERGY PREDICTED BY IDOCK:   -0.08 KCAL/MOL
REMARK 927      BINDING AFFINITY PREDICTED BY RF-SCORE:    0.00 PKD
ROOT
HETATM    1  N   UNL     1      -8.353   7.689  65.165  1.00  0.00    -0.245 NA 
HETATM    2  H1  UNL     1      -8.235   7.755  64.154  1.00  0.00     0.000 HD 
HETATM    3  H2  UNL     1      -8.128   6.760  65.524  1.00  0.00     0.000 HD 
HETATM    4  N   UNL     1      -9.691   8.100  65.506  1.00  0.00    -0.144 NA 
HETATM    5  H   UNL     1     -10.401   7.575  64.995  1.00  0.00     0.000 HD 
ENDROOT
BRANCH   4   6
HETATM    6  C   UNL     1      -9.863   8.004  66.963  1.00  0.00    -0.227 C  
BRANCH   6   7
HETATM    7  C   UNL     1     -11.035   7.079  67.313  1.00  0.00    -0.372 C  
BRANCH   7   8
HETATM    8  C   UNL     1     -10.683   6.172  68.467  1.00  0.00    -0.365 A  
HETATM    9  C   UNL     1      -9.902   5.028  68.256  1.00  0.00    -0.211 A  
HETATM   10  C   UNL     1      -9.626   4.157  69.311  1.00  0.00    -0.256 A  
HETATM   11  C   UNL     1     -10.127   4.421  70.584  1.00  0.00    -0.191 A  
HETATM   12  C   UNL     1     -10.901   5.559  70.806  1.00  0.00    -0.249 A  
HETATM   13  C   UNL     1     -11.179   6.432  69.752  1.00  0.00    -0.484 A  
ENDBRANCH   7   8
ENDBRANCH   6   7
ENDBRANCH   4   6
TORSDOF 3
ENDMDL
MODEL      158
REMARK 921   NORMALIZED FREE ENERGY PREDICTED BY IDOCK:   -2.30 KCAL/MOL
REMARK 922        TOTAL FREE ENERGY PREDICTED BY IDOCK:   -2.81 KCAL/MOL
REMARK 923 INTER-LIGAND FREE ENERGY PREDICTED BY IDOCK:   -2.88 KCAL/MOL
REMARK 924 INTRA-LIGAND FREE ENERGY PREDICTED BY IDOCK:    0.07 KCAL/MOL
REMARK 927      BINDING AFFINITY PREDICTED BY RF-SCORE:    0.00 PKD
ROOT
HETATM    1  N   UNL     1      -6.213  13.428  67.165  1.00  0.00    -0.432 NA 
HETATM    2  H1  UNL     1      -6.169  12.747  66.406  1.00  0.00     0.000 HD 
HETATM    3  H2  UNL     1      -5.525  13.242  67.896  1.00  0.00     0.000 HD 
HETATM    4  N   UNL     1      -7.560  13.471  67.676  1.00  0.00    -0.162 NA 
HETATM    5  H   UNL     1      -7.898  12.552  67.958  1.00  0.00     0.000 HD 
ENDROOT
BRANCH   4   6
HETATM    6  C   UNL     1      -7.623  14.452  68.769  1.00  0.00    -0.131 C  
BRANCH   6   7
HETATM    7  C   UNL     1      -8.404  15.699  68.337  1.00  0.00    -0.162 C  
BRANCH   7   8
HETATM    8  C   UNL     1      -9.525  15.335  67.393  1.00  0.00    -0.200 A  
HETATM    9  C   UNL     1      -9.458  15.700  66.042  1.00  0.00    -0.390 A  
HETATM   10  C   UNL     1     -10.520  15.417  65.181  1.00  0.00    -0.439 A  
HETATM   11  C   UNL     1     -11.655  14.768  65.663  1.00  0.00    -0.290 A  
HETATM   12  C   UNL     1     -11.730  14.398  67.004  1.00  0.00    -0.420 A  
HETATM   13  C   UNL     1     -10.669  14.680  67.867  1.00  0.00    -0.250 A  
ENDBRANCH   7   8
ENDBRANCH   6   7
ENDBRANCH   4   6
TORSDOF 3
ENDMDL
MODEL      159
REMARK 921   NORMALIZED FREE ENERGY PREDICTED BY IDOCK:   -2.29 KCAL/MOL
REMARK 922        TOTAL FREE ENERGY PREDICTED BY IDOCK:   -2.80 KCAL/MOL
REMARK 923 INTER-LIGAND FREE ENERGY PREDICTED BY IDOCK:   -2.73 KCAL/MOL
REMARK 924 INTRA-LIGAND FREE ENERGY PREDICTED BY IDOCK:   -0.07 KCAL/MOL
REMARK 927      BINDING AFFINITY PREDICTED BY RF-SCORE:    0.00 PKD
ROOT
HETATM    1  N   UNL     1      -6.013   8.298  63.560  1.00  0.00    -0.071 NA 
HETATM    2  H1  UNL     1      -5.366   8.178  62.780  1.00  0.00     0.000 HD 
HETATM    3  H2  UNL     1      -6.040   7.482  64.173  1.00  0.00     0.000 HD 
HETATM    4  N   UNL     1      -7.313   8.637  63.040  1.00  0.00    -0.095 NA 
HETATM    5  H   UNL     1      -7.648   7.957  62.357  1.00  0.00     0.000 HD 
ENDROOT
BRANCH   4   6
HETATM    6  C   UNL     1      -8.246   8.809  64.163  1.00  0.00    -0.162 C  
BRANCH   6   7
HETATM    7  C   UNL     1      -9.284   9.892  63.847  1.00  0.00    -0.295 C  
BRANCH   7   8
HETATM    8  C   UNL     1      -9.975  10.363  65.104  1.00  0.00    -0.390 A  
HETATM    9  C   UNL     1     -10.059   9.524  66.223  1.00  0.00    -0.327 A  
HETATM   10  C   UNL     1     -10.749   9.936  67.364  1.00  0.00    -0.323 A  
HETATM   11  C   UNL     1     -11.360  11.188  67.396  1.00  0.00    -0.329 A  
HETATM   12  C   UNL     1     -11.280  12.031  66.290  1.00  0.00    -0.394 A  
HETATM   13  C   UNL     1     -10.590  11.621  65.147  1.00  0.00    -0.343 A  
ENDBRANCH   7   8
ENDBRANCH   6   7
ENDBRANCH   4   6
TORSDOF 3
ENDMDL
MODEL      160
REMARK 921   NORMALIZED FREE ENERGY PREDICTED BY IDOCK:   -2.27 KCAL/MOL
REMARK 922        TOTAL FREE ENERGY PREDICTED BY IDOCK:   -2.77 KCAL/MOL
REMARK 923 INTER-LIGAND FREE ENERGY PREDICTED BY IDOCK:   -2.68 KCAL/MOL
REMARK 924 INTRA-LIGAND FREE ENERGY PREDICTED BY IDOCK:   -0.09 KCAL/MOL
REMARK 927      BINDING AFFINITY PREDICTED BY RF-SCORE:    0.00 PKD
ROOT
HETATM    1  N   UNL     1      -6.384   9.196  72.125  1.00  0.00    -0.273 NA 
HETATM    2  H1  UNL     1      -5.684   9.919  71.958  1.00  0.00     0.000 HD 
HETATM    3  H2  UNL     1      -5.976   8.261  72.166  1.00  0.00     0.000 HD 
HETATM    4  N   UNL     1      -7.413   9.303  71.123  1.00  0.00    -0.294 NA 
HETATM    5  H   UNL     1      -7.038   9.270  70.175  1.00  0.00     0.000 HD 
ENDROOT
BRANCH   4   6
HETATM    6  C   UNL     1      -8.421   8.259  71.362  1.00  0.00    -0.138 C  
BRANCH   6   7
HETATM    7  C   UNL     1      -9.825   8.769  71.011  1.00  0.00    -0.293 C  
BRANCH   7   8
HETATM    8  C   UNL     1     -10.259   8.267  69.655  1.00  0.00    -0.209 A  
HETATM    9  C   UNL     1     -10.661   6.935  69.489  1.00  0.00    -0.261 A  
HETATM   10  C   UNL     1     -11.006   6.455  68.224  1.00  0.00    -0.396 A  
HETATM   11  C   UNL     1     -10.952   7.300  67.118  1.00  0.00    -0.285 A  
HETATM   12  C   UNL     1     -10.558   8.627  67.273  1.00  0.00    -0.308 A  
HETATM   13  C   UNL     1     -10.212   9.110  68.537  1.00  0.00    -0.223 A  
ENDBRANCH   7   8
ENDBRANCH   6   7
ENDBRANCH   4   6
TORSDOF 3
ENDMDL
MODEL      161
REMARK 921   NORMALIZED FREE ENERGY PREDICTED BY IDOCK:   -2.25 KCAL/MOL
REMARK 922        TOTAL FREE ENERGY PREDICTED BY IDOCK:   -2.75 KCAL/MOL
REMARK 923 INTER-LIGAND FREE ENERGY PREDICTED BY IDOCK:   -2.67 KCAL/MOL
REMARK 924 INTRA-LIGAND FREE ENERGY PREDICTED BY IDOCK:   -0.08 KCAL/MOL
REMARK 927      BINDING AFFINITY PREDICTED BY RF-SCORE:    0.00 PKD
ROOT
HETATM    1  N   UNL     1     -11.297   1.963  63.600  1.00  0.00    -0.588 NA 
HETATM    2  H1  UNL     1     -11.250   1.392  62.756  1.00  0.00     0.000 HD 
HETATM    3  H2  UNL     1     -12.237   1.994  63.997  1.00  0.00     0.000 HD 
HETATM    4  N   UNL     1     -10.784   3.277  63.303  1.00  0.00    -0.233 NA 
HETATM    5  H   UNL     1     -11.259   3.710  62.512  1.00  0.00     0.000 HD 
ENDROOT
BRANCH   4   6
HETATM    6  C   UNL     1     -10.852   4.101  64.519  1.00  0.00    -0.099 C  
BRANCH   6   7
HETATM    7  C   UNL     1      -9.833   3.621  65.559  1.00  0.00    -0.068 C  
BRANCH   7   8
HETATM    8  C   UNL     1      -9.944   4.421  66.835  1.00  0.00    -0.210 A  
HETATM    9  C   UNL     1      -9.524   3.872  68.054  1.00  0.00    -0.221 A  
HETATM   10  C   UNL     1      -9.680   4.588  69.241  1.00  0.00    -0.260 A  
HETATM   11  C   UNL     1     -10.257   5.856  69.221  1.00  0.00    -0.275 A  
HETATM   12  C   UNL     1     -10.674   6.413  68.014  1.00  0.00    -0.362 A  
HETATM   13  C   UNL     1     -10.519   5.699  66.824  1.00  0.00    -0.353 A  
ENDBRANCH   7   8
ENDBRANCH   6   7
ENDBRANCH   4   6
TORSDOF 3
ENDMDL
MODEL      162
REMARK 921   NORMALIZED FREE ENERGY PREDICTED BY IDOCK:   -2.24 KCAL/MOL
REMARK 922        TOTAL FREE ENERGY PREDICTED BY IDOCK:   -2.74 KCAL/MOL
REMARK 923 INTER-LIGAND FREE ENERGY PREDICTED BY IDOCK:   -2.63 KCAL/MOL
REMARK 924 INTRA-LIGAND FREE ENERGY PREDICTED BY IDOCK:   -0.11 KCAL/MOL
REMARK 927      BINDING AFFINITY PREDICTED BY RF-SCORE:    0.00 PKD
ROOT
HETATM    1  N   UNL     1     -12.523  10.940  68.754  1.00  0.00    -0.706 NA 
HETATM    2  H1  UNL     1     -13.312  10.738  69.368  1.00  0.00     0.000 HD 
HETATM    3  H2  UNL     1     -11.685  10.418  69.011  1.00  0.00     0.000 HD 
HETATM    4  N   UNL     1     -12.299  12.364  68.735  1.00  0.00     0.044 NA 
HETATM    5  H   UNL     1     -12.172  12.749  69.671  1.00  0.00     0.000 HD 
ENDROOT
BRANCH   4   6
HETATM    6  C   UNL     1     -11.161  12.655  67.851  1.00  0.00    -0.266 C  
BRANCH   6   7
HETATM    7  C   UNL     1     -10.056  11.606  68.023  1.00  0.00    -0.198 C  
BRANCH   7   8
HETATM    8  C   UNL     1      -9.714  10.958  66.702  1.00  0.00    -0.222 A  
HETATM    9  C   UNL     1     -10.354  11.369  65.525  1.00  0.00    -0.317 A  
HETATM   10  C   UNL     1     -10.082  10.730  64.315  1.00  0.00    -0.427 A  
HETATM   11  C   UNL     1      -9.170   9.678  64.270  1.00  0.00    -0.235 A  
HETATM   12  C   UNL     1      -8.525   9.264  65.433  1.00  0.00    -0.157 A  
HETATM   13  C   UNL     1      -8.796   9.901  66.646  1.00  0.00    -0.149 A  
ENDBRANCH   7   8
ENDBRANCH   6   7
ENDBRANCH   4   6
TORSDOF 3
ENDMDL
MODEL      163
REMARK 921   NORMALIZED FREE ENERGY PREDICTED BY IDOCK:   -2.21 KCAL/MOL
REMARK 922        TOTAL FREE ENERGY PREDICTED BY IDOCK:   -2.71 KCAL/MOL
REMARK 923 INTER-LIGAND FREE ENERGY PREDICTED BY IDOCK:   -2.83 KCAL/MOL
REMARK 924 INTRA-LIGAND FREE ENERGY PREDICTED BY IDOCK:    0.12 KCAL/MOL
REMARK 927      BINDING AFFINITY PREDICTED BY RF-SCORE:    0.00 PKD
ROOT
HETATM    1  N   UNL     1      -7.884  11.519  66.325  1.00  0.00    -0.370 NA 
HETATM    2  H1  UNL     1      -7.145  11.665  65.637  1.00  0.00     0.000 HD 
HETATM    3  H2  UNL     1      -8.223  10.556  66.335  1.00  0.00     0.000 HD 
HETATM    4  N   UNL     1      -8.940  12.470  66.085  1.00  0.00    -0.426 NA 
HETATM    5  H   UNL     1      -9.287  12.432  65.127  1.00  0.00     0.000 HD 
ENDROOT
BRANCH   4   6
HETATM    6  C   UNL     1     -10.005  12.260  67.076  1.00  0.00    -0.211 C  
BRANCH   6   7
HETATM    7  C   UNL     1     -10.006  13.383  68.120  1.00  0.00    -0.237 C  
BRANCH   7   8
HETATM    8  C   UNL     1      -9.663  14.710  67.488  1.00  0.00    -0.210 A  
HETATM    9  C   UNL     1     -10.628  15.418  66.760  1.00  0.00    -0.309 A  
HETATM   10  C   UNL     1     -10.296  16.616  66.125  1.00  0.00    -0.340 A  
HETATM   11  C   UNL     1      -8.997  17.115  66.212  1.00  0.00    -0.262 A  
HETATM   12  C   UNL     1      -8.031  16.420  66.936  1.00  0.00    -0.269 A  
HETATM   13  C   UNL     1      -8.361  15.222  67.572  1.00  0.00    -0.191 A  
ENDBRANCH   7   8
ENDBRANCH   6   7
ENDBRANCH   4   6
TORSDOF 3
ENDMDL
MODEL      164
REMARK 921   NORMALIZED FREE ENERGY PREDICTED BY IDOCK:   -2.18 KCAL/MOL
REMARK 922        TOTAL FREE ENERGY PREDICTED BY IDOCK:   -2.67 KCAL/MOL
REMARK 923 INTER-LIGAND FREE ENERGY PREDICTED BY IDOCK:   -2.60 KCAL/MOL
REMARK 924 INTRA-LIGAND FREE ENERGY PREDICTED BY IDOCK:   -0.08 KCAL/MOL
REMARK 927      BINDING AFFINITY PREDICTED BY RF-SCORE:    0.00 PKD
ROOT
HETATM    1  N   UNL     1      -5.580   8.652  73.074  1.00  0.00    -0.072 NA 
HETATM    2  H1  UNL     1      -5.224   9.286  73.790  1.00  0.00     0.000 HD 
HETATM    3  H2  UNL     1      -5.106   8.772  72.178  1.00  0.00     0.000 HD 
HETATM    4  N   UNL     1      -7.007   8.823  72.967  1.00  0.00    -0.333 NA 
HETATM    5  H   UNL     1      -7.270   9.794  72.795  1.00  0.00     0.000 HD 
ENDROOT
BRANCH   4   6
HETATM    6  C   UNL     1      -7.520   7.912  71.934  1.00  0.00    -0.080 C  
BRANCH   6   7
HETATM    7  C   UNL     1      -8.581   6.971  72.518  1.00  0.00    -0.132 C  
BRANCH   7   8
HETATM    8  C   UNL     1      -9.961   7.343  72.031  1.00  0.00    -0.196 A  
HETATM    9  C   UNL     1     -10.543   8.559  72.413  1.00  0.00    -0.368 A  
HETATM   10  C   UNL     1     -11.841   8.878  72.012  1.00  0.00    -0.438 A  
HETATM   11  C   UNL     1     -12.569   7.984  71.227  1.00  0.00    -0.254 A  
HETATM   12  C   UNL     1     -11.998   6.774  70.839  1.00  0.00    -0.437 A  
HETATM   13  C   UNL     1     -10.699   6.453  71.239  1.00  0.00    -0.288 A  
ENDBRANCH   7   8
ENDBRANCH   6   7
ENDBRANCH   4   6
TORSDOF 3
ENDMDL
MODEL      165
REMARK 921   NORMALIZED FREE ENERGY PREDICTED BY IDOCK:   -2.17 KCAL/MOL
REMARK 922        TOTAL FREE ENERGY PREDICTED BY IDOCK:   -2.67 KCAL/MOL
REMARK 923 INTER-LIGAND FREE ENERGY PREDICTED BY IDOCK:   -2.54 KCAL/MOL
REMARK 924 INTRA-LIGAND FREE ENERGY PREDICTED BY IDOCK:   -0.12 KCAL/MOL
REMARK 927      BINDING AFFINITY PREDICTED BY RF-SCORE:    0.00 PKD
ROOT
HETATM    1  N   UNL     1      -8.512   8.617  63.377  1.00  0.00    -0.378 NA 
HETATM    2  H1  UNL     1      -7.822   8.604  62.626  1.00  0.00     0.000 HD 
HETATM    3  H2  UNL     1      -9.358   8.098  63.138  1.00  0.00     0.000 HD 
HETATM    4  N   UNL     1      -8.789   9.985  63.733  1.00  0.00    -0.210 NA 
HETATM    5  H   UNL     1      -9.077  10.545  62.931  1.00  0.00     0.000 HD 
ENDROOT
BRANCH   4   6
HETATM    6  C   UNL     1      -9.785  10.003  64.815  1.00  0.00    -0.293 C  
BRANCH   6   7
HETATM    7  C   UNL     1      -9.102   9.901  66.184  1.00  0.00    -0.193 C  
BRANCH   7   8
HETATM    8  C   UNL     1      -9.698   8.782  67.004  1.00  0.00    -0.258 A  
HETATM    9  C   UNL     1     -10.076   9.005  68.335  1.00  0.00    -0.216 A  
HETATM   10  C   UNL     1     -10.572   7.957  69.113  1.00  0.00    -0.184 A  
HETATM   11  C   UNL     1     -10.693   6.680  68.568  1.00  0.00    -0.308 A  
HETATM   12  C   UNL     1     -10.323   6.449  67.245  1.00  0.00    -0.274 A  
HETATM   13  C   UNL     1      -9.826   7.496  66.465  1.00  0.00    -0.226 A  
ENDBRANCH   7   8
ENDBRANCH   6   7
ENDBRANCH   4   6
TORSDOF 3
ENDMDL
MODEL      166
REMARK 921   NORMALIZED FREE ENERGY PREDICTED BY IDOCK:   -2.16 KCAL/MOL
REMARK 922        TOTAL FREE ENERGY PREDICTED BY IDOCK:   -2.65 KCAL/MOL
REMARK 923 INTER-LIGAND FREE ENERGY PREDICTED BY IDOCK:   -2.51 KCAL/MOL
REMARK 924 INTRA-LIGAND FREE ENERGY PREDICTED BY IDOCK:   -0.14 KCAL/MOL
REMARK 927      BINDING AFFINITY PREDICTED BY RF-SCORE:    0.00 PKD
ROOT
HETATM    1  N   UNL     1      -8.233  11.664  65.838  1.00  0.00    -0.364 NA 
HETATM    2  H1  UNL     1      -8.024  12.660  65.762  1.00  0.00     0.000 HD 
HETATM    3  H2  UNL     1      -7.396  11.084  65.765  1.00  0.00     0.000 HD 
HETATM    4  N   UNL     1      -9.228  11.320  64.855  1.00  0.00    -0.363 NA 
HETATM    5  H   UNL     1      -8.951  11.588  63.911  1.00  0.00     0.000 HD 
ENDROOT
BRANCH   4   6
HETATM    6  C   UNL     1      -9.529   9.885  64.965  1.00  0.00    -0.280 C  
BRANCH   6   7
HETATM    7  C   UNL     1     -10.216   9.574  66.299  1.00  0.00    -0.290 C  
BRANCH   7   8
HETATM    8  C   UNL     1      -9.684   8.293  66.897  1.00  0.00    -0.291 A  
HETATM    9  C   UNL     1     -10.559   7.251  67.230  1.00  0.00    -0.395 A  
HETATM   10  C   UNL     1     -10.076   6.091  67.838  1.00  0.00    -0.183 A  
HETATM   11  C   UNL     1      -8.716   5.963  68.118  1.00  0.00    -0.111 A  
HETATM   12  C   UNL     1      -7.838   6.993  67.787  1.00  0.00    -0.113 A  
HETATM   13  C   UNL     1      -8.319   8.155  67.180  1.00  0.00    -0.120 A  
ENDBRANCH   7   8
ENDBRANCH   6   7
ENDBRANCH   4   6
TORSDOF 3
ENDMDL
MODEL      167
REMARK 921   NORMALIZED FREE ENERGY PREDICTED BY IDOCK:   -2.14 KCAL/MOL
REMARK 922        TOTAL FREE ENERGY PREDICTED BY IDOCK:   -2.62 KCAL/MOL
REMARK 923 INTER-LIGAND FREE ENERGY PREDICTED BY IDOCK:   -2.51 KCAL/MOL
REMARK 924 INTRA-LIGAND FREE ENERGY PREDICTED BY IDOCK:   -0.11 KCAL/MOL
REMARK 927      BINDING AFFINITY PREDICTED BY RF-SCORE:    0.00 PKD
ROOT
HETATM    1  N   UNL     1      -8.972   9.234  62.892  1.00  0.00    -0.408 NA 
HETATM    2  H1  UNL     1      -8.887   9.329  61.879  1.00  0.00     0.000 HD 
HETATM    3  H2  UNL     1      -9.927   9.381  63.219  1.00  0.00     0.000 HD 
HETATM    4  N   UNL     1      -8.032  10.126  63.523  1.00  0.00    -0.159 NA 
HETATM    5  H   UNL     1      -8.142  11.091  63.212  1.00  0.00     0.000 HD 
ENDROOT
BRANCH   4   6
HETATM    6  C   UNL     1      -8.153   9.990  64.982  1.00  0.00    -0.145 C  
BRANCH   6   7
HETATM    7  C   UNL     1      -9.615  10.135  65.422  1.00  0.00    -0.325 C  
BRANCH   7   8
HETATM    8  C   UNL     1      -9.842  11.456  66.117  1.00  0.00    -0.255 A  
HETATM    9  C   UNL     1     -10.526  12.491  65.464  1.00  0.00    -0.305 A  
HETATM   10  C   UNL     1     -10.686  13.732  66.082  1.00  0.00    -0.283 A  
HETATM   11  C   UNL     1     -10.163  13.950  67.356  1.00  0.00    -0.252 A  
HETATM   12  C   UNL     1      -9.485  12.927  68.015  1.00  0.00    -0.213 A  
HETATM   13  C   UNL     1      -9.324  11.684  67.399  1.00  0.00    -0.168 A  
ENDBRANCH   7   8
ENDBRANCH   6   7
ENDBRANCH   4   6
TORSDOF 3
ENDMDL
MODEL      168
REMARK 921   NORMALIZED FREE ENERGY PREDICTED BY IDOCK:   -2.13 KCAL/MOL
REMARK 922        TOTAL FREE ENERGY PREDICTED BY IDOCK:   -2.61 KCAL/MOL
REMARK 923 INTER-LIGAND FREE ENERGY PREDICTED BY IDOCK:   -2.52 KCAL/MOL
REMARK 924 INTRA-LIGAND FREE ENERGY PREDICTED BY IDOCK:   -0.10 KCAL/MOL
REMARK 927      BINDING AFFINITY PREDICTED BY RF-SCORE:    0.00 PKD
ROOT
HETATM    1  N   UNL     1      -7.073   3.819  71.753  1.00  0.00    -0.037 NA 
HETATM    2  H1  UNL     1      -6.178   3.633  72.206  1.00  0.00     0.000 HD 
HETATM    3  H2  UNL     1      -6.976   3.980  70.750  1.00  0.00     0.000 HD 
HETATM    4  N   UNL     1      -7.717   4.918  72.427  1.00  0.00    -0.090 NA 
HETATM    5  H   UNL     1      -7.124   5.746  72.473  1.00  0.00     0.000 HD 
ENDROOT
BRANCH   4   6
HETATM    6  C   UNL     1      -9.007   5.186  71.774  1.00  0.00    -0.134 C  
BRANCH   6   7
HETATM    7  C   UNL     1      -9.956   5.922  72.727  1.00  0.00    -0.197 C  
BRANCH   7   8
HETATM    8  C   UNL     1     -10.336   7.275  72.176  1.00  0.00    -0.220 A  
HETATM    9  C   UNL     1     -11.568   7.855  72.510  1.00  0.00    -0.443 A  
HETATM   10  C   UNL     1     -11.946   9.078  71.954  1.00  0.00    -0.445 A  
HETATM   11  C   UNL     1     -11.099   9.731  71.060  1.00  0.00    -0.431 A  
HETATM   12  C   UNL     1      -9.871   9.164  70.724  1.00  0.00    -0.334 A  
HETATM   13  C   UNL     1      -9.490   7.940  71.279  1.00  0.00    -0.184 A  
ENDBRANCH   7   8
ENDBRANCH   6   7
ENDBRANCH   4   6
TORSDOF 3
ENDMDL
MODEL      169
REMARK 921   NORMALIZED FREE ENERGY PREDICTED BY IDOCK:   -2.12 KCAL/MOL
REMARK 922        TOTAL FREE ENERGY PREDICTED BY IDOCK:   -2.61 KCAL/MOL
REMARK 923 INTER-LIGAND FREE ENERGY PREDICTED BY IDOCK:   -2.55 KCAL/MOL
REMARK 924 INTRA-LIGAND FREE ENERGY PREDICTED BY IDOCK:   -0.06 KCAL/MOL
REMARK 927      BINDING AFFINITY PREDICTED BY RF-SCORE:    0.00 PKD
ROOT
HETATM    1  N   UNL     1      -9.545  13.946  65.120  1.00  0.00    -0.513 NA 
HETATM    2  H1  UNL     1      -9.416  13.488  64.217  1.00  0.00     0.000 HD 
HETATM    3  H2  UNL     1      -9.049  13.470  65.873  1.00  0.00     0.000 HD 
HETATM    4  N   UNL     1     -10.956  14.069  65.383  1.00  0.00    -0.309 NA 
HETATM    5  H   UNL     1     -11.441  13.174  65.328  1.00  0.00     0.000 HD 
ENDROOT
BRANCH   4   6
HETATM    6  C   UNL     1     -11.143  14.730  66.683  1.00  0.00    -0.333 C  
BRANCH   6   7
HETATM    7  C   UNL     1     -12.068  13.904  67.584  1.00  0.00    -0.342 C  
BRANCH   7   8
HETATM    8  C   UNL     1     -11.379  12.649  68.063  1.00  0.00    -0.337 A  
HETATM    9  C   UNL     1     -10.004  12.656  68.334  1.00  0.00    -0.210 A  
HETATM   10  C   UNL     1      -9.355  11.482  68.720  1.00  0.00    -0.088 A  
HETATM   11  C   UNL     1     -10.073  10.293  68.837  1.00  0.00    -0.216 A  
HETATM   12  C   UNL     1     -11.440  10.277  68.573  1.00  0.00    -0.169 A  
HETATM   13  C   UNL     1     -12.092  11.450  68.187  1.00  0.00    -0.030 A  
ENDBRANCH   7   8
ENDBRANCH   6   7
ENDBRANCH   4   6
TORSDOF 3
ENDMDL
MODEL      170
REMARK 921   NORMALIZED FREE ENERGY PREDICTED BY IDOCK:   -2.05 KCAL/MOL
REMARK 922        TOTAL FREE ENERGY PREDICTED BY IDOCK:   -2.52 KCAL/MOL
REMARK 923 INTER-LIGAND FREE ENERGY PREDICTED BY IDOCK:   -2.46 KCAL/MOL
REMARK 924 INTRA-LIGAND FREE ENERGY PREDICTED BY IDOCK:   -0.06 KCAL/MOL
REMARK 927      BINDING AFFINITY PREDICTED BY RF-SCORE:    0.00 PKD
ROOT
HETATM    1  N   UNL     1      -9.586   4.727  68.663  1.00  0.00    -0.150 NA 
HETATM    2  H1  UNL     1      -9.128   3.948  68.189  1.00  0.00     0.000 HD 
HETATM    3  H2  UNL     1     -10.111   4.429  69.485  1.00  0.00     0.000 HD 
HETATM    4  N   UNL     1     -10.407   5.434  67.713  1.00  0.00    -0.184 NA 
HETATM    5  H   UNL     1     -11.071   4.821  67.241  1.00  0.00     0.000 HD 
ENDROOT
BRANCH   4   6
HETATM    6  C   UNL     1     -11.066   6.557  68.395  1.00  0.00    -0.254 C  
BRANCH   6   7
HETATM    7  C   UNL     1     -10.062   7.676  68.695  1.00  0.00    -0.201 C  
BRANCH   7   8
HETATM    8  C   UNL     1     -10.754   9.015  68.782  1.00  0.00    -0.140 A  
HETATM    9  C   UNL     1     -10.677   9.922  67.716  1.00  0.00    -0.332 A  
HETATM   10  C   UNL     1     -11.266  11.183  67.818  1.00  0.00    -0.359 A  
HETATM   11  C   UNL     1     -11.934  11.549  68.985  1.00  0.00    -0.377 A  
HETATM   12  C   UNL     1     -12.019  10.654  70.049  1.00  0.00    -0.408 A  
HETATM   13  C   UNL     1     -11.431   9.391  69.949  1.00  0.00    -0.054 A  
ENDBRANCH   7   8
ENDBRANCH   6   7
ENDBRANCH   4   6
TORSDOF 3
ENDMDL
MODEL      171
REMARK 921   NORMALIZED FREE ENERGY PREDICTED BY IDOCK:   -2.01 KCAL/MOL
REMARK 922        TOTAL FREE ENERGY PREDICTED BY IDOCK:   -2.47 KCAL/MOL
REMARK 923 INTER-LIGAND FREE ENERGY PREDICTED BY IDOCK:   -2.37 KCAL/MOL
REMARK 924 INTRA-LIGAND FREE ENERGY PREDICTED BY IDOCK:   -0.10 KCAL/MOL
REMARK 927      BINDING AFFINITY PREDICTED BY RF-SCORE:    0.00 PKD
ROOT
HETATM    1  N   UNL     1     -10.897   9.296  68.892  1.00  0.00    -0.401 NA 
HETATM    2  H1  UNL     1     -11.557   8.965  69.597  1.00  0.00     0.000 HD 
HETATM    3  H2  UNL     1      -9.927   9.189  69.187  1.00  0.00     0.000 HD 
HETATM    4  N   UNL     1     -11.222  10.658  68.553  1.00  0.00    -0.267 NA 
HETATM    5  H   UNL     1     -11.255  11.266  69.372  1.00  0.00     0.000 HD 
ENDROOT
BRANCH   4   6
HETATM    6  C   UNL     1     -10.271  11.136  67.538  1.00  0.00    -0.186 C  
BRANCH   6   7
HETATM    7  C   UNL     1      -8.956  11.577  68.191  1.00  0.00    -0.172 C  
BRANCH   7   8
HETATM    8  C   UNL     1      -8.604  12.992  67.797  1.00  0.00    -0.189 A  
HETATM    9  C   UNL     1      -9.439  13.715  66.935  1.00  0.00    -0.263 A  
HETATM   10  C   UNL     1      -9.085  15.001  66.524  1.00  0.00    -0.319 A  
HETATM   11  C   UNL     1      -7.895  15.574  66.969  1.00  0.00    -0.260 A  
HETATM   12  C   UNL     1      -7.060  14.865  67.829  1.00  0.00    -0.192 A  
HETATM   13  C   UNL     1      -7.412  13.578  68.242  1.00  0.00    -0.122 A  
ENDBRANCH   7   8
ENDBRANCH   6   7
ENDBRANCH   4   6
TORSDOF 3
ENDMDL
MODEL      172
REMARK 921   NORMALIZED FREE ENERGY PREDICTED BY IDOCK:   -1.99 KCAL/MOL
REMARK 922        TOTAL FREE ENERGY PREDICTED BY IDOCK:   -2.45 KCAL/MOL
REMARK 923 INTER-LIGAND FREE ENERGY PREDICTED BY IDOCK:   -2.35 KCAL/MOL
REMARK 924 INTRA-LIGAND FREE ENERGY PREDICTED BY IDOCK:   -0.09 KCAL/MOL
REMARK 927      BINDING AFFINITY PREDICTED BY RF-SCORE:    0.00 PKD
ROOT
HETATM    1  N   UNL     1     -12.838   7.318  70.763  1.00  0.00    -0.602 NA 
HETATM    2  H1  UNL     1     -13.824   7.057  70.747  1.00  0.00     0.000 HD 
HETATM    3  H2  UNL     1     -12.303   6.775  71.442  1.00  0.00     0.000 HD 
HETATM    4  N   UNL     1     -12.735   8.737  70.991  1.00  0.00    -0.496 NA 
HETATM    5  H   UNL     1     -13.231   9.033  71.832  1.00  0.00     0.000 HD 
ENDROOT
BRANCH   4   6
HETATM    6  C   UNL     1     -11.314   9.114  71.016  1.00  0.00    -0.309 C  
BRANCH   6   7
HETATM    7  C   UNL     1     -10.601   8.626  69.749  1.00  0.00    -0.224 C  
BRANCH   7   8
HETATM    8  C   UNL     1      -9.482   7.673  70.090  1.00  0.00    -0.161 A  
HETATM    9  C   UNL     1      -9.034   7.551  71.413  1.00  0.00    -0.140 A  
HETATM   10  C   UNL     1      -7.961   6.713  71.720  1.00  0.00    -0.103 A  
HETATM   11  C   UNL     1      -7.325   5.993  70.710  1.00  0.00    -0.085 A  
HETATM   12  C   UNL     1      -7.765   6.105  69.393  1.00  0.00    -0.099 A  
HETATM   13  C   UNL     1      -8.839   6.942  69.083  1.00  0.00    -0.134 A  
ENDBRANCH   7   8
ENDBRANCH   6   7
ENDBRANCH   4   6
TORSDOF 3
ENDMDL
MODEL      173
REMARK 921   NORMALIZED FREE ENERGY PREDICTED BY IDOCK:   -1.95 KCAL/MOL
REMARK 922        TOTAL FREE ENERGY PREDICTED BY IDOCK:   -2.40 KCAL/MOL
REMARK 923 INTER-LIGAND FREE ENERGY PREDICTED BY IDOCK:   -2.67 KCAL/MOL
REMARK 924 INTRA-LIGAND FREE ENERGY PREDICTED BY IDOCK:    0.27 KCAL/MOL
REMARK 927      BINDING AFFINITY PREDICTED BY RF-SCORE:    0.00 PKD
ROOT
HETATM    1  N   UNL     1      -9.043  10.814  69.104  1.00  0.00    -0.335 NA 
HETATM    2  H1  UNL     1      -8.894  10.437  70.041  1.00  0.00     0.000 HD 
HETATM    3  H2  UNL     1      -9.673  11.617  69.103  1.00  0.00     0.000 HD 
HETATM    4  N   UNL     1      -9.504   9.754  68.243  1.00  0.00    -0.139 NA 
HETATM    5  H   UNL     1     -10.332   9.287  68.611  1.00  0.00     0.000 HD 
ENDROOT
BRANCH   4   6
HETATM    6  C   UNL     1      -9.719  10.297  66.894  1.00  0.00    -0.186 C  
BRANCH   6   7
HETATM    7  C   UNL     1      -9.026  11.656  66.737  1.00  0.00    -0.189 C  
BRANCH   7   8
HETATM    8  C   UNL     1     -10.006  12.789  66.924  1.00  0.00    -0.232 A  
HETATM    9  C   UNL     1     -11.196  12.825  66.185  1.00  0.00    -0.336 A  
HETATM   10  C   UNL     1     -12.075  13.901  66.314  1.00  0.00    -0.484 A  
HETATM   11  C   UNL     1     -11.772  14.950  67.180  1.00  0.00    -0.292 A  
HETATM   12  C   UNL     1     -10.593  14.922  67.922  1.00  0.00    -0.254 A  
HETATM   13  C   UNL     1      -9.712  13.846  67.795  1.00  0.00    -0.225 A  
ENDBRANCH   7   8
ENDBRANCH   6   7
ENDBRANCH   4   6
TORSDOF 3
ENDMDL
MODEL      174
REMARK 921   NORMALIZED FREE ENERGY PREDICTED BY IDOCK:   -1.90 KCAL/MOL
REMARK 922        TOTAL FREE ENERGY PREDICTED BY IDOCK:   -2.34 KCAL/MOL
REMARK 923 INTER-LIGAND FREE ENERGY PREDICTED BY IDOCK:   -2.34 KCAL/MOL
REMARK 924 INTRA-LIGAND FREE ENERGY PREDICTED BY IDOCK:   -0.00 KCAL/MOL
REMARK 927      BINDING AFFINITY PREDICTED BY RF-SCORE:    0.00 PKD
ROOT
HETATM    1  N   UNL     1     -11.922   8.366  70.261  1.00  0.00    -0.409 NA 
HETATM    2  H1  UNL     1     -12.454   7.556  70.580  1.00  0.00     0.000 HD 
HETATM    3  H2  UNL     1     -10.916   8.245  70.383  1.00  0.00     0.000 HD 
HETATM    4  N   UNL     1     -12.419   9.543  70.928  1.00  0.00    -0.457 NA 
HETATM    5  H   UNL     1     -12.409   9.447  71.944  1.00  0.00     0.000 HD 
ENDROOT
BRANCH   4   6
HETATM    6  C   UNL     1     -11.652  10.710  70.469  1.00  0.00    -0.350 C  
BRANCH   6   7
HETATM    7  C   UNL     1     -11.173  10.512  69.026  1.00  0.00    -0.316 C  
BRANCH   7   8
HETATM    8  C   UNL     1      -9.669  10.615  68.935  1.00  0.00    -0.210 A  
HETATM    9  C   UNL     1      -9.069  11.778  68.434  1.00  0.00    -0.176 A  
HETATM   10  C   UNL     1      -7.682  11.852  68.295  1.00  0.00    -0.127 A  
HETATM   11  C   UNL     1      -6.885  10.766  68.654  1.00  0.00    -0.060 A  
HETATM   12  C   UNL     1      -7.472   9.607  69.156  1.00  0.00    -0.079 A  
HETATM   13  C   UNL     1      -8.860   9.530  69.297  1.00  0.00    -0.153 A  
ENDBRANCH   7   8
ENDBRANCH   6   7
ENDBRANCH   4   6
TORSDOF 3
ENDMDL
MODEL      175
REMARK 921   NORMALIZED FREE ENERGY PREDICTED BY IDOCK:   -1.81 KCAL/MOL
REMARK 922        TOTAL FREE ENERGY PREDICTED BY IDOCK:   -2.24 KCAL/MOL
REMARK 923 INTER-LIGAND FREE ENERGY PREDICTED BY IDOCK:   -2.15 KCAL/MOL
REMARK 924 INTRA-LIGAND FREE ENERGY PREDICTED BY IDOCK:   -0.09 KCAL/MOL
REMARK 927      BINDING AFFINITY PREDICTED BY RF-SCORE:    0.00 PKD
ROOT
HETATM    1  N   UNL     1     -12.272  10.869  68.591  1.00  0.00    -0.810 NA 
HETATM    2  H1  UNL     1     -13.021  11.494  68.891  1.00  0.00     0.000 HD 
HETATM    3  H2  UNL     1     -12.521  10.334  67.759  1.00  0.00     0.000 HD 
HETATM    4  N   UNL     1     -11.899  10.024  69.697  1.00  0.00    -0.470 NA 
HETATM    5  H   UNL     1     -12.695   9.519  70.086  1.00  0.00     0.000 HD 
ENDROOT
BRANCH   4   6
HETATM    6  C   UNL     1     -10.820   9.123  69.265  1.00  0.00    -0.132 C  
BRANCH   6   7
HETATM    7  C   UNL     1      -9.503   9.891  69.102  1.00  0.00    -0.201 C  
BRANCH   7   8
HETATM    8  C   UNL     1      -8.355   9.135  69.725  1.00  0.00    -0.136 A  
HETATM    9  C   UNL     1      -8.461   8.634  71.029  1.00  0.00    -0.199 A  
HETATM   10  C   UNL     1      -7.379   7.987  71.627  1.00  0.00    -0.078 A  
HETATM   11  C   UNL     1      -6.183   7.834  70.928  1.00  0.00    -0.034 A  
HETATM   12  C   UNL     1      -6.068   8.325  69.629  1.00  0.00    -0.029 A  
HETATM   13  C   UNL     1      -7.150   8.973  69.028  1.00  0.00    -0.064 A  
ENDBRANCH   7   8
ENDBRANCH   6   7
ENDBRANCH   4   6
TORSDOF 3
ENDMDL
MODEL      176
REMARK 921   NORMALIZED FREE ENERGY PREDICTED BY IDOCK:   -1.77 KCAL/MOL
REMARK 922        TOTAL FREE ENERGY PREDICTED BY IDOCK:   -2.19 KCAL/MOL
REMARK 923 INTER-LIGAND FREE ENERGY PREDICTED BY IDOCK:   -2.21 KCAL/MOL
REMARK 924 INTRA-LIGAND FREE ENERGY PREDICTED BY IDOCK:    0.01 KCAL/MOL
REMARK 927      BINDING AFFINITY PREDICTED BY RF-SCORE:    0.00 PKD
ROOT
HETATM    1  N   UNL     1      -9.658   3.516  72.241  1.00  0.00    -0.133 NA 
HETATM    2  H1  UNL     1      -9.162   2.712  71.856  1.00  0.00     0.000 HD 
HETATM    3  H2  UNL     1     -10.414   3.243  72.871  1.00  0.00     0.000 HD 
HETATM    4  N   UNL     1     -10.120   4.343  71.155  1.00  0.00    -0.165 NA 
HETATM    5  H   UNL     1     -10.684   3.823  70.483  1.00  0.00     0.000 HD 
ENDROOT
BRANCH   4   6
HETATM    6  C   UNL     1     -10.836   5.501  71.710  1.00  0.00    -0.211 C  
BRANCH   6   7
HETATM    7  C   UNL     1     -10.180   6.812  71.260  1.00  0.00    -0.221 C  
BRANCH   7   8
HETATM    8  C   UNL     1     -10.032   6.856  69.758  1.00  0.00    -0.187 A  
HETATM    9  C   UNL     1      -8.816   7.242  69.178  1.00  0.00    -0.136 A  
HETATM   10  C   UNL     1      -8.695   7.340  67.791  1.00  0.00    -0.126 A  
HETATM   11  C   UNL     1      -9.787   7.055  66.974  1.00  0.00    -0.239 A  
HETATM   12  C   UNL     1     -10.999   6.668  67.540  1.00  0.00    -0.416 A  
HETATM   13  C   UNL     1     -11.122   6.568  68.928  1.00  0.00    -0.371 A  
ENDBRANCH   7   8
ENDBRANCH   6   7
ENDBRANCH   4   6
TORSDOF 3
ENDMDL
MODEL      177
REMARK 921   NORMALIZED FREE ENERGY PREDICTED BY IDOCK:   -1.71 KCAL/MOL
REMARK 922        TOTAL FREE ENERGY PREDICTED BY IDOCK:   -2.12 KCAL/MOL
REMARK 923 INTER-LIGAND FREE ENERGY PREDICTED BY IDOCK:   -2.02 KCAL/MOL
REMARK 924 INTRA-LIGAND FREE ENERGY PREDICTED BY IDOCK:   -0.10 KCAL/MOL
REMARK 927      BINDING AFFINITY PREDICTED BY RF-SCORE:    0.00 PKD
ROOT
HETATM    1  N   UNL     1     -11.552   5.978  71.265  1.00  0.00    -0.202 NA 
HETATM    2  H1  UNL     1     -12.033   6.263  72.119  1.00  0.00     0.000 HD 
HETATM    3  H2  UNL     1     -10.537   6.040  71.351  1.00  0.00     0.000 HD 
HETATM    4  N   UNL     1     -12.059   6.756  70.163  1.00  0.00    -0.633 NA 
HETATM    5  H   UNL     1     -11.991   7.760  70.332  1.00  0.00     0.000 HD 
ENDROOT
BRANCH   4   6
HETATM    6  C   UNL     1     -11.366   6.347  68.933  1.00  0.00    -0.209 C  
BRANCH   6   7
HETATM    7  C   UNL     1     -10.062   5.611  69.263  1.00  0.00    -0.281 C  
BRANCH   7   8
HETATM    8  C   UNL     1      -9.205   5.448  68.031  1.00  0.00    -0.119 A  
HETATM    9  C   UNL     1      -9.453   6.221  66.889  1.00  0.00    -0.157 A  
HETATM   10  C   UNL     1      -8.700   6.030  65.729  1.00  0.00    -0.155 A  
HETATM   11  C   UNL     1      -7.694   5.065  65.701  1.00  0.00    -0.087 A  
HETATM   12  C   UNL     1      -7.437   4.294  66.832  1.00  0.00    -0.081 A  
HETATM   13  C   UNL     1      -8.190   4.483  67.994  1.00  0.00    -0.094 A  
ENDBRANCH   7   8
ENDBRANCH   6   7
ENDBRANCH   4   6
TORSDOF 3
ENDMDL
MODEL      178
REMARK 921   NORMALIZED FREE ENERGY PREDICTED BY IDOCK:   -1.61 KCAL/MOL
REMARK 922        TOTAL FREE ENERGY PREDICTED BY IDOCK:   -2.00 KCAL/MOL
REMARK 923 INTER-LIGAND FREE ENERGY PREDICTED BY IDOCK:   -1.89 KCAL/MOL
REMARK 924 INTRA-LIGAND FREE ENERGY PREDICTED BY IDOCK:   -0.10 KCAL/MOL
REMARK 927      BINDING AFFINITY PREDICTED BY RF-SCORE:    0.00 PKD
ROOT
HETATM    1  N   UNL     1      -8.831   2.238  69.168  1.00  0.00    -0.083 NA 
HETATM    2  H1  UNL     1      -8.715   1.250  68.939  1.00  0.00     0.000 HD 
HETATM    3  H2  UNL     1      -9.396   2.380  70.006  1.00  0.00     0.000 HD 
HETATM    4  N   UNL     1      -9.369   2.923  68.020  1.00  0.00    -0.209 NA 
HETATM    5  H   UNL     1     -10.232   2.497  67.682  1.00  0.00     0.000 HD 
ENDROOT
BRANCH   4   6
HETATM    6  C   UNL     1      -9.536   4.346  68.349  1.00  0.00    -0.140 C  
BRANCH   6   7
HETATM    7  C   UNL     1      -9.046   4.635  69.773  1.00  0.00    -0.162 C  
BRANCH   7   8
HETATM    8  C   UNL     1      -9.621   5.932  70.291  1.00  0.00    -0.199 A  
HETATM    9  C   UNL     1     -10.250   6.827  69.415  1.00  0.00    -0.204 A  
HETATM   10  C   UNL     1     -10.729   8.052  69.882  1.00  0.00    -0.242 A  
HETATM   11  C   UNL     1     -10.583   8.392  71.225  1.00  0.00    -0.279 A  
HETATM   12  C   UNL     1      -9.962   7.508  72.105  1.00  0.00    -0.218 A  
HETATM   13  C   UNL     1      -9.482   6.282  71.640  1.00  0.00    -0.157 A  
ENDBRANCH   7   8
ENDBRANCH   6   7
ENDBRANCH   4   6
TORSDOF 3
ENDMDL
MODEL      179
REMARK 921   NORMALIZED FREE ENERGY PREDICTED BY IDOCK:   -1.55 KCAL/MOL
REMARK 922        TOTAL FREE ENERGY PREDICTED BY IDOCK:   -1.93 KCAL/MOL
REMARK 923 INTER-LIGAND FREE ENERGY PREDICTED BY IDOCK:   -1.83 KCAL/MOL
REMARK 924 INTRA-LIGAND FREE ENERGY PREDICTED BY IDOCK:   -0.10 KCAL/MOL
REMARK 927      BINDING AFFINITY PREDICTED BY RF-SCORE:    0.00 PKD
ROOT
HETATM    1  N   UNL     1     -11.633   9.858  69.184  1.00  0.00    -0.472 NA 
HETATM    2  H1  UNL     1     -12.456   9.424  69.603  1.00  0.00     0.000 HD 
HETATM    3  H2  UNL     1     -10.776   9.643  69.694  1.00  0.00     0.000 HD 
HETATM    4  N   UNL     1     -11.863  11.276  69.067  1.00  0.00    -0.335 NA 
HETATM    5  H   UNL     1     -12.117  11.703  69.957  1.00  0.00     0.000 HD 
ENDROOT
BRANCH   4   6
HETATM    6  C   UNL     1     -10.677  11.902  68.463  1.00  0.00    -0.224 C  
BRANCH   6   7
HETATM    7  C   UNL     1     -10.233  11.132  67.214  1.00  0.00    -0.227 C  
BRANCH   7   8
HETATM    8  C   UNL     1      -8.815  10.634  67.360  1.00  0.00    -0.132 A  
HETATM    9  C   UNL     1      -8.071  10.944  68.506  1.00  0.00    -0.137 A  
HETATM   10  C   UNL     1      -6.741  10.534  68.616  1.00  0.00    -0.053 A  
HETATM   11  C   UNL     1      -6.145   9.812  67.583  1.00  0.00    -0.051 A  
HETATM   12  C   UNL     1      -6.878   9.496  66.442  1.00  0.00    -0.083 A  
HETATM   13  C   UNL     1      -8.208   9.904  66.329  1.00  0.00    -0.114 A  
ENDBRANCH   7   8
ENDBRANCH   6   7
ENDBRANCH   4   6
TORSDOF 3
ENDMDL
MODEL      180
REMARK 921   NORMALIZED FREE ENERGY PREDICTED BY IDOCK:   -1.55 KCAL/MOL
REMARK 922        TOTAL FREE ENERGY PREDICTED BY IDOCK:   -1.93 KCAL/MOL
REMARK 923 INTER-LIGAND FREE ENERGY PREDICTED BY IDOCK:   -1.80 KCAL/MOL
REMARK 924 INTRA-LIGAND FREE ENERGY PREDICTED BY IDOCK:   -0.13 KCAL/MOL
REMARK 927      BINDING AFFINITY PREDICTED BY RF-SCORE:    0.00 PKD
ROOT
HETATM    1  N   UNL     1      -7.747  10.867  66.853  1.00  0.00    -0.128 NA 
HETATM    2  H1  UNL     1      -7.178  11.365  66.168  1.00  0.00     0.000 HD 
HETATM    3  H2  UNL     1      -7.562  11.174  67.809  1.00  0.00     0.000 HD 
HETATM    4  N   UNL     1      -7.549   9.450  66.683  1.00  0.00    -0.093 NA 
HETATM    5  H   UNL     1      -6.564   9.187  66.728  1.00  0.00     0.000 HD 
ENDROOT
BRANCH   4   6
HETATM    6  C   UNL     1      -8.367   8.733  67.671  1.00  0.00    -0.114 C  
BRANCH   6   7
HETATM    7  C   UNL     1      -8.166   9.320  69.073  1.00  0.00    -0.111 C  
BRANCH   7   8
HETATM    8  C   UNL     1      -9.491   9.531  69.767  1.00  0.00    -0.228 A  
HETATM    9  C   UNL     1     -10.156   8.451  70.365  1.00  0.00    -0.202 A  
HETATM   10  C   UNL     1     -11.407   8.633  70.955  1.00  0.00    -0.314 A  
HETATM   11  C   UNL     1     -12.005   9.892  70.952  1.00  0.00    -0.434 A  
HETATM   12  C   UNL     1     -11.350  10.972  70.363  1.00  0.00    -0.222 A  
HETATM   13  C   UNL     1     -10.098  10.793  69.772  1.00  0.00     0.047 A  
ENDBRANCH   7   8
ENDBRANCH   6   7
ENDBRANCH   4   6
TORSDOF 3
ENDMDL
MODEL      181
REMARK 921   NORMALIZED FREE ENERGY PREDICTED BY IDOCK:   -1.49 KCAL/MOL
REMARK 922        TOTAL FREE ENERGY PREDICTED BY IDOCK:   -1.86 KCAL/MOL
REMARK 923 INTER-LIGAND FREE ENERGY PREDICTED BY IDOCK:   -1.73 KCAL/MOL
REMARK 924 INTRA-LIGAND FREE ENERGY PREDICTED BY IDOCK:   -0.13 KCAL/MOL
REMARK 927      BINDING AFFINITY PREDICTED BY RF-SCORE:    0.00 PKD
ROOT
HETATM    1  N   UNL     1      -8.602  11.245  69.011  1.00  0.00    -0.366 NA 
HETATM    2  H1  UNL     1      -9.279  10.481  68.997  1.00  0.00     0.000 HD 
HETATM    3  H2  UNL     1      -9.038  12.153  68.850  1.00  0.00     0.000 HD 
HETATM    4  N   UNL     1      -7.558  10.959  68.061  1.00  0.00    -0.090 NA 
HETATM    5  H   UNL     1      -7.922  10.778  67.125  1.00  0.00     0.000 HD 
ENDROOT
BRANCH   4   6
HETATM    6  C   UNL     1      -6.583  12.060  68.080  1.00  0.00    -0.069 C  
BRANCH   6   7
HETATM    7  C   UNL     1      -7.029  13.164  69.045  1.00  0.00    -0.063 C  
BRANCH   7   8
HETATM    8  C   UNL     1      -7.206  14.478  68.322  1.00  0.00    -0.119 A  
HETATM    9  C   UNL     1      -8.393  14.750  67.629  1.00  0.00    -0.180 A  
HETATM   10  C   UNL     1      -8.534  15.939  66.911  1.00  0.00    -0.275 A  
HETATM   11  C   UNL     1      -7.491  16.863  66.878  1.00  0.00    -0.254 A  
HETATM   12  C   UNL     1      -6.308  16.603  67.566  1.00  0.00    -0.188 A  
HETATM   13  C   UNL     1      -6.164  15.414  68.285  1.00  0.00    -0.121 A  
ENDBRANCH   7   8
ENDBRANCH   6   7
ENDBRANCH   4   6
TORSDOF 3
ENDMDL
MODEL      182
REMARK 921   NORMALIZED FREE ENERGY PREDICTED BY IDOCK:   -1.41 KCAL/MOL
REMARK 922        TOTAL FREE ENERGY PREDICTED BY IDOCK:   -1.77 KCAL/MOL
REMARK 923 INTER-LIGAND FREE ENERGY PREDICTED BY IDOCK:   -1.68 KCAL/MOL
REMARK 924 INTRA-LIGAND FREE ENERGY PREDICTED BY IDOCK:   -0.09 KCAL/MOL
REMARK 927      BINDING AFFINITY PREDICTED BY RF-SCORE:    0.00 PKD
ROOT
HETATM    1  N   UNL     1      -7.978  11.773  67.406  1.00  0.00    -0.146 NA 
HETATM    2  H1  UNL     1      -7.608  12.350  66.650  1.00  0.00     0.000 HD 
HETATM    3  H2  UNL     1      -7.774  12.161  68.328  1.00  0.00     0.000 HD 
HETATM    4  N   UNL     1      -7.482  10.429  67.253  1.00  0.00    -0.094 NA 
HETATM    5  H   UNL     1      -6.464  10.395  67.200  1.00  0.00     0.000 HD 
ENDROOT
BRANCH   4   6
HETATM    6  C   UNL     1      -8.014   9.598  68.343  1.00  0.00    -0.096 C  
BRANCH   6   7
HETATM    7  C   UNL     1      -9.471   9.209  68.067  1.00  0.00    -0.157 C  
BRANCH   7   8
HETATM    8  C   UNL     1      -9.671   7.719  68.210  1.00  0.00    -0.169 A  
HETATM    9  C   UNL     1     -10.449   7.206  69.256  1.00  0.00    -0.220 A  
HETATM   10  C   UNL     1     -10.586   5.827  69.425  1.00  0.00    -0.383 A  
HETATM   11  C   UNL     1      -9.945   4.951  68.551  1.00  0.00    -0.185 A  
HETATM   12  C   UNL     1      -9.172   5.450  67.505  1.00  0.00    -0.114 A  
HETATM   13  C   UNL     1      -9.034   6.829  67.335  1.00  0.00    -0.115 A  
ENDBRANCH   7   8
ENDBRANCH   6   7
ENDBRANCH   4   6
TORSDOF 3
ENDMDL
MODEL      183
REMARK 921   NORMALIZED FREE ENERGY PREDICTED BY IDOCK:   -1.28 KCAL/MOL
REMARK 922        TOTAL FREE ENERGY PREDICTED BY IDOCK:   -1.61 KCAL/MOL
REMARK 923 INTER-LIGAND FREE ENERGY PREDICTED BY IDOCK:   -1.51 KCAL/MOL
REMARK 924 INTRA-LIGAND FREE ENERGY PREDICTED BY IDOCK:   -0.10 KCAL/MOL
REMARK 927      BINDING AFFINITY PREDICTED BY RF-SCORE:    0.00 PKD
ROOT
HETATM    1  N   UNL     1      -8.738   8.882  68.512  1.00  0.00    -0.133 NA 
HETATM    2  H1  UNL     1      -8.429   9.315  69.382  1.00  0.00     0.000 HD 
HETATM    3  H2  UNL     1      -8.706   7.863  68.551  1.00  0.00     0.000 HD 
HETATM    4  N   UNL     1      -7.957   9.414  67.424  1.00  0.00    -0.106 NA 
HETATM    5  H   UNL     1      -6.954   9.308  67.577  1.00  0.00     0.000 HD 
ENDROOT
BRANCH   4   6
HETATM    6  C   UNL     1      -8.401   8.790  66.169  1.00  0.00    -0.123 C  
BRANCH   6   7
HETATM    7  C   UNL     1      -7.559   7.549  65.851  1.00  0.00    -0.088 C  
BRANCH   7   8
HETATM    8  C   UNL     1      -8.426   6.317  65.750  1.00  0.00    -0.148 A  
HETATM    9  C   UNL     1      -9.615   6.226  66.486  1.00  0.00    -0.183 A  
HETATM   10  C   UNL     1     -10.387   5.064  66.439  1.00  0.00    -0.335 A  
HETATM   11  C   UNL     1      -9.977   3.984  65.658  1.00  0.00    -0.162 A  
HETATM   12  C   UNL     1      -8.799   4.066  64.920  1.00  0.00    -0.129 A  
HETATM   13  C   UNL     1      -8.025   5.228  64.965  1.00  0.00    -0.103 A  
ENDBRANCH   7   8
ENDBRANCH   6   7
ENDBRANCH   4   6
TORSDOF 3
ENDMDL
MODEL      184
REMARK 921   NORMALIZED FREE ENERGY PREDICTED BY IDOCK:   -1.23 KCAL/MOL
REMARK 922        TOTAL FREE ENERGY PREDICTED BY IDOCK:   -1.55 KCAL/MOL
REMARK 923 INTER-LIGAND FREE ENERGY PREDICTED BY IDOCK:   -1.42 KCAL/MOL
REMARK 924 INTRA-LIGAND FREE ENERGY PREDICTED BY IDOCK:   -0.13 KCAL/MOL
REMARK 927      BINDING AFFINITY PREDICTED BY RF-SCORE:    0.00 PKD
ROOT
HETATM    1  N   UNL     1      -9.091   8.945  68.158  1.00  0.00    -0.140 NA 
HETATM    2  H1  UNL     1      -8.903   9.760  67.574  1.00  0.00     0.000 HD 
HETATM    3  H2  UNL     1      -8.678   9.027  69.087  1.00  0.00     0.000 HD 
HETATM    4  N   UNL     1      -8.649   7.762  67.463  1.00  0.00    -0.122 NA 
HETATM    5  H   UNL     1      -7.672   7.821  67.179  1.00  0.00     0.000 HD 
ENDROOT
BRANCH   4   6
HETATM    6  C   UNL     1      -8.920   6.587  68.304  1.00  0.00    -0.121 C  
BRANCH   6   7
HETATM    7  C   UNL     1      -7.907   6.495  69.451  1.00  0.00    -0.106 C  
BRANCH   7   8
HETATM    8  C   UNL     1      -8.565   6.000  70.716  1.00  0.00    -0.135 A  
HETATM    9  C   UNL     1      -9.765   6.571  71.159  1.00  0.00    -0.188 A  
HETATM   10  C   UNL     1     -10.344   6.155  72.360  1.00  0.00    -0.219 A  
HETATM   11  C   UNL     1      -9.727   5.168  73.127  1.00  0.00    -0.165 A  
HETATM   12  C   UNL     1      -8.535   4.592  72.693  1.00  0.00    -0.115 A  
HETATM   13  C   UNL     1      -7.955   5.006  71.493  1.00  0.00    -0.112 A  
ENDBRANCH   7   8
ENDBRANCH   6   7
ENDBRANCH   4   6
TORSDOF 3
ENDMDL
MODEL      185
REMARK 921   NORMALIZED FREE ENERGY PREDICTED BY IDOCK:   -1.17 KCAL/MOL
REMARK 922        TOTAL FREE ENERGY PREDICTED BY IDOCK:   -1.49 KCAL/MOL
REMARK 923 INTER-LIGAND FREE ENERGY PREDICTED BY IDOCK:   -1.38 KCAL/MOL
REMARK 924 INTRA-LIGAND FREE ENERGY PREDICTED BY IDOCK:   -0.10 KCAL/MOL
REMARK 927      BINDING AFFINITY PREDICTED BY RF-SCORE:    0.00 PKD
ROOT
HETATM    1  N   UNL     1      -6.642  10.470  69.764  1.00  0.00    -0.095 NA 
HETATM    2  H1  UNL     1      -5.704  10.735  69.462  1.00  0.00     0.000 HD 
HETATM    3  H2  UNL     1      -6.639   9.654  70.376  1.00  0.00     0.000 HD 
HETATM    4  N   UNL     1      -7.470  10.281  68.599  1.00  0.00    -0.082 NA 
HETATM    5  H   UNL     1      -7.069   9.613  67.942  1.00  0.00     0.000 HD 
ENDROOT
BRANCH   4   6
HETATM    6  C   UNL     1      -8.822   9.900  69.033  1.00  0.00    -0.156 C  
BRANCH   6   7
HETATM    7  C   UNL     1      -9.879  10.463  68.076  1.00  0.00    -0.170 C  
BRANCH   7   8
HETATM    8  C   UNL     1      -9.990  11.962  68.213  1.00  0.00    -0.202 A  
HETATM    9  C   UNL     1     -10.636  12.526  69.321  1.00  0.00     0.101 A  
HETATM   10  C   UNL     1     -10.791  13.910  69.419  1.00  0.00    -0.109 A  
HETATM   11  C   UNL     1     -10.303  14.740  68.412  1.00  0.00    -0.233 A  
HETATM   12  C   UNL     1      -9.656  14.190  67.308  1.00  0.00    -0.234 A  
HETATM   13  C   UNL     1      -9.499  12.806  67.207  1.00  0.00    -0.204 A  
ENDBRANCH   7   8
ENDBRANCH   6   7
ENDBRANCH   4   6
TORSDOF 3
ENDMDL
