MODEL        1
REMARK 921   NORMALIZED FREE ENERGY PREDICTED BY IDOCK:   -6.73 KCAL/MOL
REMARK 922        TOTAL FREE ENERGY PREDICTED BY IDOCK:   -7.89 KCAL/MOL
REMARK 923 INTER-LIGAND FREE ENERGY PREDICTED BY IDOCK:   -7.12 KCAL/MOL
REMARK 924 INTRA-LIGAND FREE ENERGY PREDICTED BY IDOCK:   -0.77 KCAL/MOL
REMARK 927      BINDING AFFINITY PREDICTED BY RF-SCORE:    0.00 PKD
ROOT
HETATM    1  C   UNL     1     -12.386  16.061  73.329  1.00  0.00    -0.537 C  
HETATM    2  N   UNL     1     -13.181  15.344  72.346  1.00  0.00    -0.387 NA 
HETATM    3  C   UNL     1     -13.391  13.927  72.672  1.00  0.00    -0.538 C  
HETATM    4  C   UNL     1     -12.827  12.814  71.760  1.00  0.00    -0.342 C  
HETATM    5  C   UNL     1     -12.392  13.308  70.440  1.00  0.00    -0.365 C  
HETATM    6  C   UNL     1     -12.382  14.601  70.089  1.00  0.00    -0.390 C  
HETATM    7  C   UNL     1     -11.837  14.825  68.688  1.00  0.00    -0.334 C  
HETATM    8  C   UNL     1     -12.846  15.706  70.964  1.00  0.00    -0.463 C  
HETATM    9  C   UNL     1     -11.577  13.394  68.266  1.00  0.00    -0.379 A  
HETATM   10  C   UNL     1     -11.903  12.523  69.318  1.00  0.00    -0.360 A  
HETATM   11  C   UNL     1     -11.075  12.917  67.063  1.00  0.00    -0.309 A  
HETATM   12  C   UNL     1     -11.728  11.156  69.185  1.00  0.00    -0.408 A  
HETATM   13  C   UNL     1     -11.215  10.666  67.980  1.00  0.00    -0.373 A  
HETATM   14  C   UNL     1     -10.891  11.540  66.927  1.00  0.00    -0.331 A  
ENDROOT
BRANCH   7  15
HETATM   15  C   UNL     1     -10.594  15.701  68.672  1.00  0.00    -0.243 A  
HETATM   16  C   UNL     1      -8.259  16.087  69.245  1.00  0.00    -0.212 A  
HETATM   17  C   UNL     1      -9.514  17.804  68.109  1.00  0.00    -0.282 A  
HETATM   18  C   UNL     1      -9.386  15.264  69.241  1.00  0.00    -0.239 A  
HETATM   19  C   UNL     1     -10.644  16.984  68.102  1.00  0.00    -0.369 A  
HETATM   20  C   UNL     1      -8.322  17.357  68.680  1.00  0.00    -0.264 A  
ENDBRANCH   7  15
TORSDOF 1
ENDMDL
MODEL        2
REMARK 921   NORMALIZED FREE ENERGY PREDICTED BY IDOCK:   -6.73 KCAL/MOL
REMARK 922        TOTAL FREE ENERGY PREDICTED BY IDOCK:   -7.89 KCAL/MOL
REMARK 923 INTER-LIGAND FREE ENERGY PREDICTED BY IDOCK:   -7.66 KCAL/MOL
REMARK 924 INTRA-LIGAND FREE ENERGY PREDICTED BY IDOCK:   -0.23 KCAL/MOL
REMARK 927      BINDING AFFINITY PREDICTED BY RF-SCORE:    0.00 PKD
ROOT
HETATM    1  C   UNL     1      -9.551  12.331  66.670  1.00  0.00    -0.223 C  
HETATM    2  N   UNL     1     -10.633  13.240  67.010  1.00  0.00    -0.259 NA 
HETATM    3  C   UNL     1     -10.186  14.605  67.319  1.00  0.00    -0.241 C  
HETATM    4  C   UNL     1     -10.392  15.203  68.729  1.00  0.00    -0.236 C  
HETATM    5  C   UNL     1     -11.336  14.429  69.558  1.00  0.00    -0.318 C  
HETATM    6  C   UNL     1     -11.886  13.267  69.181  1.00  0.00    -0.378 C  
HETATM    7  C   UNL     1     -12.779  12.665  70.253  1.00  0.00     0.101 C  
HETATM    8  C   UNL     1     -11.653  12.623  67.864  1.00  0.00    -0.349 C  
HETATM    9  C   UNL     1     -12.685  13.737  71.318  1.00  0.00    -0.450 A  
HETATM   10  C   UNL     1     -11.823  14.759  70.888  1.00  0.00    -0.379 A  
HETATM   11  C   UNL     1     -13.294  13.784  72.564  1.00  0.00    -0.656 A  
HETATM   12  C   UNL     1     -11.552  15.845  71.701  1.00  0.00    -0.541 A  
HETATM   13  C   UNL     1     -12.155  15.898  72.962  1.00  0.00    -0.615 A  
HETATM   14  C   UNL     1     -13.019  14.876  73.390  1.00  0.00    -0.597 A  
ENDROOT
BRANCH   7  15
HETATM   15  C   UNL     1     -12.303  11.298  70.719  1.00  0.00    -0.495 A  
HETATM   16  C   UNL     1     -10.646   9.514  70.726  1.00  0.00    -0.387 A  
HETATM   17  C   UNL     1     -12.700   9.247  71.960  1.00  0.00    -0.479 A  
HETATM   18  C   UNL     1     -11.061  10.781  70.314  1.00  0.00    -0.248 A  
HETATM   19  C   UNL     1     -13.118  10.514  71.551  1.00  0.00    -0.532 A  
HETATM   20  C   UNL     1     -11.464   8.746  71.548  1.00  0.00    -0.375 A  
ENDBRANCH   7  15
TORSDOF 1
ENDMDL
MODEL        3
REMARK 921   NORMALIZED FREE ENERGY PREDICTED BY IDOCK:   -6.72 KCAL/MOL
REMARK 922        TOTAL FREE ENERGY PREDICTED BY IDOCK:   -7.88 KCAL/MOL
REMARK 923 INTER-LIGAND FREE ENERGY PREDICTED BY IDOCK:   -7.14 KCAL/MOL
REMARK 924 INTRA-LIGAND FREE ENERGY PREDICTED BY IDOCK:   -0.74 KCAL/MOL
REMARK 927      BINDING AFFINITY PREDICTED BY RF-SCORE:    0.00 PKD
ROOT
HETATM    1  C   UNL     1     -12.567  15.886  73.382  1.00  0.00    -0.550 C  
HETATM    2  N   UNL     1     -13.349  15.173  72.385  1.00  0.00    -0.382 NA 
HETATM    3  C   UNL     1     -13.510  13.741  72.671  1.00  0.00    -0.530 C  
HETATM    4  C   UNL     1     -12.920  12.675  71.720  1.00  0.00    -0.417 C  
HETATM    5  C   UNL     1     -12.516  13.223  70.411  1.00  0.00    -0.295 C  
HETATM    6  C   UNL     1     -12.553  14.525  70.099  1.00  0.00    -0.339 C  
HETATM    7  C   UNL     1     -12.032  14.809  68.700  1.00  0.00    -0.292 C  
HETATM    8  C   UNL     1     -13.042  15.587  71.012  1.00  0.00    -0.489 C  
HETATM    9  C   UNL     1     -11.730  13.401  68.231  1.00  0.00    -0.391 A  
HETATM   10  C   UNL     1     -12.016  12.488  69.260  1.00  0.00    -0.304 A  
HETATM   11  C   UNL     1     -11.227  12.977  67.010  1.00  0.00    -0.325 A  
HETATM   12  C   UNL     1     -11.798  11.132  69.084  1.00  0.00    -0.419 A  
HETATM   13  C   UNL     1     -11.284  10.696  67.859  1.00  0.00    -0.376 A  
HETATM   14  C   UNL     1     -11.000  11.610  66.830  1.00  0.00    -0.342 A  
ENDROOT
BRANCH   7  15
HETATM   15  C   UNL     1     -10.818  15.725  68.697  1.00  0.00    -0.278 A  
HETATM   16  C   UNL     1      -9.774  17.867  68.194  1.00  0.00    -0.320 A  
HETATM   17  C   UNL     1      -8.452  16.078  69.126  1.00  0.00    -0.247 A  
HETATM   18  C   UNL     1     -10.900  17.043  68.218  1.00  0.00    -0.341 A  
HETATM   19  C   UNL     1      -9.577  15.252  69.153  1.00  0.00    -0.243 A  
HETATM   20  C   UNL     1      -8.550  17.385  68.647  1.00  0.00    -0.259 A  
ENDBRANCH   7  15
TORSDOF 1
ENDMDL
MODEL        4
REMARK 921   NORMALIZED FREE ENERGY PREDICTED BY IDOCK:   -6.70 KCAL/MOL
REMARK 922        TOTAL FREE ENERGY PREDICTED BY IDOCK:   -7.86 KCAL/MOL
REMARK 923 INTER-LIGAND FREE ENERGY PREDICTED BY IDOCK:   -7.13 KCAL/MOL
REMARK 924 INTRA-LIGAND FREE ENERGY PREDICTED BY IDOCK:   -0.73 KCAL/MOL
REMARK 927      BINDING AFFINITY PREDICTED BY RF-SCORE:    0.00 PKD
ROOT
HETATM    1  C   UNL     1     -10.572   9.103  67.311  1.00  0.00    -0.233 C  
HETATM    2  N   UNL     1     -10.204   9.818  68.522  1.00  0.00    -0.179 NA 
HETATM    3  C   UNL     1     -10.960   9.400  69.711  1.00  0.00    -0.215 C  
HETATM    4  C   UNL     1     -11.896  10.391  70.439  1.00  0.00    -0.418 C  
HETATM    5  C   UNL     1     -11.683  11.795  70.039  1.00  0.00    -0.386 C  
HETATM    6  C   UNL     1     -10.842  12.179  69.071  1.00  0.00    -0.208 C  
HETATM    7  C   UNL     1     -10.862  13.681  68.837  1.00  0.00    -0.264 C  
HETATM    8  C   UNL     1      -9.982  11.250  68.296  1.00  0.00    -0.195 C  
HETATM    9  C   UNL     1     -11.848  14.108  69.903  1.00  0.00    -0.387 A  
HETATM   10  C   UNL     1     -12.323  12.979  70.591  1.00  0.00    -0.391 A  
HETATM   11  C   UNL     1     -12.297  15.384  70.216  1.00  0.00    -0.425 A  
HETATM   12  C   UNL     1     -13.260  13.107  71.602  1.00  0.00    -0.435 A  
HETATM   13  C   UNL     1     -13.723  14.388  71.919  1.00  0.00    -0.518 A  
HETATM   14  C   UNL     1     -13.246  15.517  71.232  1.00  0.00    -0.588 A  
ENDROOT
BRANCH   7  15
HETATM   15  C   UNL     1     -11.291  14.053  67.426  1.00  0.00    -0.350 A  
HETATM   16  C   UNL     1     -12.768  13.771  65.510  1.00  0.00    -0.530 A  
HETATM   17  C   UNL     1     -10.932  15.331  65.391  1.00  0.00    -0.380 A  
HETATM   18  C   UNL     1     -12.399  13.442  66.815  1.00  0.00    -0.287 A  
HETATM   19  C   UNL     1     -10.561  15.005  66.697  1.00  0.00    -0.301 A  
HETATM   20  C   UNL     1     -12.035  14.714  64.797  1.00  0.00    -0.439 A  
ENDBRANCH   7  15
TORSDOF 1
ENDMDL
MODEL        5
REMARK 921   NORMALIZED FREE ENERGY PREDICTED BY IDOCK:   -6.66 KCAL/MOL
REMARK 922        TOTAL FREE ENERGY PREDICTED BY IDOCK:   -7.82 KCAL/MOL
REMARK 923 INTER-LIGAND FREE ENERGY PREDICTED BY IDOCK:   -7.03 KCAL/MOL
REMARK 924 INTRA-LIGAND FREE ENERGY PREDICTED BY IDOCK:   -0.79 KCAL/MOL
REMARK 927      BINDING AFFINITY PREDICTED BY RF-SCORE:    0.00 PKD
ROOT
HETATM    1  C   UNL     1     -10.485   9.048  67.090  1.00  0.00    -0.263 C  
HETATM    2  N   UNL     1     -10.102   9.768  68.293  1.00  0.00    -0.157 NA 
HETATM    3  C   UNL     1     -10.862   9.374  69.487  1.00  0.00    -0.213 C  
HETATM    4  C   UNL     1     -11.779  10.387  70.209  1.00  0.00    -0.406 C  
HETATM    5  C   UNL     1     -11.543  11.783  69.796  1.00  0.00    -0.372 C  
HETATM    6  C   UNL     1     -10.698  12.144  68.822  1.00  0.00    -0.252 C  
HETATM    7  C   UNL     1     -10.693  13.644  68.575  1.00  0.00    -0.269 C  
HETATM    8  C   UNL     1      -9.856  11.194  68.054  1.00  0.00    -0.174 C  
HETATM    9  C   UNL     1     -11.668  14.098  69.640  1.00  0.00    -0.372 A  
HETATM   10  C   UNL     1     -12.160  12.984  70.338  1.00  0.00    -0.391 A  
HETATM   11  C   UNL     1     -12.094  15.384  69.942  1.00  0.00    -0.382 A  
HETATM   12  C   UNL     1     -13.093  13.137  71.350  1.00  0.00    -0.352 A  
HETATM   13  C   UNL     1     -13.533  14.428  71.657  1.00  0.00    -0.451 A  
HETATM   14  C   UNL     1     -13.038  15.543  70.958  1.00  0.00    -0.551 A  
ENDROOT
BRANCH   7  15
HETATM   15  C   UNL     1     -11.119  14.011  67.162  1.00  0.00    -0.313 A  
HETATM   16  C   UNL     1     -10.701  15.132  65.040  1.00  0.00    -0.451 A  
HETATM   17  C   UNL     1     -12.782  13.965  65.391  1.00  0.00    -0.525 A  
HETATM   18  C   UNL     1     -10.289  14.777  66.325  1.00  0.00    -0.305 A  
HETATM   19  C   UNL     1     -12.373  13.607  66.677  1.00  0.00    -0.381 A  
HETATM   20  C   UNL     1     -11.947  14.727  64.573  1.00  0.00    -0.451 A  
ENDBRANCH   7  15
TORSDOF 1
ENDMDL
MODEL        6
REMARK 921   NORMALIZED FREE ENERGY PREDICTED BY IDOCK:   -6.63 KCAL/MOL
REMARK 922        TOTAL FREE ENERGY PREDICTED BY IDOCK:   -7.79 KCAL/MOL
REMARK 923 INTER-LIGAND FREE ENERGY PREDICTED BY IDOCK:   -7.39 KCAL/MOL
REMARK 924 INTRA-LIGAND FREE ENERGY PREDICTED BY IDOCK:   -0.39 KCAL/MOL
REMARK 927      BINDING AFFINITY PREDICTED BY RF-SCORE:    0.00 PKD
ROOT
HETATM    1  C   UNL     1      -9.051  10.551  66.790  1.00  0.00    -0.151 C  
HETATM    2  N   UNL     1     -10.318  11.260  66.866  1.00  0.00    -0.225 NA 
HETATM    3  C   UNL     1     -10.183  12.722  66.812  1.00  0.00    -0.239 C  
HETATM    4  C   UNL     1     -10.604  13.599  68.013  1.00  0.00    -0.256 C  
HETATM    5  C   UNL     1     -11.422  12.874  69.004  1.00  0.00    -0.358 C  
HETATM    6  C   UNL     1     -11.694  11.565  68.939  1.00  0.00    -0.403 C  
HETATM    7  C   UNL     1     -12.516  11.076  70.120  1.00  0.00    -0.344 C  
HETATM    8  C   UNL     1     -11.244  10.674  67.840  1.00  0.00    -0.308 C  
HETATM    9  C   UNL     1     -12.717  12.377  70.868  1.00  0.00    -0.273 A  
HETATM   10  C   UNL     1     -12.056  13.417  70.195  1.00  0.00    -0.415 A  
HETATM   11  C   UNL     1     -13.406  12.606  72.050  1.00  0.00    -0.555 A  
HETATM   12  C   UNL     1     -12.070  14.707  70.698  1.00  0.00    -0.385 A  
HETATM   13  C   UNL     1     -12.756  14.946  71.893  1.00  0.00    -0.395 A  
HETATM   14  C   UNL     1     -13.419  13.904  72.564  1.00  0.00    -0.676 A  
ENDROOT
BRANCH   7  15
HETATM   15  C   UNL     1     -11.801  10.009  70.935  1.00  0.00    -0.459 A  
HETATM   16  C   UNL     1      -9.773   8.811  71.554  1.00  0.00    -0.361 A  
HETATM   17  C   UNL     1     -11.885   8.178  72.531  1.00  0.00    -0.438 A  
HETATM   18  C   UNL     1     -10.415   9.812  70.823  1.00  0.00    -0.339 A  
HETATM   19  C   UNL     1     -12.530   9.179  71.802  1.00  0.00    -0.447 A  
HETATM   20  C   UNL     1     -10.507   7.994  72.408  1.00  0.00    -0.368 A  
ENDBRANCH   7  15
TORSDOF 1
ENDMDL
MODEL        7
REMARK 921   NORMALIZED FREE ENERGY PREDICTED BY IDOCK:   -6.58 KCAL/MOL
REMARK 922        TOTAL FREE ENERGY PREDICTED BY IDOCK:   -7.73 KCAL/MOL
REMARK 923 INTER-LIGAND FREE ENERGY PREDICTED BY IDOCK:   -7.26 KCAL/MOL
REMARK 924 INTRA-LIGAND FREE ENERGY PREDICTED BY IDOCK:   -0.47 KCAL/MOL
REMARK 927      BINDING AFFINITY PREDICTED BY RF-SCORE:    0.00 PKD
ROOT
HETATM    1  C   UNL     1      -9.127  10.420  66.955  1.00  0.00    -0.139 C  
HETATM    2  N   UNL     1     -10.357  11.192  67.015  1.00  0.00    -0.214 NA 
HETATM    3  C   UNL     1     -10.147  12.646  66.972  1.00  0.00    -0.224 C  
HETATM    4  C   UNL     1     -10.543  13.536  68.172  1.00  0.00    -0.253 C  
HETATM    5  C   UNL     1     -11.415  12.849  69.144  1.00  0.00    -0.360 C  
HETATM    6  C   UNL     1     -11.752  11.555  69.065  1.00  0.00    -0.400 C  
HETATM    7  C   UNL     1     -12.618  11.102  70.229  1.00  0.00    -0.288 C  
HETATM    8  C   UNL     1     -11.330  10.649  67.969  1.00  0.00    -0.278 C  
HETATM    9  C   UNL     1     -12.766  12.407  70.982  1.00  0.00    -0.315 A  
HETATM   10  C   UNL     1     -12.041  13.417  70.328  1.00  0.00    -0.419 A  
HETATM   11  C   UNL     1     -13.463  12.664  72.154  1.00  0.00    -0.561 A  
HETATM   12  C   UNL     1     -11.998  14.702  70.839  1.00  0.00    -0.388 A  
HETATM   13  C   UNL     1     -12.692  14.969  72.023  1.00  0.00    -0.406 A  
HETATM   14  C   UNL     1     -13.418  13.959  72.676  1.00  0.00    -0.652 A  
ENDROOT
BRANCH   7  15
HETATM   15  C   UNL     1     -11.973   9.995  71.049  1.00  0.00    -0.469 A  
HETATM   16  C   UNL     1     -12.140   8.140  72.619  1.00  0.00    -0.311 A  
HETATM   17  C   UNL     1      -9.977   8.836  71.810  1.00  0.00    -0.396 A  
HETATM   18  C   UNL     1     -12.744   9.135  71.848  1.00  0.00    -0.464 A  
HETATM   19  C   UNL     1     -10.579   9.832  71.038  1.00  0.00    -0.295 A  
HETATM   20  C   UNL     1     -10.757   7.991  72.601  1.00  0.00    -0.426 A  
ENDBRANCH   7  15
TORSDOF 1
ENDMDL
MODEL        8
REMARK 921   NORMALIZED FREE ENERGY PREDICTED BY IDOCK:   -6.37 KCAL/MOL
REMARK 922        TOTAL FREE ENERGY PREDICTED BY IDOCK:   -7.51 KCAL/MOL
REMARK 923 INTER-LIGAND FREE ENERGY PREDICTED BY IDOCK:   -6.84 KCAL/MOL
REMARK 924 INTRA-LIGAND FREE ENERGY PREDICTED BY IDOCK:   -0.67 KCAL/MOL
REMARK 927      BINDING AFFINITY PREDICTED BY RF-SCORE:    0.00 PKD
ROOT
HETATM    1  C   UNL     1     -10.780  19.283  68.080  1.00  0.00    -0.234 C  
HETATM    2  N   UNL     1      -9.913  18.141  67.844  1.00  0.00    -0.317 NA 
HETATM    3  C   UNL     1      -9.962  17.633  66.466  1.00  0.00    -0.332 C  
HETATM    4  C   UNL     1     -10.483  16.209  66.168  1.00  0.00    -0.334 C  
HETATM    5  C   UNL     1     -10.582  15.361  67.371  1.00  0.00    -0.289 C  
HETATM    6  C   UNL     1     -10.349  15.796  68.616  1.00  0.00    -0.225 C  
HETATM    7  C   UNL     1     -10.577  14.721  69.666  1.00  0.00    -0.167 C  
HETATM    8  C   UNL     1      -9.921  17.177  68.950  1.00  0.00    -0.304 C  
HETATM    9  C   UNL     1     -10.939  13.548  68.780  1.00  0.00    -0.291 A  
HETATM   10  C   UNL     1     -10.944  13.954  67.435  1.00  0.00    -0.299 A  
HETATM   11  C   UNL     1     -11.257  12.247  69.142  1.00  0.00    -0.300 A  
HETATM   12  C   UNL     1     -11.272  13.063  66.428  1.00  0.00    -0.332 A  
HETATM   13  C   UNL     1     -11.602  11.751  66.783  1.00  0.00    -0.287 A  
HETATM   14  C   UNL     1     -11.594  11.346  68.129  1.00  0.00    -0.364 A  
ENDROOT
BRANCH   7  15
HETATM   15  C   UNL     1     -11.664  15.091  70.663  1.00  0.00    -0.357 A  
HETATM   16  C   UNL     1     -14.014  15.348  71.246  1.00  0.00    -0.491 A  
HETATM   17  C   UNL     1     -12.310  15.945  72.845  1.00  0.00    -0.593 A  
HETATM   18  C   UNL     1     -13.025  14.980  70.333  1.00  0.00    -0.283 A  
HETATM   19  C   UNL     1     -11.318  15.577  71.934  1.00  0.00    -0.456 A  
HETATM   20  C   UNL     1     -13.658  15.831  72.501  1.00  0.00    -0.589 A  
ENDBRANCH   7  15
TORSDOF 1
ENDMDL
MODEL        9
REMARK 921   NORMALIZED FREE ENERGY PREDICTED BY IDOCK:   -6.37 KCAL/MOL
REMARK 922        TOTAL FREE ENERGY PREDICTED BY IDOCK:   -7.51 KCAL/MOL
REMARK 923 INTER-LIGAND FREE ENERGY PREDICTED BY IDOCK:   -6.72 KCAL/MOL
REMARK 924 INTRA-LIGAND FREE ENERGY PREDICTED BY IDOCK:   -0.79 KCAL/MOL
REMARK 927      BINDING AFFINITY PREDICTED BY RF-SCORE:    0.00 PKD
ROOT
HETATM    1  C   UNL     1     -11.626  15.156  72.476  1.00  0.00    -0.347 C  
HETATM    2  N   UNL     1     -12.471  14.797  71.348  1.00  0.00    -0.315 NA 
HETATM    3  C   UNL     1     -12.528  13.353  71.086  1.00  0.00    -0.327 C  
HETATM    4  C   UNL     1     -11.988  12.770  69.761  1.00  0.00    -0.362 C  
HETATM    5  C   UNL     1     -11.751  13.795  68.727  1.00  0.00    -0.391 C  
HETATM    6  C   UNL     1     -11.886  15.112  68.931  1.00  0.00    -0.337 C  
HETATM    7  C   UNL     1     -11.529  15.936  67.706  1.00  0.00    -0.128 C  
HETATM    8  C   UNL     1     -12.330  15.715  70.213  1.00  0.00    -0.370 C  
HETATM    9  C   UNL     1     -11.207  14.833  66.720  1.00  0.00    -0.344 A  
HETATM   10  C   UNL     1     -11.337  13.584  67.348  1.00  0.00    -0.338 A  
HETATM   11  C   UNL     1     -10.813  14.936  65.394  1.00  0.00    -0.379 A  
HETATM   12  C   UNL     1     -11.070  12.413  66.659  1.00  0.00    -0.336 A  
HETATM   13  C   UNL     1     -10.665  12.507  65.324  1.00  0.00    -0.318 A  
HETATM   14  C   UNL     1     -10.538  13.758  64.696  1.00  0.00    -0.443 A  
ENDROOT
BRANCH   7  15
HETATM   15  C   UNL     1     -10.370  16.890  67.953  1.00  0.00    -0.332 A  
HETATM   16  C   UNL     1      -8.059  17.302  68.603  1.00  0.00    -0.261 A  
HETATM   17  C   UNL     1      -9.503  19.157  68.063  1.00  0.00    -0.390 A  
HETATM   18  C   UNL     1      -9.109  16.417  68.352  1.00  0.00    -0.214 A  
HETATM   19  C   UNL     1     -10.554  18.274  67.810  1.00  0.00    -0.415 A  
HETATM   20  C   UNL     1      -8.256  18.672  68.460  1.00  0.00    -0.370 A  
ENDBRANCH   7  15
TORSDOF 1
ENDMDL
MODEL       10
REMARK 921   NORMALIZED FREE ENERGY PREDICTED BY IDOCK:   -6.35 KCAL/MOL
REMARK 922        TOTAL FREE ENERGY PREDICTED BY IDOCK:   -7.49 KCAL/MOL
REMARK 923 INTER-LIGAND FREE ENERGY PREDICTED BY IDOCK:   -6.73 KCAL/MOL
REMARK 924 INTRA-LIGAND FREE ENERGY PREDICTED BY IDOCK:   -0.75 KCAL/MOL
REMARK 927      BINDING AFFINITY PREDICTED BY RF-SCORE:    0.00 PKD
ROOT
HETATM    1  C   UNL     1     -11.324   9.966  71.015  1.00  0.00    -0.386 C  
HETATM    2  N   UNL     1     -11.449  10.546  69.688  1.00  0.00    -0.264 NA 
HETATM    3  C   UNL     1     -10.203  10.520  68.910  1.00  0.00    -0.208 C  
HETATM    4  C   UNL     1      -9.514  11.835  68.480  1.00  0.00    -0.165 C  
HETATM    5  C   UNL     1     -10.378  13.021  68.629  1.00  0.00    -0.203 C  
HETATM    6  C   UNL     1     -11.600  12.995  69.176  1.00  0.00    -0.368 C  
HETATM    7  C   UNL     1     -12.242  14.371  69.246  1.00  0.00    -0.274 C  
HETATM    8  C   UNL     1     -12.266  11.764  69.669  1.00  0.00    -0.185 C  
HETATM    9  C   UNL     1     -11.169  15.206  68.580  1.00  0.00    -0.301 A  
HETATM   10  C   UNL     1     -10.080  14.389  68.234  1.00  0.00    -0.239 A  
HETATM   11  C   UNL     1     -11.157  16.570  68.326  1.00  0.00    -0.321 A  
HETATM   12  C   UNL     1      -8.955  14.926  67.631  1.00  0.00    -0.181 A  
HETATM   13  C   UNL     1      -8.931  16.301  67.378  1.00  0.00    -0.197 A  
HETATM   14  C   UNL     1     -10.022  17.116  67.722  1.00  0.00    -0.290 A  
ENDROOT
BRANCH   7  15
HETATM   15  C   UNL     1     -12.554  14.804  70.670  1.00  0.00    -0.414 A  
HETATM   16  C   UNL     1     -14.155  15.368  72.417  1.00  0.00    -0.645 A  
HETATM   17  C   UNL     1     -11.789  15.527  72.861  1.00  0.00    -0.565 A  
HETATM   18  C   UNL     1     -13.879  14.943  71.117  1.00  0.00    -0.428 A  
HETATM   19  C   UNL     1     -11.510  15.100  71.561  1.00  0.00    -0.422 A  
HETATM   20  C   UNL     1     -13.111  15.661  73.289  1.00  0.00    -0.675 A  
ENDBRANCH   7  15
TORSDOF 1
ENDMDL
MODEL       11
REMARK 921   NORMALIZED FREE ENERGY PREDICTED BY IDOCK:   -6.32 KCAL/MOL
REMARK 922        TOTAL FREE ENERGY PREDICTED BY IDOCK:   -7.46 KCAL/MOL
REMARK 923 INTER-LIGAND FREE ENERGY PREDICTED BY IDOCK:   -6.69 KCAL/MOL
REMARK 924 INTRA-LIGAND FREE ENERGY PREDICTED BY IDOCK:   -0.77 KCAL/MOL
REMARK 927      BINDING AFFINITY PREDICTED BY RF-SCORE:    0.00 PKD
ROOT
HETATM    1  C   UNL     1      -9.199   9.507  70.308  1.00  0.00    -0.258 C  
HETATM    2  N   UNL     1     -10.294   9.341  69.366  1.00  0.00    -0.209 NA 
HETATM    3  C   UNL     1      -9.905   8.679  68.114  1.00  0.00    -0.165 C  
HETATM    4  C   UNL     1      -9.995   9.426  66.764  1.00  0.00    -0.305 C  
HETATM    5  C   UNL     1     -10.792  10.666  66.837  1.00  0.00    -0.267 C  
HETATM    6  C   UNL     1     -11.304  11.162  67.971  1.00  0.00    -0.380 C  
HETATM    7  C   UNL     1     -12.036  12.477  67.758  1.00  0.00    -0.286 C  
HETATM    8  C   UNL     1     -11.174  10.513  69.299  1.00  0.00    -0.262 C  
HETATM    9  C   UNL     1     -11.896  12.627  66.258  1.00  0.00    -0.471 A  
HETATM   10  C   UNL     1     -11.153  11.552  65.742  1.00  0.00    -0.272 A  
HETATM   11  C   UNL     1     -12.368  13.638  65.434  1.00  0.00    -0.510 A  
HETATM   12  C   UNL     1     -10.865  11.475  64.390  1.00  0.00    -0.405 A  
HETATM   13  C   UNL     1     -11.331  12.493  63.553  1.00  0.00    -0.556 A  
HETATM   14  C   UNL     1     -12.076  13.566  64.070  1.00  0.00    -0.494 A  
ENDROOT
BRANCH   7  15
HETATM   15  C   UNL     1     -11.425  13.627  68.545  1.00  0.00    -0.347 A  
HETATM   16  C   UNL     1     -11.579  15.344  70.264  1.00  0.00    -0.346 A  
HETATM   17  C   UNL     1      -9.575  15.154  68.936  1.00  0.00    -0.223 A  
HETATM   18  C   UNL     1     -12.139  14.272  69.567  1.00  0.00    -0.376 A  
HETATM   19  C   UNL     1     -10.132  14.081  68.238  1.00  0.00    -0.246 A  
HETATM   20  C   UNL     1     -10.299  15.786  69.949  1.00  0.00    -0.313 A  
ENDBRANCH   7  15
TORSDOF 1
ENDMDL
MODEL       12
REMARK 921   NORMALIZED FREE ENERGY PREDICTED BY IDOCK:   -6.31 KCAL/MOL
REMARK 922        TOTAL FREE ENERGY PREDICTED BY IDOCK:   -7.45 KCAL/MOL
REMARK 923 INTER-LIGAND FREE ENERGY PREDICTED BY IDOCK:   -6.68 KCAL/MOL
REMARK 924 INTRA-LIGAND FREE ENERGY PREDICTED BY IDOCK:   -0.77 KCAL/MOL
REMARK 927      BINDING AFFINITY PREDICTED BY RF-SCORE:    0.00 PKD
ROOT
HETATM    1  C   UNL     1      -9.237   9.495  70.252  1.00  0.00    -0.258 C  
HETATM    2  N   UNL     1     -10.320   9.329  69.297  1.00  0.00    -0.209 NA 
HETATM    3  C   UNL     1      -9.917   8.658  68.053  1.00  0.00    -0.182 C  
HETATM    4  C   UNL     1      -9.988   9.400  66.699  1.00  0.00    -0.326 C  
HETATM    5  C   UNL     1     -10.781  10.642  66.756  1.00  0.00    -0.272 C  
HETATM    6  C   UNL     1     -11.305  11.146  67.880  1.00  0.00    -0.378 C  
HETATM    7  C   UNL     1     -12.030  12.463  67.652  1.00  0.00    -0.249 C  
HETATM    8  C   UNL     1     -11.195  10.503  69.213  1.00  0.00    -0.262 C  
HETATM    9  C   UNL     1     -11.870  12.604  66.153  1.00  0.00    -0.477 A  
HETATM   10  C   UNL     1     -11.125  11.524  65.651  1.00  0.00    -0.261 A  
HETATM   11  C   UNL     1     -12.329  13.613  65.318  1.00  0.00    -0.498 A  
HETATM   12  C   UNL     1     -10.820  11.439  64.304  1.00  0.00    -0.416 A  
HETATM   13  C   UNL     1     -11.271  12.455  63.455  1.00  0.00    -0.540 A  
HETATM   14  C   UNL     1     -12.019  13.534  63.958  1.00  0.00    -0.501 A  
ENDROOT
BRANCH   7  15
HETATM   15  C   UNL     1     -11.424  13.614  68.440  1.00  0.00    -0.346 A  
HETATM   16  C   UNL     1      -9.579  15.134  68.903  1.00  0.00    -0.223 A  
HETATM   17  C   UNL     1     -11.583  15.240  70.239  1.00  0.00    -0.332 A  
HETATM   18  C   UNL     1     -10.136  14.095  68.155  1.00  0.00    -0.239 A  
HETATM   19  C   UNL     1     -12.144  14.202  69.493  1.00  0.00    -0.388 A  
HETATM   20  C   UNL     1     -10.301  15.706  69.945  1.00  0.00    -0.322 A  
ENDBRANCH   7  15
TORSDOF 1
ENDMDL
MODEL       13
REMARK 921   NORMALIZED FREE ENERGY PREDICTED BY IDOCK:   -6.30 KCAL/MOL
REMARK 922        TOTAL FREE ENERGY PREDICTED BY IDOCK:   -7.43 KCAL/MOL
REMARK 923 INTER-LIGAND FREE ENERGY PREDICTED BY IDOCK:   -7.51 KCAL/MOL
REMARK 924 INTRA-LIGAND FREE ENERGY PREDICTED BY IDOCK:    0.08 KCAL/MOL
REMARK 927      BINDING AFFINITY PREDICTED BY RF-SCORE:    0.00 PKD
ROOT
HETATM    1  C   UNL     1      -9.296  15.453  66.184  1.00  0.00    -0.332 C  
HETATM    2  N   UNL     1     -10.530  15.925  66.791  1.00  0.00    -0.306 NA 
HETATM    3  C   UNL     1     -10.363  17.130  67.616  1.00  0.00    -0.344 C  
HETATM    4  C   UNL     1     -10.641  17.091  69.135  1.00  0.00    -0.303 C  
HETATM    5  C   UNL     1     -11.377  15.886  69.562  1.00  0.00    -0.335 C  
HETATM    6  C   UNL     1     -11.690  14.870  68.747  1.00  0.00    -0.353 C  
HETATM    7  C   UNL     1     -12.404  13.738  69.466  1.00  0.00    -0.258 C  
HETATM    8  C   UNL     1     -11.373  14.837  67.297  1.00  0.00    -0.357 C  
HETATM    9  C   UNL     1     -12.497  14.318  70.861  1.00  0.00    -0.424 A  
HETATM   10  C   UNL     1     -11.878  15.579  70.892  1.00  0.00    -0.413 A  
HETATM   11  C   UNL     1     -13.062  13.764  72.001  1.00  0.00    -0.485 A  
HETATM   12  C   UNL     1     -11.809  16.304  72.069  1.00  0.00    -0.568 A  
HETATM   13  C   UNL     1     -12.368  15.750  73.225  1.00  0.00    -0.611 A  
HETATM   14  C   UNL     1     -12.989  14.490  73.191  1.00  0.00    -0.577 A  
ENDROOT
BRANCH   7  15
HETATM   15  C   UNL     1     -11.642  12.423  69.402  1.00  0.00    -0.371 A  
HETATM   16  C   UNL     1     -11.326  10.114  70.107  1.00  0.00    -0.372 A  
HETATM   17  C   UNL     1      -9.771  11.119  68.562  1.00  0.00    -0.196 A  
HETATM   18  C   UNL     1     -12.049  11.307  70.151  1.00  0.00    -0.448 A  
HETATM   19  C   UNL     1     -10.492  12.314  68.603  1.00  0.00    -0.228 A  
HETATM   20  C   UNL     1     -10.188  10.019  69.314  1.00  0.00    -0.229 A  
ENDBRANCH   7  15
TORSDOF 1
ENDMDL
MODEL       14
REMARK 921   NORMALIZED FREE ENERGY PREDICTED BY IDOCK:   -6.16 KCAL/MOL
REMARK 922        TOTAL FREE ENERGY PREDICTED BY IDOCK:   -7.29 KCAL/MOL
REMARK 923 INTER-LIGAND FREE ENERGY PREDICTED BY IDOCK:   -7.04 KCAL/MOL
REMARK 924 INTRA-LIGAND FREE ENERGY PREDICTED BY IDOCK:   -0.25 KCAL/MOL
REMARK 927      BINDING AFFINITY PREDICTED BY RF-SCORE:    0.00 PKD
ROOT
HETATM    1  C   UNL     1      -9.956  19.096  68.947  1.00  0.00    -0.416 C  
HETATM    2  N   UNL     1      -9.353  18.116  68.060  1.00  0.00    -0.276 NA 
HETATM    3  C   UNL     1      -9.560  18.400  66.633  1.00  0.00    -0.320 C  
HETATM    4  C   UNL     1     -10.374  17.432  65.745  1.00  0.00    -0.226 C  
HETATM    5  C   UNL     1     -10.598  16.116  66.372  1.00  0.00    -0.269 C  
HETATM    6  C   UNL     1     -10.231  15.809  67.624  1.00  0.00    -0.266 C  
HETATM    7  C   UNL     1     -10.633  14.399  68.025  1.00  0.00    -0.241 C  
HETATM    8  C   UNL     1      -9.515  16.737  68.534  1.00  0.00    -0.245 C  
HETATM    9  C   UNL     1     -11.264  13.919  66.735  1.00  0.00    -0.328 A  
HETATM   10  C   UNL     1     -11.238  14.951  65.782  1.00  0.00    -0.334 A  
HETATM   11  C   UNL     1     -11.828  12.685  66.446  1.00  0.00    -0.466 A  
HETATM   12  C   UNL     1     -11.783  14.766  64.523  1.00  0.00    -0.398 A  
HETATM   13  C   UNL     1     -12.360  13.527  64.225  1.00  0.00    -0.392 A  
HETATM   14  C   UNL     1     -12.383  12.496  65.178  1.00  0.00    -0.496 A  
ENDROOT
BRANCH   7  15
HETATM   15  C   UNL     1     -11.581  14.371  69.214  1.00  0.00    -0.345 A  
HETATM   16  C   UNL     1     -13.003  15.516  70.825  1.00  0.00    -0.490 A  
HETATM   17  C   UNL     1     -12.722  13.125  70.960  1.00  0.00    -0.361 A  
HETATM   18  C   UNL     1     -12.157  15.550  69.716  1.00  0.00    -0.372 A  
HETATM   19  C   UNL     1     -11.876  13.155  69.850  1.00  0.00    -0.378 A  
HETATM   20  C   UNL     1     -13.286  14.305  71.448  1.00  0.00    -0.419 A  
ENDBRANCH   7  15
TORSDOF 1
ENDMDL
MODEL       15
REMARK 921   NORMALIZED FREE ENERGY PREDICTED BY IDOCK:   -6.07 KCAL/MOL
REMARK 922        TOTAL FREE ENERGY PREDICTED BY IDOCK:   -7.20 KCAL/MOL
REMARK 923 INTER-LIGAND FREE ENERGY PREDICTED BY IDOCK:   -6.67 KCAL/MOL
REMARK 924 INTRA-LIGAND FREE ENERGY PREDICTED BY IDOCK:   -0.52 KCAL/MOL
REMARK 927      BINDING AFFINITY PREDICTED BY RF-SCORE:    0.00 PKD
ROOT
HETATM    1  C   UNL     1      -8.849  16.281  66.041  1.00  0.00    -0.273 C  
HETATM    2  N   UNL     1     -10.151  16.599  66.603  1.00  0.00    -0.290 NA 
HETATM    3  C   UNL     1     -10.114  17.648  67.630  1.00  0.00    -0.339 C  
HETATM    4  C   UNL     1     -10.516  17.339  69.090  1.00  0.00    -0.263 C  
HETATM    5  C   UNL     1     -11.225  16.054  69.239  1.00  0.00    -0.346 C  
HETATM    6  C   UNL     1     -11.417  15.183  68.240  1.00  0.00    -0.350 C  
HETATM    7  C   UNL     1     -12.132  13.920  68.690  1.00  0.00    -0.337 C  
HETATM    8  C   UNL     1     -10.978  15.411  66.840  1.00  0.00    -0.294 C  
HETATM    9  C   UNL     1     -12.370  14.248  70.149  1.00  0.00    -0.413 A  
HETATM   10  C   UNL     1     -11.819  15.505  70.448  1.00  0.00    -0.379 A  
HETATM   11  C   UNL     1     -13.000  13.487  71.123  1.00  0.00    -0.338 A  
HETATM   12  C   UNL     1     -11.885  16.020  71.731  1.00  0.00    -0.599 A  
HETATM   13  C   UNL     1     -12.511  15.257  72.722  1.00  0.00    -0.490 A  
HETATM   14  C   UNL     1     -13.064  14.001  72.420  1.00  0.00    -0.536 A  
ENDROOT
BRANCH   7  15
HETATM   15  C   UNL     1     -11.302  12.663  68.476  1.00  0.00    -0.333 A  
HETATM   16  C   UNL     1      -9.148  11.559  68.209  1.00  0.00    -0.185 A  
HETATM   17  C   UNL     1     -11.182  10.271  68.064  1.00  0.00    -0.303 A  
HETATM   18  C   UNL     1      -9.899  12.714  68.434  1.00  0.00    -0.200 A  
HETATM   19  C   UNL     1     -11.936  11.424  68.290  1.00  0.00    -0.234 A  
HETATM   20  C   UNL     1      -9.789  10.338  68.024  1.00  0.00    -0.171 A  
ENDBRANCH   7  15
TORSDOF 1
ENDMDL
MODEL       16
REMARK 921   NORMALIZED FREE ENERGY PREDICTED BY IDOCK:   -6.00 KCAL/MOL
REMARK 922        TOTAL FREE ENERGY PREDICTED BY IDOCK:   -7.12 KCAL/MOL
REMARK 923 INTER-LIGAND FREE ENERGY PREDICTED BY IDOCK:   -6.38 KCAL/MOL
REMARK 924 INTRA-LIGAND FREE ENERGY PREDICTED BY IDOCK:   -0.74 KCAL/MOL
REMARK 927      BINDING AFFINITY PREDICTED BY RF-SCORE:    0.00 PKD
ROOT
HETATM    1  C   UNL     1     -11.825  15.062  71.517  1.00  0.00    -0.372 C  
HETATM    2  N   UNL     1     -12.559  14.171  70.634  1.00  0.00    -0.342 NA 
HETATM    3  C   UNL     1     -12.536  12.764  71.058  1.00  0.00    -0.277 C  
HETATM    4  C   UNL     1     -11.864  11.686  70.178  1.00  0.00    -0.428 C  
HETATM    5  C   UNL     1     -11.586  12.145  68.804  1.00  0.00    -0.380 C  
HETATM    6  C   UNL     1     -11.792  13.398  68.376  1.00  0.00    -0.401 C  
HETATM    7  C   UNL     1     -11.369  13.602  66.931  1.00  0.00    -0.345 C  
HETATM    8  C   UNL     1     -12.364  14.481  69.214  1.00  0.00    -0.150 C  
HETATM    9  C   UNL     1     -10.922  12.199  66.578  1.00  0.00    -0.325 A  
HETATM   10  C   UNL     1     -11.052  11.364  67.699  1.00  0.00    -0.325 A  
HETATM   11  C   UNL     1     -10.426  11.719  65.375  1.00  0.00    -0.317 A  
HETATM   12  C   UNL     1     -10.681  10.032  67.637  1.00  0.00    -0.340 A  
HETATM   13  C   UNL     1     -10.173   9.540  66.431  1.00  0.00    -0.302 A  
HETATM   14  C   UNL     1     -10.045  10.376  65.309  1.00  0.00    -0.370 A  
ENDROOT
BRANCH   7  15
HETATM   15  C   UNL     1     -10.274  14.647  66.778  1.00  0.00    -0.268 A  
HETATM   16  C   UNL     1      -9.516  16.836  66.027  1.00  0.00    -0.257 A  
HETATM   17  C   UNL     1      -7.951  15.308  67.041  1.00  0.00    -0.243 A  
HETATM   18  C   UNL     1     -10.535  15.895  66.188  1.00  0.00    -0.336 A  
HETATM   19  C   UNL     1      -8.967  14.365  67.205  1.00  0.00    -0.245 A  
HETATM   20  C   UNL     1      -8.225  16.543  66.452  1.00  0.00    -0.364 A  
ENDBRANCH   7  15
TORSDOF 1
ENDMDL
MODEL       17
REMARK 921   NORMALIZED FREE ENERGY PREDICTED BY IDOCK:   -5.98 KCAL/MOL
REMARK 922        TOTAL FREE ENERGY PREDICTED BY IDOCK:   -7.09 KCAL/MOL
REMARK 923 INTER-LIGAND FREE ENERGY PREDICTED BY IDOCK:   -6.31 KCAL/MOL
REMARK 924 INTRA-LIGAND FREE ENERGY PREDICTED BY IDOCK:   -0.79 KCAL/MOL
REMARK 927      BINDING AFFINITY PREDICTED BY RF-SCORE:    0.00 PKD
ROOT
HETATM    1  C   UNL     1      -6.757  13.297  69.093  1.00  0.00    -0.092 C  
HETATM    2  N   UNL     1      -6.429  14.540  68.415  1.00  0.00    -0.093 NA 
HETATM    3  C   UNL     1      -6.183  15.666  69.326  1.00  0.00    -0.127 C  
HETATM    4  C   UNL     1      -7.105  16.906  69.316  1.00  0.00    -0.192 C  
HETATM    5  C   UNL     1      -7.980  16.971  68.130  1.00  0.00    -0.206 C  
HETATM    6  C   UNL     1      -8.055  16.011  67.199  1.00  0.00    -0.232 C  
HETATM    7  C   UNL     1      -9.075  16.320  66.116  1.00  0.00    -0.377 C  
HETATM    8  C   UNL     1      -7.240  14.770  67.215  1.00  0.00    -0.080 C  
HETATM    9  C   UNL     1      -9.547  17.685  66.570  1.00  0.00    -0.301 A  
HETATM   10  C   UNL     1      -8.894  18.041  67.761  1.00  0.00    -0.255 A  
HETATM   11  C   UNL     1     -10.488  18.521  65.986  1.00  0.00    -0.433 A  
HETATM   12  C   UNL     1      -9.176  19.240  68.392  1.00  0.00    -0.409 A  
HETATM   13  C   UNL     1     -10.128  20.086  67.816  1.00  0.00    -0.563 A  
HETATM   14  C   UNL     1     -10.780  19.729  66.623  1.00  0.00    -0.518 A  
ENDROOT
BRANCH   7  15
HETATM   15  C   UNL     1     -10.186  15.285  66.039  1.00  0.00    -0.335 A  
HETATM   16  C   UNL     1     -11.989  14.021  67.081  1.00  0.00    -0.465 A  
HETATM   17  C   UNL     1     -11.411  13.609  64.776  1.00  0.00    -0.367 A  
HETATM   18  C   UNL     1     -10.989  14.992  67.154  1.00  0.00    -0.329 A  
HETATM   19  C   UNL     1     -10.411  14.580  64.846  1.00  0.00    -0.435 A  
HETATM   20  C   UNL     1     -12.200  13.328  65.893  1.00  0.00    -0.497 A  
ENDBRANCH   7  15
TORSDOF 1
ENDMDL
MODEL       18
REMARK 921   NORMALIZED FREE ENERGY PREDICTED BY IDOCK:   -5.95 KCAL/MOL
REMARK 922        TOTAL FREE ENERGY PREDICTED BY IDOCK:   -7.07 KCAL/MOL
REMARK 923 INTER-LIGAND FREE ENERGY PREDICTED BY IDOCK:   -6.48 KCAL/MOL
REMARK 924 INTRA-LIGAND FREE ENERGY PREDICTED BY IDOCK:   -0.58 KCAL/MOL
REMARK 927      BINDING AFFINITY PREDICTED BY RF-SCORE:    0.00 PKD
ROOT
HETATM    1  C   UNL     1      -8.537   8.772  67.240  1.00  0.00    -0.121 C  
HETATM    2  N   UNL     1      -9.870   9.347  67.169  1.00  0.00    -0.175 NA 
HETATM    3  C   UNL     1      -9.888  10.753  66.742  1.00  0.00    -0.193 C  
HETATM    4  C   UNL     1     -10.396  11.860  67.693  1.00  0.00    -0.217 C  
HETATM    5  C   UNL     1     -11.133  11.335  68.858  1.00  0.00    -0.295 C  
HETATM    6  C   UNL     1     -11.268  10.031  69.134  1.00  0.00    -0.197 C  
HETATM    7  C   UNL     1     -12.033   9.780  70.423  1.00  0.00    -0.218 C  
HETATM    8  C   UNL     1     -10.730   8.939  68.285  1.00  0.00    -0.082 C  
HETATM    9  C   UNL     1     -12.367  11.202  70.822  1.00  0.00    -0.504 A  
HETATM   10  C   UNL     1     -11.819  12.097  69.889  1.00  0.00    -0.392 A  
HETATM   11  C   UNL     1     -13.076  11.655  71.926  1.00  0.00    -0.490 A  
HETATM   12  C   UNL     1     -11.967  13.465  70.048  1.00  0.00    -0.407 A  
HETATM   13  C   UNL     1     -12.672  13.931  71.162  1.00  0.00    -0.441 A  
HETATM   14  C   UNL     1     -13.222  13.033  72.093  1.00  0.00    -0.558 A  
ENDROOT
BRANCH   7  15
HETATM   15  C   UNL     1     -11.210   9.033  71.461  1.00  0.00    -0.418 A  
HETATM   16  C   UNL     1      -9.065   8.454  72.457  1.00  0.00    -0.326 A  
HETATM   17  C   UNL     1     -11.090   7.461  73.310  1.00  0.00    -0.303 A  
HETATM   18  C   UNL     1      -9.813   9.165  71.518  1.00  0.00    -0.335 A  
HETATM   19  C   UNL     1     -11.842   8.172  72.373  1.00  0.00    -0.448 A  
HETATM   20  C   UNL     1      -9.702   7.602  73.353  1.00  0.00    -0.363 A  
ENDBRANCH   7  15
TORSDOF 1
ENDMDL
MODEL       19
REMARK 921   NORMALIZED FREE ENERGY PREDICTED BY IDOCK:   -5.95 KCAL/MOL
REMARK 922        TOTAL FREE ENERGY PREDICTED BY IDOCK:   -7.07 KCAL/MOL
REMARK 923 INTER-LIGAND FREE ENERGY PREDICTED BY IDOCK:   -7.35 KCAL/MOL
REMARK 924 INTRA-LIGAND FREE ENERGY PREDICTED BY IDOCK:    0.28 KCAL/MOL
REMARK 927      BINDING AFFINITY PREDICTED BY RF-SCORE:    0.00 PKD
ROOT
HETATM    1  C   UNL     1     -10.504   7.987  68.394  1.00  0.00    -0.163 C  
HETATM    2  N   UNL     1     -10.198   8.896  69.486  1.00  0.00    -0.199 NA 
HETATM    3  C   UNL     1     -10.955   8.623  70.715  1.00  0.00    -0.245 C  
HETATM    4  C   UNL     1     -11.956   9.660  71.273  1.00  0.00    -0.462 C  
HETATM    5  C   UNL     1     -11.808  10.997  70.666  1.00  0.00    -0.434 C  
HETATM    6  C   UNL     1     -10.968  11.275  69.661  1.00  0.00    -0.214 C  
HETATM    7  C   UNL     1     -11.061  12.720  69.201  1.00  0.00    -0.245 C  
HETATM    8  C   UNL     1     -10.045  10.287  69.047  1.00  0.00    -0.213 C  
HETATM    9  C   UNL     1     -12.089  13.251  70.178  1.00  0.00    -0.403 A  
HETATM   10  C   UNL     1     -12.518  12.214  71.023  1.00  0.00    -0.369 A  
HETATM   11  C   UNL     1     -12.609  14.533  70.287  1.00  0.00    -0.378 A  
HETATM   12  C   UNL     1     -13.481  12.443  71.991  1.00  0.00    -0.460 A  
HETATM   13  C   UNL     1     -14.016  13.730  72.104  1.00  0.00    -0.638 A  
HETATM   14  C   UNL     1     -13.584  14.766  71.259  1.00  0.00    -0.480 A  
ENDROOT
BRANCH   7  15
HETATM   15  C   UNL     1     -11.480  12.851  67.744  1.00  0.00    -0.369 A  
HETATM   16  C   UNL     1     -12.532  14.104  65.940  1.00  0.00    -0.479 A  
HETATM   17  C   UNL     1     -11.655  11.897  65.516  1.00  0.00    -0.281 A  
HETATM   18  C   UNL     1     -12.126  14.005  67.272  1.00  0.00    -0.405 A  
HETATM   19  C   UNL     1     -11.248  11.796  66.847  1.00  0.00    -0.387 A  
HETATM   20  C   UNL     1     -12.298  13.051  65.062  1.00  0.00    -0.526 A  
ENDBRANCH   7  15
TORSDOF 1
ENDMDL
MODEL       20
REMARK 921   NORMALIZED FREE ENERGY PREDICTED BY IDOCK:   -5.92 KCAL/MOL
REMARK 922        TOTAL FREE ENERGY PREDICTED BY IDOCK:   -7.03 KCAL/MOL
REMARK 923 INTER-LIGAND FREE ENERGY PREDICTED BY IDOCK:   -6.35 KCAL/MOL
REMARK 924 INTRA-LIGAND FREE ENERGY PREDICTED BY IDOCK:   -0.68 KCAL/MOL
REMARK 927      BINDING AFFINITY PREDICTED BY RF-SCORE:    0.00 PKD
ROOT
HETATM    1  C   UNL     1     -10.388  12.326  64.124  1.00  0.00    -0.369 C  
HETATM    2  N   UNL     1     -11.434  13.106  64.764  1.00  0.00    -0.312 NA 
HETATM    3  C   UNL     1     -11.190  14.554  64.747  1.00  0.00    -0.390 C  
HETATM    4  C   UNL     1     -10.991  15.337  66.064  1.00  0.00    -0.317 C  
HETATM    5  C   UNL     1     -11.398  14.576  67.261  1.00  0.00    -0.363 C  
HETATM    6  C   UNL     1     -11.802  13.300  67.236  1.00  0.00    -0.421 C  
HETATM    7  C   UNL     1     -12.110  12.754  68.621  1.00  0.00    -0.152 C  
HETATM    8  C   UNL     1     -11.933  12.491  65.999  1.00  0.00    -0.392 C  
HETATM    9  C   UNL     1     -11.856  13.988  69.461  1.00  0.00    -0.378 A  
HETATM   10  C   UNL     1     -11.431  15.043  68.638  1.00  0.00    -0.329 A  
HETATM   11  C   UNL     1     -11.974  14.147  70.835  1.00  0.00    -0.371 A  
HETATM   12  C   UNL     1     -11.109  16.277  69.178  1.00  0.00    -0.322 A  
HETATM   13  C   UNL     1     -11.217  16.444  70.562  1.00  0.00    -0.230 A  
HETATM   14  C   UNL     1     -11.645  15.388  71.384  1.00  0.00    -0.461 A  
ENDROOT
BRANCH   7  15
HETATM   15  C   UNL     1     -11.234  11.570  68.997  1.00  0.00    -0.324 A  
HETATM   16  C   UNL     1     -10.930   9.412  70.086  1.00  0.00    -0.282 A  
HETATM   17  C   UNL     1      -9.058  10.488  69.012  1.00  0.00    -0.188 A  
HETATM   18  C   UNL     1     -11.749  10.482  69.722  1.00  0.00    -0.354 A  
HETATM   19  C   UNL     1      -9.875  11.559  68.644  1.00  0.00    -0.184 A  
HETATM   20  C   UNL     1      -9.584   9.415  69.733  1.00  0.00    -0.216 A  
ENDBRANCH   7  15
TORSDOF 1
ENDMDL
MODEL       21
REMARK 921   NORMALIZED FREE ENERGY PREDICTED BY IDOCK:   -5.90 KCAL/MOL
REMARK 922        TOTAL FREE ENERGY PREDICTED BY IDOCK:   -7.01 KCAL/MOL
REMARK 923 INTER-LIGAND FREE ENERGY PREDICTED BY IDOCK:   -6.25 KCAL/MOL
REMARK 924 INTRA-LIGAND FREE ENERGY PREDICTED BY IDOCK:   -0.77 KCAL/MOL
REMARK 927      BINDING AFFINITY PREDICTED BY RF-SCORE:    0.00 PKD
ROOT
HETATM    1  C   UNL     1      -9.602   8.414  66.308  1.00  0.00    -0.216 C  
HETATM    2  N   UNL     1      -9.290   9.028  67.588  1.00  0.00    -0.135 NA 
HETATM    3  C   UNL     1      -9.965   8.395  68.729  1.00  0.00    -0.187 C  
HETATM    4  C   UNL     1     -10.992   9.182  69.575  1.00  0.00    -0.138 C  
HETATM    5  C   UNL     1     -10.950  10.637  69.334  1.00  0.00    -0.304 C  
HETATM    6  C   UNL     1     -10.182  11.223  68.407  1.00  0.00    -0.205 C  
HETATM    7  C   UNL     1     -10.380  12.728  68.345  1.00  0.00    -0.248 C  
HETATM    8  C   UNL     1      -9.239  10.492  67.523  1.00  0.00    -0.142 C  
HETATM    9  C   UNL     1     -11.383  12.917  69.463  1.00  0.00    -0.221 A  
HETATM   10  C   UNL     1     -11.708  11.670  70.023  1.00  0.00    -0.402 A  
HETATM   11  C   UNL     1     -11.967  14.088  69.923  1.00  0.00    -0.399 A  
HETATM   12  C   UNL     1     -12.630  11.575  71.051  1.00  0.00    -0.457 A  
HETATM   13  C   UNL     1     -13.230  12.750  71.517  1.00  0.00    -0.330 A  
HETATM   14  C   UNL     1     -12.901  13.996  70.957  1.00  0.00    -0.410 A  
ENDROOT
BRANCH   7  15
HETATM   15  C   UNL     1     -10.881  13.203  66.990  1.00  0.00    -0.278 A  
HETATM   16  C   UNL     1     -12.442  13.043  65.126  1.00  0.00    -0.552 A  
HETATM   17  C   UNL     1     -10.642  14.647  65.050  1.00  0.00    -0.461 A  
HETATM   18  C   UNL     1     -12.006  12.619  66.383  1.00  0.00    -0.425 A  
HETATM   19  C   UNL     1     -10.204  14.226  66.307  1.00  0.00    -0.307 A  
HETATM   20  C   UNL     1     -11.760  14.056  64.459  1.00  0.00    -0.428 A  
ENDBRANCH   7  15
TORSDOF 1
ENDMDL
MODEL       22
REMARK 921   NORMALIZED FREE ENERGY PREDICTED BY IDOCK:   -5.86 KCAL/MOL
REMARK 922        TOTAL FREE ENERGY PREDICTED BY IDOCK:   -6.97 KCAL/MOL
REMARK 923 INTER-LIGAND FREE ENERGY PREDICTED BY IDOCK:   -6.43 KCAL/MOL
REMARK 924 INTRA-LIGAND FREE ENERGY PREDICTED BY IDOCK:   -0.54 KCAL/MOL
REMARK 927      BINDING AFFINITY PREDICTED BY RF-SCORE:    0.00 PKD
ROOT
HETATM    1  C   UNL     1     -10.724   7.615  67.409  1.00  0.00    -0.248 C  
HETATM    2  N   UNL     1     -10.098   8.600  68.274  1.00  0.00    -0.185 NA 
HETATM    3  C   UNL     1     -10.701   8.685  69.611  1.00  0.00    -0.200 C  
HETATM    4  C   UNL     1     -11.400   9.981  70.081  1.00  0.00    -0.357 C  
HETATM    5  C   UNL     1     -11.100  11.147  69.228  1.00  0.00    -0.318 C  
HETATM    6  C   UNL     1     -10.382  11.084  68.099  1.00  0.00    -0.204 C  
HETATM    7  C   UNL     1     -10.275  12.428  67.396  1.00  0.00    -0.215 C  
HETATM    8  C   UNL     1      -9.759   9.844  67.575  1.00  0.00    -0.160 C  
HETATM    9  C   UNL     1     -11.031  13.305  68.371  1.00  0.00    -0.289 A  
HETATM   10  C   UNL     1     -11.513  12.526  69.435  1.00  0.00    -0.327 A  
HETATM   11  C   UNL     1     -11.284  14.668  68.303  1.00  0.00    -0.301 A  
HETATM   12  C   UNL     1     -12.263  13.097  70.449  1.00  0.00    -0.389 A  
HETATM   13  C   UNL     1     -12.530  14.468  70.386  1.00  0.00    -0.407 A  
HETATM   14  C   UNL     1     -12.044  15.247  69.321  1.00  0.00    -0.280 A  
ENDROOT
BRANCH   7  15
HETATM   15  C   UNL     1     -10.874  12.413  65.999  1.00  0.00    -0.308 A  
HETATM   16  C   UNL     1     -12.784  12.627  64.503  1.00  0.00    -0.439 A  
HETATM   17  C   UNL     1     -10.616  12.069  63.607  1.00  0.00    -0.503 A  
HETATM   18  C   UNL     1     -12.239  12.670  65.787  1.00  0.00    -0.427 A  
HETATM   19  C   UNL     1     -10.067  12.113  64.889  1.00  0.00    -0.280 A  
HETATM   20  C   UNL     1     -11.974  12.326  63.413  1.00  0.00    -0.588 A  
ENDBRANCH   7  15
TORSDOF 1
ENDMDL
MODEL       23
REMARK 921   NORMALIZED FREE ENERGY PREDICTED BY IDOCK:   -5.77 KCAL/MOL
REMARK 922        TOTAL FREE ENERGY PREDICTED BY IDOCK:   -6.88 KCAL/MOL
REMARK 923 INTER-LIGAND FREE ENERGY PREDICTED BY IDOCK:   -6.18 KCAL/MOL
REMARK 924 INTRA-LIGAND FREE ENERGY PREDICTED BY IDOCK:   -0.70 KCAL/MOL
REMARK 927      BINDING AFFINITY PREDICTED BY RF-SCORE:    0.00 PKD
ROOT
HETATM    1  C   UNL     1     -10.975  16.340  69.620  1.00  0.00    -0.346 C  
HETATM    2  N   UNL     1     -10.058  16.047  68.532  1.00  0.00    -0.228 NA 
HETATM    3  C   UNL     1     -10.511  16.541  67.225  1.00  0.00    -0.304 C  
HETATM    4  C   UNL     1     -10.829  15.558  66.076  1.00  0.00    -0.301 C  
HETATM    5  C   UNL     1     -10.323  14.194  66.320  1.00  0.00    -0.294 C  
HETATM    6  C   UNL     1      -9.738  13.804  67.459  1.00  0.00    -0.230 C  
HETATM    7  C   UNL     1      -9.361  12.332  67.453  1.00  0.00    -0.183 C  
HETATM    8  C   UNL     1      -9.482  14.700  68.615  1.00  0.00    -0.211 C  
HETATM    9  C   UNL     1      -9.797  11.946  66.055  1.00  0.00    -0.258 A  
HETATM   10  C   UNL     1     -10.367  13.058  65.413  1.00  0.00    -0.313 A  
HETATM   11  C   UNL     1      -9.713  10.714  65.423  1.00  0.00    -0.306 A  
HETATM   12  C   UNL     1     -10.869  12.952  64.127  1.00  0.00    -0.445 A  
HETATM   13  C   UNL     1     -10.795  11.712  63.485  1.00  0.00    -0.497 A  
HETATM   14  C   UNL     1     -10.222  10.602  64.128  1.00  0.00    -0.365 A  
ENDROOT
BRANCH   7  15
HETATM   15  C   UNL     1     -10.058  11.539  68.548  1.00  0.00    -0.211 A  
HETATM   16  C   UNL     1     -10.037   9.803  70.256  1.00  0.00    -0.323 A  
HETATM   17  C   UNL     1     -12.065  11.034  69.822  1.00  0.00    -0.424 A  
HETATM   18  C   UNL     1      -9.381  10.544  69.272  1.00  0.00    -0.177 A  
HETATM   19  C   UNL     1     -11.411  11.777  68.837  1.00  0.00    -0.357 A  
HETATM   20  C   UNL     1     -11.379  10.047  70.531  1.00  0.00    -0.409 A  
ENDBRANCH   7  15
TORSDOF 1
ENDMDL
MODEL       24
REMARK 921   NORMALIZED FREE ENERGY PREDICTED BY IDOCK:   -5.72 KCAL/MOL
REMARK 922        TOTAL FREE ENERGY PREDICTED BY IDOCK:   -6.82 KCAL/MOL
REMARK 923 INTER-LIGAND FREE ENERGY PREDICTED BY IDOCK:   -6.03 KCAL/MOL
REMARK 924 INTRA-LIGAND FREE ENERGY PREDICTED BY IDOCK:   -0.79 KCAL/MOL
REMARK 927      BINDING AFFINITY PREDICTED BY RF-SCORE:    0.00 PKD
ROOT
HETATM    1  C   UNL     1      -9.142  15.141  66.236  1.00  0.00    -0.278 C  
HETATM    2  N   UNL     1     -10.540  14.909  66.560  1.00  0.00    -0.299 NA 
HETATM    3  C   UNL     1     -11.067  15.811  67.593  1.00  0.00    -0.283 C  
HETATM    4  C   UNL     1     -11.552  15.257  68.952  1.00  0.00    -0.365 C  
HETATM    5  C   UNL     1     -11.737  13.794  68.952  1.00  0.00    -0.374 C  
HETATM    6  C   UNL     1     -11.422  12.998  67.922  1.00  0.00    -0.352 C  
HETATM    7  C   UNL     1     -11.670  11.528  68.217  1.00  0.00    -0.371 C  
HETATM    8  C   UNL     1     -10.883  13.484  66.627  1.00  0.00    -0.283 C  
HETATM    9  C   UNL     1     -12.245  11.626  69.614  1.00  0.00    -0.271 A  
HETATM   10  C   UNL     1     -12.266  12.968  70.026  1.00  0.00    -0.306 A  
HETATM   11  C   UNL     1     -12.689  10.609  70.448  1.00  0.00    -0.340 A  
HETATM   12  C   UNL     1     -12.727  13.316  71.284  1.00  0.00    -0.411 A  
HETATM   13  C   UNL     1     -13.169  12.298  72.135  1.00  0.00    -0.466 A  
HETATM   14  C   UNL     1     -13.150  10.955  71.720  1.00  0.00    -0.564 A  
ENDROOT
BRANCH   7  15
HETATM   15  C   UNL     1     -10.404  10.688  68.137  1.00  0.00    -0.203 A  
HETATM   16  C   UNL     1      -9.175   8.776  67.264  1.00  0.00    -0.165 A  
HETATM   17  C   UNL     1      -8.132  10.240  68.872  1.00  0.00    -0.123 A  
HETATM   18  C   UNL     1     -10.332   9.556  67.310  1.00  0.00    -0.319 A  
HETATM   19  C   UNL     1      -9.287  11.023  68.918  1.00  0.00    -0.155 A  
HETATM   20  C   UNL     1      -8.076   9.116  68.045  1.00  0.00    -0.105 A  
ENDBRANCH   7  15
TORSDOF 1
ENDMDL
MODEL       25
REMARK 921   NORMALIZED FREE ENERGY PREDICTED BY IDOCK:   -5.71 KCAL/MOL
REMARK 922        TOTAL FREE ENERGY PREDICTED BY IDOCK:   -6.81 KCAL/MOL
REMARK 923 INTER-LIGAND FREE ENERGY PREDICTED BY IDOCK:   -6.08 KCAL/MOL
REMARK 924 INTRA-LIGAND FREE ENERGY PREDICTED BY IDOCK:   -0.73 KCAL/MOL
REMARK 927      BINDING AFFINITY PREDICTED BY RF-SCORE:    0.00 PKD
ROOT
HETATM    1  C   UNL     1      -7.690  17.774  65.967  1.00  0.00    -0.188 C  
HETATM    2  N   UNL     1      -9.097  17.843  66.326  1.00  0.00    -0.451 NA 
HETATM    3  C   UNL     1      -9.362  18.630  67.538  1.00  0.00    -0.283 C  
HETATM    4  C   UNL     1      -9.960  17.962  68.797  1.00  0.00    -0.377 C  
HETATM    5  C   UNL     1     -10.517  16.621  68.536  1.00  0.00    -0.319 C  
HETATM    6  C   UNL     1     -10.430  15.989  67.359  1.00  0.00    -0.308 C  
HETATM    7  C   UNL     1     -11.047  14.601  67.391  1.00  0.00    -0.331 C  
HETATM    8  C   UNL     1      -9.797  16.567  66.147  1.00  0.00    -0.332 C  
HETATM    9  C   UNL     1     -11.564  14.565  68.814  1.00  0.00    -0.343 A  
HETATM   10  C   UNL     1     -11.232  15.763  69.468  1.00  0.00    -0.317 A  
HETATM   11  C   UNL     1     -12.247  13.551  69.469  1.00  0.00    -0.289 A  
HETATM   12  C   UNL     1     -11.573  15.963  70.795  1.00  0.00    -0.441 A  
HETATM   13  C   UNL     1     -12.255  14.943  71.466  1.00  0.00    -0.402 A  
HETATM   14  C   UNL     1     -12.589  13.747  70.809  1.00  0.00    -0.410 A  
ENDROOT
BRANCH   7  15
HETATM   15  C   UNL     1     -10.044  13.501  67.079  1.00  0.00    -0.244 A  
HETATM   16  C   UNL     1      -9.442  11.433  65.942  1.00  0.00    -0.251 A  
HETATM   17  C   UNL     1      -7.866  12.484  67.436  1.00  0.00    -0.175 A  
HETATM   18  C   UNL     1     -10.360  12.453  66.200  1.00  0.00    -0.271 A  
HETATM   19  C   UNL     1      -8.781  13.505  67.694  1.00  0.00    -0.194 A  
HETATM   20  C   UNL     1      -8.196  11.448  66.560  1.00  0.00    -0.152 A  
ENDBRANCH   7  15
TORSDOF 1
ENDMDL
MODEL       26
REMARK 921   NORMALIZED FREE ENERGY PREDICTED BY IDOCK:   -5.70 KCAL/MOL
REMARK 922        TOTAL FREE ENERGY PREDICTED BY IDOCK:   -6.80 KCAL/MOL
REMARK 923 INTER-LIGAND FREE ENERGY PREDICTED BY IDOCK:   -6.20 KCAL/MOL
REMARK 924 INTRA-LIGAND FREE ENERGY PREDICTED BY IDOCK:   -0.60 KCAL/MOL
REMARK 927      BINDING AFFINITY PREDICTED BY RF-SCORE:    0.00 PKD
ROOT
HETATM    1  C   UNL     1      -8.604   8.339  66.225  1.00  0.00    -0.138 C  
HETATM    2  N   UNL     1      -9.892   9.013  66.213  1.00  0.00    -0.278 NA 
HETATM    3  C   UNL     1      -9.856  10.350  65.605  1.00  0.00    -0.259 C  
HETATM    4  C   UNL     1     -10.173  11.608  66.445  1.00  0.00    -0.256 C  
HETATM    5  C   UNL     1     -10.812  11.299  67.738  1.00  0.00    -0.284 C  
HETATM    6  C   UNL     1     -11.009  10.057  68.199  1.00  0.00    -0.289 C  
HETATM    7  C   UNL     1     -11.641  10.037  69.581  1.00  0.00    -0.156 C  
HETATM    8  C   UNL     1     -10.649   8.824  67.455  1.00  0.00    -0.233 C  
HETATM    9  C   UNL     1     -11.825  11.522  69.817  1.00  0.00    -0.429 A  
HETATM   10  C   UNL     1     -11.321  12.242  68.721  1.00  0.00    -0.337 A  
HETATM   11  C   UNL     1     -12.371  12.169  70.916  1.00  0.00    -0.370 A  
HETATM   12  C   UNL     1     -11.350  13.626  68.710  1.00  0.00    -0.326 A  
HETATM   13  C   UNL     1     -11.892  14.288  69.816  1.00  0.00    -0.380 A  
HETATM   14  C   UNL     1     -12.398  13.565  70.910  1.00  0.00    -0.437 A  
ENDROOT
BRANCH   7  15
HETATM   15  C   UNL     1     -10.764   9.359  70.622  1.00  0.00    -0.353 A  
HETATM   16  C   UNL     1     -10.510   8.075  72.676  1.00  0.00    -0.408 A  
HETATM   17  C   UNL     1      -8.554   8.839  71.489  1.00  0.00    -0.253 A  
HETATM   18  C   UNL     1     -11.324   8.670  71.711  1.00  0.00    -0.393 A  
HETATM   19  C   UNL     1      -9.366   9.435  70.522  1.00  0.00    -0.319 A  
HETATM   20  C   UNL     1      -9.126   8.160  72.566  1.00  0.00    -0.302 A  
ENDBRANCH   7  15
TORSDOF 1
ENDMDL
MODEL       27
REMARK 921   NORMALIZED FREE ENERGY PREDICTED BY IDOCK:   -5.65 KCAL/MOL
REMARK 922        TOTAL FREE ENERGY PREDICTED BY IDOCK:   -6.75 KCAL/MOL
REMARK 923 INTER-LIGAND FREE ENERGY PREDICTED BY IDOCK:   -6.01 KCAL/MOL
REMARK 924 INTRA-LIGAND FREE ENERGY PREDICTED BY IDOCK:   -0.74 KCAL/MOL
REMARK 927      BINDING AFFINITY PREDICTED BY RF-SCORE:    0.00 PKD
ROOT
HETATM    1  C   UNL     1      -5.995  14.288  71.179  1.00  0.00    -0.156 C  
HETATM    2  N   UNL     1      -6.037  14.887  69.856  1.00  0.00    -0.130 NA 
HETATM    3  C   UNL     1      -5.388  16.202  69.778  1.00  0.00    -0.133 C  
HETATM    4  C   UNL     1      -6.206  17.468  69.436  1.00  0.00    -0.250 C  
HETATM    5  C   UNL     1      -7.543  17.167  68.891  1.00  0.00    -0.234 C  
HETATM    6  C   UNL     1      -8.053  15.932  68.794  1.00  0.00    -0.190 C  
HETATM    7  C   UNL     1      -9.469  15.923  68.243  1.00  0.00    -0.201 C  
HETATM    8  C   UNL     1      -7.327  14.698  69.183  1.00  0.00    -0.143 C  
HETATM    9  C   UNL     1      -9.670  17.402  67.986  1.00  0.00    -0.281 A  
HETATM   10  C   UNL     1      -8.526  18.112  68.383  1.00  0.00    -0.311 A  
HETATM   11  C   UNL     1     -10.779  18.054  67.466  1.00  0.00    -0.352 A  
HETATM   12  C   UNL     1      -8.474  19.491  68.272  1.00  0.00    -0.376 A  
HETATM   13  C   UNL     1      -9.589  20.158  67.757  1.00  0.00    -0.508 A  
HETATM   14  C   UNL     1     -10.733  19.446  67.357  1.00  0.00    -0.594 A  
ENDROOT
BRANCH   7  15
HETATM   15  C   UNL     1     -10.477  15.332  69.217  1.00  0.00    -0.258 A  
HETATM   16  C   UNL     1     -12.034  13.571  69.855  1.00  0.00    -0.416 A  
HETATM   17  C   UNL     1     -11.779  15.514  71.261  1.00  0.00    -0.457 A  
HETATM   18  C   UNL     1     -11.090  14.092  68.969  1.00  0.00    -0.292 A  
HETATM   19  C   UNL     1     -10.833  16.037  70.378  1.00  0.00    -0.295 A  
HETATM   20  C   UNL     1     -12.380  14.282  71.000  1.00  0.00    -0.431 A  
ENDBRANCH   7  15
TORSDOF 1
ENDMDL
MODEL       28
REMARK 921   NORMALIZED FREE ENERGY PREDICTED BY IDOCK:   -5.65 KCAL/MOL
REMARK 922        TOTAL FREE ENERGY PREDICTED BY IDOCK:   -6.74 KCAL/MOL
REMARK 923 INTER-LIGAND FREE ENERGY PREDICTED BY IDOCK:   -5.96 KCAL/MOL
REMARK 924 INTRA-LIGAND FREE ENERGY PREDICTED BY IDOCK:   -0.78 KCAL/MOL
REMARK 927      BINDING AFFINITY PREDICTED BY RF-SCORE:    0.00 PKD
ROOT
HETATM    1  C   UNL     1     -10.943   6.639  66.917  1.00  0.00    -0.326 C  
HETATM    2  N   UNL     1      -9.877   6.386  67.873  1.00  0.00    -0.120 NA 
HETATM    3  C   UNL     1      -9.468   4.976  67.945  1.00  0.00    -0.134 C  
HETATM    4  C   UNL     1      -9.659   4.165  69.247  1.00  0.00    -0.256 C  
HETATM    5  C   UNL     1      -9.950   5.008  70.421  1.00  0.00    -0.317 C  
HETATM    6  C   UNL     1     -10.137   6.333  70.365  1.00  0.00    -0.226 C  
HETATM    7  C   UNL     1     -10.472   6.937  71.719  1.00  0.00    -0.224 C  
HETATM    8  C   UNL     1     -10.037   7.138  69.122  1.00  0.00    -0.183 C  
HETATM    9  C   UNL     1     -10.391   5.704  72.594  1.00  0.00    -0.235 A  
HETATM   10  C   UNL     1     -10.091   4.582  71.805  1.00  0.00    -0.254 A  
HETATM   11  C   UNL     1     -10.589   5.591  73.963  1.00  0.00    -0.283 A  
HETATM   12  C   UNL     1      -9.989   3.324  72.373  1.00  0.00    -0.233 A  
HETATM   13  C   UNL     1     -10.194   3.198  73.750  1.00  0.00    -0.208 A  
HETATM   14  C   UNL     1     -10.492   4.323  74.539  1.00  0.00    -0.284 A  
ENDROOT
BRANCH   7  15
HETATM   15  C   UNL     1     -11.834   7.614  71.743  1.00  0.00    -0.324 A  
HETATM   16  C   UNL     1     -13.220   9.589  72.070  1.00  0.00    -0.539 A  
HETATM   17  C   UNL     1     -14.253   7.471  71.559  1.00  0.00    -0.580 A  
HETATM   18  C   UNL     1     -11.963   8.984  72.023  1.00  0.00    -0.433 A  
HETATM   19  C   UNL     1     -12.997   6.863  71.509  1.00  0.00    -0.362 A  
HETATM   20  C   UNL     1     -14.365   8.833  71.839  1.00  0.00    -0.441 A  
ENDBRANCH   7  15
TORSDOF 1
ENDMDL
MODEL       29
REMARK 921   NORMALIZED FREE ENERGY PREDICTED BY IDOCK:   -5.62 KCAL/MOL
REMARK 922        TOTAL FREE ENERGY PREDICTED BY IDOCK:   -6.72 KCAL/MOL
REMARK 923 INTER-LIGAND FREE ENERGY PREDICTED BY IDOCK:   -5.95 KCAL/MOL
REMARK 924 INTRA-LIGAND FREE ENERGY PREDICTED BY IDOCK:   -0.77 KCAL/MOL
REMARK 927      BINDING AFFINITY PREDICTED BY RF-SCORE:    0.00 PKD
ROOT
HETATM    1  C   UNL     1     -10.301   9.600  70.948  1.00  0.00    -0.264 C  
HETATM    2  N   UNL     1     -11.030   9.265  69.736  1.00  0.00    -0.224 NA 
HETATM    3  C   UNL     1     -10.384   8.224  68.925  1.00  0.00    -0.215 C  
HETATM    4  C   UNL     1      -9.871   8.538  67.501  1.00  0.00    -0.231 C  
HETATM    5  C   UNL     1     -10.386   9.812  66.964  1.00  0.00    -0.305 C  
HETATM    6  C   UNL     1     -11.138  10.671  67.664  1.00  0.00    -0.385 C  
HETATM    7  C   UNL     1     -11.483  11.925  66.878  1.00  0.00    -0.390 C  
HETATM    8  C   UNL     1     -11.588  10.440  69.059  1.00  0.00    -0.150 C  
HETATM    9  C   UNL     1     -10.825  11.604  65.552  1.00  0.00    -0.334 A  
HETATM   10  C   UNL     1     -10.179  10.359  65.633  1.00  0.00    -0.308 A  
HETATM   11  C   UNL     1     -10.787  12.362  64.391  1.00  0.00    -0.375 A  
HETATM   12  C   UNL     1      -9.479   9.854  64.551  1.00  0.00    -0.328 A  
HETATM   13  C   UNL     1      -9.429  10.614  63.378  1.00  0.00    -0.352 A  
HETATM   14  C   UNL     1     -10.078  11.858  63.299  1.00  0.00    -0.427 A  
ENDROOT
BRANCH   7  15
HETATM   15  C   UNL     1     -10.955  13.194  67.529  1.00  0.00    -0.282 A  
HETATM   16  C   UNL     1     -11.295  15.464  68.343  1.00  0.00    -0.345 A  
HETATM   17  C   UNL     1      -9.101  14.468  68.448  1.00  0.00    -0.191 A  
HETATM   18  C   UNL     1     -11.795  14.293  67.771  1.00  0.00    -0.414 A  
HETATM   19  C   UNL     1      -9.599  13.295  67.877  1.00  0.00    -0.217 A  
HETATM   20  C   UNL     1      -9.949  15.552  68.681  1.00  0.00    -0.208 A  
ENDBRANCH   7  15
TORSDOF 1
ENDMDL
MODEL       30
REMARK 921   NORMALIZED FREE ENERGY PREDICTED BY IDOCK:   -5.58 KCAL/MOL
REMARK 922        TOTAL FREE ENERGY PREDICTED BY IDOCK:   -6.68 KCAL/MOL
REMARK 923 INTER-LIGAND FREE ENERGY PREDICTED BY IDOCK:   -6.02 KCAL/MOL
REMARK 924 INTRA-LIGAND FREE ENERGY PREDICTED BY IDOCK:   -0.66 KCAL/MOL
REMARK 927      BINDING AFFINITY PREDICTED BY RF-SCORE:    0.00 PKD
ROOT
HETATM    1  C   UNL     1      -7.527   8.355  67.874  1.00  0.00    -0.098 C  
HETATM    2  N   UNL     1      -8.893   8.774  67.607  1.00  0.00    -0.135 NA 
HETATM    3  C   UNL     1      -9.006  10.159  67.131  1.00  0.00    -0.135 C  
HETATM    4  C   UNL     1      -9.756  11.222  67.966  1.00  0.00    -0.185 C  
HETATM    5  C   UNL     1     -10.583  10.640  69.040  1.00  0.00    -0.249 C  
HETATM    6  C   UNL     1     -10.611   9.336  69.342  1.00  0.00    -0.234 C  
HETATM    7  C   UNL     1     -11.512   9.027  70.527  1.00  0.00    -0.248 C  
HETATM    8  C   UNL     1      -9.847   8.294  68.612  1.00  0.00    -0.176 C  
HETATM    9  C   UNL     1     -12.051  10.410  70.827  1.00  0.00    -0.463 A  
HETATM   10  C   UNL     1     -11.482  11.342  69.944  1.00  0.00    -0.373 A  
HETATM   11  C   UNL     1     -12.948  10.802  71.810  1.00  0.00    -0.568 A  
HETATM   12  C   UNL     1     -11.797  12.687  70.034  1.00  0.00    -0.358 A  
HETATM   13  C   UNL     1     -12.695  13.093  71.026  1.00  0.00    -0.361 A  
HETATM   14  C   UNL     1     -13.265  12.159  71.908  1.00  0.00    -0.474 A  
ENDROOT
BRANCH   7  15
HETATM   15  C   UNL     1     -10.762   8.399  71.691  1.00  0.00    -0.333 A  
HETATM   16  C   UNL     1     -10.669   6.862  73.578  1.00  0.00    -0.342 A  
HETATM   17  C   UNL     1      -8.775   8.270  73.084  1.00  0.00    -0.291 A  
HETATM   18  C   UNL     1     -11.356   7.412  72.495  1.00  0.00    -0.358 A  
HETATM   19  C   UNL     1      -9.458   8.821  71.999  1.00  0.00    -0.336 A  
HETATM   20  C   UNL     1      -9.379   7.291  73.874  1.00  0.00    -0.304 A  
ENDBRANCH   7  15
TORSDOF 1
ENDMDL
MODEL       31
REMARK 921   NORMALIZED FREE ENERGY PREDICTED BY IDOCK:   -5.55 KCAL/MOL
REMARK 922        TOTAL FREE ENERGY PREDICTED BY IDOCK:   -6.65 KCAL/MOL
REMARK 923 INTER-LIGAND FREE ENERGY PREDICTED BY IDOCK:   -6.12 KCAL/MOL
REMARK 924 INTRA-LIGAND FREE ENERGY PREDICTED BY IDOCK:   -0.53 KCAL/MOL
REMARK 927      BINDING AFFINITY PREDICTED BY RF-SCORE:    0.00 PKD
ROOT
HETATM    1  C   UNL     1      -9.984   7.715  67.233  1.00  0.00    -0.208 C  
HETATM    2  N   UNL     1      -9.463   8.733  68.132  1.00  0.00    -0.139 NA 
HETATM    3  C   UNL     1     -10.038   8.681  69.483  1.00  0.00    -0.203 C  
HETATM    4  C   UNL     1     -10.880   9.856  70.028  1.00  0.00    -0.339 C  
HETATM    5  C   UNL     1     -10.750  11.087  69.225  1.00  0.00    -0.263 C  
HETATM    6  C   UNL     1     -10.060  11.166  68.080  1.00  0.00    -0.191 C  
HETATM    7  C   UNL     1     -10.139  12.542  67.440  1.00  0.00    -0.211 C  
HETATM    8  C   UNL     1      -9.300  10.039  67.485  1.00  0.00    -0.144 C  
HETATM    9  C   UNL     1     -10.974  13.273  68.470  1.00  0.00    -0.291 A  
HETATM   10  C   UNL     1     -11.327  12.393  69.506  1.00  0.00    -0.250 A  
HETATM   11  C   UNL     1     -11.397  14.595  68.473  1.00  0.00    -0.305 A  
HETATM   12  C   UNL     1     -12.116  12.819  70.560  1.00  0.00    -0.369 A  
HETATM   13  C   UNL     1     -12.554  14.147  70.567  1.00  0.00    -0.410 A  
HETATM   14  C   UNL     1     -12.197  15.028  69.532  1.00  0.00    -0.267 A  
ENDROOT
BRANCH   7  15
HETATM   15  C   UNL     1     -10.768  12.515  66.055  1.00  0.00    -0.292 A  
HETATM   16  C   UNL     1     -10.564  12.399  63.631  1.00  0.00    -0.481 A  
HETATM   17  C   UNL     1     -12.741  12.640  64.642  1.00  0.00    -0.458 A  
HETATM   18  C   UNL     1      -9.980  12.395  64.899  1.00  0.00    -0.207 A  
HETATM   19  C   UNL     1     -12.159  12.635  65.911  1.00  0.00    -0.459 A  
HETATM   20  C   UNL     1     -11.944  12.522  63.502  1.00  0.00    -0.629 A  
ENDBRANCH   7  15
TORSDOF 1
ENDMDL
MODEL       32
REMARK 921   NORMALIZED FREE ENERGY PREDICTED BY IDOCK:   -5.55 KCAL/MOL
REMARK 922        TOTAL FREE ENERGY PREDICTED BY IDOCK:   -6.64 KCAL/MOL
REMARK 923 INTER-LIGAND FREE ENERGY PREDICTED BY IDOCK:   -6.11 KCAL/MOL
REMARK 924 INTRA-LIGAND FREE ENERGY PREDICTED BY IDOCK:   -0.54 KCAL/MOL
REMARK 927      BINDING AFFINITY PREDICTED BY RF-SCORE:    0.00 PKD
ROOT
HETATM    1  C   UNL     1     -11.830   9.095  71.341  1.00  0.00    -0.345 C  
HETATM    2  N   UNL     1     -11.103  10.198  70.734  1.00  0.00    -0.330 NA 
HETATM    3  C   UNL     1     -11.942  11.366  70.433  1.00  0.00    -0.374 C  
HETATM    4  C   UNL     1     -12.153  11.832  68.975  1.00  0.00    -0.276 C  
HETATM    5  C   UNL     1     -11.200  11.225  68.026  1.00  0.00    -0.351 C  
HETATM    6  C   UNL     1     -10.306  10.285  68.359  1.00  0.00    -0.202 C  
HETATM    7  C   UNL     1      -9.489   9.804  67.171  1.00  0.00    -0.189 C  
HETATM    8  C   UNL     1     -10.124   9.757  69.734  1.00  0.00    -0.239 C  
HETATM    9  C   UNL     1     -10.049  10.691  66.079  1.00  0.00    -0.308 A  
HETATM   10  C   UNL     1     -11.060  11.511  66.607  1.00  0.00    -0.355 A  
HETATM   11  C   UNL     1      -9.703  10.745  64.736  1.00  0.00    -0.338 A  
HETATM   12  C   UNL     1     -11.747  12.398  65.796  1.00  0.00    -0.470 A  
HETATM   13  C   UNL     1     -11.411  12.454  64.439  1.00  0.00    -0.408 A  
HETATM   14  C   UNL     1     -10.398  11.634  63.914  1.00  0.00    -0.417 A  
ENDROOT
BRANCH   7  15
HETATM   15  C   UNL     1      -9.663   8.318  66.898  1.00  0.00    -0.291 A  
HETATM   16  C   UNL     1     -10.973   6.270  67.043  1.00  0.00    -0.442 A  
HETATM   17  C   UNL     1      -8.773   6.220  66.055  1.00  0.00    -0.155 A  
HETATM   18  C   UNL     1     -10.834   7.639  67.274  1.00  0.00    -0.263 A  
HETATM   19  C   UNL     1      -8.632   7.590  66.283  1.00  0.00    -0.153 A  
HETATM   20  C   UNL     1      -9.943   5.559  66.435  1.00  0.00    -0.203 A  
ENDBRANCH   7  15
TORSDOF 1
ENDMDL
MODEL       33
REMARK 921   NORMALIZED FREE ENERGY PREDICTED BY IDOCK:   -5.52 KCAL/MOL
REMARK 922        TOTAL FREE ENERGY PREDICTED BY IDOCK:   -6.61 KCAL/MOL
REMARK 923 INTER-LIGAND FREE ENERGY PREDICTED BY IDOCK:   -5.86 KCAL/MOL
REMARK 924 INTRA-LIGAND FREE ENERGY PREDICTED BY IDOCK:   -0.74 KCAL/MOL
REMARK 927      BINDING AFFINITY PREDICTED BY RF-SCORE:    0.00 PKD
ROOT
HETATM    1  C   UNL     1      -7.355   6.473  68.831  1.00  0.00    -0.093 C  
HETATM    2  N   UNL     1      -8.640   6.966  68.363  1.00  0.00    -0.126 NA 
HETATM    3  C   UNL     1      -8.588   8.328  67.813  1.00  0.00    -0.131 C  
HETATM    4  C   UNL     1      -9.362   9.482  68.489  1.00  0.00    -0.138 C  
HETATM    5  C   UNL     1     -10.363   9.017  69.468  1.00  0.00    -0.211 C  
HETATM    6  C   UNL     1     -10.526   7.736  69.823  1.00  0.00    -0.233 C  
HETATM    7  C   UNL     1     -11.595   7.553  70.887  1.00  0.00    -0.309 C  
HETATM    8  C   UNL     1      -9.750   6.607  69.251  1.00  0.00    -0.146 C  
HETATM    9  C   UNL     1     -12.066   8.983  71.048  1.00  0.00    -0.304 A  
HETATM   10  C   UNL     1     -11.320   9.825  70.208  1.00  0.00    -0.333 A  
HETATM   11  C   UNL     1     -13.054   9.487  71.882  1.00  0.00    -0.517 A  
HETATM   12  C   UNL     1     -11.545  11.191  70.193  1.00  0.00    -0.410 A  
HETATM   13  C   UNL     1     -12.533  11.710  71.036  1.00  0.00    -0.436 A  
HETATM   14  C   UNL     1     -13.281  10.865  71.874  1.00  0.00    -0.508 A  
ENDROOT
BRANCH   7  15
HETATM   15  C   UNL     1     -11.053   6.942  72.170  1.00  0.00    -0.277 A  
HETATM   16  C   UNL     1      -9.692   7.090  74.184  1.00  0.00    -0.308 A  
HETATM   17  C   UNL     1     -10.856   5.041  73.671  1.00  0.00    -0.369 A  
HETATM   18  C   UNL     1     -10.207   7.669  73.023  1.00  0.00    -0.379 A  
HETATM   19  C   UNL     1     -11.373   5.618  72.510  1.00  0.00    -0.349 A  
HETATM   20  C   UNL     1     -10.015   5.776  74.508  1.00  0.00    -0.289 A  
ENDBRANCH   7  15
TORSDOF 1
ENDMDL
MODEL       34
REMARK 921   NORMALIZED FREE ENERGY PREDICTED BY IDOCK:   -5.46 KCAL/MOL
REMARK 922        TOTAL FREE ENERGY PREDICTED BY IDOCK:   -6.54 KCAL/MOL
REMARK 923 INTER-LIGAND FREE ENERGY PREDICTED BY IDOCK:   -5.76 KCAL/MOL
REMARK 924 INTRA-LIGAND FREE ENERGY PREDICTED BY IDOCK:   -0.78 KCAL/MOL
REMARK 927      BINDING AFFINITY PREDICTED BY RF-SCORE:    0.00 PKD
ROOT
HETATM    1  C   UNL     1     -10.779  20.043  65.627  1.00  0.00    -0.216 C  
HETATM    2  N   UNL     1     -10.402  19.903  67.024  1.00  0.00    -0.451 NA 
HETATM    3  C   UNL     1      -9.074  20.448  67.338  1.00  0.00    -0.358 C  
HETATM    4  C   UNL     1      -7.938  19.524  67.831  1.00  0.00    -0.336 C  
HETATM    5  C   UNL     1      -8.413  18.193  68.255  1.00  0.00    -0.294 C  
HETATM    6  C   UNL     1      -9.680  17.775  68.134  1.00  0.00    -0.313 C  
HETATM    7  C   UNL     1      -9.874  16.343  68.604  1.00  0.00    -0.234 C  
HETATM    8  C   UNL     1     -10.784  18.607  67.594  1.00  0.00    -0.376 C  
HETATM    9  C   UNL     1      -8.472  16.021  69.078  1.00  0.00    -0.244 A  
HETATM   10  C   UNL     1      -7.631  17.123  68.854  1.00  0.00    -0.234 A  
HETATM   11  C   UNL     1      -7.988  14.847  69.637  1.00  0.00    -0.010 A  
HETATM   12  C   UNL     1      -6.287  17.066  69.181  1.00  0.00    -0.211 A  
HETATM   13  C   UNL     1      -5.788  15.884  69.738  1.00  0.00    -0.154 A  
HETATM   14  C   UNL     1      -6.632  14.783  69.964  1.00  0.00    -0.168 A  
ENDROOT
BRANCH   7  15
HETATM   15  C   UNL     1     -10.371  15.421  67.502  1.00  0.00    -0.264 A  
HETATM   16  C   UNL     1     -10.156  14.468  65.271  1.00  0.00    -0.389 A  
HETATM   17  C   UNL     1     -12.037  13.868  66.655  1.00  0.00    -0.485 A  
HETATM   18  C   UNL     1      -9.676  15.296  66.287  1.00  0.00    -0.325 A  
HETATM   19  C   UNL     1     -11.559  14.694  67.674  1.00  0.00    -0.383 A  
HETATM   20  C   UNL     1     -11.336  13.755  65.454  1.00  0.00    -0.314 A  
ENDBRANCH   7  15
TORSDOF 1
ENDMDL
MODEL       35
REMARK 921   NORMALIZED FREE ENERGY PREDICTED BY IDOCK:   -5.44 KCAL/MOL
REMARK 922        TOTAL FREE ENERGY PREDICTED BY IDOCK:   -6.52 KCAL/MOL
REMARK 923 INTER-LIGAND FREE ENERGY PREDICTED BY IDOCK:   -5.73 KCAL/MOL
REMARK 924 INTRA-LIGAND FREE ENERGY PREDICTED BY IDOCK:   -0.79 KCAL/MOL
REMARK 927      BINDING AFFINITY PREDICTED BY RF-SCORE:    0.00 PKD
ROOT
HETATM    1  C   UNL     1     -12.186  12.162  63.731  1.00  0.00    -0.531 C  
HETATM    2  N   UNL     1     -12.662  13.377  64.370  1.00  0.00    -0.662 NA 
HETATM    3  C   UNL     1     -12.099  14.608  63.800  1.00  0.00     0.141 C  
HETATM    4  C   UNL     1     -11.204  15.536  64.652  1.00  0.00    -0.381 C  
HETATM    5  C   UNL     1     -11.271  15.243  66.097  1.00  0.00    -0.225 C  
HETATM    6  C   UNL     1     -11.951  14.215  66.623  1.00  0.00    -0.470 C  
HETATM    7  C   UNL     1     -11.803  14.125  68.132  1.00  0.00    -0.387 C  
HETATM    8  C   UNL     1     -12.760  13.257  65.829  1.00  0.00    -0.231 C  
HETATM    9  C   UNL     1     -10.940  15.341  68.394  1.00  0.00    -0.271 A  
HETATM   10  C   UNL     1     -10.635  15.976  67.180  1.00  0.00    -0.305 A  
HETATM   11  C   UNL     1     -10.455  15.823  69.602  1.00  0.00    -0.289 A  
HETATM   12  C   UNL     1      -9.833  17.104  67.152  1.00  0.00    -0.271 A  
HETATM   13  C   UNL     1      -9.333  17.593  68.363  1.00  0.00    -0.289 A  
HETATM   14  C   UNL     1      -9.642  16.958  69.578  1.00  0.00     0.157 A  
ENDROOT
BRANCH   7  15
HETATM   15  C   UNL     1     -11.169  12.819  68.586  1.00  0.00    -0.322 A  
HETATM   16  C   UNL     1      -9.322  11.231  68.558  1.00  0.00    -0.182 A  
HETATM   17  C   UNL     1     -11.312  10.734  69.827  1.00  0.00    -0.372 A  
HETATM   18  C   UNL     1      -9.884  12.444  68.158  1.00  0.00    -0.213 A  
HETATM   19  C   UNL     1     -11.877  11.948  69.430  1.00  0.00    -0.389 A  
HETATM   20  C   UNL     1     -10.036  10.376  69.392  1.00  0.00    -0.240 A  
ENDBRANCH   7  15
TORSDOF 1
ENDMDL
MODEL       36
REMARK 921   NORMALIZED FREE ENERGY PREDICTED BY IDOCK:   -5.43 KCAL/MOL
REMARK 922        TOTAL FREE ENERGY PREDICTED BY IDOCK:   -6.52 KCAL/MOL
REMARK 923 INTER-LIGAND FREE ENERGY PREDICTED BY IDOCK:   -6.26 KCAL/MOL
REMARK 924 INTRA-LIGAND FREE ENERGY PREDICTED BY IDOCK:   -0.26 KCAL/MOL
REMARK 927      BINDING AFFINITY PREDICTED BY RF-SCORE:    0.00 PKD
ROOT
HETATM    1  C   UNL     1      -8.825   8.611  65.754  1.00  0.00    -0.193 C  
HETATM    2  N   UNL     1      -8.602   8.903  67.161  1.00  0.00    -0.110 NA 
HETATM    3  C   UNL     1      -9.041   7.833  68.066  1.00  0.00    -0.128 C  
HETATM    4  C   UNL     1     -10.179   8.077  69.082  1.00  0.00    -0.221 C  
HETATM    5  C   UNL     1     -10.503   9.505  69.263  1.00  0.00    -0.226 C  
HETATM    6  C   UNL     1      -9.950  10.495  68.550  1.00  0.00    -0.181 C  
HETATM    7  C   UNL     1     -10.507  11.861  68.912  1.00  0.00    -0.164 C  
HETATM    8  C   UNL     1      -8.908  10.294  67.512  1.00  0.00    -0.128 C  
HETATM    9  C   UNL     1     -11.464  11.479  70.022  1.00  0.00    -0.304 A  
HETATM   10  C   UNL     1     -11.449  10.086  70.202  1.00  0.00    -0.344 A  
HETATM   11  C   UNL     1     -12.288  12.296  70.784  1.00  0.00    -0.383 A  
HETATM   12  C   UNL     1     -12.263   9.486  71.147  1.00  0.00    -0.421 A  
HETATM   13  C   UNL     1     -13.102  10.300  71.914  1.00  0.00    -0.568 A  
HETATM   14  C   UNL     1     -13.115  11.693  71.734  1.00  0.00    -0.487 A  
ENDROOT
BRANCH   7  15
HETATM   15  C   UNL     1     -11.182  12.554  67.738  1.00  0.00    -0.318 A  
HETATM   16  C   UNL     1     -12.032  12.523  65.456  1.00  0.00    -0.500 A  
HETATM   17  C   UNL     1     -12.131  14.559  66.746  1.00  0.00    -0.313 A  
HETATM   18  C   UNL     1     -11.438  11.871  66.537  1.00  0.00    -0.381 A  
HETATM   19  C   UNL     1     -11.538  13.909  67.830  1.00  0.00    -0.381 A  
HETATM   20  C   UNL     1     -12.378  13.867  65.559  1.00  0.00    -0.506 A  
ENDBRANCH   7  15
TORSDOF 1
ENDMDL
MODEL       37
REMARK 921   NORMALIZED FREE ENERGY PREDICTED BY IDOCK:   -5.43 KCAL/MOL
REMARK 922        TOTAL FREE ENERGY PREDICTED BY IDOCK:   -6.51 KCAL/MOL
REMARK 923 INTER-LIGAND FREE ENERGY PREDICTED BY IDOCK:   -5.82 KCAL/MOL
REMARK 924 INTRA-LIGAND FREE ENERGY PREDICTED BY IDOCK:   -0.69 KCAL/MOL
REMARK 927      BINDING AFFINITY PREDICTED BY RF-SCORE:    0.00 PKD
ROOT
HETATM    1  C   UNL     1     -12.252  14.960  64.220  1.00  0.00    -0.344 C  
HETATM    2  N   UNL     1     -11.098  14.077  64.252  1.00  0.00    -0.269 NA 
HETATM    3  C   UNL     1     -11.342  12.760  63.649  1.00  0.00    -0.453 C  
HETATM    4  C   UNL     1     -11.269  11.474  64.504  1.00  0.00    -0.301 C  
HETATM    5  C   UNL     1     -10.627  11.683  65.815  1.00  0.00    -0.320 C  
HETATM    6  C   UNL     1     -10.236  12.878  66.277  1.00  0.00    -0.285 C  
HETATM    7  C   UNL     1      -9.652  12.804  67.678  1.00  0.00    -0.192 C  
HETATM    8  C   UNL     1     -10.358  14.146  65.517  1.00  0.00    -0.351 C  
HETATM    9  C   UNL     1      -9.730  11.312  67.927  1.00  0.00    -0.185 A  
HETATM   10  C   UNL     1     -10.315  10.677  66.819  1.00  0.00    -0.299 A  
HETATM   11  C   UNL     1      -9.336  10.592  69.045  1.00  0.00    -0.205 A  
HETATM   12  C   UNL     1     -10.521   9.308  66.814  1.00  0.00    -0.263 A  
HETATM   13  C   UNL     1     -10.134   8.575  67.940  1.00  0.00    -0.258 A  
HETATM   14  C   UNL     1      -9.546   9.211  69.047  1.00  0.00    -0.156 A  
ENDROOT
BRANCH   7  15
HETATM   15  C   UNL     1     -10.433  13.631  68.688  1.00  0.00    -0.242 A  
HETATM   16  C   UNL     1     -10.656  15.600  70.103  1.00  0.00    -0.348 A  
HETATM   17  C   UNL     1     -12.363  13.897  70.141  1.00  0.00    -0.400 A  
HETATM   18  C   UNL     1      -9.945  14.862  69.156  1.00  0.00    -0.213 A  
HETATM   19  C   UNL     1     -11.655  13.157  69.192  1.00  0.00    -0.368 A  
HETATM   20  C   UNL     1     -11.864  15.118  70.596  1.00  0.00    -0.371 A  
ENDBRANCH   7  15
TORSDOF 1
ENDMDL
MODEL       38
REMARK 921   NORMALIZED FREE ENERGY PREDICTED BY IDOCK:   -5.41 KCAL/MOL
REMARK 922        TOTAL FREE ENERGY PREDICTED BY IDOCK:   -6.50 KCAL/MOL
REMARK 923 INTER-LIGAND FREE ENERGY PREDICTED BY IDOCK:   -5.76 KCAL/MOL
REMARK 924 INTRA-LIGAND FREE ENERGY PREDICTED BY IDOCK:   -0.73 KCAL/MOL
REMARK 927      BINDING AFFINITY PREDICTED BY RF-SCORE:    0.00 PKD
ROOT
HETATM    1  C   UNL     1     -12.614  14.207  65.862  1.00  0.00    -0.417 C  
HETATM    2  N   UNL     1     -11.262  13.972  65.383  1.00  0.00    -0.311 NA 
HETATM    3  C   UNL     1     -10.633  12.770  65.948  1.00  0.00    -0.274 C  
HETATM    4  C   UNL     1      -9.376  12.882  66.840  1.00  0.00    -0.240 C  
HETATM    5  C   UNL     1      -8.728  14.205  66.769  1.00  0.00    -0.148 C  
HETATM    6  C   UNL     1      -9.223  15.247  66.089  1.00  0.00    -0.345 C  
HETATM    7  C   UNL     1      -8.375  16.500  66.233  1.00  0.00    -0.364 C  
HETATM    8  C   UNL     1     -10.468  15.201  65.282  1.00  0.00    -0.409 C  
HETATM    9  C   UNL     1      -7.249  15.968  67.095  1.00  0.00    -0.257 A  
HETATM   10  C   UNL     1      -7.485  14.618  67.403  1.00  0.00    -0.212 A  
HETATM   11  C   UNL     1      -6.130  16.632  67.577  1.00  0.00    -0.180 A  
HETATM   12  C   UNL     1      -6.606  13.910  68.204  1.00  0.00    -0.127 A  
HETATM   13  C   UNL     1      -5.480  14.573  68.701  1.00  0.00    -0.094 A  
HETATM   14  C   UNL     1      -5.243  15.923  68.390  1.00  0.00    -0.103 A  
ENDROOT
BRANCH   7  15
HETATM   15  C   UNL     1      -9.132  17.657  66.867  1.00  0.00    -0.262 A  
HETATM   16  C   UNL     1     -10.173  19.853  66.715  1.00  0.00    -0.603 A  
HETATM   17  C   UNL     1     -10.122  18.694  68.829  1.00  0.00    -0.398 A  
HETATM   18  C   UNL     1      -9.503  18.785  66.117  1.00  0.00    -0.199 A  
HETATM   19  C   UNL     1      -9.453  17.624  68.234  1.00  0.00    -0.295 A  
HETATM   20  C   UNL     1     -10.482  19.809  68.070  1.00  0.00    -0.523 A  
ENDBRANCH   7  15
TORSDOF 1
ENDMDL
MODEL       39
REMARK 921   NORMALIZED FREE ENERGY PREDICTED BY IDOCK:   -5.39 KCAL/MOL
REMARK 922        TOTAL FREE ENERGY PREDICTED BY IDOCK:   -6.47 KCAL/MOL
REMARK 923 INTER-LIGAND FREE ENERGY PREDICTED BY IDOCK:   -5.81 KCAL/MOL
REMARK 924 INTRA-LIGAND FREE ENERGY PREDICTED BY IDOCK:   -0.66 KCAL/MOL
REMARK 927      BINDING AFFINITY PREDICTED BY RF-SCORE:    0.00 PKD
ROOT
HETATM    1  C   UNL     1     -10.510  19.718  67.496  1.00  0.00    -0.431 C  
HETATM    2  N   UNL     1      -9.946  18.847  68.512  1.00  0.00    -0.389 NA 
HETATM    3  C   UNL     1      -8.499  19.017  68.703  1.00  0.00    -0.359 C  
HETATM    4  C   UNL     1      -7.521  17.860  68.394  1.00  0.00    -0.272 C  
HETATM    5  C   UNL     1      -8.192  16.556  68.237  1.00  0.00    -0.185 C  
HETATM    6  C   UNL     1      -9.521  16.390  68.254  1.00  0.00    -0.217 C  
HETATM    7  C   UNL     1      -9.936  14.947  68.018  1.00  0.00    -0.220 C  
HETATM    8  C   UNL     1     -10.496  17.488  68.472  1.00  0.00    -0.361 C  
HETATM    9  C   UNL     1      -8.577  14.288  67.913  1.00  0.00    -0.171 A  
HETATM   10  C   UNL     1      -7.569  15.258  68.037  1.00  0.00    -0.133 A  
HETATM   11  C   UNL     1      -8.270  12.951  67.704  1.00  0.00    -0.177 A  
HETATM   12  C   UNL     1      -6.233  14.906  67.948  1.00  0.00    -0.175 A  
HETATM   13  C   UNL     1      -5.913  13.562  67.729  1.00  0.00    -0.135 A  
HETATM   14  C   UNL     1      -6.923  12.592  67.608  1.00  0.00    -0.140 A  
ENDROOT
BRANCH   7  15
HETATM   15  C   UNL     1     -10.795  14.775  66.775  1.00  0.00    -0.316 A  
HETATM   16  C   UNL     1     -12.615  13.679  65.585  1.00  0.00    -0.531 A  
HETATM   17  C   UNL     1     -11.291  15.357  64.468  1.00  0.00    -0.321 A  
HETATM   18  C   UNL     1     -11.850  13.849  66.740  1.00  0.00    -0.452 A  
HETATM   19  C   UNL     1     -10.525  15.531  65.623  1.00  0.00    -0.393 A  
HETATM   20  C   UNL     1     -12.335  14.432  64.449  1.00  0.00    -0.428 A  
ENDBRANCH   7  15
TORSDOF 1
ENDMDL
MODEL       40
REMARK 921   NORMALIZED FREE ENERGY PREDICTED BY IDOCK:   -5.38 KCAL/MOL
REMARK 922        TOTAL FREE ENERGY PREDICTED BY IDOCK:   -6.46 KCAL/MOL
REMARK 923 INTER-LIGAND FREE ENERGY PREDICTED BY IDOCK:   -5.71 KCAL/MOL
REMARK 924 INTRA-LIGAND FREE ENERGY PREDICTED BY IDOCK:   -0.75 KCAL/MOL
REMARK 927      BINDING AFFINITY PREDICTED BY RF-SCORE:    0.00 PKD
ROOT
HETATM    1  C   UNL     1     -12.622   7.409  71.760  1.00  0.00    -0.335 C  
HETATM    2  N   UNL     1     -11.981   8.694  71.990  1.00  0.00    -0.346 NA 
HETATM    3  C   UNL     1     -12.921   9.819  72.078  1.00  0.00    -0.423 C  
HETATM    4  C   UNL     1     -12.888  10.959  71.035  1.00  0.00    -0.472 C  
HETATM    5  C   UNL     1     -11.663  10.961  70.213  1.00  0.00    -0.437 C  
HETATM    6  C   UNL     1     -10.715  10.017  70.279  1.00  0.00    -0.367 C  
HETATM    7  C   UNL     1      -9.590  10.244  69.282  1.00  0.00    -0.239 C  
HETATM    8  C   UNL     1     -10.748   8.865  71.214  1.00  0.00    -0.287 C  
HETATM    9  C   UNL     1     -10.043  11.545  68.653  1.00  0.00    -0.214 A  
HETATM   10  C   UNL     1     -11.269  11.940  69.212  1.00  0.00    -0.304 A  
HETATM   11  C   UNL     1      -9.430  12.293  67.658  1.00  0.00    -0.188 A  
HETATM   12  C   UNL     1     -11.906  13.091  68.781  1.00  0.00    -0.355 A  
HETATM   13  C   UNL     1     -11.300  13.848  67.774  1.00  0.00    -0.335 A  
HETATM   14  C   UNL     1     -10.072  13.453  67.217  1.00  0.00    -0.238 A  
ENDROOT
BRANCH   7  15
HETATM   15  C   UNL     1      -9.444   9.104  68.286  1.00  0.00    -0.152 A  
HETATM   16  C   UNL     1     -10.415   7.523  66.708  1.00  0.00    -0.319 A  
HETATM   17  C   UNL     1      -8.048   7.461  67.165  1.00  0.00    -0.114 A  
HETATM   18  C   UNL     1     -10.556   8.588  67.600  1.00  0.00    -0.268 A  
HETATM   19  C   UNL     1      -8.185   8.527  68.056  1.00  0.00    -0.120 A  
HETATM   20  C   UNL     1      -9.163   6.959  66.491  1.00  0.00    -0.195 A  
ENDBRANCH   7  15
TORSDOF 1
ENDMDL
MODEL       41
REMARK 921   NORMALIZED FREE ENERGY PREDICTED BY IDOCK:   -5.36 KCAL/MOL
REMARK 922        TOTAL FREE ENERGY PREDICTED BY IDOCK:   -6.44 KCAL/MOL
REMARK 923 INTER-LIGAND FREE ENERGY PREDICTED BY IDOCK:   -5.66 KCAL/MOL
REMARK 924 INTRA-LIGAND FREE ENERGY PREDICTED BY IDOCK:   -0.78 KCAL/MOL
REMARK 927      BINDING AFFINITY PREDICTED BY RF-SCORE:    0.00 PKD
ROOT
HETATM    1  C   UNL     1     -10.742  14.969  65.056  1.00  0.00    -0.427 C  
HETATM    2  N   UNL     1     -11.729  14.054  65.605  1.00  0.00    -0.342 NA 
HETATM    3  C   UNL     1     -12.257  14.466  66.913  1.00  0.00    -0.267 C  
HETATM    4  C   UNL     1     -12.017  13.599  68.170  1.00  0.00    -0.390 C  
HETATM    5  C   UNL     1     -11.537  12.240  67.856  1.00  0.00    -0.416 C  
HETATM    6  C   UNL     1     -11.236  11.817  66.622  1.00  0.00    -0.383 C  
HETATM    7  C   UNL     1     -10.718  10.388  66.600  1.00  0.00    -0.198 C  
HETATM    8  C   UNL     1     -11.381  12.645  65.399  1.00  0.00    -0.313 C  
HETATM    9  C   UNL     1     -10.826  10.038  68.069  1.00  0.00    -0.311 A  
HETATM   10  C   UNL     1     -11.303  11.147  68.787  1.00  0.00    -0.342 A  
HETATM   11  C   UNL     1     -10.509   8.848  68.708  1.00  0.00    -0.223 A  
HETATM   12  C   UNL     1     -11.465  11.085  70.161  1.00  0.00    -0.383 A  
HETATM   13  C   UNL     1     -11.141   9.892  70.814  1.00  0.00    -0.417 A  
HETATM   14  C   UNL     1     -10.666   8.782  70.094  1.00  0.00    -0.239 A  
ENDROOT
BRANCH   7  15
HETATM   15  C   UNL     1      -9.303  10.282  66.052  1.00  0.00    -0.224 A  
HETATM   16  C   UNL     1      -7.719   9.427  64.411  1.00  0.00    -0.119 A  
HETATM   17  C   UNL     1      -6.934  10.790  66.239  1.00  0.00    -0.134 A  
HETATM   18  C   UNL     1      -9.025   9.541  64.891  1.00  0.00    -0.264 A  
HETATM   19  C   UNL     1      -8.239  10.907  66.721  1.00  0.00    -0.140 A  
HETATM   20  C   UNL     1      -6.674  10.049  65.085  1.00  0.00    -0.126 A  
ENDBRANCH   7  15
TORSDOF 1
ENDMDL
MODEL       42
REMARK 921   NORMALIZED FREE ENERGY PREDICTED BY IDOCK:   -5.30 KCAL/MOL
REMARK 922        TOTAL FREE ENERGY PREDICTED BY IDOCK:   -6.38 KCAL/MOL
REMARK 923 INTER-LIGAND FREE ENERGY PREDICTED BY IDOCK:   -5.66 KCAL/MOL
REMARK 924 INTRA-LIGAND FREE ENERGY PREDICTED BY IDOCK:   -0.72 KCAL/MOL
REMARK 927      BINDING AFFINITY PREDICTED BY RF-SCORE:    0.00 PKD
ROOT
HETATM    1  C   UNL     1     -12.206   8.666  71.980  1.00  0.00    -0.373 C  
HETATM    2  N   UNL     1     -11.440   9.784  71.452  1.00  0.00    -0.380 NA 
HETATM    3  C   UNL     1     -12.263  10.941  71.074  1.00  0.00    -0.358 C  
HETATM    4  C   UNL     1     -12.336  11.411  69.604  1.00  0.00    -0.236 C  
HETATM    5  C   UNL     1     -11.284  10.825  68.752  1.00  0.00    -0.331 C  
HETATM    6  C   UNL     1     -10.412   9.898  69.169  1.00  0.00    -0.235 C  
HETATM    7  C   UNL     1      -9.474   9.436  68.067  1.00  0.00    -0.148 C  
HETATM    8  C   UNL     1     -10.360   9.365  70.554  1.00  0.00    -0.281 C  
HETATM    9  C   UNL     1      -9.937  10.320  66.928  1.00  0.00    -0.259 A  
HETATM   10  C   UNL     1     -11.008  11.121  67.355  1.00  0.00    -0.347 A  
HETATM   11  C   UNL     1      -9.460  10.387  65.626  1.00  0.00    -0.262 A  
HETATM   12  C   UNL     1     -11.626  12.002  66.484  1.00  0.00    -0.384 A  
HETATM   13  C   UNL     1     -11.158  12.071  65.168  1.00  0.00    -0.369 A  
HETATM   14  C   UNL     1     -10.084  11.270  64.742  1.00  0.00    -0.338 A  
ENDROOT
BRANCH   7  15
HETATM   15  C   UNL     1      -9.596   7.949  67.771  1.00  0.00    -0.174 A  
HETATM   16  C   UNL     1      -8.699   5.686  67.851  1.00  0.00    -0.107 A  
HETATM   17  C   UNL     1     -10.822   6.098  66.784  1.00  0.00    -0.360 A  
HETATM   18  C   UNL     1      -8.590   7.045  68.151  1.00  0.00    -0.128 A  
HETATM   19  C   UNL     1     -10.717   7.457  67.084  1.00  0.00    -0.400 A  
HETATM   20  C   UNL     1      -9.814   5.212  67.167  1.00  0.00    -0.191 A  
ENDBRANCH   7  15
TORSDOF 1
ENDMDL
MODEL       43
REMARK 921   NORMALIZED FREE ENERGY PREDICTED BY IDOCK:   -5.27 KCAL/MOL
REMARK 922        TOTAL FREE ENERGY PREDICTED BY IDOCK:   -6.35 KCAL/MOL
REMARK 923 INTER-LIGAND FREE ENERGY PREDICTED BY IDOCK:   -5.80 KCAL/MOL
REMARK 924 INTRA-LIGAND FREE ENERGY PREDICTED BY IDOCK:   -0.55 KCAL/MOL
REMARK 927      BINDING AFFINITY PREDICTED BY RF-SCORE:    0.00 PKD
ROOT
HETATM    1  C   UNL     1      -5.395  15.871  68.826  1.00  0.00    -0.104 C  
HETATM    2  N   UNL     1      -6.363  14.839  69.160  1.00  0.00    -0.103 NA 
HETATM    3  C   UNL     1      -6.148  13.572  68.449  1.00  0.00    -0.094 C  
HETATM    4  C   UNL     1      -7.205  13.034  67.458  1.00  0.00    -0.154 C  
HETATM    5  C   UNL     1      -8.509  13.714  67.571  1.00  0.00    -0.190 C  
HETATM    6  C   UNL     1      -8.741  14.762  68.373  1.00  0.00    -0.169 C  
HETATM    7  C   UNL     1     -10.160  15.293  68.249  1.00  0.00    -0.225 C  
HETATM    8  C   UNL     1      -7.731  15.355  69.283  1.00  0.00    -0.221 C  
HETATM    9  C   UNL     1     -10.732  14.309  67.251  1.00  0.00    -0.277 A  
HETATM   10  C   UNL     1      -9.738  13.396  66.861  1.00  0.00    -0.253 A  
HETATM   11  C   UNL     1     -12.014  14.248  66.722  1.00  0.00    -0.462 A  
HETATM   12  C   UNL     1     -10.010  12.408  65.931  1.00  0.00    -0.271 A  
HETATM   13  C   UNL     1     -11.297  12.344  65.387  1.00  0.00    -0.379 A  
HETATM   14  C   UNL     1     -12.290  13.256  65.779  1.00  0.00    -0.505 A  
ENDROOT
BRANCH   7  15
HETATM   15  C   UNL     1     -10.211  16.738  67.779  1.00  0.00    -0.303 A  
HETATM   16  C   UNL     1     -10.349  19.123  68.251  1.00  0.00    -0.448 A  
HETATM   17  C   UNL     1     -10.296  18.354  65.966  1.00  0.00    -0.397 A  
HETATM   18  C   UNL     1     -10.275  17.801  68.694  1.00  0.00    -0.377 A  
HETATM   19  C   UNL     1     -10.220  17.031  66.406  1.00  0.00    -0.330 A  
HETATM   20  C   UNL     1     -10.361  19.400  66.888  1.00  0.00    -0.541 A  
ENDBRANCH   7  15
TORSDOF 1
ENDMDL
MODEL       44
REMARK 921   NORMALIZED FREE ENERGY PREDICTED BY IDOCK:   -5.25 KCAL/MOL
REMARK 922        TOTAL FREE ENERGY PREDICTED BY IDOCK:   -6.32 KCAL/MOL
REMARK 923 INTER-LIGAND FREE ENERGY PREDICTED BY IDOCK:   -6.13 KCAL/MOL
REMARK 924 INTRA-LIGAND FREE ENERGY PREDICTED BY IDOCK:   -0.20 KCAL/MOL
REMARK 927      BINDING AFFINITY PREDICTED BY RF-SCORE:    0.00 PKD
ROOT
HETATM    1  C   UNL     1      -7.933   7.114  67.903  1.00  0.00    -0.115 C  
HETATM    2  N   UNL     1      -8.301   7.038  69.308  1.00  0.00    -0.128 NA 
HETATM    3  C   UNL     1      -9.023   5.809  69.665  1.00  0.00    -0.128 C  
HETATM    4  C   UNL     1     -10.481   5.870  70.174  1.00  0.00    -0.329 C  
HETATM    5  C   UNL     1     -10.906   7.229  70.563  1.00  0.00    -0.262 C  
HETATM    6  C   UNL     1     -10.153   8.325  70.401  1.00  0.00    -0.199 C  
HETATM    7  C   UNL     1     -10.862   9.594  70.843  1.00  0.00    -0.409 C  
HETATM    8  C   UNL     1      -8.777   8.316  69.846  1.00  0.00    -0.134 C  
HETATM    9  C   UNL     1     -12.166   9.015  71.349  1.00  0.00    -0.387 A  
HETATM   10  C   UNL     1     -12.170   7.623  71.165  1.00  0.00    -0.310 A  
HETATM   11  C   UNL     1     -13.256   9.672  71.901  1.00  0.00    -0.538 A  
HETATM   12  C   UNL     1     -13.269   6.864  71.527  1.00  0.00    -0.322 A  
HETATM   13  C   UNL     1     -14.376   7.518  72.077  1.00  0.00    -0.437 A  
HETATM   14  C   UNL     1     -14.370   8.911  72.263  1.00  0.00    -0.418 A  
ENDROOT
BRANCH   7  15
HETATM   15  C   UNL     1     -11.038  10.596  69.713  1.00  0.00    -0.358 A  
HETATM   16  C   UNL     1     -11.724  12.789  68.904  1.00  0.00    -0.370 A  
HETATM   17  C   UNL     1     -10.907  11.138  67.347  1.00  0.00    -0.317 A  
HETATM   18  C   UNL     1     -11.541  11.886  69.952  1.00  0.00    -0.333 A  
HETATM   19  C   UNL     1     -10.721  10.233  68.394  1.00  0.00    -0.263 A  
HETATM   20  C   UNL     1     -11.409  12.415  67.602  1.00  0.00    -0.371 A  
ENDBRANCH   7  15
TORSDOF 1
ENDMDL
MODEL       45
REMARK 921   NORMALIZED FREE ENERGY PREDICTED BY IDOCK:   -5.22 KCAL/MOL
REMARK 922        TOTAL FREE ENERGY PREDICTED BY IDOCK:   -6.29 KCAL/MOL
REMARK 923 INTER-LIGAND FREE ENERGY PREDICTED BY IDOCK:   -5.50 KCAL/MOL
REMARK 924 INTRA-LIGAND FREE ENERGY PREDICTED BY IDOCK:   -0.79 KCAL/MOL
REMARK 927      BINDING AFFINITY PREDICTED BY RF-SCORE:    0.00 PKD
ROOT
HETATM    1  C   UNL     1      -5.930  12.766  68.146  1.00  0.00    -0.086 C  
HETATM    2  N   UNL     1      -7.117  11.927  68.117  1.00  0.00    -0.075 NA 
HETATM    3  C   UNL     1      -7.101  10.914  67.052  1.00  0.00    -0.109 C  
HETATM    4  C   UNL     1      -8.148  10.948  65.915  1.00  0.00    -0.120 C  
HETATM    5  C   UNL     1      -9.289  11.838  66.201  1.00  0.00    -0.236 C  
HETATM    6  C   UNL     1      -9.375  12.623  67.282  1.00  0.00    -0.195 C  
HETATM    7  C   UNL     1     -10.636  13.471  67.293  1.00  0.00    -0.263 C  
HETATM    8  C   UNL     1      -8.355  12.675  68.358  1.00  0.00    -0.125 C  
HETATM    9  C   UNL     1     -11.302  12.985  66.023  1.00  0.00    -0.343 A  
HETATM   10  C   UNL     1     -10.485  12.030  65.395  1.00  0.00    -0.313 A  
HETATM   11  C   UNL     1     -12.513  13.374  65.469  1.00  0.00    -0.534 A  
HETATM   12  C   UNL     1     -10.864  11.452  64.196  1.00  0.00    -0.431 A  
HETATM   13  C   UNL     1     -12.080  11.843  63.626  1.00  0.00    -0.580 A  
HETATM   14  C   UNL     1     -12.897  12.796  64.256  1.00  0.00    -0.245 A  
ENDROOT
BRANCH   7  15
HETATM   15  C   UNL     1     -10.344  14.964  67.295  1.00  0.00    -0.251 A  
HETATM   16  C   UNL     1      -9.278  16.922  66.314  1.00  0.00    -0.299 A  
HETATM   17  C   UNL     1     -10.548  17.142  68.352  1.00  0.00    -0.371 A  
HETATM   18  C   UNL     1      -9.563  15.555  66.288  1.00  0.00    -0.338 A  
HETATM   19  C   UNL     1     -10.836  15.777  68.329  1.00  0.00    -0.305 A  
HETATM   20  C   UNL     1      -9.769  17.715  67.346  1.00  0.00    -0.283 A  
ENDBRANCH   7  15
TORSDOF 1
ENDMDL
MODEL       46
REMARK 921   NORMALIZED FREE ENERGY PREDICTED BY IDOCK:   -5.16 KCAL/MOL
REMARK 922        TOTAL FREE ENERGY PREDICTED BY IDOCK:   -6.23 KCAL/MOL
REMARK 923 INTER-LIGAND FREE ENERGY PREDICTED BY IDOCK:   -5.45 KCAL/MOL
REMARK 924 INTRA-LIGAND FREE ENERGY PREDICTED BY IDOCK:   -0.78 KCAL/MOL
REMARK 927      BINDING AFFINITY PREDICTED BY RF-SCORE:    0.00 PKD
ROOT
HETATM    1  C   UNL     1     -12.526  12.342  63.988  1.00  0.00    -0.458 C  
HETATM    2  N   UNL     1     -12.602  13.445  64.932  1.00  0.00    -0.631 NA 
HETATM    3  C   UNL     1     -12.255  14.749  64.350  1.00  0.00    -0.428 C  
HETATM    4  C   UNL     1     -11.023  15.534  64.852  1.00  0.00    -0.452 C  
HETATM    5  C   UNL     1     -10.486  15.023  66.127  1.00  0.00    -0.313 C  
HETATM    6  C   UNL     1     -10.943  13.927  66.747  1.00  0.00    -0.301 C  
HETATM    7  C   UNL     1     -10.171  13.605  68.016  1.00  0.00    -0.248 C  
HETATM    8  C   UNL     1     -12.075  13.102  66.257  1.00  0.00    -0.397 C  
HETATM    9  C   UNL     1      -9.200  14.767  68.046  1.00  0.00    -0.194 A  
HETATM   10  C   UNL     1      -9.401  15.581  66.919  1.00  0.00    -0.252 A  
HETATM   11  C   UNL     1      -8.215  15.058  68.979  1.00  0.00    -0.187 A  
HETATM   12  C   UNL     1      -8.615  16.700  66.704  1.00  0.00    -0.293 A  
HETATM   13  C   UNL     1      -7.614  16.997  67.635  1.00  0.00    -0.180 A  
HETATM   14  C   UNL     1      -7.416  16.183  68.763  1.00  0.00    -0.189 A  
ENDROOT
BRANCH   7  15
HETATM   15  C   UNL     1      -9.492  12.245  67.966  1.00  0.00    -0.206 A  
HETATM   16  C   UNL     1      -7.889  10.706  66.968  1.00  0.00    -0.117 A  
HETATM   17  C   UNL     1      -9.284   9.970  68.793  1.00  0.00    -0.159 A  
HETATM   18  C   UNL     1      -8.487  11.966  67.024  1.00  0.00    -0.177 A  
HETATM   19  C   UNL     1      -9.883  11.229  68.853  1.00  0.00    -0.153 A  
HETATM   20  C   UNL     1      -8.288   9.708  67.851  1.00  0.00    -0.117 A  
ENDBRANCH   7  15
TORSDOF 1
ENDMDL
MODEL       47
REMARK 921   NORMALIZED FREE ENERGY PREDICTED BY IDOCK:   -5.13 KCAL/MOL
REMARK 922        TOTAL FREE ENERGY PREDICTED BY IDOCK:   -6.19 KCAL/MOL
REMARK 923 INTER-LIGAND FREE ENERGY PREDICTED BY IDOCK:   -5.41 KCAL/MOL
REMARK 924 INTRA-LIGAND FREE ENERGY PREDICTED BY IDOCK:   -0.79 KCAL/MOL
REMARK 927      BINDING AFFINITY PREDICTED BY RF-SCORE:    0.00 PKD
ROOT
HETATM    1  C   UNL     1      -8.066   4.705  71.192  1.00  0.00    -0.088 C  
HETATM    2  N   UNL     1      -8.310   5.854  72.049  1.00  0.00    -0.115 NA 
HETATM    3  C   UNL     1      -9.399   5.654  73.014  1.00  0.00    -0.140 C  
HETATM    4  C   UNL     1     -10.680   6.516  72.949  1.00  0.00    -0.280 C  
HETATM    5  C   UNL     1     -10.537   7.707  72.090  1.00  0.00    -0.281 C  
HETATM    6  C   UNL     1      -9.451   7.974  71.353  1.00  0.00    -0.194 C  
HETATM    7  C   UNL     1      -9.599   9.241  70.527  1.00  0.00    -0.317 C  
HETATM    8  C   UNL     1      -8.231   7.131  71.331  1.00  0.00    -0.107 C  
HETATM    9  C   UNL     1     -10.975   9.695  70.969  1.00  0.00    -0.431 A  
HETATM   10  C   UNL     1     -11.508   8.770  71.882  1.00  0.00    -0.428 A  
HETATM   11  C   UNL     1     -11.692  10.816  70.576  1.00  0.00    -0.449 A  
HETATM   12  C   UNL     1     -12.773   8.950  72.415  1.00  0.00    -0.436 A  
HETATM   13  C   UNL     1     -13.507  10.073  72.019  1.00  0.00    -0.448 A  
HETATM   14  C   UNL     1     -12.971  10.998  71.107  1.00  0.00    -0.421 A  
ENDROOT
BRANCH   7  15
HETATM   15  C   UNL     1      -9.494   8.986  69.031  1.00  0.00    -0.155 A  
HETATM   16  C   UNL     1     -10.210   7.817  67.019  1.00  0.00    -0.375 A  
HETATM   17  C   UNL     1      -8.403   9.409  66.901  1.00  0.00    -0.127 A  
HETATM   18  C   UNL     1     -10.334   8.064  68.387  1.00  0.00    -0.236 A  
HETATM   19  C   UNL     1      -8.525   9.659  68.269  1.00  0.00    -0.118 A  
HETATM   20  C   UNL     1      -9.245   8.488  66.276  1.00  0.00    -0.262 A  
ENDBRANCH   7  15
TORSDOF 1
ENDMDL
MODEL       48
REMARK 921   NORMALIZED FREE ENERGY PREDICTED BY IDOCK:   -5.08 KCAL/MOL
REMARK 922        TOTAL FREE ENERGY PREDICTED BY IDOCK:   -6.15 KCAL/MOL
REMARK 923 INTER-LIGAND FREE ENERGY PREDICTED BY IDOCK:   -5.59 KCAL/MOL
REMARK 924 INTRA-LIGAND FREE ENERGY PREDICTED BY IDOCK:   -0.56 KCAL/MOL
REMARK 927      BINDING AFFINITY PREDICTED BY RF-SCORE:    0.00 PKD
ROOT
HETATM    1  C   UNL     1     -13.880   8.749  72.037  1.00  0.00    -0.451 C  
HETATM    2  N   UNL     1     -12.774   9.690  72.106  1.00  0.00    -0.368 NA 
HETATM    3  C   UNL     1     -13.146  11.069  71.761  1.00  0.00    -0.449 C  
HETATM    4  C   UNL     1     -12.535  11.766  70.524  1.00  0.00    -0.317 C  
HETATM    5  C   UNL     1     -11.360  11.060  69.979  1.00  0.00    -0.358 C  
HETATM    6  C   UNL     1     -10.917   9.880  70.434  1.00  0.00    -0.379 C  
HETATM    7  C   UNL     1      -9.719   9.363  69.654  1.00  0.00    -0.202 C  
HETATM    8  C   UNL     1     -11.523   9.144  71.571  1.00  0.00    -0.367 C  
HETATM    9  C   UNL     1      -9.514  10.505  68.681  1.00  0.00    -0.172 A  
HETATM   10  C   UNL     1     -10.498  11.486  68.888  1.00  0.00    -0.212 A  
HETATM   11  C   UNL     1      -8.554  10.645  67.690  1.00  0.00    -0.118 A  
HETATM   12  C   UNL     1     -10.539  12.624  68.101  1.00  0.00    -0.241 A  
HETATM   13  C   UNL     1      -9.580  12.771  67.094  1.00  0.00    -0.219 A  
HETATM   14  C   UNL     1      -8.595  11.789  66.890  1.00  0.00    -0.177 A  
ENDROOT
BRANCH   7  15
HETATM   15  C   UNL     1      -9.988   8.027  68.977  1.00  0.00    -0.186 A  
HETATM   16  C   UNL     1     -10.845   6.728  67.104  1.00  0.00    -0.462 A  
HETATM   17  C   UNL     1      -9.938   5.598  69.032  1.00  0.00    -0.233 A  
HETATM   18  C   UNL     1     -10.578   7.960  67.705  1.00  0.00    -0.276 A  
HETATM   19  C   UNL     1      -9.668   6.828  69.635  1.00  0.00    -0.160 A  
HETATM   20  C   UNL     1     -10.527   5.548  67.767  1.00  0.00    -0.245 A  
ENDBRANCH   7  15
TORSDOF 1
ENDMDL
MODEL       49
REMARK 921   NORMALIZED FREE ENERGY PREDICTED BY IDOCK:   -5.01 KCAL/MOL
REMARK 922        TOTAL FREE ENERGY PREDICTED BY IDOCK:   -6.07 KCAL/MOL
REMARK 923 INTER-LIGAND FREE ENERGY PREDICTED BY IDOCK:   -5.28 KCAL/MOL
REMARK 924 INTRA-LIGAND FREE ENERGY PREDICTED BY IDOCK:   -0.78 KCAL/MOL
REMARK 927      BINDING AFFINITY PREDICTED BY RF-SCORE:    0.00 PKD
ROOT
HETATM    1  C   UNL     1      -9.257  14.425  66.795  1.00  0.00    -0.268 C  
HETATM    2  N   UNL     1     -10.492  13.663  66.878  1.00  0.00    -0.270 NA 
HETATM    3  C   UNL     1     -11.518  14.286  67.725  1.00  0.00    -0.329 C  
HETATM    4  C   UNL     1     -12.009  13.588  69.014  1.00  0.00    -0.376 C  
HETATM    5  C   UNL     1     -11.612  12.169  69.094  1.00  0.00    -0.374 C  
HETATM    6  C   UNL     1     -10.820  11.560  68.202  1.00  0.00    -0.259 C  
HETATM    7  C   UNL     1     -10.536  10.111  68.562  1.00  0.00    -0.245 C  
HETATM    8  C   UNL     1     -10.267  12.218  66.992  1.00  0.00    -0.215 C  
HETATM    9  C   UNL     1     -11.367   9.976  69.820  1.00  0.00    -0.281 A  
HETATM   10  C   UNL     1     -11.983  11.203  70.116  1.00  0.00    -0.449 A  
HETATM   11  C   UNL     1     -11.540   8.867  70.637  1.00  0.00    -0.251 A  
HETATM   12  C   UNL     1     -12.780  11.343  71.239  1.00  0.00    -0.498 A  
HETATM   13  C   UNL     1     -12.953  10.233  72.073  1.00  0.00    -0.503 A  
HETATM   14  C   UNL     1     -12.338   9.005  71.774  1.00  0.00    -0.438 A  
ENDROOT
BRANCH   7  15
HETATM   15  C   UNL     1      -9.056   9.835  68.777  1.00  0.00    -0.136 A  
HETATM   16  C   UNL     1      -6.938  10.335  69.869  1.00  0.00    -0.142 A  
HETATM   17  C   UNL     1      -7.045   8.600  68.198  1.00  0.00    -0.082 A  
HETATM   18  C   UNL     1      -8.302  10.578  69.700  1.00  0.00    -0.010 A  
HETATM   19  C   UNL     1      -8.409   8.839  68.027  1.00  0.00    -0.119 A  
HETATM   20  C   UNL     1      -6.309   9.347  69.119  1.00  0.00    -0.042 A  
ENDBRANCH   7  15
TORSDOF 1
ENDMDL
MODEL       50
REMARK 921   NORMALIZED FREE ENERGY PREDICTED BY IDOCK:   -5.01 KCAL/MOL
REMARK 922        TOTAL FREE ENERGY PREDICTED BY IDOCK:   -6.07 KCAL/MOL
REMARK 923 INTER-LIGAND FREE ENERGY PREDICTED BY IDOCK:   -5.28 KCAL/MOL
REMARK 924 INTRA-LIGAND FREE ENERGY PREDICTED BY IDOCK:   -0.79 KCAL/MOL
REMARK 927      BINDING AFFINITY PREDICTED BY RF-SCORE:    0.00 PKD
ROOT
HETATM    1  C   UNL     1     -11.828  12.383  70.444  1.00  0.00    -0.161 C  
HETATM    2  N   UNL     1     -11.802  11.142  69.686  1.00  0.00    -0.318 NA 
HETATM    3  C   UNL     1     -10.752  10.208  70.114  1.00  0.00    -0.300 C  
HETATM    4  C   UNL     1      -9.607   9.813  69.154  1.00  0.00    -0.192 C  
HETATM    5  C   UNL     1      -9.871  10.182  67.750  1.00  0.00    -0.190 C  
HETATM    6  C   UNL     1     -10.940  10.881  67.347  1.00  0.00    -0.353 C  
HETATM    7  C   UNL     1     -10.929  11.161  65.853  1.00  0.00    -0.171 C  
HETATM    8  C   UNL     1     -12.023  11.343  68.250  1.00  0.00    -0.164 C  
HETATM    9  C   UNL     1      -9.661  10.438  65.450  1.00  0.00    -0.325 A  
HETATM   10  C   UNL     1      -9.054   9.878  66.586  1.00  0.00    -0.171 A  
HETATM   11  C   UNL     1      -9.092  10.311  64.191  1.00  0.00    -0.284 A  
HETATM   12  C   UNL     1      -7.861   9.184  66.481  1.00  0.00    -0.100 A  
HETATM   13  C   UNL     1      -7.275   9.057  65.218  1.00  0.00    -0.088 A  
HETATM   14  C   UNL     1      -7.886   9.616  64.082  1.00  0.00    -0.130 A  
ENDROOT
BRANCH   7  15
HETATM   15  C   UNL     1     -10.911  12.648  65.532  1.00  0.00    -0.313 A  
HETATM   16  C   UNL     1      -9.882  14.848  65.709  1.00  0.00    -0.380 A  
HETATM   17  C   UNL     1     -11.961  14.589  64.514  1.00  0.00    -0.482 A  
HETATM   18  C   UNL     1      -9.875  13.480  65.986  1.00  0.00    -0.277 A  
HETATM   19  C   UNL     1     -11.956  13.220  64.789  1.00  0.00    -0.431 A  
HETATM   20  C   UNL     1     -10.925  15.403  64.974  1.00  0.00    -0.450 A  
ENDBRANCH   7  15
TORSDOF 1
ENDMDL
MODEL       51
REMARK 921   NORMALIZED FREE ENERGY PREDICTED BY IDOCK:   -4.99 KCAL/MOL
REMARK 922        TOTAL FREE ENERGY PREDICTED BY IDOCK:   -6.05 KCAL/MOL
REMARK 923 INTER-LIGAND FREE ENERGY PREDICTED BY IDOCK:   -5.36 KCAL/MOL
REMARK 924 INTRA-LIGAND FREE ENERGY PREDICTED BY IDOCK:   -0.70 KCAL/MOL
REMARK 927      BINDING AFFINITY PREDICTED BY RF-SCORE:    0.00 PKD
ROOT
HETATM    1  C   UNL     1     -10.460  17.975  66.486  1.00  0.00    -0.334 C  
HETATM    2  N   UNL     1     -10.357  17.192  67.706  1.00  0.00    -0.334 NA 
HETATM    3  C   UNL     1      -9.042  17.273  68.355  1.00  0.00    -0.265 C  
HETATM    4  C   UNL     1      -8.151  16.018  68.495  1.00  0.00    -0.169 C  
HETATM    5  C   UNL     1      -8.876  14.759  68.238  1.00  0.00    -0.179 C  
HETATM    6  C   UNL     1     -10.147  14.697  67.823  1.00  0.00    -0.228 C  
HETATM    7  C   UNL     1     -10.620  13.271  67.589  1.00  0.00    -0.242 C  
HETATM    8  C   UNL     1     -11.012  15.883  67.604  1.00  0.00    -0.298 C  
HETATM    9  C   UNL     1      -9.383  12.503  68.004  1.00  0.00    -0.205 A  
HETATM   10  C   UNL     1      -8.369  13.402  68.373  1.00  0.00    -0.137 A  
HETATM   11  C   UNL     1      -9.175  11.132  68.028  1.00  0.00    -0.159 A  
HETATM   12  C   UNL     1      -7.124  12.942  68.768  1.00  0.00    -0.096 A  
HETATM   13  C   UNL     1      -6.903  11.561  68.789  1.00  0.00    -0.084 A  
HETATM   14  C   UNL     1      -7.919  10.664  68.422  1.00  0.00    -0.120 A  
ENDROOT
BRANCH   7  15
HETATM   15  C   UNL     1     -11.041  13.017  66.150  1.00  0.00    -0.311 A  
HETATM   16  C   UNL     1     -12.772  12.654  64.475  1.00  0.00    -0.439 A  
HETATM   17  C   UNL     1     -10.448  12.589  63.833  1.00  0.00    -0.464 A  
HETATM   18  C   UNL     1     -12.396  12.916  65.794  1.00  0.00    -0.437 A  
HETATM   19  C   UNL     1     -10.069  12.852  65.151  1.00  0.00    -0.241 A  
HETATM   20  C   UNL     1     -11.798  12.490  63.495  1.00  0.00    -0.616 A  
ENDBRANCH   7  15
TORSDOF 1
ENDMDL
MODEL       52
REMARK 921   NORMALIZED FREE ENERGY PREDICTED BY IDOCK:   -4.95 KCAL/MOL
REMARK 922        TOTAL FREE ENERGY PREDICTED BY IDOCK:   -6.00 KCAL/MOL
REMARK 923 INTER-LIGAND FREE ENERGY PREDICTED BY IDOCK:   -5.28 KCAL/MOL
REMARK 924 INTRA-LIGAND FREE ENERGY PREDICTED BY IDOCK:   -0.72 KCAL/MOL
REMARK 927      BINDING AFFINITY PREDICTED BY RF-SCORE:    0.00 PKD
ROOT
HETATM    1  C   UNL     1     -12.252  16.404  71.583  1.00  0.00     0.002 C  
HETATM    2  N   UNL     1     -13.021  15.260  71.120  1.00  0.00    -0.418 NA 
HETATM    3  C   UNL     1     -13.268  14.251  72.158  1.00  0.00    -0.402 C  
HETATM    4  C   UNL     1     -12.688  12.824  72.026  1.00  0.00    -0.133 C  
HETATM    5  C   UNL     1     -12.195  12.520  70.669  1.00  0.00    -0.365 C  
HETATM    6  C   UNL     1     -12.151  13.410  69.670  1.00  0.00    -0.349 C  
HETATM    7  C   UNL     1     -11.549  12.836  68.398  1.00  0.00    -0.365 C  
HETATM    8  C   UNL     1     -12.628  14.811  69.780  1.00  0.00    -0.120 C  
HETATM    9  C   UNL     1     -11.298  11.409  68.837  1.00  0.00    -0.334 A  
HETATM   10  C   UNL     1     -11.679  11.251  70.179  1.00  0.00    -0.429 A  
HETATM   11  C   UNL     1     -10.759  10.355  68.112  1.00  0.00    -0.277 A  
HETATM   12  C   UNL     1     -11.521  10.036  70.822  1.00  0.00    -0.438 A  
HETATM   13  C   UNL     1     -10.972   8.970  70.102  1.00  0.00    -0.256 A  
HETATM   14  C   UNL     1     -10.594   9.128  68.758  1.00  0.00    -0.208 A  
ENDROOT
BRANCH   7  15
HETATM   15  C   UNL     1     -10.292  13.568  67.957  1.00  0.00    -0.241 A  
HETATM   16  C   UNL     1      -7.934  14.108  68.246  1.00  0.00    -0.140 A  
HETATM   17  C   UNL     1      -9.191  15.142  66.467  1.00  0.00    -0.318 A  
HETATM   18  C   UNL     1      -9.076  13.409  68.643  1.00  0.00     0.012 A  
HETATM   19  C   UNL     1     -10.335  14.444  66.860  1.00  0.00    -0.265 A  
HETATM   20  C   UNL     1      -7.991  14.974  67.159  1.00  0.00    -0.238 A  
ENDBRANCH   7  15
TORSDOF 1
ENDMDL
MODEL       53
REMARK 921   NORMALIZED FREE ENERGY PREDICTED BY IDOCK:   -4.90 KCAL/MOL
REMARK 922        TOTAL FREE ENERGY PREDICTED BY IDOCK:   -5.96 KCAL/MOL
REMARK 923 INTER-LIGAND FREE ENERGY PREDICTED BY IDOCK:   -5.18 KCAL/MOL
REMARK 924 INTRA-LIGAND FREE ENERGY PREDICTED BY IDOCK:   -0.78 KCAL/MOL
REMARK 927      BINDING AFFINITY PREDICTED BY RF-SCORE:    0.00 PKD
ROOT
HETATM    1  C   UNL     1     -13.110  11.695  71.967  1.00  0.00    -0.328 C  
HETATM    2  N   UNL     1     -12.853  10.528  71.139  1.00  0.00    -0.387 NA 
HETATM    3  C   UNL     1     -11.864   9.603  71.708  1.00  0.00    -0.320 C  
HETATM    4  C   UNL     1     -10.522   9.341  70.988  1.00  0.00    -0.384 C  
HETATM    5  C   UNL     1     -10.506   9.821  69.593  1.00  0.00    -0.263 C  
HETATM    6  C   UNL     1     -11.506  10.509  69.026  1.00  0.00    -0.304 C  
HETATM    7  C   UNL     1     -11.198  10.920  67.595  1.00  0.00    -0.379 C  
HETATM    8  C   UNL     1     -12.779  10.845  69.709  1.00  0.00     0.046 C  
HETATM    9  C   UNL     1      -9.833  10.287  67.419  1.00  0.00    -0.214 A  
HETATM   10  C   UNL     1      -9.446   9.654  68.611  1.00  0.00    -0.147 A  
HETATM   11  C   UNL     1      -9.006  10.294  66.305  1.00  0.00    -0.172 A  
HETATM   12  C   UNL     1      -8.219   9.022  68.711  1.00  0.00    -0.117 A  
HETATM   13  C   UNL     1      -7.375   9.030  67.596  1.00  0.00    -0.084 A  
HETATM   14  C   UNL     1      -7.765   9.661  66.403  1.00  0.00    -0.101 A  
ENDROOT
BRANCH   7  15
HETATM   15  C   UNL     1     -11.200  12.428  67.401  1.00  0.00    -0.351 A  
HETATM   16  C   UNL     1     -11.956  14.417  66.216  1.00  0.00    -0.391 A  
HETATM   17  C   UNL     1     -10.364  14.626  68.016  1.00  0.00    -0.235 A  
HETATM   18  C   UNL     1     -11.982  13.034  66.404  1.00  0.00    -0.466 A  
HETATM   19  C   UNL     1     -10.389  13.243  68.207  1.00  0.00    -0.252 A  
HETATM   20  C   UNL     1     -11.146  15.213  67.020  1.00  0.00    -0.328 A  
ENDBRANCH   7  15
TORSDOF 1
ENDMDL
MODEL       54
REMARK 921   NORMALIZED FREE ENERGY PREDICTED BY IDOCK:   -4.87 KCAL/MOL
REMARK 922        TOTAL FREE ENERGY PREDICTED BY IDOCK:   -5.93 KCAL/MOL
REMARK 923 INTER-LIGAND FREE ENERGY PREDICTED BY IDOCK:   -5.14 KCAL/MOL
REMARK 924 INTRA-LIGAND FREE ENERGY PREDICTED BY IDOCK:   -0.79 KCAL/MOL
REMARK 927      BINDING AFFINITY PREDICTED BY RF-SCORE:    0.00 PKD
ROOT
HETATM    1  C   UNL     1     -14.390   8.200  71.719  1.00  0.00    -0.484 C  
HETATM    2  N   UNL     1     -13.358   9.173  72.035  1.00  0.00    -0.411 NA 
HETATM    3  C   UNL     1     -13.246  10.261  71.053  1.00  0.00    -0.319 C  
HETATM    4  C   UNL     1     -11.957  10.444  70.222  1.00  0.00    -0.387 C  
HETATM    5  C   UNL     1     -10.812   9.675  70.745  1.00  0.00    -0.400 C  
HETATM    6  C   UNL     1     -10.890   8.820  71.772  1.00  0.00    -0.416 C  
HETATM    7  C   UNL     1      -9.568   8.129  72.063  1.00  0.00    -0.284 C  
HETATM    8  C   UNL     1     -12.129   8.559  72.548  1.00  0.00    -0.326 C  
HETATM    9  C   UNL     1      -8.682   8.793  71.031  1.00  0.00    -0.248 A  
HETATM   10  C   UNL     1      -9.440   9.692  70.263  1.00  0.00    -0.300 A  
HETATM   11  C   UNL     1      -7.330   8.597  70.786  1.00  0.00    -0.070 A  
HETATM   12  C   UNL     1      -8.857  10.408  69.231  1.00  0.00    -0.166 A  
HETATM   13  C   UNL     1      -7.497  10.211  68.972  1.00  0.00    -0.091 A  
HETATM   14  C   UNL     1      -6.740   9.313  69.742  1.00  0.00    -0.051 A  
ENDROOT
BRANCH   7  15
HETATM   15  C   UNL     1      -9.647   6.617  71.917  1.00  0.00    -0.152 A  
HETATM   16  C   UNL     1     -10.096   4.632  70.578  1.00  0.00    -0.263 A  
HETATM   17  C   UNL     1      -9.488   4.401  72.901  1.00  0.00    -0.155 A  
HETATM   18  C   UNL     1     -10.000   6.020  70.695  1.00  0.00    -0.232 A  
HETATM   19  C   UNL     1      -9.390   5.788  73.021  1.00  0.00    -0.143 A  
HETATM   20  C   UNL     1      -9.842   3.823  71.680  1.00  0.00    -0.240 A  
ENDBRANCH   7  15
TORSDOF 1
ENDMDL
MODEL       55
REMARK 921   NORMALIZED FREE ENERGY PREDICTED BY IDOCK:   -4.86 KCAL/MOL
REMARK 922        TOTAL FREE ENERGY PREDICTED BY IDOCK:   -5.91 KCAL/MOL
REMARK 923 INTER-LIGAND FREE ENERGY PREDICTED BY IDOCK:   -5.66 KCAL/MOL
REMARK 924 INTRA-LIGAND FREE ENERGY PREDICTED BY IDOCK:   -0.25 KCAL/MOL
REMARK 927      BINDING AFFINITY PREDICTED BY RF-SCORE:    0.00 PKD
ROOT
HETATM    1  C   UNL     1      -8.343   9.053  70.972  1.00  0.00    -0.189 C  
HETATM    2  N   UNL     1      -8.772   9.071  69.583  1.00  0.00    -0.137 NA 
HETATM    3  C   UNL     1      -7.744   9.553  68.651  1.00  0.00    -0.081 C  
HETATM    4  C   UNL     1      -7.962  10.850  67.838  1.00  0.00    -0.111 C  
HETATM    5  C   UNL     1      -9.362  11.314  67.846  1.00  0.00    -0.161 C  
HETATM    6  C   UNL     1     -10.337  10.743  68.564  1.00  0.00    -0.202 C  
HETATM    7  C   UNL     1     -11.669  11.461  68.421  1.00  0.00    -0.373 C  
HETATM    8  C   UNL     1     -10.151   9.542  69.417  1.00  0.00    -0.198 C  
HETATM    9  C   UNL     1     -11.291  12.541  67.430  1.00  0.00    -0.371 A  
HETATM   10  C   UNL     1      -9.926  12.437  67.114  1.00  0.00    -0.211 A  
HETATM   11  C   UNL     1     -12.085  13.535  66.878  1.00  0.00    -0.417 A  
HETATM   12  C   UNL     1      -9.331  13.333  66.243  1.00  0.00    -0.134 A  
HETATM   13  C   UNL     1     -10.122  14.344  65.687  1.00  0.00    -0.377 A  
HETATM   14  C   UNL     1     -11.488  14.445  66.002  1.00  0.00    -0.349 A  
ENDROOT
BRANCH   7  15
HETATM   15  C   UNL     1     -12.192  12.003  69.742  1.00  0.00    -0.226 A  
HETATM   16  C   UNL     1     -12.547  13.850  71.290  1.00  0.00    -0.450 A  
HETATM   17  C   UNL     1     -13.226  11.620  71.908  1.00  0.00    -0.475 A  
HETATM   18  C   UNL     1     -12.088  13.367  70.064  1.00  0.00    -0.404 A  
HETATM   19  C   UNL     1     -12.770  11.134  70.682  1.00  0.00    -0.350 A  
HETATM   20  C   UNL     1     -13.115  12.977  72.213  1.00  0.00    -0.445 A  
ENDBRANCH   7  15
TORSDOF 1
ENDMDL
MODEL       56
REMARK 921   NORMALIZED FREE ENERGY PREDICTED BY IDOCK:   -4.86 KCAL/MOL
REMARK 922        TOTAL FREE ENERGY PREDICTED BY IDOCK:   -5.91 KCAL/MOL
REMARK 923 INTER-LIGAND FREE ENERGY PREDICTED BY IDOCK:   -5.12 KCAL/MOL
REMARK 924 INTRA-LIGAND FREE ENERGY PREDICTED BY IDOCK:   -0.79 KCAL/MOL
REMARK 927      BINDING AFFINITY PREDICTED BY RF-SCORE:    0.00 PKD
ROOT
HETATM    1  C   UNL     1      -7.981   8.038  74.497  1.00  0.00    -0.241 C  
HETATM    2  N   UNL     1      -8.164   6.823  73.720  1.00  0.00    -0.109 NA 
HETATM    3  C   UNL     1      -7.028   6.502  72.845  1.00  0.00    -0.073 C  
HETATM    4  C   UNL     1      -7.195   6.484  71.309  1.00  0.00    -0.079 C  
HETATM    5  C   UNL     1      -8.605   6.480  70.877  1.00  0.00    -0.135 C  
HETATM    6  C   UNL     1      -9.646   6.586  71.713  1.00  0.00    -0.158 C  
HETATM    7  C   UNL     1     -10.982   6.605  70.988  1.00  0.00    -0.305 C  
HETATM    8  C   UNL     1      -9.523   6.682  73.189  1.00  0.00    -0.143 C  
HETATM    9  C   UNL     1     -10.517   6.434  69.557  1.00  0.00    -0.279 A  
HETATM   10  C   UNL     1      -9.114   6.372  69.519  1.00  0.00    -0.138 A  
HETATM   11  C   UNL     1     -11.274   6.364  68.396  1.00  0.00    -0.297 A  
HETATM   12  C   UNL     1      -8.444   6.242  68.314  1.00  0.00    -0.114 A  
HETATM   13  C   UNL     1      -9.198   6.178  67.138  1.00  0.00    -0.120 A  
HETATM   14  C   UNL     1     -10.602   6.238  67.179  1.00  0.00    -0.380 A  
ENDROOT
BRANCH   7  15
HETATM   15  C   UNL     1     -11.764   7.888  71.226  1.00  0.00    -0.313 A  
HETATM   16  C   UNL     1     -11.941  10.315  71.143  1.00  0.00    -0.472 A  
HETATM   17  C   UNL     1     -13.752   9.011  72.056  1.00  0.00    -0.516 A  
HETATM   18  C   UNL     1     -11.226   9.142  70.895  1.00  0.00    -0.359 A  
HETATM   19  C   UNL     1     -13.040   7.836  71.809  1.00  0.00    -0.353 A  
HETATM   20  C   UNL     1     -13.203  10.251  71.724  1.00  0.00    -0.534 A  
ENDBRANCH   7  15
TORSDOF 1
ENDMDL
MODEL       57
REMARK 921   NORMALIZED FREE ENERGY PREDICTED BY IDOCK:   -4.85 KCAL/MOL
REMARK 922        TOTAL FREE ENERGY PREDICTED BY IDOCK:   -5.90 KCAL/MOL
REMARK 923 INTER-LIGAND FREE ENERGY PREDICTED BY IDOCK:   -5.16 KCAL/MOL
REMARK 924 INTRA-LIGAND FREE ENERGY PREDICTED BY IDOCK:   -0.74 KCAL/MOL
REMARK 927      BINDING AFFINITY PREDICTED BY RF-SCORE:    0.00 PKD
ROOT
HETATM    1  C   UNL     1     -10.824   6.636  66.849  1.00  0.00    -0.345 C  
HETATM    2  N   UNL     1      -9.689   7.193  67.568  1.00  0.00    -0.137 NA 
HETATM    3  C   UNL     1      -8.615   6.223  67.822  1.00  0.00    -0.115 C  
HETATM    4  C   UNL     1      -8.236   5.825  69.266  1.00  0.00    -0.105 C  
HETATM    5  C   UNL     1      -8.798   6.731  70.286  1.00  0.00    -0.152 C  
HETATM    6  C   UNL     1      -9.638   7.738  70.013  1.00  0.00    -0.161 C  
HETATM    7  C   UNL     1     -10.098   8.474  71.261  1.00  0.00    -0.286 C  
HETATM    8  C   UNL     1     -10.085   8.104  68.646  1.00  0.00    -0.196 C  
HETATM    9  C   UNL     1      -9.315   7.728  72.321  1.00  0.00    -0.212 A  
HETATM   10  C   UNL     1      -8.565   6.702  71.721  1.00  0.00    -0.126 A  
HETATM   11  C   UNL     1      -9.290   7.931  73.693  1.00  0.00    -0.288 A  
HETATM   12  C   UNL     1      -7.781   5.858  72.488  1.00  0.00    -0.101 A  
HETATM   13  C   UNL     1      -7.756   6.050  73.873  1.00  0.00    -0.094 A  
HETATM   14  C   UNL     1      -8.505   7.078  74.471  1.00  0.00    -0.215 A  
ENDROOT
BRANCH   7  15
HETATM   15  C   UNL     1     -11.604   8.413  71.461  1.00  0.00    -0.338 A  
HETATM   16  C   UNL     1     -13.720   9.486  72.014  1.00  0.00    -0.435 A  
HETATM   17  C   UNL     1     -13.662   7.122  71.540  1.00  0.00    -0.413 A  
HETATM   18  C   UNL     1     -12.341   9.558  71.805  1.00  0.00    -0.474 A  
HETATM   19  C   UNL     1     -12.283   7.191  71.329  1.00  0.00    -0.403 A  
HETATM   20  C   UNL     1     -14.380   8.268  71.882  1.00  0.00    -0.564 A  
ENDBRANCH   7  15
TORSDOF 1
ENDMDL
MODEL       58
REMARK 921   NORMALIZED FREE ENERGY PREDICTED BY IDOCK:   -4.84 KCAL/MOL
REMARK 922        TOTAL FREE ENERGY PREDICTED BY IDOCK:   -5.89 KCAL/MOL
REMARK 923 INTER-LIGAND FREE ENERGY PREDICTED BY IDOCK:   -5.13 KCAL/MOL
REMARK 924 INTRA-LIGAND FREE ENERGY PREDICTED BY IDOCK:   -0.76 KCAL/MOL
REMARK 927      BINDING AFFINITY PREDICTED BY RF-SCORE:    0.00 PKD
ROOT
HETATM    1  C   UNL     1     -12.525  12.447  63.682  1.00  0.00    -0.508 C  
HETATM    2  N   UNL     1     -11.072  12.404  63.677  1.00  0.00    -0.441 NA 
HETATM    3  C   UNL     1     -10.518  11.059  63.469  1.00  0.00    -0.300 C  
HETATM    4  C   UNL     1      -9.677  10.372  64.569  1.00  0.00    -0.393 C  
HETATM    5  C   UNL     1      -9.235  11.299  65.627  1.00  0.00    -0.231 C  
HETATM    6  C   UNL     1      -9.602  12.585  65.699  1.00  0.00    -0.099 C  
HETATM    7  C   UNL     1      -9.038  13.290  66.922  1.00  0.00    -0.235 C  
HETATM    8  C   UNL     1     -10.470  13.262  64.704  1.00  0.00    -0.402 C  
HETATM    9  C   UNL     1      -8.219  12.169  67.528  1.00  0.00    -0.167 A  
HETATM   10  C   UNL     1      -8.359  11.007  66.751  1.00  0.00    -0.147 A  
HETATM   11  C   UNL     1      -7.440  12.179  68.676  1.00  0.00    -0.105 A  
HETATM   12  C   UNL     1      -7.724   9.832  67.115  1.00  0.00    -0.095 A  
HETATM   13  C   UNL     1      -6.943   9.830  68.275  1.00  0.00    -0.073 A  
HETATM   14  C   UNL     1      -6.802  10.995  69.049  1.00  0.00    -0.084 A  
ENDROOT
BRANCH   7  15
HETATM   15  C   UNL     1     -10.120  13.823  67.849  1.00  0.00    -0.246 A  
HETATM   16  C   UNL     1     -11.290  15.681  68.901  1.00  0.00    -0.341 A  
HETATM   17  C   UNL     1     -11.910  13.413  69.440  1.00  0.00    -0.390 A  
HETATM   18  C   UNL     1     -10.312  15.202  68.028  1.00  0.00    -0.240 A  
HETATM   19  C   UNL     1     -10.934  12.932  68.566  1.00  0.00    -0.288 A  
HETATM   20  C   UNL     1     -12.088  14.788  69.608  1.00  0.00    -0.346 A  
ENDBRANCH   7  15
TORSDOF 1
ENDMDL
MODEL       59
REMARK 921   NORMALIZED FREE ENERGY PREDICTED BY IDOCK:   -4.84 KCAL/MOL
REMARK 922        TOTAL FREE ENERGY PREDICTED BY IDOCK:   -5.89 KCAL/MOL
REMARK 923 INTER-LIGAND FREE ENERGY PREDICTED BY IDOCK:   -5.16 KCAL/MOL
REMARK 924 INTRA-LIGAND FREE ENERGY PREDICTED BY IDOCK:   -0.73 KCAL/MOL
REMARK 927      BINDING AFFINITY PREDICTED BY RF-SCORE:    0.00 PKD
ROOT
HETATM    1  C   UNL     1      -7.437  15.045  67.415  1.00  0.00    -0.205 C  
HETATM    2  N   UNL     1      -7.877  14.037  68.366  1.00  0.00    -0.137 NA 
HETATM    3  C   UNL     1      -6.809  13.129  68.805  1.00  0.00    -0.102 C  
HETATM    4  C   UNL     1      -6.876  11.618  68.484  1.00  0.00    -0.073 C  
HETATM    5  C   UNL     1      -8.209  11.178  68.030  1.00  0.00    -0.125 C  
HETATM    6  C   UNL     1      -9.238  12.007  67.812  1.00  0.00    -0.190 C  
HETATM    7  C   UNL     1     -10.475  11.286  67.301  1.00  0.00    -0.249 C  
HETATM    8  C   UNL     1      -9.190  13.473  68.037  1.00  0.00    -0.209 C  
HETATM    9  C   UNL     1      -9.979   9.855  67.313  1.00  0.00    -0.245 A  
HETATM   10  C   UNL     1      -8.641   9.820  67.738  1.00  0.00    -0.125 A  
HETATM   11  C   UNL     1     -10.653   8.695  66.956  1.00  0.00    -0.293 A  
HETATM   12  C   UNL     1      -7.951   8.622  67.808  1.00  0.00    -0.107 A  
HETATM   13  C   UNL     1      -8.619   7.449  67.444  1.00  0.00    -0.118 A  
HETATM   14  C   UNL     1      -9.959   7.485  67.021  1.00  0.00    -0.304 A  
ENDROOT
BRANCH   7  15
HETATM   15  C   UNL     1     -10.913  11.767  65.926  1.00  0.00    -0.354 A  
HETATM   16  C   UNL     1     -12.483  12.952  64.490  1.00  0.00    -0.468 A  
HETATM   17  C   UNL     1     -10.578  11.836  63.520  1.00  0.00    -0.499 A  
HETATM   18  C   UNL     1     -12.074  12.539  65.759  1.00  0.00    -0.443 A  
HETATM   19  C   UNL     1     -10.166  11.421  64.788  1.00  0.00    -0.338 A  
HETATM   20  C   UNL     1     -11.736  12.601  63.371  1.00  0.00    -0.571 A  
ENDBRANCH   7  15
TORSDOF 1
ENDMDL
MODEL       60
REMARK 921   NORMALIZED FREE ENERGY PREDICTED BY IDOCK:   -4.77 KCAL/MOL
REMARK 922        TOTAL FREE ENERGY PREDICTED BY IDOCK:   -5.81 KCAL/MOL
REMARK 923 INTER-LIGAND FREE ENERGY PREDICTED BY IDOCK:   -5.45 KCAL/MOL
REMARK 924 INTRA-LIGAND FREE ENERGY PREDICTED BY IDOCK:   -0.36 KCAL/MOL
REMARK 927      BINDING AFFINITY PREDICTED BY RF-SCORE:    0.00 PKD
ROOT
HETATM    1  C   UNL     1     -11.266  11.306  67.121  1.00  0.00    -0.275 C  
HETATM    2  N   UNL     1     -10.086  10.590  67.577  1.00  0.00    -0.182 NA 
HETATM    3  C   UNL     1      -9.549   9.643  66.592  1.00  0.00    -0.187 C  
HETATM    4  C   UNL     1      -9.527   8.126  66.886  1.00  0.00    -0.244 C  
HETATM    5  C   UNL     1      -9.764   7.804  68.306  1.00  0.00    -0.169 C  
HETATM    6  C   UNL     1     -10.072   8.714  69.239  1.00  0.00    -0.203 C  
HETATM    7  C   UNL     1     -10.312   8.095  70.606  1.00  0.00    -0.214 C  
HETATM    8  C   UNL     1     -10.177  10.172  68.980  1.00  0.00    -0.206 C  
HETATM    9  C   UNL     1     -10.030   6.640  70.299  1.00  0.00    -0.191 A  
HETATM   10  C   UNL     1      -9.718   6.495  68.937  1.00  0.00    -0.134 A  
HETATM   11  C   UNL     1     -10.069   5.544  71.150  1.00  0.00    -0.267 A  
HETATM   12  C   UNL     1      -9.445   5.248  68.402  1.00  0.00    -0.159 A  
HETATM   13  C   UNL     1      -9.489   4.137  69.250  1.00  0.00    -0.258 A  
HETATM   14  C   UNL     1      -9.799   4.284  70.613  1.00  0.00    -0.265 A  
ENDROOT
BRANCH   7  15
HETATM   15  C   UNL     1     -11.718   8.346  71.129  1.00  0.00    -0.315 A  
HETATM   16  C   UNL     1     -13.334   9.748  72.292  1.00  0.00    -0.472 A  
HETATM   17  C   UNL     1     -13.995   7.575  71.483  1.00  0.00    -0.522 A  
HETATM   18  C   UNL     1     -12.048   9.540  71.791  1.00  0.00    -0.459 A  
HETATM   19  C   UNL     1     -12.710   7.364  70.979  1.00  0.00    -0.247 A  
HETATM   20  C   UNL     1     -14.307   8.767  72.139  1.00  0.00    -0.481 A  
ENDBRANCH   7  15
TORSDOF 1
ENDMDL
MODEL       61
REMARK 921   NORMALIZED FREE ENERGY PREDICTED BY IDOCK:   -4.73 KCAL/MOL
REMARK 922        TOTAL FREE ENERGY PREDICTED BY IDOCK:   -5.77 KCAL/MOL
REMARK 923 INTER-LIGAND FREE ENERGY PREDICTED BY IDOCK:   -5.00 KCAL/MOL
REMARK 924 INTRA-LIGAND FREE ENERGY PREDICTED BY IDOCK:   -0.77 KCAL/MOL
REMARK 927      BINDING AFFINITY PREDICTED BY RF-SCORE:    0.00 PKD
ROOT
HETATM    1  C   UNL     1     -11.736  11.184  69.856  1.00  0.00    -0.355 C  
HETATM    2  N   UNL     1     -10.670  11.696  69.011  1.00  0.00    -0.202 NA 
HETATM    3  C   UNL     1     -11.129  12.640  67.982  1.00  0.00    -0.251 C  
HETATM    4  C   UNL     1     -10.988  12.301  66.481  1.00  0.00    -0.320 C  
HETATM    5  C   UNL     1     -10.085  11.164  66.223  1.00  0.00    -0.277 C  
HETATM    6  C   UNL     1      -9.519  10.422  67.184  1.00  0.00    -0.183 C  
HETATM    7  C   UNL     1      -8.677   9.285  66.630  1.00  0.00    -0.139 C  
HETATM    8  C   UNL     1      -9.691  10.669  68.638  1.00  0.00    -0.178 C  
HETATM    9  C   UNL     1      -8.820   9.541  65.144  1.00  0.00    -0.223 A  
HETATM   10  C   UNL     1      -9.660  10.646  64.932  1.00  0.00    -0.323 A  
HETATM   11  C   UNL     1      -8.269   8.839  64.082  1.00  0.00    -0.163 A  
HETATM   12  C   UNL     1      -9.967  11.065  63.649  1.00  0.00    -0.415 A  
HETATM   13  C   UNL     1      -9.423  10.360  62.571  1.00  0.00    -0.292 A  
HETATM   14  C   UNL     1      -8.581   9.256  62.786  1.00  0.00    -0.222 A  
ENDROOT
BRANCH   7  15
HETATM   15  C   UNL     1      -9.176   7.915  67.063  1.00  0.00    -0.181 A  
HETATM   16  C   UNL     1      -8.769   5.701  67.992  1.00  0.00    -0.099 A  
HETATM   17  C   UNL     1     -10.984   6.302  67.251  1.00  0.00    -0.455 A  
HETATM   18  C   UNL     1      -8.307   6.966  67.624  1.00  0.00    -0.123 A  
HETATM   19  C   UNL     1     -10.525   7.568  66.882  1.00  0.00    -0.385 A  
HETATM   20  C   UNL     1     -10.107   5.369  67.805  1.00  0.00    -0.215 A  
ENDBRANCH   7  15
TORSDOF 1
ENDMDL
MODEL       62
REMARK 921   NORMALIZED FREE ENERGY PREDICTED BY IDOCK:   -4.72 KCAL/MOL
REMARK 922        TOTAL FREE ENERGY PREDICTED BY IDOCK:   -5.77 KCAL/MOL
REMARK 923 INTER-LIGAND FREE ENERGY PREDICTED BY IDOCK:   -5.17 KCAL/MOL
REMARK 924 INTRA-LIGAND FREE ENERGY PREDICTED BY IDOCK:   -0.59 KCAL/MOL
REMARK 927      BINDING AFFINITY PREDICTED BY RF-SCORE:    0.00 PKD
ROOT
HETATM    1  C   UNL     1      -6.254   8.710  63.740  1.00  0.00    -0.073 C  
HETATM    2  N   UNL     1      -7.700   8.565  63.760  1.00  0.00    -0.134 NA 
HETATM    3  C   UNL     1      -8.366   9.085  62.559  1.00  0.00    -0.195 C  
HETATM    4  C   UNL     1      -9.346  10.277  62.652  1.00  0.00    -0.335 C  
HETATM    5  C   UNL     1      -9.771  10.574  64.034  1.00  0.00    -0.383 C  
HETATM    6  C   UNL     1      -9.286   9.954  65.117  1.00  0.00    -0.288 C  
HETATM    7  C   UNL     1      -9.864  10.497  66.413  1.00  0.00    -0.260 C  
HETATM    8  C   UNL     1      -8.287   8.857  65.073  1.00  0.00    -0.165 C  
HETATM    9  C   UNL     1     -10.829  11.529  65.869  1.00  0.00    -0.316 A  
HETATM   10  C   UNL     1     -10.749  11.560  64.467  1.00  0.00    -0.390 A  
HETATM   11  C   UNL     1     -11.683  12.375  66.561  1.00  0.00    -0.443 A  
HETATM   12  C   UNL     1     -11.519  12.445  63.733  1.00  0.00    -0.544 A  
HETATM   13  C   UNL     1     -12.378  13.307  64.421  1.00  0.00    -0.410 A  
HETATM   14  C   UNL     1     -12.459  13.273  65.824  1.00  0.00    -0.480 A  
ENDROOT
BRANCH   7  15
HETATM   15  C   UNL     1      -8.804  11.081  67.334  1.00  0.00    -0.138 A  
HETATM   16  C   UNL     1      -7.354  12.918  68.009  1.00  0.00    -0.120 A  
HETATM   17  C   UNL     1      -7.247  10.812  69.181  1.00  0.00    -0.107 A  
HETATM   18  C   UNL     1      -8.347  12.400  67.176  1.00  0.00    -0.181 A  
HETATM   19  C   UNL     1      -8.241  10.292  68.350  1.00  0.00    -0.114 A  
HETATM   20  C   UNL     1      -6.803  12.124  69.010  1.00  0.00    -0.098 A  
ENDBRANCH   7  15
TORSDOF 1
ENDMDL
MODEL       63
REMARK 921   NORMALIZED FREE ENERGY PREDICTED BY IDOCK:   -4.69 KCAL/MOL
REMARK 922        TOTAL FREE ENERGY PREDICTED BY IDOCK:   -5.73 KCAL/MOL
REMARK 923 INTER-LIGAND FREE ENERGY PREDICTED BY IDOCK:   -5.72 KCAL/MOL
REMARK 924 INTRA-LIGAND FREE ENERGY PREDICTED BY IDOCK:   -0.01 KCAL/MOL
REMARK 927      BINDING AFFINITY PREDICTED BY RF-SCORE:    0.00 PKD
ROOT
HETATM    1  C   UNL     1     -13.779   9.298  72.828  1.00  0.00    -0.184 C  
HETATM    2  N   UNL     1     -13.213   8.954  71.534  1.00  0.00    -0.339 NA 
HETATM    3  C   UNL     1     -12.014   8.109  71.617  1.00  0.00    -0.300 C  
HETATM    4  C   UNL     1     -10.647   8.626  71.114  1.00  0.00    -0.291 C  
HETATM    5  C   UNL     1     -10.755   9.839  70.281  1.00  0.00    -0.358 C  
HETATM    6  C   UNL     1     -11.900  10.498  70.060  1.00  0.00    -0.388 C  
HETATM    7  C   UNL     1     -11.707  11.741  69.207  1.00  0.00    -0.398 C  
HETATM    8  C   UNL     1     -13.221  10.075  70.588  1.00  0.00    -0.118 C  
HETATM    9  C   UNL     1     -10.222  11.651  68.927  1.00  0.00    -0.143 A  
HETATM   10  C   UNL     1      -9.684  10.528  69.577  1.00  0.00    -0.147 A  
HETATM   11  C   UNL     1      -9.422  12.503  68.179  1.00  0.00    -0.214 A  
HETATM   12  C   UNL     1      -8.333  10.241  69.494  1.00  0.00    -0.162 A  
HETATM   13  C   UNL     1      -7.516  11.099  68.750  1.00  0.00    -0.118 A  
HETATM   14  C   UNL     1      -8.057  12.220  68.098  1.00  0.00    -0.158 A  
ENDROOT
BRANCH   7  15
HETATM   15  C   UNL     1     -12.115  13.018  69.925  1.00  0.00    -0.347 A  
HETATM   16  C   UNL     1     -12.297  15.446  70.004  1.00  0.00    -0.368 A  
HETATM   17  C   UNL     1     -12.999  14.128  71.898  1.00  0.00    -0.441 A  
HETATM   18  C   UNL     1     -11.945  14.278  69.326  1.00  0.00    -0.375 A  
HETATM   19  C   UNL     1     -12.649  12.957  71.222  1.00  0.00    -0.352 A  
HETATM   20  C   UNL     1     -12.823  15.372  71.290  1.00  0.00    -0.519 A  
ENDBRANCH   7  15
TORSDOF 1
ENDMDL
MODEL       64
REMARK 921   NORMALIZED FREE ENERGY PREDICTED BY IDOCK:   -4.66 KCAL/MOL
REMARK 922        TOTAL FREE ENERGY PREDICTED BY IDOCK:   -5.70 KCAL/MOL
REMARK 923 INTER-LIGAND FREE ENERGY PREDICTED BY IDOCK:   -4.93 KCAL/MOL
REMARK 924 INTRA-LIGAND FREE ENERGY PREDICTED BY IDOCK:   -0.78 KCAL/MOL
REMARK 927      BINDING AFFINITY PREDICTED BY RF-SCORE:    0.00 PKD
ROOT
HETATM    1  C   UNL     1     -10.181  13.433  66.693  1.00  0.00    -0.274 C  
HETATM    2  N   UNL     1     -11.244  12.535  67.113  1.00  0.00    -0.283 NA 
HETATM    3  C   UNL     1     -11.890  12.928  68.373  1.00  0.00    -0.318 C  
HETATM    4  C   UNL     1     -11.803  12.022  69.621  1.00  0.00    -0.401 C  
HETATM    5  C   UNL     1     -11.332  10.657  69.318  1.00  0.00    -0.346 C  
HETATM    6  C   UNL     1     -10.919  10.258  68.108  1.00  0.00    -0.328 C  
HETATM    7  C   UNL     1     -10.442   8.815  68.096  1.00  0.00    -0.243 C  
HETATM    8  C   UNL     1     -10.917  11.121  66.901  1.00  0.00    -0.273 C  
HETATM    9  C   UNL     1     -10.709   8.429  69.536  1.00  0.00    -0.181 A  
HETATM   10  C   UNL     1     -11.224   9.533  70.235  1.00  0.00    -0.307 A  
HETATM   11  C   UNL     1     -10.491   7.213  70.168  1.00  0.00    -0.231 A  
HETATM   12  C   UNL     1     -11.526   9.440  71.582  1.00  0.00    -0.463 A  
HETATM   13  C   UNL     1     -11.303   8.221  72.230  1.00  0.00    -0.446 A  
HETATM   14  C   UNL     1     -10.790   7.117  71.529  1.00  0.00    -0.250 A  
ENDROOT
BRANCH   7  15
HETATM   15  C   UNL     1      -8.983   8.679  67.690  1.00  0.00    -0.141 A  
HETATM   16  C   UNL     1      -7.266   7.819  66.192  1.00  0.00    -0.074 A  
HETATM   17  C   UNL     1      -6.632   9.108  68.129  1.00  0.00    -0.060 A  
HETATM   18  C   UNL     1      -8.610   7.961  66.541  1.00  0.00    -0.149 A  
HETATM   19  C   UNL     1      -7.975   9.254  68.480  1.00  0.00    -0.101 A  
HETATM   20  C   UNL     1      -6.277   8.391  66.985  1.00  0.00    -0.056 A  
ENDBRANCH   7  15
TORSDOF 1
ENDMDL
MODEL       65
REMARK 921   NORMALIZED FREE ENERGY PREDICTED BY IDOCK:   -4.65 KCAL/MOL
REMARK 922        TOTAL FREE ENERGY PREDICTED BY IDOCK:   -5.69 KCAL/MOL
REMARK 923 INTER-LIGAND FREE ENERGY PREDICTED BY IDOCK:   -4.94 KCAL/MOL
REMARK 924 INTRA-LIGAND FREE ENERGY PREDICTED BY IDOCK:   -0.74 KCAL/MOL
REMARK 927      BINDING AFFINITY PREDICTED BY RF-SCORE:    0.00 PKD
ROOT
HETATM    1  C   UNL     1      -7.534   6.095  66.606  1.00  0.00    -0.090 C  
HETATM    2  N   UNL     1      -8.650   6.735  65.928  1.00  0.00    -0.147 NA 
HETATM    3  C   UNL     1      -8.247   7.607  64.816  1.00  0.00    -0.078 C  
HETATM    4  C   UNL     1      -8.522   9.127  64.866  1.00  0.00    -0.191 C  
HETATM    5  C   UNL     1      -9.479   9.512  65.921  1.00  0.00    -0.307 C  
HETATM    6  C   UNL     1      -9.987   8.659  66.820  1.00  0.00    -0.343 C  
HETATM    7  C   UNL     1     -10.907   9.338  67.820  1.00  0.00    -0.192 C  
HETATM    8  C   UNL     1      -9.688   7.205  66.852  1.00  0.00    -0.186 C  
HETATM    9  C   UNL     1     -10.880  10.758  67.294  1.00  0.00    -0.344 A  
HETATM   10  C   UNL     1     -10.026  10.834  66.181  1.00  0.00    -0.283 A  
HETATM   11  C   UNL     1     -11.539  11.880  67.776  1.00  0.00    -0.393 A  
HETATM   12  C   UNL     1      -9.812  12.039  65.534  1.00  0.00    -0.251 A  
HETATM   13  C   UNL     1     -10.465  13.177  66.018  1.00  0.00    -0.291 A  
HETATM   14  C   UNL     1     -11.321  13.098  67.129  1.00  0.00    -0.354 A  
ENDROOT
BRANCH   7  15
HETATM   15  C   UNL     1     -10.418   9.211  69.254  1.00  0.00    -0.231 A  
HETATM   16  C   UNL     1      -8.634   9.323  70.909  1.00  0.00    -0.220 A  
HETATM   17  C   UNL     1     -10.852   8.656  71.580  1.00  0.00    -0.374 A  
HETATM   18  C   UNL     1      -9.079   9.470  69.594  1.00  0.00    -0.207 A  
HETATM   19  C   UNL     1     -11.301   8.803  70.267  1.00  0.00    -0.162 A  
HETATM   20  C   UNL     1      -9.519   8.916  71.901  1.00  0.00    -0.301 A  
ENDBRANCH   7  15
TORSDOF 1
ENDMDL
MODEL       66
REMARK 921   NORMALIZED FREE ENERGY PREDICTED BY IDOCK:   -4.65 KCAL/MOL
REMARK 922        TOTAL FREE ENERGY PREDICTED BY IDOCK:   -5.69 KCAL/MOL
REMARK 923 INTER-LIGAND FREE ENERGY PREDICTED BY IDOCK:   -4.90 KCAL/MOL
REMARK 924 INTRA-LIGAND FREE ENERGY PREDICTED BY IDOCK:   -0.79 KCAL/MOL
REMARK 927      BINDING AFFINITY PREDICTED BY RF-SCORE:    0.00 PKD
ROOT
HETATM    1  C   UNL     1     -11.148   8.085  72.782  1.00  0.00    -0.381 C  
HETATM    2  N   UNL     1     -11.684   6.911  72.113  1.00  0.00    -0.288 NA 
HETATM    3  C   UNL     1     -11.208   5.639  72.675  1.00  0.00    -0.300 C  
HETATM    4  C   UNL     1     -10.354   4.672  71.825  1.00  0.00    -0.208 C  
HETATM    5  C   UNL     1     -10.372   4.991  70.384  1.00  0.00    -0.297 C  
HETATM    6  C   UNL     1     -10.977   6.066  69.862  1.00  0.00    -0.458 C  
HETATM    7  C   UNL     1     -10.792   6.171  68.357  1.00  0.00    -0.382 C  
HETATM    8  C   UNL     1     -11.743   7.059  70.655  1.00  0.00    -0.338 C  
HETATM    9  C   UNL     1      -9.999   4.908  68.092  1.00  0.00    -0.171 A  
HETATM   10  C   UNL     1      -9.758   4.237  69.302  1.00  0.00    -0.240 A  
HETATM   11  C   UNL     1      -9.519   4.416  66.887  1.00  0.00    -0.194 A  
HETATM   12  C   UNL     1      -9.027   3.062  69.327  1.00  0.00    -0.178 A  
HETATM   13  C   UNL     1      -8.532   2.562  68.118  1.00  0.00    -0.097 A  
HETATM   14  C   UNL     1      -8.776   3.234  66.908  1.00  0.00    -0.134 A  
ENDROOT
BRANCH   7  15
HETATM   15  C   UNL     1     -10.070   7.442  67.939  1.00  0.00    -0.220 A  
HETATM   16  C   UNL     1      -9.964   9.492  66.627  1.00  0.00    -0.314 A  
HETATM   17  C   UNL     1      -8.111   8.876  68.042  1.00  0.00    -0.106 A  
HETATM   18  C   UNL     1     -10.646   8.341  67.026  1.00  0.00    -0.328 A  
HETATM   19  C   UNL     1      -8.791   7.726  68.444  1.00  0.00    -0.130 A  
HETATM   20  C   UNL     1      -8.696   9.759  67.134  1.00  0.00    -0.137 A  
ENDBRANCH   7  15
TORSDOF 1
ENDMDL
MODEL       67
REMARK 921   NORMALIZED FREE ENERGY PREDICTED BY IDOCK:   -4.63 KCAL/MOL
REMARK 922        TOTAL FREE ENERGY PREDICTED BY IDOCK:   -5.67 KCAL/MOL
REMARK 923 INTER-LIGAND FREE ENERGY PREDICTED BY IDOCK:   -5.11 KCAL/MOL
REMARK 924 INTRA-LIGAND FREE ENERGY PREDICTED BY IDOCK:   -0.56 KCAL/MOL
REMARK 927      BINDING AFFINITY PREDICTED BY RF-SCORE:    0.00 PKD
ROOT
HETATM    1  C   UNL     1     -11.619   7.245  70.042  1.00  0.00    -0.053 C  
HETATM    2  N   UNL     1     -11.151   8.456  70.695  1.00  0.00    -0.255 NA 
HETATM    3  C   UNL     1     -12.223   9.252  71.308  1.00  0.00    -0.334 C  
HETATM    4  C   UNL     1     -12.538  10.677  70.799  1.00  0.00    -0.479 C  
HETATM    5  C   UNL     1     -11.483  11.232  69.930  1.00  0.00    -0.373 C  
HETATM    6  C   UNL     1     -10.406  10.546  69.528  1.00  0.00    -0.251 C  
HETATM    7  C   UNL     1      -9.512  11.349  68.597  1.00  0.00    -0.168 C  
HETATM    8  C   UNL     1     -10.106   9.150  69.934  1.00  0.00    -0.202 C  
HETATM    9  C   UNL     1     -10.256  12.667  68.576  1.00  0.00    -0.207 A  
HETATM   10  C   UNL     1     -11.417  12.569  69.362  1.00  0.00    -0.327 A  
HETATM   11  C   UNL     1      -9.939  13.838  67.902  1.00  0.00    -0.240 A  
HETATM   12  C   UNL     1     -12.284  13.641  69.481  1.00  0.00    -0.316 A  
HETATM   13  C   UNL     1     -11.977  14.823  68.799  1.00  0.00    -0.292 A  
HETATM   14  C   UNL     1     -10.814  14.920  68.016  1.00  0.00    -0.263 A  
ENDROOT
BRANCH   7  15
HETATM   15  C   UNL     1      -9.364  10.711  67.224  1.00  0.00    -0.166 A  
HETATM   16  C   UNL     1      -8.140   9.309  65.653  1.00  0.00    -0.112 A  
HETATM   17  C   UNL     1     -10.160  10.422  64.946  1.00  0.00    -0.382 A  
HETATM   18  C   UNL     1      -8.282   9.867  66.925  1.00  0.00    -0.120 A  
HETATM   19  C   UNL     1     -10.305  10.981  66.217  1.00  0.00    -0.304 A  
HETATM   20  C   UNL     1      -9.078   9.586  64.664  1.00  0.00    -0.263 A  
ENDBRANCH   7  15
TORSDOF 1
ENDMDL
MODEL       68
REMARK 921   NORMALIZED FREE ENERGY PREDICTED BY IDOCK:   -4.63 KCAL/MOL
REMARK 922        TOTAL FREE ENERGY PREDICTED BY IDOCK:   -5.66 KCAL/MOL
REMARK 923 INTER-LIGAND FREE ENERGY PREDICTED BY IDOCK:   -4.90 KCAL/MOL
REMARK 924 INTRA-LIGAND FREE ENERGY PREDICTED BY IDOCK:   -0.76 KCAL/MOL
REMARK 927      BINDING AFFINITY PREDICTED BY RF-SCORE:    0.00 PKD
ROOT
HETATM    1  C   UNL     1     -12.776  12.503  64.236  1.00  0.00    -0.341 C  
HETATM    2  N   UNL     1     -11.336  12.633  64.083  1.00  0.00    -0.354 NA 
HETATM    3  C   UNL     1     -10.646  11.356  63.858  1.00  0.00    -0.392 C  
HETATM    4  C   UNL     1      -9.623  10.820  64.886  1.00  0.00    -0.307 C  
HETATM    5  C   UNL     1      -9.195  11.836  65.866  1.00  0.00    -0.178 C  
HETATM    6  C   UNL     1      -9.708  13.071  65.938  1.00  0.00    -0.187 C  
HETATM    7  C   UNL     1      -9.117  13.887  67.076  1.00  0.00    -0.259 C  
HETATM    8  C   UNL     1     -10.746  13.598  65.017  1.00  0.00    -0.367 C  
HETATM    9  C   UNL     1      -8.112  12.897  67.626  1.00  0.00    -0.167 A  
HETATM   10  C   UNL     1      -8.184  11.696  66.902  1.00  0.00    -0.169 A  
HETATM   11  C   UNL     1      -7.231  13.047  68.688  1.00  0.00    -0.101 A  
HETATM   12  C   UNL     1      -7.378  10.620  67.232  1.00  0.00    -0.092 A  
HETATM   13  C   UNL     1      -6.492  10.759  68.306  1.00  0.00    -0.058 A  
HETATM   14  C   UNL     1      -6.419  11.962  69.027  1.00  0.00    -0.086 A  
ENDROOT
BRANCH   7  15
HETATM   15  C   UNL     1     -10.160  14.325  68.093  1.00  0.00    -0.232 A  
HETATM   16  C   UNL     1     -12.041  13.826  69.557  1.00  0.00    -0.386 A  
HETATM   17  C   UNL     1     -11.218  16.087  69.389  1.00  0.00    -0.349 A  
HETATM   18  C   UNL     1     -11.069  13.408  68.646  1.00  0.00    -0.295 A  
HETATM   19  C   UNL     1     -10.245  15.672  68.478  1.00  0.00    -0.211 A  
HETATM   20  C   UNL     1     -12.116  15.164  69.928  1.00  0.00    -0.373 A  
ENDBRANCH   7  15
TORSDOF 1
ENDMDL
MODEL       69
REMARK 921   NORMALIZED FREE ENERGY PREDICTED BY IDOCK:   -4.56 KCAL/MOL
REMARK 922        TOTAL FREE ENERGY PREDICTED BY IDOCK:   -5.60 KCAL/MOL
REMARK 923 INTER-LIGAND FREE ENERGY PREDICTED BY IDOCK:   -4.81 KCAL/MOL
REMARK 924 INTRA-LIGAND FREE ENERGY PREDICTED BY IDOCK:   -0.78 KCAL/MOL
REMARK 927      BINDING AFFINITY PREDICTED BY RF-SCORE:    0.00 PKD
ROOT
HETATM    1  C   UNL     1      -5.146  15.576  69.795  1.00  0.00    -0.098 C  
HETATM    2  N   UNL     1      -6.561  15.248  69.837  1.00  0.00    -0.172 NA 
HETATM    3  C   UNL     1      -6.865  13.876  69.411  1.00  0.00    -0.065 C  
HETATM    4  C   UNL     1      -7.722  13.611  68.152  1.00  0.00    -0.138 C  
HETATM    5  C   UNL     1      -8.436  14.810  67.671  1.00  0.00    -0.185 C  
HETATM    6  C   UNL     1      -8.288  16.032  68.197  1.00  0.00    -0.160 C  
HETATM    7  C   UNL     1      -9.107  17.087  67.472  1.00  0.00    -0.223 C  
HETATM    8  C   UNL     1      -7.416  16.340  69.359  1.00  0.00    -0.152 C  
HETATM    9  C   UNL     1      -9.810  16.226  66.444  1.00  0.00    -0.310 A  
HETATM   10  C   UNL     1      -9.392  14.892  66.578  1.00  0.00    -0.308 A  
HETATM   11  C   UNL     1     -10.722  16.602  65.468  1.00  0.00    -0.234 A  
HETATM   12  C   UNL     1      -9.875  13.910  65.730  1.00  0.00    -0.262 A  
HETATM   13  C   UNL     1     -10.788  14.280  64.738  1.00  0.00    -0.420 A  
HETATM   14  C   UNL     1     -11.208  15.615  64.608  1.00  0.00    -0.380 A  
ENDROOT
BRANCH   7  15
HETATM   15  C   UNL     1      -8.249  18.185  66.862  1.00  0.00    -0.258 A  
HETATM   16  C   UNL     1      -6.492  18.910  65.340  1.00  0.00    -0.309 A  
HETATM   17  C   UNL     1      -7.580  20.519  66.769  1.00  0.00    -0.290 A  
HETATM   18  C   UNL     1      -7.293  17.900  65.873  1.00  0.00    -0.247 A  
HETATM   19  C   UNL     1      -8.384  19.511  67.304  1.00  0.00    -0.327 A  
HETATM   20  C   UNL     1      -6.634  20.219  65.788  1.00  0.00    -0.274 A  
ENDBRANCH   7  15
TORSDOF 1
ENDMDL
MODEL       70
REMARK 921   NORMALIZED FREE ENERGY PREDICTED BY IDOCK:   -4.53 KCAL/MOL
REMARK 922        TOTAL FREE ENERGY PREDICTED BY IDOCK:   -5.56 KCAL/MOL
REMARK 923 INTER-LIGAND FREE ENERGY PREDICTED BY IDOCK:   -4.87 KCAL/MOL
REMARK 924 INTRA-LIGAND FREE ENERGY PREDICTED BY IDOCK:   -0.69 KCAL/MOL
REMARK 927      BINDING AFFINITY PREDICTED BY RF-SCORE:    0.00 PKD
ROOT
HETATM    1  C   UNL     1     -14.074   8.479  71.233  1.00  0.00    -0.199 C  
HETATM    2  N   UNL     1     -13.017   9.340  71.737  1.00  0.00    -0.366 NA 
HETATM    3  C   UNL     1     -12.451  10.241  70.723  1.00  0.00    -0.346 C  
HETATM    4  C   UNL     1     -10.970  10.119  70.297  1.00  0.00    -0.380 C  
HETATM    5  C   UNL     1     -10.167   9.290  71.215  1.00  0.00    -0.383 C  
HETATM    6  C   UNL     1     -10.673   8.618  72.257  1.00  0.00    -0.383 C  
HETATM    7  C   UNL     1      -9.625   7.806  72.999  1.00  0.00    -0.320 C  
HETATM    8  C   UNL     1     -12.103   8.649  72.653  1.00  0.00    -0.197 C  
HETATM    9  C   UNL     1      -8.386   8.179  72.212  1.00  0.00    -0.214 A  
HETATM   10  C   UNL     1      -8.734   9.046  71.163  1.00  0.00    -0.266 A  
HETATM   11  C   UNL     1      -7.075   7.766  72.402  1.00  0.00    -0.086 A  
HETATM   12  C   UNL     1      -7.774   9.511  70.281  1.00  0.00    -0.170 A  
HETATM   13  C   UNL     1      -6.451   9.095  70.459  1.00  0.00    -0.056 A  
HETATM   14  C   UNL     1      -6.104   8.229  71.511  1.00  0.00    -0.040 A  
ENDROOT
BRANCH   7  15
HETATM   15  C   UNL     1      -9.922   6.315  72.996  1.00  0.00    -0.183 A  
HETATM   16  C   UNL     1     -10.666   4.294  74.134  1.00  0.00    -0.303 A  
HETATM   17  C   UNL     1      -9.915   4.174  71.845  1.00  0.00    -0.253 A  
HETATM   18  C   UNL     1     -10.423   5.669  74.138  1.00  0.00    -0.281 A  
HETATM   19  C   UNL     1      -9.672   5.549  71.846  1.00  0.00    -0.197 A  
HETATM   20  C   UNL     1     -10.411   3.547  72.989  1.00  0.00    -0.251 A  
ENDBRANCH   7  15
TORSDOF 1
ENDMDL
MODEL       71
REMARK 921   NORMALIZED FREE ENERGY PREDICTED BY IDOCK:   -4.52 KCAL/MOL
REMARK 922        TOTAL FREE ENERGY PREDICTED BY IDOCK:   -5.55 KCAL/MOL
REMARK 923 INTER-LIGAND FREE ENERGY PREDICTED BY IDOCK:   -4.87 KCAL/MOL
REMARK 924 INTRA-LIGAND FREE ENERGY PREDICTED BY IDOCK:   -0.68 KCAL/MOL
REMARK 927      BINDING AFFINITY PREDICTED BY RF-SCORE:    0.00 PKD
ROOT
HETATM    1  C   UNL     1      -7.551   8.117  73.515  1.00  0.00    -0.155 C  
HETATM    2  N   UNL     1      -7.380   7.961  72.080  1.00  0.00    -0.075 NA 
HETATM    3  C   UNL     1      -6.451   8.931  71.484  1.00  0.00    -0.076 C  
HETATM    4  C   UNL     1      -6.947   9.962  70.444  1.00  0.00    -0.145 C  
HETATM    5  C   UNL     1      -8.282   9.647  69.902  1.00  0.00    -0.184 C  
HETATM    6  C   UNL     1      -9.046   8.634  70.332  1.00  0.00    -0.176 C  
HETATM    7  C   UNL     1     -10.393   8.576  69.631  1.00  0.00    -0.218 C  
HETATM    8  C   UNL     1      -8.636   7.668  71.381  1.00  0.00    -0.120 C  
HETATM    9  C   UNL     1     -10.246   9.730  68.663  1.00  0.00    -0.210 A  
HETATM   10  C   UNL     1      -8.998  10.349  68.849  1.00  0.00    -0.170 A  
HETATM   11  C   UNL     1     -11.149  10.199  67.720  1.00  0.00    -0.293 A  
HETATM   12  C   UNL     1      -8.636  11.452  68.096  1.00  0.00    -0.153 A  
HETATM   13  C   UNL     1      -9.543  11.936  67.148  1.00  0.00    -0.192 A  
HETATM   14  C   UNL     1     -10.789  11.315  66.961  1.00  0.00    -0.332 A  
ENDROOT
BRANCH   7  15
HETATM   15  C   UNL     1     -11.564   8.730  70.590  1.00  0.00    -0.236 A  
HETATM   16  C   UNL     1     -13.425   7.781  71.841  1.00  0.00    -0.318 A  
HETATM   17  C   UNL     1     -13.001  10.153  71.937  1.00  0.00    -0.549 A  
HETATM   18  C   UNL     1     -12.335   7.624  70.983  1.00  0.00    -0.234 A  
HETATM   19  C   UNL     1     -11.910  10.000  71.080  1.00  0.00    -0.481 A  
HETATM   20  C   UNL     1     -13.759   9.044  72.318  1.00  0.00    -0.550 A  
ENDBRANCH   7  15
TORSDOF 1
ENDMDL
MODEL       72
REMARK 921   NORMALIZED FREE ENERGY PREDICTED BY IDOCK:   -4.51 KCAL/MOL
REMARK 922        TOTAL FREE ENERGY PREDICTED BY IDOCK:   -5.54 KCAL/MOL
REMARK 923 INTER-LIGAND FREE ENERGY PREDICTED BY IDOCK:   -4.85 KCAL/MOL
REMARK 924 INTRA-LIGAND FREE ENERGY PREDICTED BY IDOCK:   -0.70 KCAL/MOL
REMARK 927      BINDING AFFINITY PREDICTED BY RF-SCORE:    0.00 PKD
ROOT
HETATM    1  C   UNL     1     -13.030  12.533  64.953  1.00  0.00     0.069 C  
HETATM    2  N   UNL     1     -12.400  13.837  64.829  1.00  0.00    -0.517 NA 
HETATM    3  C   UNL     1     -11.101  13.806  64.144  1.00  0.00    -0.171 C  
HETATM    4  C   UNL     1      -9.807  14.208  64.887  1.00  0.00     0.022 C  
HETATM    5  C   UNL     1     -10.060  14.909  66.160  1.00  0.00    -0.316 C  
HETATM    6  C   UNL     1     -11.278  15.095  66.684  1.00  0.00    -0.274 C  
HETATM    7  C   UNL     1     -11.238  15.804  68.028  1.00  0.00    -0.338 C  
HETATM    8  C   UNL     1     -12.540  14.657  66.037  1.00  0.00     0.055 C  
HETATM    9  C   UNL     1      -9.749  16.045  68.163  1.00  0.00    -0.217 A  
HETATM   10  C   UNL     1      -9.078  15.501  67.055  1.00  0.00    -0.250 A  
HETATM   11  C   UNL     1      -9.056  16.671  69.189  1.00  0.00    -0.157 A  
HETATM   12  C   UNL     1      -7.699  15.571  66.958  1.00  0.00    -0.246 A  
HETATM   13  C   UNL     1      -6.991  16.193  67.991  1.00  0.00    -0.139 A  
HETATM   14  C   UNL     1      -7.664  16.739  69.097  1.00  0.00    -0.165 A  
ENDROOT
BRANCH   7  15
HETATM   15  C   UNL     1     -11.824  14.967  69.154  1.00  0.00    -0.338 A  
HETATM   16  C   UNL     1     -12.139  12.824  70.268  1.00  0.00    -0.373 A  
HETATM   17  C   UNL     1     -13.220  14.797  71.137  1.00  0.00    -0.452 A  
HETATM   18  C   UNL     1     -11.574  13.588  69.246  1.00  0.00    -0.369 A  
HETATM   19  C   UNL     1     -12.655  15.564  70.116  1.00  0.00    -0.304 A  
HETATM   20  C   UNL     1     -12.962  13.428  71.213  1.00  0.00    -0.368 A  
ENDBRANCH   7  15
TORSDOF 1
ENDMDL
MODEL       73
REMARK 921   NORMALIZED FREE ENERGY PREDICTED BY IDOCK:   -4.46 KCAL/MOL
REMARK 922        TOTAL FREE ENERGY PREDICTED BY IDOCK:   -5.49 KCAL/MOL
REMARK 923 INTER-LIGAND FREE ENERGY PREDICTED BY IDOCK:   -4.83 KCAL/MOL
REMARK 924 INTRA-LIGAND FREE ENERGY PREDICTED BY IDOCK:   -0.66 KCAL/MOL
REMARK 927      BINDING AFFINITY PREDICTED BY RF-SCORE:    0.00 PKD
ROOT
HETATM    1  C   UNL     1     -13.267   9.395  72.330  1.00  0.00    -0.446 C  
HETATM    2  N   UNL     1     -12.263   8.518  71.751  1.00  0.00    -0.313 NA 
HETATM    3  C   UNL     1     -11.146   8.216  72.657  1.00  0.00    -0.380 C  
HETATM    4  C   UNL     1      -9.708   8.668  72.315  1.00  0.00    -0.357 C  
HETATM    5  C   UNL     1      -9.549   9.092  70.912  1.00  0.00    -0.347 C  
HETATM    6  C   UNL     1     -10.560   9.183  70.037  1.00  0.00    -0.250 C  
HETATM    7  C   UNL     1     -10.115   9.695  68.677  1.00  0.00    -0.196 C  
HETATM    8  C   UNL     1     -11.967   8.831  70.349  1.00  0.00     0.142 C  
HETATM    9  C   UNL     1      -8.626   9.837  68.914  1.00  0.00    -0.134 A  
HETATM   10  C   UNL     1      -8.321   9.484  70.238  1.00  0.00    -0.221 A  
HETATM   11  C   UNL     1      -7.639  10.261  68.035  1.00  0.00    -0.088 A  
HETATM   12  C   UNL     1      -7.021   9.556  70.709  1.00  0.00    -0.108 A  
HETATM   13  C   UNL     1      -6.021   9.990  69.833  1.00  0.00    -0.048 A  
HETATM   14  C   UNL     1      -6.328  10.340  68.507  1.00  0.00    -0.051 A  
ENDROOT
BRANCH   7  15
HETATM   15  C   UNL     1     -10.796  10.997  68.285  1.00  0.00    -0.261 A  
HETATM   16  C   UNL     1     -11.755  12.470  66.598  1.00  0.00    -0.453 A  
HETATM   17  C   UNL     1     -11.652  13.187  68.899  1.00  0.00    -0.354 A  
HETATM   18  C   UNL     1     -11.156  11.260  66.952  1.00  0.00    -0.339 A  
HETATM   19  C   UNL     1     -11.054  11.978  69.256  1.00  0.00    -0.246 A  
HETATM   20  C   UNL     1     -12.003  13.433  67.570  1.00  0.00    -0.381 A  
ENDBRANCH   7  15
TORSDOF 1
ENDMDL
MODEL       74
REMARK 921   NORMALIZED FREE ENERGY PREDICTED BY IDOCK:   -4.38 KCAL/MOL
REMARK 922        TOTAL FREE ENERGY PREDICTED BY IDOCK:   -5.40 KCAL/MOL
REMARK 923 INTER-LIGAND FREE ENERGY PREDICTED BY IDOCK:   -4.68 KCAL/MOL
REMARK 924 INTRA-LIGAND FREE ENERGY PREDICTED BY IDOCK:   -0.72 KCAL/MOL
REMARK 927      BINDING AFFINITY PREDICTED BY RF-SCORE:    0.00 PKD
ROOT
HETATM    1  C   UNL     1     -10.159   6.753  74.079  1.00  0.00    -0.359 C  
HETATM    2  N   UNL     1     -10.959   5.954  73.166  1.00  0.00    -0.262 NA 
HETATM    3  C   UNL     1     -10.517   4.558  73.055  1.00  0.00    -0.194 C  
HETATM    4  C   UNL     1      -9.988   4.001  71.714  1.00  0.00    -0.240 C  
HETATM    5  C   UNL     1     -10.290   4.872  70.562  1.00  0.00    -0.242 C  
HETATM    6  C   UNL     1     -10.871   6.075  70.664  1.00  0.00    -0.364 C  
HETATM    7  C   UNL     1     -11.015   6.773  69.322  1.00  0.00    -0.303 C  
HETATM    8  C   UNL     1     -11.324   6.677  71.943  1.00  0.00    -0.279 C  
HETATM    9  C   UNL     1     -10.448   5.712  68.402  1.00  0.00    -0.263 A  
HETATM   10  C   UNL     1     -10.022   4.608  69.158  1.00  0.00    -0.208 A  
HETATM   11  C   UNL     1     -10.307   5.739  67.021  1.00  0.00    -0.303 A  
HETATM   12  C   UNL     1      -9.440   3.512  68.544  1.00  0.00    -0.207 A  
HETATM   13  C   UNL     1      -9.287   3.533  67.154  1.00  0.00    -0.229 A  
HETATM   14  C   UNL     1      -9.716   4.637  66.399  1.00  0.00    -0.212 A  
ENDROOT
BRANCH   7  15
HETATM   15  C   UNL     1     -10.266   8.095  69.260  1.00  0.00    -0.216 A  
HETATM   16  C   UNL     1      -8.296   9.446  69.738  1.00  0.00    -0.161 A  
HETATM   17  C   UNL     1     -10.211  10.453  68.673  1.00  0.00    -0.196 A  
HETATM   18  C   UNL     1      -8.964   8.221  69.774  1.00  0.00    -0.146 A  
HETATM   19  C   UNL     1     -10.882   9.229  68.706  1.00  0.00    -0.123 A  
HETATM   20  C   UNL     1      -8.919  10.562  69.188  1.00  0.00    -0.171 A  
ENDBRANCH   7  15
TORSDOF 1
ENDMDL
MODEL       75
REMARK 921   NORMALIZED FREE ENERGY PREDICTED BY IDOCK:   -4.36 KCAL/MOL
REMARK 922        TOTAL FREE ENERGY PREDICTED BY IDOCK:   -5.38 KCAL/MOL
REMARK 923 INTER-LIGAND FREE ENERGY PREDICTED BY IDOCK:   -5.06 KCAL/MOL
REMARK 924 INTRA-LIGAND FREE ENERGY PREDICTED BY IDOCK:   -0.32 KCAL/MOL
REMARK 927      BINDING AFFINITY PREDICTED BY RF-SCORE:    0.00 PKD
ROOT
HETATM    1  C   UNL     1      -9.936   8.224  69.752  1.00  0.00    -0.191 C  
HETATM    2  N   UNL     1      -9.885   9.674  69.833  1.00  0.00    -0.224 NA 
HETATM    3  C   UNL     1     -11.180  10.297  70.139  1.00  0.00    -0.318 C  
HETATM    4  C   UNL     1     -11.864  11.237  69.121  1.00  0.00    -0.423 C  
HETATM    5  C   UNL     1     -10.963  11.678  68.039  1.00  0.00    -0.275 C  
HETATM    6  C   UNL     1      -9.708  11.237  67.881  1.00  0.00    -0.185 C  
HETATM    7  C   UNL     1      -9.030  11.821  66.654  1.00  0.00    -0.195 C  
HETATM    8  C   UNL     1      -9.041  10.276  68.795  1.00  0.00    -0.159 C  
HETATM    9  C   UNL     1     -10.124  12.739  66.150  1.00  0.00    -0.274 A  
HETATM   10  C   UNL     1     -11.253  12.630  66.978  1.00  0.00    -0.348 A  
HETATM   11  C   UNL     1     -10.119  13.577  65.044  1.00  0.00    -0.280 A  
HETATM   12  C   UNL     1     -12.401  13.354  66.709  1.00  0.00    -0.287 A  
HETATM   13  C   UNL     1     -12.409  14.196  65.592  1.00  0.00    -0.473 A  
HETATM   14  C   UNL     1     -11.278  14.306  64.766  1.00  0.00    -0.387 A  
ENDROOT
BRANCH   7  15
HETATM   15  C   UNL     1      -8.614  10.760  65.647  1.00  0.00    -0.185 A  
HETATM   16  C   UNL     1      -9.023   9.483  63.614  1.00  0.00    -0.207 A  
HETATM   17  C   UNL     1      -7.065   9.024  64.945  1.00  0.00    -0.091 A  
HETATM   18  C   UNL     1      -9.399  10.479  64.517  1.00  0.00    -0.299 A  
HETATM   19  C   UNL     1      -7.438  10.020  65.850  1.00  0.00    -0.115 A  
HETATM   20  C   UNL     1      -7.857   8.756  63.827  1.00  0.00    -0.145 A  
ENDBRANCH   7  15
TORSDOF 1
ENDMDL
MODEL       76
REMARK 921   NORMALIZED FREE ENERGY PREDICTED BY IDOCK:   -4.34 KCAL/MOL
REMARK 922        TOTAL FREE ENERGY PREDICTED BY IDOCK:   -5.36 KCAL/MOL
REMARK 923 INTER-LIGAND FREE ENERGY PREDICTED BY IDOCK:   -4.58 KCAL/MOL
REMARK 924 INTRA-LIGAND FREE ENERGY PREDICTED BY IDOCK:   -0.79 KCAL/MOL
REMARK 927      BINDING AFFINITY PREDICTED BY RF-SCORE:    0.00 PKD
ROOT
HETATM    1  C   UNL     1     -11.573  16.170  64.545  1.00  0.00    -0.164 C  
HETATM    2  N   UNL     1     -11.249  14.758  64.429  1.00  0.00    -0.242 NA 
HETATM    3  C   UNL     1     -12.400  13.866  64.621  1.00  0.00    -0.388 C  
HETATM    4  C   UNL     1     -12.443  12.877  65.808  1.00  0.00    -0.327 C  
HETATM    5  C   UNL     1     -11.134  12.700  66.465  1.00  0.00    -0.320 C  
HETATM    6  C   UNL     1     -10.035  13.396  66.148  1.00  0.00    -0.299 C  
HETATM    7  C   UNL     1      -8.843  13.043  67.022  1.00  0.00    -0.213 C  
HETATM    8  C   UNL     1      -9.974  14.409  65.065  1.00  0.00    -0.166 C  
HETATM    9  C   UNL     1      -9.452  11.958  67.885  1.00  0.00    -0.194 A  
HETATM   10  C   UNL     1     -10.802  11.781  67.543  1.00  0.00    -0.286 A  
HETATM   11  C   UNL     1      -8.860  11.213  68.896  1.00  0.00    -0.086 A  
HETATM   12  C   UNL     1     -11.587  10.858  68.212  1.00  0.00    -0.335 A  
HETATM   13  C   UNL     1     -11.003  10.108  69.238  1.00  0.00    -0.279 A  
HETATM   14  C   UNL     1      -9.650  10.284  69.577  1.00  0.00    -0.225 A  
ENDROOT
BRANCH   7  15
HETATM   15  C   UNL     1      -8.321  14.231  67.815  1.00  0.00    -0.174 A  
HETATM   16  C   UNL     1      -8.679  16.075  69.365  1.00  0.00    -0.153 A  
HETATM   17  C   UNL     1      -6.499  15.732  68.392  1.00  0.00    -0.113 A  
HETATM   18  C   UNL     1      -9.163  14.969  68.663  1.00  0.00    -0.198 A  
HETATM   19  C   UNL     1      -6.979  14.626  67.690  1.00  0.00    -0.205 A  
HETATM   20  C   UNL     1      -7.349  16.457  69.229  1.00  0.00    -0.211 A  
ENDBRANCH   7  15
TORSDOF 1
ENDMDL
MODEL       77
REMARK 921   NORMALIZED FREE ENERGY PREDICTED BY IDOCK:   -4.32 KCAL/MOL
REMARK 922        TOTAL FREE ENERGY PREDICTED BY IDOCK:   -5.34 KCAL/MOL
REMARK 923 INTER-LIGAND FREE ENERGY PREDICTED BY IDOCK:   -4.70 KCAL/MOL
REMARK 924 INTRA-LIGAND FREE ENERGY PREDICTED BY IDOCK:   -0.64 KCAL/MOL
REMARK 927      BINDING AFFINITY PREDICTED BY RF-SCORE:    0.00 PKD
ROOT
HETATM    1  C   UNL     1     -10.595   5.713  66.705  1.00  0.00    -0.304 C  
HETATM    2  N   UNL     1      -9.516   5.537  67.663  1.00  0.00    -0.115 NA 
HETATM    3  C   UNL     1      -9.548   4.245  68.363  1.00  0.00    -0.133 C  
HETATM    4  C   UNL     1      -9.761   4.182  69.892  1.00  0.00    -0.280 C  
HETATM    5  C   UNL     1      -9.586   5.486  70.559  1.00  0.00    -0.225 C  
HETATM    6  C   UNL     1      -9.367   6.637  69.910  1.00  0.00    -0.153 C  
HETATM    7  C   UNL     1      -9.276   7.831  70.845  1.00  0.00    -0.155 C  
HETATM    8  C   UNL     1      -9.232   6.750  68.436  1.00  0.00    -0.123 C  
HETATM    9  C   UNL     1      -9.432   7.140  72.184  1.00  0.00    -0.152 A  
HETATM   10  C   UNL     1      -9.621   5.762  71.987  1.00  0.00    -0.170 A  
HETATM   11  C   UNL     1      -9.428   7.693  73.457  1.00  0.00    -0.347 A  
HETATM   12  C   UNL     1      -9.815   4.913  73.063  1.00  0.00    -0.174 A  
HETATM   13  C   UNL     1      -9.820   5.462  74.349  1.00  0.00    -0.223 A  
HETATM   14  C   UNL     1      -9.628   6.840  74.544  1.00  0.00    -0.269 A  
ENDROOT
BRANCH   7  15
HETATM   15  C   UNL     1     -10.345   8.878  70.572  1.00  0.00    -0.246 A  
HETATM   16  C   UNL     1     -11.038  11.008  69.615  1.00  0.00    -0.320 A  
HETATM   17  C   UNL     1     -12.622   9.679  70.857  1.00  0.00    -0.299 A  
HETATM   18  C   UNL     1     -10.057  10.040  69.836  1.00  0.00    -0.289 A  
HETATM   19  C   UNL     1     -11.643   8.708  71.080  1.00  0.00    -0.325 A  
HETATM   20  C   UNL     1     -12.320  10.828  70.125  1.00  0.00    -0.401 A  
ENDBRANCH   7  15
TORSDOF 1
ENDMDL
MODEL       78
REMARK 921   NORMALIZED FREE ENERGY PREDICTED BY IDOCK:   -4.27 KCAL/MOL
REMARK 922        TOTAL FREE ENERGY PREDICTED BY IDOCK:   -5.28 KCAL/MOL
REMARK 923 INTER-LIGAND FREE ENERGY PREDICTED BY IDOCK:   -4.50 KCAL/MOL
REMARK 924 INTRA-LIGAND FREE ENERGY PREDICTED BY IDOCK:   -0.78 KCAL/MOL
REMARK 927      BINDING AFFINITY PREDICTED BY RF-SCORE:    0.00 PKD
ROOT
HETATM    1  C   UNL     1      -8.221  10.070  63.798  1.00  0.00    -0.161 C  
HETATM    2  N   UNL     1      -7.729   9.501  65.042  1.00  0.00    -0.109 NA 
HETATM    3  C   UNL     1      -8.070   8.083  65.222  1.00  0.00    -0.138 C  
HETATM    4  C   UNL     1      -8.987   7.633  66.381  1.00  0.00    -0.198 C  
HETATM    5  C   UNL     1      -9.175   8.672  67.412  1.00  0.00    -0.158 C  
HETATM    6  C   UNL     1      -8.693   9.918  67.318  1.00  0.00    -0.131 C  
HETATM    7  C   UNL     1      -9.082  10.789  68.500  1.00  0.00    -0.170 C  
HETATM    8  C   UNL     1      -7.871  10.410  66.184  1.00  0.00    -0.135 C  
HETATM    9  C   UNL     1      -9.847   9.786  69.337  1.00  0.00    -0.217 A  
HETATM   10  C   UNL     1      -9.894   8.551  68.670  1.00  0.00    -0.180 A  
HETATM   11  C   UNL     1     -10.462   9.965  70.568  1.00  0.00    -0.330 A  
HETATM   12  C   UNL     1     -10.564   7.473  69.223  1.00  0.00    -0.215 A  
HETATM   13  C   UNL     1     -11.194   7.645  70.460  1.00  0.00    -0.275 A  
HETATM   14  C   UNL     1     -11.144   8.881  71.127  1.00  0.00    -0.354 A  
ENDROOT
BRANCH   7  15
HETATM   15  C   UNL     1      -9.908  12.000  68.095  1.00  0.00    -0.201 A  
HETATM   16  C   UNL     1     -11.820  12.982  66.950  1.00  0.00    -0.442 A  
HETATM   17  C   UNL     1     -10.224  14.410  68.059  1.00  0.00    -0.228 A  
HETATM   18  C   UNL     1     -11.084  11.862  67.341  1.00  0.00    -0.336 A  
HETATM   19  C   UNL     1      -9.486  13.291  68.452  1.00  0.00    -0.172 A  
HETATM   20  C   UNL     1     -11.390  14.256  67.308  1.00  0.00    -0.350 A  
ENDBRANCH   7  15
TORSDOF 1
ENDMDL
MODEL       79
REMARK 921   NORMALIZED FREE ENERGY PREDICTED BY IDOCK:   -4.18 KCAL/MOL
REMARK 922        TOTAL FREE ENERGY PREDICTED BY IDOCK:   -5.19 KCAL/MOL
REMARK 923 INTER-LIGAND FREE ENERGY PREDICTED BY IDOCK:   -4.48 KCAL/MOL
REMARK 924 INTRA-LIGAND FREE ENERGY PREDICTED BY IDOCK:   -0.71 KCAL/MOL
REMARK 927      BINDING AFFINITY PREDICTED BY RF-SCORE:    0.00 PKD
ROOT
HETATM    1  C   UNL     1      -7.678   6.427  66.434  1.00  0.00    -0.099 C  
HETATM    2  N   UNL     1      -9.102   6.701  66.547  1.00  0.00    -0.146 NA 
HETATM    3  C   UNL     1      -9.443   8.125  66.433  1.00  0.00    -0.218 C  
HETATM    4  C   UNL     1     -10.079   8.881  67.622  1.00  0.00    -0.274 C  
HETATM    5  C   UNL     1     -10.588   7.985  68.677  1.00  0.00    -0.143 C  
HETATM    6  C   UNL     1     -10.431   6.655  68.671  1.00  0.00    -0.241 C  
HETATM    7  C   UNL     1     -11.012   5.990  69.908  1.00  0.00    -0.458 C  
HETATM    8  C   UNL     1      -9.759   5.900  67.585  1.00  0.00    -0.115 C  
HETATM    9  C   UNL     1     -11.591   7.195  70.618  1.00  0.00    -0.354 A  
HETATM   10  C   UNL     1     -11.321   8.357  69.877  1.00  0.00     0.062 A  
HETATM   11  C   UNL     1     -12.276   7.252  71.823  1.00  0.00    -0.368 A  
HETATM   12  C   UNL     1     -11.728   9.599  70.333  1.00  0.00    -0.266 A  
HETATM   13  C   UNL     1     -12.413   9.667  71.551  1.00  0.00    -0.476 A  
HETATM   14  C   UNL     1     -12.685   8.503  72.290  1.00  0.00    -0.420 A  
ENDROOT
BRANCH   7  15
HETATM   15  C   UNL     1      -9.966   5.246  70.725  1.00  0.00    -0.279 A  
HETATM   16  C   UNL     1      -8.065   5.245  72.247  1.00  0.00    -0.110 A  
HETATM   17  C   UNL     1      -8.921   3.157  71.396  1.00  0.00    -0.156 A  
HETATM   18  C   UNL     1      -9.038   5.936  71.523  1.00  0.00    -0.150 A  
HETATM   19  C   UNL     1      -9.897   3.845  70.671  1.00  0.00    -0.193 A  
HETATM   20  C   UNL     1      -8.005   3.857  72.183  1.00  0.00    -0.080 A  
ENDBRANCH   7  15
TORSDOF 1
ENDMDL
MODEL       80
REMARK 921   NORMALIZED FREE ENERGY PREDICTED BY IDOCK:   -4.12 KCAL/MOL
REMARK 922        TOTAL FREE ENERGY PREDICTED BY IDOCK:   -5.13 KCAL/MOL
REMARK 923 INTER-LIGAND FREE ENERGY PREDICTED BY IDOCK:   -4.54 KCAL/MOL
REMARK 924 INTRA-LIGAND FREE ENERGY PREDICTED BY IDOCK:   -0.59 KCAL/MOL
REMARK 927      BINDING AFFINITY PREDICTED BY RF-SCORE:    0.00 PKD
ROOT
HETATM    1  C   UNL     1     -12.274  14.094  64.831  1.00  0.00    -0.438 C  
HETATM    2  N   UNL     1     -11.701  14.605  66.066  1.00  0.00    -0.341 NA 
HETATM    3  C   UNL     1     -10.803  15.751  65.873  1.00  0.00    -0.268 C  
HETATM    4  C   UNL     1      -9.302  15.647  66.230  1.00  0.00    -0.358 C  
HETATM    5  C   UNL     1      -8.981  14.467  67.054  1.00  0.00    -0.257 C  
HETATM    6  C   UNL     1      -9.866  13.517  67.381  1.00  0.00    -0.227 C  
HETATM    7  C   UNL     1      -9.248  12.392  68.195  1.00  0.00    -0.205 C  
HETATM    8  C   UNL     1     -11.299  13.543  66.993  1.00  0.00    -0.324 C  
HETATM    9  C   UNL     1      -7.827  12.901  68.326  1.00  0.00    -0.142 A  
HETATM   10  C   UNL     1      -7.695  14.119  67.639  1.00  0.00    -0.186 A  
HETATM   11  C   UNL     1      -6.749  12.321  68.978  1.00  0.00    -0.105 A  
HETATM   12  C   UNL     1      -6.477  14.775  67.588  1.00  0.00    -0.162 A  
HETATM   13  C   UNL     1      -5.383  14.194  68.237  1.00  0.00    -0.113 A  
HETATM   14  C   UNL     1      -5.518  12.977  68.926  1.00  0.00    -0.071 A  
ENDROOT
BRANCH   7  15
HETATM   15  C   UNL     1      -9.349  11.040  67.506  1.00  0.00    -0.167 A  
HETATM   16  C   UNL     1     -10.449   8.889  67.200  1.00  0.00    -0.344 A  
HETATM   17  C   UNL     1      -8.457   9.408  65.943  1.00  0.00    -0.135 A  
HETATM   18  C   UNL     1     -10.381  10.139  67.817  1.00  0.00    -0.253 A  
HETATM   19  C   UNL     1      -8.387  10.659  66.558  1.00  0.00    -0.143 A  
HETATM   20  C   UNL     1      -9.487   8.523  66.263  1.00  0.00    -0.299 A  
ENDBRANCH   7  15
TORSDOF 1
ENDMDL
MODEL       81
REMARK 921   NORMALIZED FREE ENERGY PREDICTED BY IDOCK:   -4.11 KCAL/MOL
REMARK 922        TOTAL FREE ENERGY PREDICTED BY IDOCK:   -5.12 KCAL/MOL
REMARK 923 INTER-LIGAND FREE ENERGY PREDICTED BY IDOCK:   -4.45 KCAL/MOL
REMARK 924 INTRA-LIGAND FREE ENERGY PREDICTED BY IDOCK:   -0.67 KCAL/MOL
REMARK 927      BINDING AFFINITY PREDICTED BY RF-SCORE:    0.00 PKD
ROOT
HETATM    1  C   UNL     1      -7.839  19.534  67.217  1.00  0.00    -0.261 C  
HETATM    2  N   UNL     1      -8.441  18.643  66.239  1.00  0.00    -0.425 NA 
HETATM    3  C   UNL     1      -9.903  18.763  66.148  1.00  0.00    -0.299 C  
HETATM    4  C   UNL     1     -10.817  17.574  66.519  1.00  0.00     0.055 C  
HETATM    5  C   UNL     1     -10.092  16.294  66.626  1.00  0.00    -0.283 C  
HETATM    6  C   UNL     1      -8.763  16.173  66.520  1.00  0.00    -0.337 C  
HETATM    7  C   UNL     1      -8.284  14.746  66.723  1.00  0.00    -0.039 C  
HETATM    8  C   UNL     1      -7.843  17.304  66.239  1.00  0.00    -0.309 C  
HETATM    9  C   UNL     1      -9.609  14.040  66.919  1.00  0.00    -0.275 A  
HETATM   10  C   UNL     1     -10.656  14.974  66.866  1.00  0.00    -0.297 A  
HETATM   11  C   UNL     1      -9.856  12.693  67.145  1.00  0.00    -0.212 A  
HETATM   12  C   UNL     1     -11.970  14.577  67.044  1.00  0.00    -0.371 A  
HETATM   13  C   UNL     1     -12.228  13.223  67.280  1.00  0.00    -0.258 A  
HETATM   14  C   UNL     1     -11.179  12.289  67.330  1.00  0.00    -0.358 A  
ENDROOT
BRANCH   7  15
HETATM   15  C   UNL     1      -7.337  14.603  67.905  1.00  0.00    -0.164 A  
HETATM   16  C   UNL     1      -5.396  13.581  68.962  1.00  0.00    -0.070 A  
HETATM   17  C   UNL     1      -6.715  15.190  70.180  1.00  0.00    -0.072 A  
HETATM   18  C   UNL     1      -6.242  13.724  67.861  1.00  0.00    -0.160 A  
HETATM   19  C   UNL     1      -7.563  15.338  69.080  1.00  0.00    -0.192 A  
HETATM   20  C   UNL     1      -5.632  14.312  70.121  1.00  0.00    -0.119 A  
ENDBRANCH   7  15
TORSDOF 1
ENDMDL
MODEL       82
REMARK 921   NORMALIZED FREE ENERGY PREDICTED BY IDOCK:   -4.08 KCAL/MOL
REMARK 922        TOTAL FREE ENERGY PREDICTED BY IDOCK:   -5.08 KCAL/MOL
REMARK 923 INTER-LIGAND FREE ENERGY PREDICTED BY IDOCK:   -4.34 KCAL/MOL
REMARK 924 INTRA-LIGAND FREE ENERGY PREDICTED BY IDOCK:   -0.74 KCAL/MOL
REMARK 927      BINDING AFFINITY PREDICTED BY RF-SCORE:    0.00 PKD
ROOT
HETATM    1  C   UNL     1     -11.124   6.830  67.098  1.00  0.00    -0.333 C  
HETATM    2  N   UNL     1      -9.713   7.169  67.004  1.00  0.00    -0.159 NA 
HETATM    3  C   UNL     1      -8.994   7.074  68.281  1.00  0.00    -0.128 C  
HETATM    4  C   UNL     1      -8.368   8.330  68.929  1.00  0.00    -0.127 C  
HETATM    5  C   UNL     1      -8.281   9.479  68.007  1.00  0.00    -0.114 C  
HETATM    6  C   UNL     1      -8.782   9.484  66.765  1.00  0.00    -0.138 C  
HETATM    7  C   UNL     1      -8.594  10.817  66.061  1.00  0.00    -0.181 C  
HETATM    8  C   UNL     1      -9.458   8.322  66.135  1.00  0.00    -0.171 C  
HETATM    9  C   UNL     1      -7.830  11.580  67.122  1.00  0.00    -0.160 A  
HETATM   10  C   UNL     1      -7.666  10.773  68.260  1.00  0.00    -0.109 A  
HETATM   11  C   UNL     1      -7.346  12.879  67.084  1.00  0.00     0.002 A  
HETATM   12  C   UNL     1      -7.019  11.256  69.384  1.00  0.00    -0.109 A  
HETATM   13  C   UNL     1      -6.534  12.568  69.358  1.00  0.00    -0.102 A  
HETATM   14  C   UNL     1      -6.696  13.373  68.218  1.00  0.00    -0.105 A  
ENDROOT
BRANCH   7  15
HETATM   15  C   UNL     1      -9.910  11.470  65.670  1.00  0.00    -0.269 A  
HETATM   16  C   UNL     1     -11.984  12.597  66.271  1.00  0.00    -0.439 A  
HETATM   17  C   UNL     1     -11.527  12.077  63.960  1.00  0.00    -0.484 A  
HETATM   18  C   UNL     1     -10.765  12.024  66.637  1.00  0.00    -0.280 A  
HETATM   19  C   UNL     1     -10.307  11.505  64.323  1.00  0.00    -0.376 A  
HETATM   20  C   UNL     1     -12.366  12.623  64.933  1.00  0.00    -0.563 A  
ENDBRANCH   7  15
TORSDOF 1
ENDMDL
MODEL       83
REMARK 921   NORMALIZED FREE ENERGY PREDICTED BY IDOCK:   -4.04 KCAL/MOL
REMARK 922        TOTAL FREE ENERGY PREDICTED BY IDOCK:   -5.04 KCAL/MOL
REMARK 923 INTER-LIGAND FREE ENERGY PREDICTED BY IDOCK:   -4.26 KCAL/MOL
REMARK 924 INTRA-LIGAND FREE ENERGY PREDICTED BY IDOCK:   -0.79 KCAL/MOL
REMARK 927      BINDING AFFINITY PREDICTED BY RF-SCORE:    0.00 PKD
ROOT
HETATM    1  C   UNL     1      -9.534   9.451  66.804  1.00  0.00    -0.165 C  
HETATM    2  N   UNL     1      -8.545   8.414  67.049  1.00  0.00    -0.121 NA 
HETATM    3  C   UNL     1      -8.483   7.392  65.996  1.00  0.00    -0.148 C  
HETATM    4  C   UNL     1      -8.842   5.920  66.302  1.00  0.00    -0.143 C  
HETATM    5  C   UNL     1      -8.905   5.625  67.746  1.00  0.00    -0.105 C  
HETATM    6  C   UNL     1      -8.771   6.548  68.707  1.00  0.00    -0.123 C  
HETATM    7  C   UNL     1      -8.931   5.970  70.103  1.00  0.00    -0.150 C  
HETATM    8  C   UNL     1      -8.501   7.985  68.451  1.00  0.00    -0.127 C  
HETATM    9  C   UNL     1      -9.133   4.506  69.770  1.00  0.00    -0.166 A  
HETATM   10  C   UNL     1      -9.122   4.332  68.376  1.00  0.00    -0.172 A  
HETATM   11  C   UNL     1      -9.331   3.435  70.629  1.00  0.00    -0.232 A  
HETATM   12  C   UNL     1      -9.314   3.080  67.818  1.00  0.00    -0.251 A  
HETATM   13  C   UNL     1      -9.522   1.995  68.675  1.00  0.00    -0.206 A  
HETATM   14  C   UNL     1      -9.530   2.171  70.070  1.00  0.00    -0.127 A  
ENDROOT
BRANCH   7  15
HETATM   15  C   UNL     1     -10.092   6.586  70.868  1.00  0.00    -0.210 A  
HETATM   16  C   UNL     1     -12.467   7.078  71.093  1.00  0.00    -0.407 A  
HETATM   17  C   UNL     1     -10.912   7.889  72.748  1.00  0.00    -0.456 A  
HETATM   18  C   UNL     1     -11.412   6.484  70.398  1.00  0.00    -0.465 A  
HETATM   19  C   UNL     1      -9.855   7.296  72.056  1.00  0.00    -0.183 A  
HETATM   20  C   UNL     1     -12.218   7.780  72.267  1.00  0.00    -0.298 A  
ENDBRANCH   7  15
TORSDOF 1
ENDMDL
MODEL       84
REMARK 921   NORMALIZED FREE ENERGY PREDICTED BY IDOCK:   -4.01 KCAL/MOL
REMARK 922        TOTAL FREE ENERGY PREDICTED BY IDOCK:   -5.01 KCAL/MOL
REMARK 923 INTER-LIGAND FREE ENERGY PREDICTED BY IDOCK:   -4.25 KCAL/MOL
REMARK 924 INTRA-LIGAND FREE ENERGY PREDICTED BY IDOCK:   -0.76 KCAL/MOL
REMARK 927      BINDING AFFINITY PREDICTED BY RF-SCORE:    0.00 PKD
ROOT
HETATM    1  C   UNL     1      -6.122  12.261  68.348  1.00  0.00    -0.052 C  
HETATM    2  N   UNL     1      -6.999  11.427  69.153  1.00  0.00    -0.110 NA 
HETATM    3  C   UNL     1      -6.350  10.221  69.683  1.00  0.00    -0.062 C  
HETATM    4  C   UNL     1      -6.826   8.815  69.255  1.00  0.00    -0.050 C  
HETATM    5  C   UNL     1      -8.138   8.825  68.580  1.00  0.00    -0.116 C  
HETATM    6  C   UNL     1      -8.812   9.940  68.268  1.00  0.00    -0.119 C  
HETATM    7  C   UNL     1     -10.111   9.654  67.532  1.00  0.00    -0.247 C  
HETATM    8  C   UNL     1      -8.351  11.312  68.595  1.00  0.00    -0.146 C  
HETATM    9  C   UNL     1     -10.089   8.140  67.520  1.00  0.00    -0.286 A  
HETATM   10  C   UNL     1      -8.915   7.678  68.135  1.00  0.00    -0.126 A  
HETATM   11  C   UNL     1     -11.021   7.259  66.991  1.00  0.00    -0.243 A  
HETATM   12  C   UNL     1      -8.649   6.323  68.227  1.00  0.00    -0.117 A  
HETATM   13  C   UNL     1      -9.578   5.426  67.689  1.00  0.00    -0.142 A  
HETATM   14  C   UNL     1     -10.755   5.891  67.076  1.00  0.00    -0.396 A  
ENDROOT
BRANCH   7  15
HETATM   15  C   UNL     1     -10.150  10.274  66.143  1.00  0.00    -0.307 A  
HETATM   16  C   UNL     1      -9.349  10.393  63.846  1.00  0.00    -0.322 A  
HETATM   17  C   UNL     1     -11.024  11.949  64.615  1.00  0.00    -0.370 A  
HETATM   18  C   UNL     1      -9.325   9.800  65.109  1.00  0.00    -0.322 A  
HETATM   19  C   UNL     1     -11.003  11.357  65.879  1.00  0.00    -0.268 A  
HETATM   20  C   UNL     1     -10.197  11.467  63.598  1.00  0.00    -0.450 A  
ENDBRANCH   7  15
TORSDOF 1
ENDMDL
MODEL       85
REMARK 921   NORMALIZED FREE ENERGY PREDICTED BY IDOCK:   -4.00 KCAL/MOL
REMARK 922        TOTAL FREE ENERGY PREDICTED BY IDOCK:   -5.00 KCAL/MOL
REMARK 923 INTER-LIGAND FREE ENERGY PREDICTED BY IDOCK:   -4.51 KCAL/MOL
REMARK 924 INTRA-LIGAND FREE ENERGY PREDICTED BY IDOCK:   -0.49 KCAL/MOL
REMARK 927      BINDING AFFINITY PREDICTED BY RF-SCORE:    0.00 PKD
ROOT
HETATM    1  C   UNL     1     -11.423  11.997  65.108  1.00  0.00    -0.287 C  
HETATM    2  N   UNL     1     -11.044  12.466  66.431  1.00  0.00    -0.286 NA 
HETATM    3  C   UNL     1      -9.827  13.288  66.443  1.00  0.00    -0.281 C  
HETATM    4  C   UNL     1      -8.561  12.813  67.191  1.00  0.00    -0.197 C  
HETATM    5  C   UNL     1      -8.817  11.692  68.115  1.00  0.00    -0.164 C  
HETATM    6  C   UNL     1      -9.997  11.069  68.229  1.00  0.00    -0.190 C  
HETATM    7  C   UNL     1      -9.960   9.917  69.219  1.00  0.00    -0.217 C  
HETATM    8  C   UNL     1     -11.216  11.447  67.471  1.00  0.00    -0.292 C  
HETATM    9  C   UNL     1      -8.530  10.023  69.706  1.00  0.00    -0.189 A  
HETATM   10  C   UNL     1      -7.877  11.070  69.034  1.00  0.00    -0.126 A  
HETATM   11  C   UNL     1      -7.867   9.244  70.644  1.00  0.00    -0.181 A  
HETATM   12  C   UNL     1      -6.546  11.352  69.287  1.00  0.00    -0.106 A  
HETATM   13  C   UNL     1      -5.867  10.567  70.225  1.00  0.00    -0.089 A  
HETATM   14  C   UNL     1      -6.523   9.522  70.898  1.00  0.00    -0.094 A  
ENDROOT
BRANCH   7  15
HETATM   15  C   UNL     1     -10.288   8.577  68.579  1.00  0.00    -0.230 A  
HETATM   16  C   UNL     1     -11.048   6.269  68.751  1.00  0.00    -0.424 A  
HETATM   17  C   UNL     1     -10.350   7.147  66.615  1.00  0.00    -0.222 A  
HETATM   18  C   UNL     1     -10.777   7.504  69.343  1.00  0.00    -0.200 A  
HETATM   19  C   UNL     1     -10.079   8.383  67.204  1.00  0.00    -0.335 A  
HETATM   20  C   UNL     1     -10.835   6.090  67.388  1.00  0.00    -0.394 A  
ENDBRANCH   7  15
TORSDOF 1
ENDMDL
MODEL       86
REMARK 921   NORMALIZED FREE ENERGY PREDICTED BY IDOCK:   -3.95 KCAL/MOL
REMARK 922        TOTAL FREE ENERGY PREDICTED BY IDOCK:   -4.95 KCAL/MOL
REMARK 923 INTER-LIGAND FREE ENERGY PREDICTED BY IDOCK:   -4.55 KCAL/MOL
REMARK 924 INTRA-LIGAND FREE ENERGY PREDICTED BY IDOCK:   -0.39 KCAL/MOL
REMARK 927      BINDING AFFINITY PREDICTED BY RF-SCORE:    0.00 PKD
ROOT
HETATM    1  C   UNL     1      -7.131   7.299  65.854  1.00  0.00    -0.066 C  
HETATM    2  N   UNL     1      -7.136   7.773  67.228  1.00  0.00    -0.083 NA 
HETATM    3  C   UNL     1      -7.759   6.838  68.175  1.00  0.00    -0.109 C  
HETATM    4  C   UNL     1      -9.042   7.229  68.943  1.00  0.00    -0.132 C  
HETATM    5  C   UNL     1      -9.341   8.672  68.880  1.00  0.00    -0.145 C  
HETATM    6  C   UNL     1      -8.641   9.552  68.151  1.00  0.00    -0.120 C  
HETATM    7  C   UNL     1      -9.203  10.962  68.234  1.00  0.00    -0.161 C  
HETATM    8  C   UNL     1      -7.448   9.201  67.341  1.00  0.00    -0.084 C  
HETATM    9  C   UNL     1     -10.345  10.743  69.203  1.00  0.00    -0.238 A  
HETATM   10  C   UNL     1     -10.409   9.386  69.561  1.00  0.00    -0.223 A  
HETATM   11  C   UNL     1     -11.255  11.664  69.702  1.00  0.00    -0.249 A  
HETATM   12  C   UNL     1     -11.391   8.927  70.422  1.00  0.00    -0.229 A  
HETATM   13  C   UNL     1     -12.317   9.846  70.924  1.00  0.00    -0.403 A  
HETATM   14  C   UNL     1     -12.250  11.204  70.567  1.00  0.00    -0.475 A  
ENDROOT
BRANCH   7  15
HETATM   15  C   UNL     1      -9.646  11.501  66.882  1.00  0.00    -0.203 A  
HETATM   16  C   UNL     1     -10.278  13.358  65.439  1.00  0.00    -0.311 A  
HETATM   17  C   UNL     1     -10.324  11.104  64.583  1.00  0.00    -0.393 A  
HETATM   18  C   UNL     1      -9.845  12.876  66.676  1.00  0.00    -0.250 A  
HETATM   19  C   UNL     1      -9.889  10.619  65.818  1.00  0.00    -0.296 A  
HETATM   20  C   UNL     1     -10.519  12.473  64.394  1.00  0.00    -0.384 A  
ENDBRANCH   7  15
TORSDOF 1
ENDMDL
MODEL       87
REMARK 921   NORMALIZED FREE ENERGY PREDICTED BY IDOCK:   -3.84 KCAL/MOL
REMARK 922        TOTAL FREE ENERGY PREDICTED BY IDOCK:   -4.83 KCAL/MOL
REMARK 923 INTER-LIGAND FREE ENERGY PREDICTED BY IDOCK:   -4.09 KCAL/MOL
REMARK 924 INTRA-LIGAND FREE ENERGY PREDICTED BY IDOCK:   -0.75 KCAL/MOL
REMARK 927      BINDING AFFINITY PREDICTED BY RF-SCORE:    0.00 PKD
ROOT
HETATM    1  C   UNL     1     -10.996  19.240  66.399  1.00  0.00    -0.134 C  
HETATM    2  N   UNL     1     -10.222  18.144  65.841  1.00  0.00    -0.596 NA 
HETATM    3  C   UNL     1     -10.785  16.816  66.122  1.00  0.00    -0.116 C  
HETATM    4  C   UNL     1     -10.005  15.794  66.979  1.00  0.00    -0.240 C  
HETATM    5  C   UNL     1      -8.586  16.153  67.168  1.00  0.00    -0.211 C  
HETATM    6  C   UNL     1      -8.039  17.297  66.736  1.00  0.00    -0.280 C  
HETATM    7  C   UNL     1      -6.573  17.426  67.114  1.00  0.00    -0.193 C  
HETATM    8  C   UNL     1      -8.774  18.338  65.976  1.00  0.00     0.033 C  
HETATM    9  C   UNL     1      -6.354  16.099  67.810  1.00  0.00    -0.170 A  
HETATM   10  C   UNL     1      -7.556  15.373  67.836  1.00  0.00    -0.149 A  
HETATM   11  C   UNL     1      -5.196  15.596  68.386  1.00  0.00    -0.100 A  
HETATM   12  C   UNL     1      -7.621  14.132  68.445  1.00  0.00    -0.130 A  
HETATM   13  C   UNL     1      -6.461  13.620  69.035  1.00  0.00    -0.106 A  
HETATM   14  C   UNL     1      -5.258  14.346  69.006  1.00  0.00    -0.082 A  
ENDROOT
BRANCH   7  15
HETATM   15  C   UNL     1      -6.294  18.631  67.999  1.00  0.00    -0.209 A  
HETATM   16  C   UNL     1      -5.280  20.817  68.355  1.00  0.00    -0.314 A  
HETATM   17  C   UNL     1      -6.481  19.744  70.151  1.00  0.00    -0.289 A  
HETATM   18  C   UNL     1      -5.554  19.727  67.526  1.00  0.00    -0.181 A  
HETATM   19  C   UNL     1      -6.757  18.654  69.324  1.00  0.00    -0.266 A  
HETATM   20  C   UNL     1      -5.742  20.825  69.667  1.00  0.00    -0.352 A  
ENDBRANCH   7  15
TORSDOF 1
ENDMDL
MODEL       88
REMARK 921   NORMALIZED FREE ENERGY PREDICTED BY IDOCK:   -3.81 KCAL/MOL
REMARK 922        TOTAL FREE ENERGY PREDICTED BY IDOCK:   -4.80 KCAL/MOL
REMARK 923 INTER-LIGAND FREE ENERGY PREDICTED BY IDOCK:   -4.04 KCAL/MOL
REMARK 924 INTRA-LIGAND FREE ENERGY PREDICTED BY IDOCK:   -0.76 KCAL/MOL
REMARK 927      BINDING AFFINITY PREDICTED BY RF-SCORE:    0.00 PKD
ROOT
HETATM    1  C   UNL     1     -11.375  16.065  70.526  1.00  0.00    -0.401 C  
HETATM    2  N   UNL     1     -11.716  15.235  69.382  1.00  0.00    -0.320 NA 
HETATM    3  C   UNL     1     -12.388  13.979  69.740  1.00  0.00    -0.291 C  
HETATM    4  C   UNL     1     -11.724  12.616  69.443  1.00  0.00    -0.387 C  
HETATM    5  C   UNL     1     -10.586  12.714  68.509  1.00  0.00    -0.262 C  
HETATM    6  C   UNL     1     -10.099  13.869  68.040  1.00  0.00    -0.244 C  
HETATM    7  C   UNL     1      -8.892  13.674  67.136  1.00  0.00    -0.237 C  
HETATM    8  C   UNL     1     -10.662  15.204  68.363  1.00  0.00    -0.248 C  
HETATM    9  C   UNL     1      -8.802  12.163  67.127  1.00  0.00    -0.191 A  
HETATM   10  C   UNL     1      -9.804  11.623  67.948  1.00  0.00    -0.189 A  
HETATM   11  C   UNL     1      -7.896  11.348  66.463  1.00  0.00    -0.105 A  
HETATM   12  C   UNL     1      -9.914  10.254  68.126  1.00  0.00    -0.168 A  
HETATM   13  C   UNL     1      -9.000   9.424  67.468  1.00  0.00    -0.130 A  
HETATM   14  C   UNL     1      -7.999   9.967  66.644  1.00  0.00    -0.113 A  
ENDROOT
BRANCH   7  15
HETATM   15  C   UNL     1      -7.641  14.356  67.667  1.00  0.00    -0.195 A  
HETATM   16  C   UNL     1      -5.861  14.544  69.319  1.00  0.00    -0.101 A  
HETATM   17  C   UNL     1      -5.993  16.136  67.512  1.00  0.00    -0.190 A  
HETATM   18  C   UNL     1      -6.993  13.894  68.824  1.00  0.00    -0.108 A  
HETATM   19  C   UNL     1      -7.124  15.487  67.014  1.00  0.00    -0.072 A  
HETATM   20  C   UNL     1      -5.361  15.664  68.664  1.00  0.00    -0.093 A  
ENDBRANCH   7  15
TORSDOF 1
ENDMDL
MODEL       89
REMARK 921   NORMALIZED FREE ENERGY PREDICTED BY IDOCK:   -3.78 KCAL/MOL
REMARK 922        TOTAL FREE ENERGY PREDICTED BY IDOCK:   -4.76 KCAL/MOL
REMARK 923 INTER-LIGAND FREE ENERGY PREDICTED BY IDOCK:   -3.98 KCAL/MOL
REMARK 924 INTRA-LIGAND FREE ENERGY PREDICTED BY IDOCK:   -0.79 KCAL/MOL
REMARK 927      BINDING AFFINITY PREDICTED BY RF-SCORE:    0.00 PKD
ROOT
HETATM    1  C   UNL     1      -6.644   4.459  68.809  1.00  0.00    -0.045 C  
HETATM    2  N   UNL     1      -7.435   4.910  67.676  1.00  0.00    -0.078 NA 
HETATM    3  C   UNL     1      -6.679   5.716  66.707  1.00  0.00    -0.058 C  
HETATM    4  C   UNL     1      -7.047   7.195  66.453  1.00  0.00    -0.077 C  
HETATM    5  C   UNL     1      -8.367   7.568  66.996  1.00  0.00    -0.121 C  
HETATM    6  C   UNL     1      -9.136   6.750  67.726  1.00  0.00    -0.117 C  
HETATM    7  C   UNL     1     -10.420   7.414  68.196  1.00  0.00    -0.241 C  
HETATM    8  C   UNL     1      -8.782   5.347  68.056  1.00  0.00    -0.106 C  
HETATM    9  C   UNL     1     -10.275   8.775  67.546  1.00  0.00    -0.309 A  
HETATM   10  C   UNL     1      -9.056   8.842  66.853  1.00  0.00    -0.169 A  
HETATM   11  C   UNL     1     -11.142   9.858  67.588  1.00  0.00    -0.170 A  
HETATM   12  C   UNL     1      -8.679   9.999  66.194  1.00  0.00    -0.153 A  
HETATM   13  C   UNL     1      -9.541  11.099  66.237  1.00  0.00    -0.234 A  
HETATM   14  C   UNL     1     -10.763  11.029  66.928  1.00  0.00    -0.325 A  
ENDROOT
BRANCH   7  15
HETATM   15  C   UNL     1     -10.535   7.472  69.711  1.00  0.00    -0.232 A  
HETATM   16  C   UNL     1      -9.676   8.162  71.883  1.00  0.00    -0.268 A  
HETATM   17  C   UNL     1     -11.698   6.855  71.754  1.00  0.00    -0.338 A  
HETATM   18  C   UNL     1      -9.576   8.138  70.491  1.00  0.00    -0.177 A  
HETATM   19  C   UNL     1     -11.602   6.830  70.361  1.00  0.00    -0.422 A  
HETATM   20  C   UNL     1     -10.736   7.520  72.515  1.00  0.00    -0.335 A  
ENDBRANCH   7  15
TORSDOF 1
ENDMDL
MODEL       90
REMARK 921   NORMALIZED FREE ENERGY PREDICTED BY IDOCK:   -3.72 KCAL/MOL
REMARK 922        TOTAL FREE ENERGY PREDICTED BY IDOCK:   -4.70 KCAL/MOL
REMARK 923 INTER-LIGAND FREE ENERGY PREDICTED BY IDOCK:   -4.13 KCAL/MOL
REMARK 924 INTRA-LIGAND FREE ENERGY PREDICTED BY IDOCK:   -0.58 KCAL/MOL
REMARK 927      BINDING AFFINITY PREDICTED BY RF-SCORE:    0.00 PKD
ROOT
HETATM    1  C   UNL     1      -8.257   6.023  69.193  1.00  0.00    -0.111 C  
HETATM    2  N   UNL     1      -8.210   7.209  70.032  1.00  0.00    -0.134 NA 
HETATM    3  C   UNL     1      -9.270   7.259  71.049  1.00  0.00    -0.154 C  
HETATM    4  C   UNL     1     -10.339   8.374  71.019  1.00  0.00    -0.244 C  
HETATM    5  C   UNL     1      -9.987   9.495  70.127  1.00  0.00    -0.285 C  
HETATM    6  C   UNL     1      -8.905   9.514  69.338  1.00  0.00    -0.172 C  
HETATM    7  C   UNL     1      -8.819  10.772  68.489  1.00  0.00    -0.149 C  
HETATM    8  C   UNL     1      -7.894   8.429  69.283  1.00  0.00    -0.104 C  
HETATM    9  C   UNL     1     -10.044  11.515  68.980  1.00  0.00    -0.075 A  
HETATM   10  C   UNL     1     -10.717  10.739  69.937  1.00  0.00    -0.202 A  
HETATM   11  C   UNL     1     -10.523  12.758  68.593  1.00  0.00    -0.230 A  
HETATM   12  C   UNL     1     -11.888  11.192  70.520  1.00  0.00    -0.448 A  
HETATM   13  C   UNL     1     -12.384  12.440  70.130  1.00  0.00    -0.209 A  
HETATM   14  C   UNL     1     -11.707  13.217  69.174  1.00  0.00    -0.376 A  
ENDROOT
BRANCH   7  15
HETATM   15  C   UNL     1      -8.841  10.480  66.997  1.00  0.00    -0.142 A  
HETATM   16  C   UNL     1      -7.683  10.135  64.882  1.00  0.00    -0.143 A  
HETATM   17  C   UNL     1     -10.094  10.096  64.950  1.00  0.00    -0.277 A  
HETATM   18  C   UNL     1      -7.652  10.376  66.257  1.00  0.00    -0.127 A  
HETATM   19  C   UNL     1     -10.065  10.336  66.326  1.00  0.00    -0.300 A  
HETATM   20  C   UNL     1      -8.903   9.996  64.229  1.00  0.00    -0.245 A  
ENDBRANCH   7  15
TORSDOF 1
ENDMDL
MODEL       91
REMARK 921   NORMALIZED FREE ENERGY PREDICTED BY IDOCK:   -3.71 KCAL/MOL
REMARK 922        TOTAL FREE ENERGY PREDICTED BY IDOCK:   -4.70 KCAL/MOL
REMARK 923 INTER-LIGAND FREE ENERGY PREDICTED BY IDOCK:   -3.91 KCAL/MOL
REMARK 924 INTRA-LIGAND FREE ENERGY PREDICTED BY IDOCK:   -0.79 KCAL/MOL
REMARK 927      BINDING AFFINITY PREDICTED BY RF-SCORE:    0.00 PKD
ROOT
HETATM    1  C   UNL     1     -11.722  11.286  69.136  1.00  0.00    -0.341 C  
HETATM    2  N   UNL     1     -10.459  10.896  68.531  1.00  0.00    -0.178 NA 
HETATM    3  C   UNL     1     -10.549  10.629  67.089  1.00  0.00    -0.260 C  
HETATM    4  C   UNL     1     -10.266   9.217  66.529  1.00  0.00    -0.322 C  
HETATM    5  C   UNL     1      -9.602   8.327  67.500  1.00  0.00    -0.194 C  
HETATM    6  C   UNL     1      -9.356   8.658  68.774  1.00  0.00    -0.142 C  
HETATM    7  C   UNL     1      -8.708   7.530  69.559  1.00  0.00    -0.137 C  
HETATM    8  C   UNL     1      -9.681   9.978  69.370  1.00  0.00    -0.225 C  
HETATM    9  C   UNL     1      -8.573   6.485  68.472  1.00  0.00    -0.123 A  
HETATM   10  C   UNL     1      -9.115   6.976  67.273  1.00  0.00    -0.130 A  
HETATM   11  C   UNL     1      -8.038   5.207  68.552  1.00  0.00    -0.086 A  
HETATM   12  C   UNL     1      -9.134   6.192  66.132  1.00  0.00    -0.158 A  
HETATM   13  C   UNL     1      -8.603   4.900  66.204  1.00  0.00    -0.116 A  
HETATM   14  C   UNL     1      -8.060   4.412  67.404  1.00  0.00    -0.100 A  
ENDROOT
BRANCH   7  15
HETATM   15  C   UNL     1      -9.549   7.075  70.742  1.00  0.00    -0.164 A  
HETATM   16  C   UNL     1      -9.803   6.631  73.123  1.00  0.00    -0.188 A  
HETATM   17  C   UNL     1     -11.628   6.168  71.615  1.00  0.00    -0.317 A  
HETATM   18  C   UNL     1      -9.032   7.077  72.048  1.00  0.00    -0.138 A  
HETATM   19  C   UNL     1     -10.860   6.615  70.538  1.00  0.00    -0.310 A  
HETATM   20  C   UNL     1     -11.100   6.176  72.907  1.00  0.00    -0.281 A  
ENDBRANCH   7  15
TORSDOF 1
ENDMDL
MODEL       92
REMARK 921   NORMALIZED FREE ENERGY PREDICTED BY IDOCK:   -3.68 KCAL/MOL
REMARK 922        TOTAL FREE ENERGY PREDICTED BY IDOCK:   -4.66 KCAL/MOL
REMARK 923 INTER-LIGAND FREE ENERGY PREDICTED BY IDOCK:   -3.89 KCAL/MOL
REMARK 924 INTRA-LIGAND FREE ENERGY PREDICTED BY IDOCK:   -0.77 KCAL/MOL
REMARK 927      BINDING AFFINITY PREDICTED BY RF-SCORE:    0.00 PKD
ROOT
HETATM    1  C   UNL     1      -5.991   9.200  66.969  1.00  0.00    -0.056 C  
HETATM    2  N   UNL     1      -7.302   9.706  67.342  1.00  0.00    -0.087 NA 
HETATM    3  C   UNL     1      -7.287  10.580  68.522  1.00  0.00    -0.088 C  
HETATM    4  C   UNL     1      -8.028  10.172  69.816  1.00  0.00    -0.172 C  
HETATM    5  C   UNL     1      -8.972   9.056  69.619  1.00  0.00    -0.153 C  
HETATM    6  C   UNL     1      -9.109   8.384  68.469  1.00  0.00    -0.136 C  
HETATM    7  C   UNL     1     -10.117   7.251  68.567  1.00  0.00    -0.182 C  
HETATM    8  C   UNL     1      -8.360   8.697  67.226  1.00  0.00    -0.108 C  
HETATM    9  C   UNL     1     -10.585   7.426  69.996  1.00  0.00    -0.241 A  
HETATM   10  C   UNL     1      -9.889   8.490  70.595  1.00  0.00    -0.218 A  
HETATM   11  C   UNL     1     -11.527   6.692  70.702  1.00  0.00    -0.420 A  
HETATM   12  C   UNL     1     -10.122   8.833  71.916  1.00  0.00    -0.409 A  
HETATM   13  C   UNL     1     -11.065   8.094  72.638  1.00  0.00    -0.450 A  
HETATM   14  C   UNL     1     -11.761   7.032  72.036  1.00  0.00    -0.332 A  
ENDROOT
BRANCH   7  15
HETATM   15  C   UNL     1      -9.501   5.887  68.291  1.00  0.00    -0.123 A  
HETATM   16  C   UNL     1      -9.522   3.740  67.143  1.00  0.00    -0.234 A  
HETATM   17  C   UNL     1      -7.794   4.222  68.754  1.00  0.00    -0.073 A  
HETATM   18  C   UNL     1     -10.079   4.999  67.369  1.00  0.00    -0.213 A  
HETATM   19  C   UNL     1      -8.348   5.483  68.981  1.00  0.00    -0.102 A  
HETATM   20  C   UNL     1      -8.381   3.350  67.835  1.00  0.00    -0.095 A  
ENDBRANCH   7  15
TORSDOF 1
ENDMDL
MODEL       93
REMARK 921   NORMALIZED FREE ENERGY PREDICTED BY IDOCK:   -3.65 KCAL/MOL
REMARK 922        TOTAL FREE ENERGY PREDICTED BY IDOCK:   -4.63 KCAL/MOL
REMARK 923 INTER-LIGAND FREE ENERGY PREDICTED BY IDOCK:   -3.88 KCAL/MOL
REMARK 924 INTRA-LIGAND FREE ENERGY PREDICTED BY IDOCK:   -0.76 KCAL/MOL
REMARK 927      BINDING AFFINITY PREDICTED BY RF-SCORE:    0.00 PKD
ROOT
HETATM    1  C   UNL     1      -7.364  10.753  68.160  1.00  0.00    -0.088 C  
HETATM    2  N   UNL     1      -6.841  12.068  67.830  1.00  0.00    -0.079 NA 
HETATM    3  C   UNL     1      -6.486  12.877  69.004  1.00  0.00    -0.103 C  
HETATM    4  C   UNL     1      -7.231  14.197  69.308  1.00  0.00    -0.049 C  
HETATM    5  C   UNL     1      -8.036  14.686  68.173  1.00  0.00    -0.136 C  
HETATM    6  C   UNL     1      -8.199  14.016  67.025  1.00  0.00    -0.078 C  
HETATM    7  C   UNL     1      -9.120  14.732  66.052  1.00  0.00    -0.061 C  
HETATM    8  C   UNL     1      -7.561  12.710  66.725  1.00  0.00     0.275 C  
HETATM    9  C   UNL     1      -9.423  15.989  66.840  1.00  0.00    -0.242 A  
HETATM   10  C   UNL     1      -8.780  15.933  68.088  1.00  0.00    -0.171 A  
HETATM   11  C   UNL     1     -10.217  17.071  66.486  1.00  0.00    -0.321 A  
HETATM   12  C   UNL     1      -8.925  16.959  69.006  1.00  0.00    -0.167 A  
HETATM   13  C   UNL     1      -9.728  18.050  68.661  1.00  0.00    -0.356 A  
HETATM   14  C   UNL     1     -10.369  18.106  67.412  1.00  0.00    -0.402 A  
ENDROOT
BRANCH   7  15
HETATM   15  C   UNL     1     -10.357  13.920  65.702  1.00  0.00    -0.337 A  
HETATM   16  C   UNL     1     -12.262  12.556  66.367  1.00  0.00    -0.100 A  
HETATM   17  C   UNL     1     -11.836  12.963  64.028  1.00  0.00    -0.512 A  
HETATM   18  C   UNL     1     -11.145  13.323  66.700  1.00  0.00    -0.311 A  
HETATM   19  C   UNL     1     -10.719  13.731  64.358  1.00  0.00    -0.333 A  
HETATM   20  C   UNL     1     -12.608  12.375  65.031  1.00  0.00    -0.305 A  
ENDBRANCH   7  15
TORSDOF 1
ENDMDL
MODEL       94
REMARK 921   NORMALIZED FREE ENERGY PREDICTED BY IDOCK:   -3.65 KCAL/MOL
REMARK 922        TOTAL FREE ENERGY PREDICTED BY IDOCK:   -4.63 KCAL/MOL
REMARK 923 INTER-LIGAND FREE ENERGY PREDICTED BY IDOCK:   -3.86 KCAL/MOL
REMARK 924 INTRA-LIGAND FREE ENERGY PREDICTED BY IDOCK:   -0.77 KCAL/MOL
REMARK 927      BINDING AFFINITY PREDICTED BY RF-SCORE:    0.00 PKD
ROOT
HETATM    1  C   UNL     1     -10.190   8.202  68.242  1.00  0.00    -0.206 C  
HETATM    2  N   UNL     1      -8.856   8.709  67.965  1.00  0.00    -0.141 NA 
HETATM    3  C   UNL     1      -8.006   8.827  69.157  1.00  0.00    -0.109 C  
HETATM    4  C   UNL     1      -7.498  10.207  69.631  1.00  0.00    -0.147 C  
HETATM    5  C   UNL     1      -7.663  11.268  68.619  1.00  0.00    -0.136 C  
HETATM    6  C   UNL     1      -8.283  11.093  67.445  1.00  0.00    -0.132 C  
HETATM    7  C   UNL     1      -8.351  12.369  66.622  1.00  0.00     0.012 C  
HETATM    8  C   UNL     1      -8.851   9.801  66.986  1.00  0.00    -0.135 C  
HETATM    9  C   UNL     1      -7.598  13.318  67.529  1.00  0.00    -0.169 A  
HETATM   10  C   UNL     1      -7.211  12.648  68.701  1.00  0.00    -0.108 A  
HETATM   11  C   UNL     1      -7.304  14.661  67.336  1.00  0.00    -0.195 A  
HETATM   12  C   UNL     1      -6.527  13.312  69.704  1.00  0.00    -0.053 A  
HETATM   13  C   UNL     1      -6.233  14.667  69.522  1.00  0.00    -0.120 A  
HETATM   14  C   UNL     1      -6.619  15.336  68.348  1.00  0.00    -0.110 A  
ENDROOT
BRANCH   7  15
HETATM   15  C   UNL     1      -9.778  12.808  66.331  1.00  0.00    -0.261 A  
HETATM   16  C   UNL     1     -11.498  13.550  64.773  1.00  0.00    -0.365 A  
HETATM   17  C   UNL     1     -12.008  13.362  67.123  1.00  0.00    -0.415 A  
HETATM   18  C   UNL     1     -10.193  13.121  65.026  1.00  0.00    -0.296 A  
HETATM   19  C   UNL     1     -10.704  12.932  67.379  1.00  0.00    -0.252 A  
HETATM   20  C   UNL     1     -12.404  13.671  65.821  1.00  0.00    -0.524 A  
ENDBRANCH   7  15
TORSDOF 1
ENDMDL
MODEL       95
REMARK 921   NORMALIZED FREE ENERGY PREDICTED BY IDOCK:   -3.65 KCAL/MOL
REMARK 922        TOTAL FREE ENERGY PREDICTED BY IDOCK:   -4.63 KCAL/MOL
REMARK 923 INTER-LIGAND FREE ENERGY PREDICTED BY IDOCK:   -3.87 KCAL/MOL
REMARK 924 INTRA-LIGAND FREE ENERGY PREDICTED BY IDOCK:   -0.75 KCAL/MOL
REMARK 927      BINDING AFFINITY PREDICTED BY RF-SCORE:    0.00 PKD
ROOT
HETATM    1  C   UNL     1      -6.500  14.593  71.411  1.00  0.00     0.592 C  
HETATM    2  N   UNL     1      -5.744  15.304  70.394  1.00  0.00    -0.139 NA 
HETATM    3  C   UNL     1      -5.181  16.580  70.856  1.00  0.00    -0.146 C  
HETATM    4  C   UNL     1      -5.634  17.917  70.227  1.00  0.00    -0.236 C  
HETATM    5  C   UNL     1      -6.378  17.744  68.965  1.00  0.00    -0.224 C  
HETATM    6  C   UNL     1      -6.724  16.554  68.456  1.00  0.00    -0.145 C  
HETATM    7  C   UNL     1      -7.529  16.677  67.172  1.00  0.00    -0.218 C  
HETATM    8  C   UNL     1      -6.373  15.250  69.070  1.00  0.00    -0.108 C  
HETATM    9  C   UNL     1      -7.540  18.181  67.001  1.00  0.00    -0.232 A  
HETATM   10  C   UNL     1      -6.864  18.785  68.074  1.00  0.00    -0.244 A  
HETATM   11  C   UNL     1      -8.119  18.941  65.994  1.00  0.00    -0.159 A  
HETATM   12  C   UNL     1      -6.759  20.163  68.159  1.00  0.00    -0.329 A  
HETATM   13  C   UNL     1      -7.346  20.937  67.153  1.00  0.00    -0.369 A  
HETATM   14  C   UNL     1      -8.020  20.331  66.080  1.00  0.00    -0.155 A  
ENDROOT
BRANCH   7  15
HETATM   15  C   UNL     1      -8.918  16.067  67.286  1.00  0.00    -0.211 A  
HETATM   16  C   UNL     1     -11.019  15.772  68.482  1.00  0.00    -0.312 A  
HETATM   17  C   UNL     1     -10.637  14.585  66.418  1.00  0.00    -0.302 A  
HETATM   18  C   UNL     1      -9.757  16.359  68.373  1.00  0.00    -0.229 A  
HETATM   19  C   UNL     1      -9.375  15.171  66.306  1.00  0.00    -0.348 A  
HETATM   20  C   UNL     1     -11.459  14.885  67.505  1.00  0.00    -0.361 A  
ENDBRANCH   7  15
TORSDOF 1
ENDMDL
MODEL       96
REMARK 921   NORMALIZED FREE ENERGY PREDICTED BY IDOCK:   -3.61 KCAL/MOL
REMARK 922        TOTAL FREE ENERGY PREDICTED BY IDOCK:   -4.59 KCAL/MOL
REMARK 923 INTER-LIGAND FREE ENERGY PREDICTED BY IDOCK:   -3.80 KCAL/MOL
REMARK 924 INTRA-LIGAND FREE ENERGY PREDICTED BY IDOCK:   -0.79 KCAL/MOL
REMARK 927      BINDING AFFINITY PREDICTED BY RF-SCORE:    0.00 PKD
ROOT
HETATM    1  C   UNL     1      -6.965   3.242  69.019  1.00  0.00    -0.045 C  
HETATM    2  N   UNL     1      -8.043   3.998  68.404  1.00  0.00    -0.076 NA 
HETATM    3  C   UNL     1      -7.590   5.180  67.659  1.00  0.00    -0.087 C  
HETATM    4  C   UNL     1      -8.004   6.601  68.105  1.00  0.00    -0.110 C  
HETATM    5  C   UNL     1      -9.111   6.605  69.080  1.00  0.00    -0.133 C  
HETATM    6  C   UNL     1      -9.645   5.499  69.614  1.00  0.00    -0.210 C  
HETATM    7  C   UNL     1     -10.736   5.803  70.627  1.00  0.00    -0.351 C  
HETATM    8  C   UNL     1      -9.223   4.119  69.268  1.00  0.00    -0.147 C  
HETATM    9  C   UNL     1     -10.773   7.315  70.541  1.00  0.00    -0.249 A  
HETATM   10  C   UNL     1      -9.802   7.761  69.630  1.00  0.00    -0.182 A  
HETATM   11  C   UNL     1     -11.583   8.208  71.228  1.00  0.00    -0.305 A  
HETATM   12  C   UNL     1      -9.620   9.113  69.394  1.00  0.00    -0.165 A  
HETATM   13  C   UNL     1     -10.426  10.022  70.088  1.00  0.00    -0.338 A  
HETATM   14  C   UNL     1     -11.399   9.573  70.997  1.00  0.00    -0.423 A  
ENDROOT
BRANCH   7  15
HETATM   15  C   UNL     1     -10.413   5.280  72.018  1.00  0.00    -0.283 A  
HETATM   16  C   UNL     1      -8.942   5.163  73.956  1.00  0.00    -0.116 A  
HETATM   17  C   UNL     1     -10.972   3.862  73.911  1.00  0.00    -0.285 A  
HETATM   18  C   UNL     1      -9.243   5.671  72.691  1.00  0.00    -0.141 A  
HETATM   19  C   UNL     1     -11.277   4.369  72.646  1.00  0.00     0.026 A  
HETATM   20  C   UNL     1      -9.805   4.259  74.566  1.00  0.00    -0.183 A  
ENDBRANCH   7  15
TORSDOF 1
ENDMDL
MODEL       97
REMARK 921   NORMALIZED FREE ENERGY PREDICTED BY IDOCK:   -3.60 KCAL/MOL
REMARK 922        TOTAL FREE ENERGY PREDICTED BY IDOCK:   -4.57 KCAL/MOL
REMARK 923 INTER-LIGAND FREE ENERGY PREDICTED BY IDOCK:   -3.79 KCAL/MOL
REMARK 924 INTRA-LIGAND FREE ENERGY PREDICTED BY IDOCK:   -0.78 KCAL/MOL
REMARK 927      BINDING AFFINITY PREDICTED BY RF-SCORE:    0.00 PKD
ROOT
HETATM    1  C   UNL     1     -11.055   8.016  72.733  1.00  0.00    -0.381 C  
HETATM    2  N   UNL     1     -11.247   7.111  71.611  1.00  0.00    -0.240 NA 
HETATM    3  C   UNL     1     -10.327   5.965  71.609  1.00  0.00    -0.219 C  
HETATM    4  C   UNL     1      -9.298   5.781  70.471  1.00  0.00    -0.189 C  
HETATM    5  C   UNL     1      -9.570   6.633  69.297  1.00  0.00    -0.145 C  
HETATM    6  C   UNL     1     -10.543   7.552  69.247  1.00  0.00    -0.215 C  
HETATM    7  C   UNL     1     -10.560   8.317  67.934  1.00  0.00    -0.212 C  
HETATM    8  C   UNL     1     -11.503   7.811  70.348  1.00  0.00    -0.158 C  
HETATM    9  C   UNL     1      -9.432   7.623  67.200  1.00  0.00    -0.196 A  
HETATM   10  C   UNL     1      -8.861   6.642  68.027  1.00  0.00    -0.115 A  
HETATM   11  C   UNL     1      -8.947   7.860  65.921  1.00  0.00    -0.166 A  
HETATM   12  C   UNL     1      -7.789   5.884  67.590  1.00  0.00    -0.098 A  
HETATM   13  C   UNL     1      -7.288   6.121  66.306  1.00  0.00    -0.084 A  
HETATM   14  C   UNL     1      -7.862   7.101  65.479  1.00  0.00    -0.115 A  
ENDROOT
BRANCH   7  15
HETATM   15  C   UNL     1     -10.340   9.811  68.118  1.00  0.00    -0.241 A  
HETATM   16  C   UNL     1     -11.095  12.114  67.888  1.00  0.00    -0.295 A  
HETATM   17  C   UNL     1      -8.908  11.654  68.794  1.00  0.00    -0.017 A  
HETATM   18  C   UNL     1     -11.319  10.744  67.740  1.00  0.00    -0.354 A  
HETATM   19  C   UNL     1      -9.129  10.283  68.649  1.00  0.00    -0.152 A  
HETATM   20  C   UNL     1      -9.891  12.570  68.413  1.00  0.00    -0.202 A  
ENDBRANCH   7  15
TORSDOF 1
ENDMDL
MODEL       98
REMARK 921   NORMALIZED FREE ENERGY PREDICTED BY IDOCK:   -3.57 KCAL/MOL
REMARK 922        TOTAL FREE ENERGY PREDICTED BY IDOCK:   -4.54 KCAL/MOL
REMARK 923 INTER-LIGAND FREE ENERGY PREDICTED BY IDOCK:   -3.82 KCAL/MOL
REMARK 924 INTRA-LIGAND FREE ENERGY PREDICTED BY IDOCK:   -0.73 KCAL/MOL
REMARK 927      BINDING AFFINITY PREDICTED BY RF-SCORE:    0.00 PKD
ROOT
HETATM    1  C   UNL     1      -8.212   9.573  69.556  1.00  0.00    -0.134 C  
HETATM    2  N   UNL     1      -7.116  10.379  69.045  1.00  0.00    -0.069 NA 
HETATM    3  C   UNL     1      -6.190  10.848  70.085  1.00  0.00    -0.142 C  
HETATM    4  C   UNL     1      -6.028  12.358  70.375  1.00  0.00    -0.095 C  
HETATM    5  C   UNL     1      -6.605  13.218  69.325  1.00  0.00    -0.093 C  
HETATM    6  C   UNL     1      -7.293  12.757  68.272  1.00  0.00    -0.117 C  
HETATM    7  C   UNL     1      -7.814  13.870  67.378  1.00  0.00    -0.177 C  
HETATM    8  C   UNL     1      -7.535  11.318  67.999  1.00  0.00    -0.095 C  
HETATM    9  C   UNL     1      -7.246  15.079  68.091  1.00  0.00    -0.122 A  
HETATM   10  C   UNL     1      -6.546  14.669  69.237  1.00  0.00    -0.128 A  
HETATM   11  C   UNL     1      -7.361  16.422  67.759  1.00  0.00    -0.153 A  
HETATM   12  C   UNL     1      -5.953  15.597  70.075  1.00  0.00    -0.155 A  
HETATM   13  C   UNL     1      -6.070  16.953  69.753  1.00  0.00    -0.229 A  
HETATM   14  C   UNL     1      -6.768  17.362  68.604  1.00  0.00    -0.201 A  
ENDROOT
BRANCH   7  15
HETATM   15  C   UNL     1      -9.331  13.882  67.273  1.00  0.00    -0.231 A  
HETATM   16  C   UNL     1     -11.369  14.104  65.958  1.00  0.00    -0.330 A  
HETATM   17  C   UNL     1     -11.511  13.772  68.342  1.00  0.00    -0.351 A  
HETATM   18  C   UNL     1      -9.976  14.067  66.039  1.00  0.00    -0.331 A  
HETATM   19  C   UNL     1     -10.118  13.733  68.427  1.00  0.00    -0.241 A  
HETATM   20  C   UNL     1     -12.137  13.958  67.109  1.00  0.00    -0.422 A  
ENDBRANCH   7  15
TORSDOF 1
ENDMDL
MODEL       99
REMARK 921   NORMALIZED FREE ENERGY PREDICTED BY IDOCK:   -3.57 KCAL/MOL
REMARK 922        TOTAL FREE ENERGY PREDICTED BY IDOCK:   -4.54 KCAL/MOL
REMARK 923 INTER-LIGAND FREE ENERGY PREDICTED BY IDOCK:   -3.93 KCAL/MOL
REMARK 924 INTRA-LIGAND FREE ENERGY PREDICTED BY IDOCK:   -0.61 KCAL/MOL
REMARK 927      BINDING AFFINITY PREDICTED BY RF-SCORE:    0.00 PKD
ROOT
HETATM    1  C   UNL     1      -7.150  13.413  69.178  1.00  0.00    -0.007 C  
HETATM    2  N   UNL     1      -7.311  12.024  68.779  1.00  0.00    -0.111 NA 
HETATM    3  C   UNL     1      -6.100  11.430  68.197  1.00  0.00    -0.045 C  
HETATM    4  C   UNL     1      -6.083  10.954  66.727  1.00  0.00    -0.088 C  
HETATM    5  C   UNL     1      -7.429  10.849  66.133  1.00  0.00    -0.107 C  
HETATM    6  C   UNL     1      -8.555  11.225  66.755  1.00  0.00    -0.159 C  
HETATM    7  C   UNL     1      -9.791  11.053  65.888  1.00  0.00    -0.278 C  
HETATM    8  C   UNL     1      -8.604  11.758  68.139  1.00  0.00    -0.160 C  
HETATM    9  C   UNL     1      -9.170  10.449  64.646  1.00  0.00    -0.282 A  
HETATM   10  C   UNL     1      -7.779  10.347  64.813  1.00  0.00    -0.069 A  
HETATM   11  C   UNL     1      -9.786  10.047  63.469  1.00  0.00     0.007 A  
HETATM   12  C   UNL     1      -6.979   9.847  63.800  1.00  0.00    -0.124 A  
HETATM   13  C   UNL     1      -7.589   9.446  62.608  1.00  0.00    -0.110 A  
HETATM   14  C   UNL     1      -8.982   9.546  62.443  1.00  0.00    -0.279 A  
ENDROOT
BRANCH   7  15
HETATM   15  C   UNL     1     -10.518  12.364  65.629  1.00  0.00    -0.290 A  
HETATM   16  C   UNL     1     -12.566  13.608  65.195  1.00  0.00    -0.474 A  
HETATM   17  C   UNL     1     -10.451  14.765  65.263  1.00  0.00    -0.427 A  
HETATM   18  C   UNL     1     -11.911  12.404  65.460  1.00  0.00    -0.453 A  
HETATM   19  C   UNL     1      -9.794  13.563  65.529  1.00  0.00    -0.165 A  
HETATM   20  C   UNL     1     -11.836  14.788  65.096  1.00  0.00    -0.313 A  
ENDBRANCH   7  15
TORSDOF 1
ENDMDL
MODEL      100
REMARK 921   NORMALIZED FREE ENERGY PREDICTED BY IDOCK:   -3.55 KCAL/MOL
REMARK 922        TOTAL FREE ENERGY PREDICTED BY IDOCK:   -4.53 KCAL/MOL
REMARK 923 INTER-LIGAND FREE ENERGY PREDICTED BY IDOCK:   -3.79 KCAL/MOL
REMARK 924 INTRA-LIGAND FREE ENERGY PREDICTED BY IDOCK:   -0.74 KCAL/MOL
REMARK 927      BINDING AFFINITY PREDICTED BY RF-SCORE:    0.00 PKD
ROOT
HETATM    1  C   UNL     1      -6.063   7.984  73.108  1.00  0.00    -0.071 C  
HETATM    2  N   UNL     1      -5.922   7.583  71.718  1.00  0.00    -0.036 NA 
HETATM    3  C   UNL     1      -5.872   8.710  70.778  1.00  0.00    -0.033 C  
HETATM    4  C   UNL     1      -6.977   8.900  69.714  1.00  0.00    -0.050 C  
HETATM    5  C   UNL     1      -7.829   7.708  69.540  1.00  0.00    -0.115 C  
HETATM    6  C   UNL     1      -7.736   6.604  70.292  1.00  0.00    -0.098 C  
HETATM    7  C   UNL     1      -8.772   5.555  69.926  1.00  0.00    -0.127 C  
HETATM    8  C   UNL     1      -6.737   6.414  71.374  1.00  0.00    -0.055 C  
HETATM    9  C   UNL     1      -9.461   6.246  68.768  1.00  0.00    -0.124 A  
HETATM   10  C   UNL     1      -8.893   7.514  68.567  1.00  0.00    -0.126 A  
HETATM   11  C   UNL     1     -10.511   5.793  67.981  1.00  0.00    -0.286 A  
HETATM   12  C   UNL     1      -9.371   8.356  67.578  1.00  0.00    -0.172 A  
HETATM   13  C   UNL     1     -10.434   7.912  66.785  1.00  0.00    -0.317 A  
HETATM   14  C   UNL     1     -10.999   6.641  66.985  1.00  0.00    -0.463 A  
ENDROOT
BRANCH   7  15
HETATM   15  C   UNL     1      -9.706   5.219  71.078  1.00  0.00    -0.242 A  
HETATM   16  C   UNL     1     -11.520   5.822  72.588  1.00  0.00    -0.337 A  
HETATM   17  C   UNL     1     -10.419   3.689  72.826  1.00  0.00    -0.219 A  
HETATM   18  C   UNL     1     -10.686   6.128  71.511  1.00  0.00    -0.303 A  
HETATM   19  C   UNL     1      -9.584   3.992  71.749  1.00  0.00    -0.223 A  
HETATM   20  C   UNL     1     -11.387   4.604  73.246  1.00  0.00    -0.393 A  
ENDBRANCH   7  15
TORSDOF 1
ENDMDL
MODEL      101
REMARK 921   NORMALIZED FREE ENERGY PREDICTED BY IDOCK:   -3.55 KCAL/MOL
REMARK 922        TOTAL FREE ENERGY PREDICTED BY IDOCK:   -4.52 KCAL/MOL
REMARK 923 INTER-LIGAND FREE ENERGY PREDICTED BY IDOCK:   -4.13 KCAL/MOL
REMARK 924 INTRA-LIGAND FREE ENERGY PREDICTED BY IDOCK:   -0.39 KCAL/MOL
REMARK 927      BINDING AFFINITY PREDICTED BY RF-SCORE:    0.00 PKD
ROOT
HETATM    1  C   UNL     1     -12.791  13.929  65.302  1.00  0.00    -0.398 C  
HETATM    2  N   UNL     1     -12.253  13.433  66.558  1.00  0.00    -0.386 NA 
HETATM    3  C   UNL     1     -11.683  14.482  67.414  1.00  0.00    -0.400 C  
HETATM    4  C   UNL     1     -10.177  14.484  67.763  1.00  0.00    -0.226 C  
HETATM    5  C   UNL     1      -9.505  13.209  67.448  1.00  0.00    -0.214 C  
HETATM    6  C   UNL     1     -10.099  12.181  66.828  1.00  0.00    -0.218 C  
HETATM    7  C   UNL     1      -9.154  11.015  66.588  1.00  0.00    -0.177 C  
HETATM    8  C   UNL     1     -11.523  12.170  66.410  1.00  0.00    -0.370 C  
HETATM    9  C   UNL     1      -7.896  11.545  67.242  1.00  0.00    -0.153 A  
HETATM   10  C   UNL     1      -8.127  12.841  67.732  1.00  0.00    -0.168 A  
HETATM   11  C   UNL     1      -6.655  10.937  67.367  1.00  0.00    -0.069 A  
HETATM   12  C   UNL     1      -7.115  13.553  68.354  1.00  0.00    -0.107 A  
HETATM   13  C   UNL     1      -5.859  12.952  68.478  1.00  0.00    -0.063 A  
HETATM   14  C   UNL     1      -5.630  11.654  67.989  1.00  0.00    -0.044 A  
ENDROOT
BRANCH   7  15
HETATM   15  C   UNL     1      -8.983  10.688  65.112  1.00  0.00    -0.217 A  
HETATM   16  C   UNL     1      -9.209  11.288  62.763  1.00  0.00    -0.354 A  
HETATM   17  C   UNL     1      -8.346   9.119  63.369  1.00  0.00    -0.192 A  
HETATM   18  C   UNL     1      -9.344  11.609  64.115  1.00  0.00     0.040 A  
HETATM   19  C   UNL     1      -8.479   9.437  64.722  1.00  0.00    -0.180 A  
HETATM   20  C   UNL     1      -8.711  10.044  62.389  1.00  0.00    -0.234 A  
ENDBRANCH   7  15
TORSDOF 1
ENDMDL
MODEL      102
REMARK 921   NORMALIZED FREE ENERGY PREDICTED BY IDOCK:   -3.55 KCAL/MOL
REMARK 922        TOTAL FREE ENERGY PREDICTED BY IDOCK:   -4.52 KCAL/MOL
REMARK 923 INTER-LIGAND FREE ENERGY PREDICTED BY IDOCK:   -4.08 KCAL/MOL
REMARK 924 INTRA-LIGAND FREE ENERGY PREDICTED BY IDOCK:   -0.44 KCAL/MOL
REMARK 927      BINDING AFFINITY PREDICTED BY RF-SCORE:    0.00 PKD
ROOT
HETATM    1  C   UNL     1      -8.738   8.231  70.425  1.00  0.00    -0.139 C  
HETATM    2  N   UNL     1      -9.064   7.651  69.132  1.00  0.00    -0.142 NA 
HETATM    3  C   UNL     1      -7.893   7.176  68.383  1.00  0.00    -0.122 C  
HETATM    4  C   UNL     1      -7.505   7.820  67.032  1.00  0.00    -0.095 C  
HETATM    5  C   UNL     1      -8.574   8.662  66.461  1.00  0.00    -0.124 C  
HETATM    6  C   UNL     1      -9.727   8.936  67.085  1.00  0.00    -0.241 C  
HETATM    7  C   UNL     1     -10.620   9.870  66.285  1.00  0.00    -0.089 C  
HETATM    8  C   UNL     1     -10.103   8.398  68.416  1.00  0.00    -0.198 C  
HETATM    9  C   UNL     1      -9.779  10.047  65.038  1.00  0.00    -0.386 A  
HETATM   10  C   UNL     1      -8.577   9.333  65.171  1.00  0.00    -0.194 A  
HETATM   11  C   UNL     1     -10.053  10.794  63.900  1.00  0.00    -0.397 A  
HETATM   12  C   UNL     1      -7.624   9.359  64.168  1.00  0.00    -0.115 A  
HETATM   13  C   UNL     1      -7.887  10.115  63.021  1.00  0.00    -0.149 A  
HETATM   14  C   UNL     1      -9.091  10.827  62.888  1.00  0.00    -0.308 A  
ENDROOT
BRANCH   7  15
HETATM   15  C   UNL     1     -10.914  11.173  67.012  1.00  0.00    -0.348 A  
HETATM   16  C   UNL     1     -12.259  13.180  67.316  1.00  0.00    -0.234 A  
HETATM   17  C   UNL     1     -10.311  12.822  68.692  1.00  0.00    -0.194 A  
HETATM   18  C   UNL     1     -12.014  11.972  66.661  1.00  0.00    -0.082 A  
HETATM   19  C   UNL     1     -10.064  11.613  68.039  1.00  0.00    -0.198 A  
HETATM   20  C   UNL     1     -11.408  13.606  68.330  1.00  0.00    -0.329 A  
ENDBRANCH   7  15
TORSDOF 1
ENDMDL
MODEL      103
REMARK 921   NORMALIZED FREE ENERGY PREDICTED BY IDOCK:   -3.54 KCAL/MOL
REMARK 922        TOTAL FREE ENERGY PREDICTED BY IDOCK:   -4.51 KCAL/MOL
REMARK 923 INTER-LIGAND FREE ENERGY PREDICTED BY IDOCK:   -4.78 KCAL/MOL
REMARK 924 INTRA-LIGAND FREE ENERGY PREDICTED BY IDOCK:    0.27 KCAL/MOL
REMARK 927      BINDING AFFINITY PREDICTED BY RF-SCORE:    0.00 PKD
ROOT
HETATM    1  C   UNL     1     -12.684   9.958  71.470  1.00  0.00    -0.415 C  
HETATM    2  N   UNL     1     -11.570  10.626  70.817  1.00  0.00    -0.332 NA 
HETATM    3  C   UNL     1     -11.975  11.540  69.741  1.00  0.00    -0.346 C  
HETATM    4  C   UNL     1     -11.553  11.273  68.278  1.00  0.00    -0.370 C  
HETATM    5  C   UNL     1     -10.482  10.265  68.156  1.00  0.00    -0.224 C  
HETATM    6  C   UNL     1      -9.989   9.567  69.187  1.00  0.00    -0.185 C  
HETATM    7  C   UNL     1      -8.931   8.562  68.763  1.00  0.00    -0.139 C  
HETATM    8  C   UNL     1     -10.422   9.741  70.596  1.00  0.00    -0.289 C  
HETATM    9  C   UNL     1      -8.864   8.848  67.277  1.00  0.00    -0.137 A  
HETATM   10  C   UNL     1      -9.793   9.848  66.945  1.00  0.00    -0.252 A  
HETATM   11  C   UNL     1      -8.065   8.256  66.309  1.00  0.00    -0.109 A  
HETATM   12  C   UNL     1      -9.942  10.269  65.635  1.00  0.00    -0.347 A  
HETATM   13  C   UNL     1      -9.146   9.673  64.651  1.00  0.00    -0.286 A  
HETATM   14  C   UNL     1      -8.215   8.675  64.986  1.00  0.00    -0.159 A  
ENDROOT
BRANCH   7  15
HETATM   15  C   UNL     1      -9.314   7.127  69.090  1.00  0.00    -0.141 A  
HETATM   16  C   UNL     1     -10.539   5.509  70.436  1.00  0.00    -0.350 A  
HETATM   17  C   UNL     1      -9.072   4.743  68.682  1.00  0.00    -0.149 A  
HETATM   18  C   UNL     1     -10.215   6.831  70.126  1.00  0.00    -0.215 A  
HETATM   19  C   UNL     1      -8.747   6.064  68.368  1.00  0.00    -0.113 A  
HETATM   20  C   UNL     1      -9.968   4.465  69.716  1.00  0.00    -0.224 A  
ENDBRANCH   7  15
TORSDOF 1
ENDMDL
MODEL      104
REMARK 921   NORMALIZED FREE ENERGY PREDICTED BY IDOCK:   -3.53 KCAL/MOL
REMARK 922        TOTAL FREE ENERGY PREDICTED BY IDOCK:   -4.50 KCAL/MOL
REMARK 923 INTER-LIGAND FREE ENERGY PREDICTED BY IDOCK:   -4.07 KCAL/MOL
REMARK 924 INTRA-LIGAND FREE ENERGY PREDICTED BY IDOCK:   -0.43 KCAL/MOL
REMARK 927      BINDING AFFINITY PREDICTED BY RF-SCORE:    0.00 PKD
ROOT
HETATM    1  C   UNL     1      -6.750   9.531  69.065  1.00  0.00    -0.050 C  
HETATM    2  N   UNL     1      -7.047  10.780  68.383  1.00  0.00    -0.073 NA 
HETATM    3  C   UNL     1      -8.136  11.548  69.002  1.00  0.00     0.042 C  
HETATM    4  C   UNL     1      -9.450  11.814  68.233  1.00  0.00    -0.193 C  
HETATM    5  C   UNL     1      -9.348  11.530  66.789  1.00  0.00    -0.191 C  
HETATM    6  C   UNL     1      -8.268  10.997  66.205  1.00  0.00    -0.155 C  
HETATM    7  C   UNL     1      -8.460  10.766  64.715  1.00  0.00    -0.038 C  
HETATM    8  C   UNL     1      -7.013  10.657  66.922  1.00  0.00    -0.100 C  
HETATM    9  C   UNL     1      -9.856  11.322  64.532  1.00  0.00    -0.317 A  
HETATM   10  C   UNL     1     -10.359  11.757  65.769  1.00  0.00    -0.293 A  
HETATM   11  C   UNL     1     -10.614  11.411  63.373  1.00  0.00    -0.435 A  
HETATM   12  C   UNL     1     -11.635  12.285  65.868  1.00  0.00    -0.450 A  
HETATM   13  C   UNL     1     -12.410  12.372  64.707  1.00  0.00    -0.497 A  
HETATM   14  C   UNL     1     -11.904  11.938  63.470  1.00  0.00    -0.560 A  
ENDROOT
BRANCH   7  15
HETATM   15  C   UNL     1      -8.331   9.302  64.323  1.00  0.00    -0.180 A  
HETATM   16  C   UNL     1      -8.323   6.938  64.908  1.00  0.00    -0.022 A  
HETATM   17  C   UNL     1      -7.892   7.612  62.633  1.00  0.00    -0.131 A  
HETATM   18  C   UNL     1      -8.471   8.277  65.273  1.00  0.00    -0.179 A  
HETATM   19  C   UNL     1      -8.040   8.952  62.994  1.00  0.00    -0.172 A  
HETATM   20  C   UNL     1      -8.033   6.605  63.589  1.00  0.00    -0.070 A  
ENDBRANCH   7  15
TORSDOF 1
ENDMDL
MODEL      105
REMARK 921   NORMALIZED FREE ENERGY PREDICTED BY IDOCK:   -3.38 KCAL/MOL
REMARK 922        TOTAL FREE ENERGY PREDICTED BY IDOCK:   -4.34 KCAL/MOL
REMARK 923 INTER-LIGAND FREE ENERGY PREDICTED BY IDOCK:   -4.58 KCAL/MOL
REMARK 924 INTRA-LIGAND FREE ENERGY PREDICTED BY IDOCK:    0.23 KCAL/MOL
REMARK 927      BINDING AFFINITY PREDICTED BY RF-SCORE:    0.00 PKD
ROOT
HETATM    1  C   UNL     1      -8.729   6.292  65.395  1.00  0.00    -0.045 C  
HETATM    2  N   UNL     1      -8.237   6.125  66.753  1.00  0.00    -0.109 NA 
HETATM    3  C   UNL     1      -8.684   4.883  67.398  1.00  0.00    -0.103 C  
HETATM    4  C   UNL     1      -9.590   4.925  68.649  1.00  0.00    -0.215 C  
HETATM    5  C   UNL     1      -9.655   6.259  69.277  1.00  0.00    -0.147 C  
HETATM    6  C   UNL     1      -9.078   7.355  68.769  1.00  0.00    -0.131 C  
HETATM    7  C   UNL     1      -9.350   8.600  69.597  1.00  0.00    -0.161 C  
HETATM    8  C   UNL     1      -8.263   7.370  67.528  1.00  0.00    -0.113 C  
HETATM    9  C   UNL     1     -10.161   8.002  70.727  1.00  0.00    -0.209 A  
HETATM   10  C   UNL     1     -10.333   6.625  70.510  1.00  0.00    -0.231 A  
HETATM   11  C   UNL     1     -10.712   8.632  71.834  1.00  0.00    -0.414 A  
HETATM   12  C   UNL     1     -11.066   5.854  71.396  1.00  0.00    -0.313 A  
HETATM   13  C   UNL     1     -11.632   6.482  72.511  1.00  0.00    -0.243 A  
HETATM   14  C   UNL     1     -11.457   7.859  72.728  1.00  0.00    -0.428 A  
ENDROOT
BRANCH   7  15
HETATM   15  C   UNL     1     -10.090   9.677  68.819  1.00  0.00    -0.193 A  
HETATM   16  C   UNL     1     -10.750  10.701  66.711  1.00  0.00    -0.272 A  
HETATM   17  C   UNL     1     -11.428  11.705  68.796  1.00  0.00    -0.346 A  
HETATM   18  C   UNL     1     -10.090   9.693  67.415  1.00  0.00    -0.257 A  
HETATM   19  C   UNL     1     -10.771  10.697  69.503  1.00  0.00    -0.290 A  
HETATM   20  C   UNL     1     -11.418  11.708  67.400  1.00  0.00    -0.357 A  
ENDBRANCH   7  15
TORSDOF 1
ENDMDL
MODEL      106
REMARK 921   NORMALIZED FREE ENERGY PREDICTED BY IDOCK:   -3.32 KCAL/MOL
REMARK 922        TOTAL FREE ENERGY PREDICTED BY IDOCK:   -4.28 KCAL/MOL
REMARK 923 INTER-LIGAND FREE ENERGY PREDICTED BY IDOCK:   -3.52 KCAL/MOL
REMARK 924 INTRA-LIGAND FREE ENERGY PREDICTED BY IDOCK:   -0.77 KCAL/MOL
REMARK 927      BINDING AFFINITY PREDICTED BY RF-SCORE:    0.00 PKD
ROOT
HETATM    1  C   UNL     1      -7.003   9.325  70.282  1.00  0.00    -0.076 C  
HETATM    2  N   UNL     1      -6.581  10.013  69.074  1.00  0.00    -0.051 NA 
HETATM    3  C   UNL     1      -6.995  11.422  69.018  1.00  0.00    -0.106 C  
HETATM    4  C   UNL     1      -7.971  11.915  67.926  1.00  0.00    -0.144 C  
HETATM    5  C   UNL     1      -8.144  10.952  66.822  1.00  0.00    -0.142 C  
HETATM    6  C   UNL     1      -7.600   9.728  66.802  1.00  0.00    -0.095 C  
HETATM    7  C   UNL     1      -7.987   8.934  65.566  1.00  0.00    -0.107 C  
HETATM    8  C   UNL     1      -6.718   9.190  67.868  1.00  0.00    -0.068 C  
HETATM    9  C   UNL     1      -8.827   9.960  64.835  1.00  0.00    -0.223 A  
HETATM   10  C   UNL     1      -8.910  11.135  65.599  1.00  0.00    -0.165 A  
HETATM   11  C   UNL     1      -9.474   9.847  63.612  1.00  0.00    -0.154 A  
HETATM   12  C   UNL     1      -9.649  12.218  65.155  1.00  0.00    -0.015 A  
HETATM   13  C   UNL     1     -10.311  12.111  63.928  1.00  0.00    -0.441 A  
HETATM   14  C   UNL     1     -10.225  10.936  63.163  1.00  0.00    -0.253 A  
ENDROOT
BRANCH   7  15
HETATM   15  C   UNL     1      -8.740   7.655  65.897  1.00  0.00    -0.176 A  
HETATM   16  C   UNL     1      -9.074   5.257  65.634  1.00  0.00    -0.158 A  
HETATM   17  C   UNL     1     -10.568   6.529  67.035  1.00  0.00    -0.402 A  
HETATM   18  C   UNL     1      -8.360   6.420  65.345  1.00  0.00    -0.141 A  
HETATM   19  C   UNL     1      -9.855   7.695  66.750  1.00  0.00    -0.307 A  
HETATM   20  C   UNL     1     -10.179   5.310  66.478  1.00  0.00    -0.293 A  
ENDBRANCH   7  15
TORSDOF 1
ENDMDL
MODEL      107
REMARK 921   NORMALIZED FREE ENERGY PREDICTED BY IDOCK:   -3.31 KCAL/MOL
REMARK 922        TOTAL FREE ENERGY PREDICTED BY IDOCK:   -4.27 KCAL/MOL
REMARK 923 INTER-LIGAND FREE ENERGY PREDICTED BY IDOCK:   -3.56 KCAL/MOL
REMARK 924 INTRA-LIGAND FREE ENERGY PREDICTED BY IDOCK:   -0.71 KCAL/MOL
REMARK 927      BINDING AFFINITY PREDICTED BY RF-SCORE:    0.00 PKD
ROOT
HETATM    1  C   UNL     1     -11.142   9.029  69.958  1.00  0.00    -0.182 C  
HETATM    2  N   UNL     1     -10.037   8.382  69.272  1.00  0.00    -0.197 NA 
HETATM    3  C   UNL     1     -10.373   7.906  67.923  1.00  0.00    -0.221 C  
HETATM    4  C   UNL     1     -10.337   6.398  67.586  1.00  0.00    -0.243 C  
HETATM    5  C   UNL     1      -9.636   5.591  68.603  1.00  0.00    -0.172 C  
HETATM    6  C   UNL     1      -9.165   6.083  69.756  1.00  0.00    -0.153 C  
HETATM    7  C   UNL     1      -8.534   5.016  70.636  1.00  0.00    -0.111 C  
HETATM    8  C   UNL     1      -9.247   7.512  70.149  1.00  0.00    -0.154 C  
HETATM    9  C   UNL     1      -8.682   3.804  69.741  1.00  0.00    -0.127 A  
HETATM   10  C   UNL     1      -9.341   4.168  68.555  1.00  0.00    -0.216 A  
HETATM   11  C   UNL     1      -8.285   2.494  69.972  1.00  0.00    -0.064 A  
HETATM   12  C   UNL     1      -9.620   3.224  67.581  1.00  0.00    -0.136 A  
HETATM   13  C   UNL     1      -9.231   1.900  67.809  1.00  0.00    -0.206 A  
HETATM   14  C   UNL     1      -8.569   1.538  68.995  1.00  0.00    -0.089 A  
ENDROOT
BRANCH   7  15
HETATM   15  C   UNL     1      -9.231   4.870  71.979  1.00  0.00    -0.164 A  
HETATM   16  C   UNL     1      -9.149   4.542  74.391  1.00  0.00    -0.112 A  
HETATM   17  C   UNL     1     -11.281   4.712  73.275  1.00  0.00    -0.411 A  
HETATM   18  C   UNL     1      -8.499   4.703  73.167  1.00  0.00    -0.103 A  
HETATM   19  C   UNL     1     -10.633   4.874  72.049  1.00  0.00    -0.210 A  
HETATM   20  C   UNL     1     -10.539   4.545  74.446  1.00  0.00    -0.289 A  
ENDBRANCH   7  15
TORSDOF 1
ENDMDL
MODEL      108
REMARK 921   NORMALIZED FREE ENERGY PREDICTED BY IDOCK:   -3.28 KCAL/MOL
REMARK 922        TOTAL FREE ENERGY PREDICTED BY IDOCK:   -4.24 KCAL/MOL
REMARK 923 INTER-LIGAND FREE ENERGY PREDICTED BY IDOCK:   -3.55 KCAL/MOL
REMARK 924 INTRA-LIGAND FREE ENERGY PREDICTED BY IDOCK:   -0.69 KCAL/MOL
REMARK 927      BINDING AFFINITY PREDICTED BY RF-SCORE:    0.00 PKD
ROOT
HETATM    1  C   UNL     1      -9.774   9.250  66.088  1.00  0.00    -0.279 C  
HETATM    2  N   UNL     1      -8.607   9.592  66.883  1.00  0.00    -0.127 NA 
HETATM    3  C   UNL     1      -7.452   8.713  66.650  1.00  0.00    -0.089 C  
HETATM    4  C   UNL     1      -6.897   7.822  67.784  1.00  0.00    -0.069 C  
HETATM    5  C   UNL     1      -7.403   8.195  69.118  1.00  0.00    -0.082 C  
HETATM    6  C   UNL     1      -8.329   9.139  69.333  1.00  0.00    -0.124 C  
HETATM    7  C   UNL     1      -8.698   9.278  70.800  1.00  0.00    -0.272 C  
HETATM    8  C   UNL     1      -8.941   9.964  68.262  1.00  0.00    -0.119 C  
HETATM    9  C   UNL     1      -7.760   8.259  71.413  1.00  0.00    -0.108 A  
HETATM   10  C   UNL     1      -7.016   7.631  70.402  1.00  0.00    -0.047 A  
HETATM   11  C   UNL     1      -7.603   7.910  72.747  1.00  0.00    -0.142 A  
HETATM   12  C   UNL     1      -6.103   6.637  70.708  1.00  0.00    -0.028 A  
HETATM   13  C   UNL     1      -5.942   6.273  72.049  1.00  0.00    -0.037 A  
HETATM   14  C   UNL     1      -6.686   6.904  73.060  1.00  0.00    -0.070 A  
ENDROOT
BRANCH   7  15
HETATM   15  C   UNL     1     -10.167   8.992  71.069  1.00  0.00    -0.347 A  
HETATM   16  C   UNL     1     -12.421   9.758  71.587  1.00  0.00    -0.500 A  
HETATM   17  C   UNL     1     -11.975   7.397  71.377  1.00  0.00    -0.340 A  
HETATM   18  C   UNL     1     -11.079  10.032  71.314  1.00  0.00    -0.185 A  
HETATM   19  C   UNL     1     -10.633   7.668  71.102  1.00  0.00    -0.235 A  
HETATM   20  C   UNL     1     -12.869   8.442  71.619  1.00  0.00    -0.355 A  
ENDBRANCH   7  15
TORSDOF 1
ENDMDL
MODEL      109
REMARK 921   NORMALIZED FREE ENERGY PREDICTED BY IDOCK:   -3.26 KCAL/MOL
REMARK 922        TOTAL FREE ENERGY PREDICTED BY IDOCK:   -4.21 KCAL/MOL
REMARK 923 INTER-LIGAND FREE ENERGY PREDICTED BY IDOCK:   -3.59 KCAL/MOL
REMARK 924 INTRA-LIGAND FREE ENERGY PREDICTED BY IDOCK:   -0.63 KCAL/MOL
REMARK 927      BINDING AFFINITY PREDICTED BY RF-SCORE:    0.00 PKD
ROOT
HETATM    1  C   UNL     1      -6.123  11.215  69.943  1.00  0.00    -0.121 C  
HETATM    2  N   UNL     1      -7.035  10.290  70.595  1.00  0.00    -0.324 NA 
HETATM    3  C   UNL     1      -6.371   9.119  71.184  1.00  0.00    -0.074 C  
HETATM    4  C   UNL     1      -6.669   7.696  70.660  1.00  0.00    -0.042 C  
HETATM    5  C   UNL     1      -7.869   7.630  69.806  1.00  0.00    -0.110 C  
HETATM    6  C   UNL     1      -8.580   8.700  69.427  1.00  0.00    -0.127 C  
HETATM    7  C   UNL     1      -9.736   8.342  68.507  1.00  0.00    -0.169 C  
HETATM    8  C   UNL     1      -8.281  10.091  69.848  1.00  0.00    -0.159 C  
HETATM    9  C   UNL     1      -9.592   6.835  68.463  1.00  0.00    -0.130 A  
HETATM   10  C   UNL     1      -8.481   6.443  69.229  1.00  0.00    -0.126 A  
HETATM   11  C   UNL     1     -10.366   5.904  67.786  1.00  0.00    -0.262 A  
HETATM   12  C   UNL     1      -8.124   5.109  69.325  1.00  0.00    -0.084 A  
HETATM   13  C   UNL     1      -8.894   4.164  68.640  1.00  0.00    -0.141 A  
HETATM   14  C   UNL     1     -10.006   4.558  67.877  1.00  0.00    -0.116 A  
ENDROOT
BRANCH   7  15
HETATM   15  C   UNL     1      -9.630   9.004  67.141  1.00  0.00    -0.218 A  
HETATM   16  C   UNL     1     -10.273  10.750  65.570  1.00  0.00    -0.330 A  
HETATM   17  C   UNL     1      -8.734   9.025  64.882  1.00  0.00    -0.200 A  
HETATM   18  C   UNL     1     -10.356  10.166  66.836  1.00  0.00    -0.298 A  
HETATM   19  C   UNL     1      -8.814   8.440  66.147  1.00  0.00    -0.198 A  
HETATM   20  C   UNL     1      -9.463  10.180  64.594  1.00  0.00    -0.357 A  
ENDBRANCH   7  15
TORSDOF 1
ENDMDL
MODEL      110
REMARK 921   NORMALIZED FREE ENERGY PREDICTED BY IDOCK:   -3.18 KCAL/MOL
REMARK 922        TOTAL FREE ENERGY PREDICTED BY IDOCK:   -4.14 KCAL/MOL
REMARK 923 INTER-LIGAND FREE ENERGY PREDICTED BY IDOCK:   -3.35 KCAL/MOL
REMARK 924 INTRA-LIGAND FREE ENERGY PREDICTED BY IDOCK:   -0.79 KCAL/MOL
REMARK 927      BINDING AFFINITY PREDICTED BY RF-SCORE:    0.00 PKD
ROOT
HETATM    1  C   UNL     1      -6.495   8.294  72.624  1.00  0.00    -0.086 C  
HETATM    2  N   UNL     1      -7.619   7.391  72.440  1.00  0.00    -0.082 NA 
HETATM    3  C   UNL     1      -7.225   6.006  72.149  1.00  0.00    -0.089 C  
HETATM    4  C   UNL     1      -7.585   5.350  70.797  1.00  0.00    -0.088 C  
HETATM    5  C   UNL     1      -8.598   6.104  70.035  1.00  0.00    -0.136 C  
HETATM    6  C   UNL     1      -9.091   7.290  70.413  1.00  0.00    -0.155 C  
HETATM    7  C   UNL     1     -10.082   7.861  69.413  1.00  0.00    -0.196 C  
HETATM    8  C   UNL     1      -8.714   7.988  71.668  1.00  0.00    -0.132 C  
HETATM    9  C   UNL     1     -10.114   6.741  68.393  1.00  0.00    -0.168 A  
HETATM   10  C   UNL     1      -9.226   5.724  68.779  1.00  0.00    -0.128 A  
HETATM   11  C   UNL     1     -10.850   6.649  67.221  1.00  0.00    -0.456 A  
HETATM   12  C   UNL     1      -9.055   4.597  67.993  1.00  0.00    -0.144 A  
HETATM   13  C   UNL     1      -9.786   4.499  66.805  1.00  0.00    -0.242 A  
HETATM   14  C   UNL     1     -10.676   5.517  66.422  1.00  0.00    -0.262 A  
ENDROOT
BRANCH   7  15
HETATM   15  C   UNL     1      -9.638   9.196  68.837  1.00  0.00    -0.152 A  
HETATM   16  C   UNL     1     -10.026  11.564  68.417  1.00  0.00    -0.206 A  
HETATM   17  C   UNL     1      -8.029  10.508  67.574  1.00  0.00    -0.107 A  
HETATM   18  C   UNL     1     -10.430  10.349  68.973  1.00  0.00    -0.240 A  
HETATM   19  C   UNL     1      -8.429   9.291  68.130  1.00  0.00    -0.121 A  
HETATM   20  C   UNL     1      -8.827  11.644  67.717  1.00  0.00    -0.159 A  
ENDBRANCH   7  15
TORSDOF 1
ENDMDL
MODEL      111
REMARK 921   NORMALIZED FREE ENERGY PREDICTED BY IDOCK:   -3.14 KCAL/MOL
REMARK 922        TOTAL FREE ENERGY PREDICTED BY IDOCK:   -4.10 KCAL/MOL
REMARK 923 INTER-LIGAND FREE ENERGY PREDICTED BY IDOCK:   -3.32 KCAL/MOL
REMARK 924 INTRA-LIGAND FREE ENERGY PREDICTED BY IDOCK:   -0.78 KCAL/MOL
REMARK 927      BINDING AFFINITY PREDICTED BY RF-SCORE:    0.00 PKD
ROOT
HETATM    1  C   UNL     1      -6.632   8.401  73.653  1.00  0.00    -0.111 C  
HETATM    2  N   UNL     1      -6.105   8.442  72.299  1.00  0.00    -0.060 NA 
HETATM    3  C   UNL     1      -5.404   9.691  71.972  1.00  0.00    -0.057 C  
HETATM    4  C   UNL     1      -5.941  10.633  70.871  1.00  0.00    -0.001 C  
HETATM    5  C   UNL     1      -6.962  10.002  70.012  1.00  0.00    -0.135 C  
HETATM    6  C   UNL     1      -7.460   8.776  70.217  1.00  0.00    -0.067 C  
HETATM    7  C   UNL     1      -8.534   8.403  69.209  1.00  0.00    -0.125 C  
HETATM    8  C   UNL     1      -7.024   7.871  71.309  1.00  0.00    -0.050 C  
HETATM    9  C   UNL     1      -8.529   9.640  68.336  1.00  0.00    -0.118 A  
HETATM   10  C   UNL     1      -7.601  10.569  68.835  1.00  0.00    -0.108 A  
HETATM   11  C   UNL     1      -9.296   9.920  67.214  1.00  0.00    -0.167 A  
HETATM   12  C   UNL     1      -7.429  11.798  68.222  1.00  0.00    -0.103 A  
HETATM   13  C   UNL     1      -8.203  12.092  67.095  1.00  0.00    -0.181 A  
HETATM   14  C   UNL     1      -9.129  11.161  66.595  1.00  0.00    -0.180 A  
ENDROOT
BRANCH   7  15
HETATM   15  C   UNL     1      -9.881   8.121  69.857  1.00  0.00    -0.186 A  
HETATM   16  C   UNL     1     -11.707   8.772  71.331  1.00  0.00    -0.369 A  
HETATM   17  C   UNL     1     -11.757   6.624  70.236  1.00  0.00    -0.432 A  
HETATM   18  C   UNL     1     -10.484   9.052  70.719  1.00  0.00    -0.304 A  
HETATM   19  C   UNL     1     -10.535   6.901  69.621  1.00  0.00    -0.240 A  
HETATM   20  C   UNL     1     -12.343   7.558  71.091  1.00  0.00    -0.321 A  
ENDBRANCH   7  15
TORSDOF 1
ENDMDL
MODEL      112
REMARK 921   NORMALIZED FREE ENERGY PREDICTED BY IDOCK:   -3.14 KCAL/MOL
REMARK 922        TOTAL FREE ENERGY PREDICTED BY IDOCK:   -4.09 KCAL/MOL
REMARK 923 INTER-LIGAND FREE ENERGY PREDICTED BY IDOCK:   -3.32 KCAL/MOL
REMARK 924 INTRA-LIGAND FREE ENERGY PREDICTED BY IDOCK:   -0.77 KCAL/MOL
REMARK 927      BINDING AFFINITY PREDICTED BY RF-SCORE:    0.00 PKD
ROOT
HETATM    1  C   UNL     1     -10.364   4.756  66.394  1.00  0.00    -0.273 C  
HETATM    2  N   UNL     1      -9.057   4.816  67.027  1.00  0.00    -0.115 NA 
HETATM    3  C   UNL     1      -8.487   3.498  67.338  1.00  0.00    -0.097 C  
HETATM    4  C   UNL     1      -8.222   3.077  68.801  1.00  0.00    -0.077 C  
HETATM    5  C   UNL     1      -8.276   4.205  69.750  1.00  0.00    -0.068 C  
HETATM    6  C   UNL     1      -8.619   5.455  69.411  1.00  0.00    -0.099 C  
HETATM    7  C   UNL     1      -8.638   6.402  70.599  1.00  0.00    -0.139 C  
HETATM    8  C   UNL     1      -8.953   5.882  68.029  1.00  0.00    -0.118 C  
HETATM    9  C   UNL     1      -8.183   5.466  71.700  1.00  0.00    -0.118 A  
HETATM   10  C   UNL     1      -7.985   4.178  71.175  1.00  0.00    -0.071 A  
HETATM   11  C   UNL     1      -7.986   5.734  73.047  1.00  0.00    -0.107 A  
HETATM   12  C   UNL     1      -7.590   3.134  71.993  1.00  0.00    -0.053 A  
HETATM   13  C   UNL     1      -7.396   3.392  73.353  1.00  0.00    -0.056 A  
HETATM   14  C   UNL     1      -7.593   4.681  73.876  1.00  0.00    -0.089 A  
ENDROOT
BRANCH   7  15
HETATM   15  C   UNL     1     -10.009   7.011  70.847  1.00  0.00    -0.200 A  
HETATM   16  C   UNL     1     -11.483   8.947  70.975  1.00  0.00    -0.351 A  
HETATM   17  C   UNL     1     -12.338   6.752  71.493  1.00  0.00    -0.407 A  
HETATM   18  C   UNL     1     -10.227   8.393  70.719  1.00  0.00    -0.227 A  
HETATM   19  C   UNL     1     -11.083   6.195  71.236  1.00  0.00    -0.351 A  
HETATM   20  C   UNL     1     -12.538   8.127  71.363  1.00  0.00    -0.301 A  
ENDBRANCH   7  15
TORSDOF 1
ENDMDL
MODEL      113
REMARK 921   NORMALIZED FREE ENERGY PREDICTED BY IDOCK:   -3.13 KCAL/MOL
REMARK 922        TOTAL FREE ENERGY PREDICTED BY IDOCK:   -4.08 KCAL/MOL
REMARK 923 INTER-LIGAND FREE ENERGY PREDICTED BY IDOCK:   -3.36 KCAL/MOL
REMARK 924 INTRA-LIGAND FREE ENERGY PREDICTED BY IDOCK:   -0.71 KCAL/MOL
REMARK 927      BINDING AFFINITY PREDICTED BY RF-SCORE:    0.00 PKD
ROOT
HETATM    1  C   UNL     1     -12.782  11.365  69.515  1.00  0.00     0.326 C  
HETATM    2  N   UNL     1     -11.758  10.902  68.594  1.00  0.00    -0.412 NA 
HETATM    3  C   UNL     1     -10.874   9.873  69.159  1.00  0.00    -0.221 C  
HETATM    4  C   UNL     1      -9.364  10.147  69.347  1.00  0.00    -0.235 C  
HETATM    5  C   UNL     1      -8.894  11.341  68.620  1.00  0.00    -0.141 C  
HETATM    6  C   UNL     1      -9.698  12.174  67.946  1.00  0.00    -0.200 C  
HETATM    7  C   UNL     1      -8.949  13.348  67.337  1.00  0.00    -0.215 C  
HETATM    8  C   UNL     1     -11.163  11.986  67.806  1.00  0.00    -0.271 C  
HETATM    9  C   UNL     1      -7.531  13.007  67.745  1.00  0.00    -0.146 A  
HETATM   10  C   UNL     1      -7.528  11.827  68.506  1.00  0.00    -0.110 A  
HETATM   11  C   UNL     1      -6.358  13.698  67.480  1.00  0.00    -0.076 A  
HETATM   12  C   UNL     1      -6.347  11.320  69.020  1.00  0.00    -0.060 A  
HETATM   13  C   UNL     1      -5.159  12.013  68.765  1.00  0.00    -0.050 A  
HETATM   14  C   UNL     1      -5.165  13.193  68.002  1.00  0.00    -0.104 A  
ENDROOT
BRANCH   7  15
HETATM   15  C   UNL     1      -9.429  14.691  67.864  1.00  0.00    -0.210 A  
HETATM   16  C   UNL     1     -10.160  16.116  69.699  1.00  0.00    -0.212 A  
HETATM   17  C   UNL     1     -10.108  16.988  67.451  1.00  0.00    -0.291 A  
HETATM   18  C   UNL     1      -9.693  14.887  69.230  1.00  0.00    -0.147 A  
HETATM   19  C   UNL     1      -9.641  15.760  66.979  1.00  0.00    -0.236 A  
HETATM   20  C   UNL     1     -10.368  17.166  68.811  1.00  0.00    -0.353 A  
ENDBRANCH   7  15
TORSDOF 1
ENDMDL
MODEL      114
REMARK 921   NORMALIZED FREE ENERGY PREDICTED BY IDOCK:   -3.12 KCAL/MOL
REMARK 922        TOTAL FREE ENERGY PREDICTED BY IDOCK:   -4.07 KCAL/MOL
REMARK 923 INTER-LIGAND FREE ENERGY PREDICTED BY IDOCK:   -3.33 KCAL/MOL
REMARK 924 INTRA-LIGAND FREE ENERGY PREDICTED BY IDOCK:   -0.74 KCAL/MOL
REMARK 927      BINDING AFFINITY PREDICTED BY RF-SCORE:    0.00 PKD
ROOT
HETATM    1  C   UNL     1      -7.323  11.256  69.310  1.00  0.00    -0.068 C  
HETATM    2  N   UNL     1      -6.618  11.987  68.270  1.00  0.00    -0.052 NA 
HETATM    3  C   UNL     1      -5.376  12.623  68.730  1.00  0.00    -0.058 C  
HETATM    4  C   UNL     1      -5.225  14.161  68.716  1.00  0.00    -0.088 C  
HETATM    5  C   UNL     1      -6.261  14.841  67.916  1.00  0.00    -0.171 C  
HETATM    6  C   UNL     1      -7.296  14.214  67.341  1.00  0.00    -0.143 C  
HETATM    7  C   UNL     1      -8.235  15.168  66.622  1.00  0.00    -0.083 C  
HETATM    8  C   UNL     1      -7.517  12.747  67.395  1.00  0.00    -0.145 C  
HETATM    9  C   UNL     1      -7.513  16.480  66.847  1.00  0.00    -0.256 A  
HETATM   10  C   UNL     1      -6.360  16.261  67.618  1.00  0.00    -0.181 A  
HETATM   11  C   UNL     1      -7.864  17.754  66.421  1.00  0.00    -0.312 A  
HETATM   12  C   UNL     1      -5.540  17.315  67.981  1.00  0.00    -0.118 A  
HETATM   13  C   UNL     1      -5.890  18.603  67.564  1.00  0.00    -0.170 A  
HETATM   14  C   UNL     1      -7.043  18.821  66.790  1.00  0.00    -0.228 A  
ENDROOT
BRANCH   7  15
HETATM   15  C   UNL     1      -9.646  15.145  67.187  1.00  0.00    -0.224 A  
HETATM   16  C   UNL     1     -12.012  14.607  66.975  1.00  0.00    -0.301 A  
HETATM   17  C   UNL     1     -11.207  15.709  68.963  1.00  0.00    -0.306 A  
HETATM   18  C   UNL     1     -10.715  14.598  66.459  1.00  0.00    -0.312 A  
HETATM   19  C   UNL     1      -9.908  15.701  68.450  1.00  0.00    -0.206 A  
HETATM   20  C   UNL     1     -12.259  15.162  68.226  1.00  0.00     0.091 A  
ENDBRANCH   7  15
TORSDOF 1
ENDMDL
MODEL      115
REMARK 921   NORMALIZED FREE ENERGY PREDICTED BY IDOCK:   -3.11 KCAL/MOL
REMARK 922        TOTAL FREE ENERGY PREDICTED BY IDOCK:   -4.06 KCAL/MOL
REMARK 923 INTER-LIGAND FREE ENERGY PREDICTED BY IDOCK:   -3.36 KCAL/MOL
REMARK 924 INTRA-LIGAND FREE ENERGY PREDICTED BY IDOCK:   -0.70 KCAL/MOL
REMARK 927      BINDING AFFINITY PREDICTED BY RF-SCORE:    0.00 PKD
ROOT
HETATM    1  C   UNL     1     -10.654   6.510  66.990  1.00  0.00    -0.332 C  
HETATM    2  N   UNL     1     -11.083   7.263  68.156  1.00  0.00     0.026 NA 
HETATM    3  C   UNL     1     -10.377   8.540  68.330  1.00  0.00    -0.201 C  
HETATM    4  C   UNL     1      -9.484   8.787  69.567  1.00  0.00    -0.165 C  
HETATM    5  C   UNL     1      -9.693   7.799  70.642  1.00  0.00    -0.177 C  
HETATM    6  C   UNL     1     -10.494   6.730  70.533  1.00  0.00    -0.238 C  
HETATM    7  C   UNL     1     -10.478   5.856  71.776  1.00  0.00    -0.276 C  
HETATM    8  C   UNL     1     -11.309   6.418  69.333  1.00  0.00    -0.377 C  
HETATM    9  C   UNL     1      -9.545   6.656  72.660  1.00  0.00    -0.156 A  
HETATM   10  C   UNL     1      -9.091   7.790  71.966  1.00  0.00    -0.180 A  
HETATM   11  C   UNL     1      -9.125   6.387  73.955  1.00  0.00    -0.148 A  
HETATM   12  C   UNL     1      -8.202   8.672  72.556  1.00  0.00    -0.062 A  
HETATM   13  C   UNL     1      -7.766   8.405  73.857  1.00  0.00    -0.191 A  
HETATM   14  C   UNL     1      -8.223   7.271  74.551  1.00  0.00    -0.216 A  
ENDROOT
BRANCH   7  15
HETATM   15  C   UNL     1      -9.990   4.443  71.498  1.00  0.00    -0.250 A  
HETATM   16  C   UNL     1     -10.126   2.038  71.858  1.00  0.00    -0.203 A  
HETATM   17  C   UNL     1      -8.422   2.939  70.409  1.00  0.00    -0.097 A  
HETATM   18  C   UNL     1     -10.599   3.329  72.098  1.00  0.00     0.162 A  
HETATM   19  C   UNL     1      -8.893   4.231  70.646  1.00  0.00    -0.135 A  
HETATM   20  C   UNL     1      -9.037   1.842  71.014  1.00  0.00    -0.148 A  
ENDBRANCH   7  15
TORSDOF 1
ENDMDL
MODEL      116
REMARK 921   NORMALIZED FREE ENERGY PREDICTED BY IDOCK:   -3.01 KCAL/MOL
REMARK 922        TOTAL FREE ENERGY PREDICTED BY IDOCK:   -3.95 KCAL/MOL
REMARK 923 INTER-LIGAND FREE ENERGY PREDICTED BY IDOCK:   -3.26 KCAL/MOL
REMARK 924 INTRA-LIGAND FREE ENERGY PREDICTED BY IDOCK:   -0.69 KCAL/MOL
REMARK 927      BINDING AFFINITY PREDICTED BY RF-SCORE:    0.00 PKD
ROOT
HETATM    1  C   UNL     1     -11.910  12.281  65.105  1.00  0.00    -0.350 C  
HETATM    2  N   UNL     1     -11.804  12.805  66.457  1.00  0.00    -0.406 NA 
HETATM    3  C   UNL     1     -11.869  14.271  66.531  1.00  0.00    -0.415 C  
HETATM    4  C   UNL     1     -10.661  15.090  67.041  1.00  0.00    -0.293 C  
HETATM    5  C   UNL     1      -9.645  14.265  67.724  1.00  0.00    -0.221 C  
HETATM    6  C   UNL     1      -9.698  12.930  67.810  1.00  0.00    -0.214 C  
HETATM    7  C   UNL     1      -8.494  12.340  68.525  1.00  0.00    -0.077 C  
HETATM    8  C   UNL     1     -10.804  12.102  67.267  1.00  0.00    -0.244 C  
HETATM    9  C   UNL     1      -7.746  13.605  68.888  1.00  0.00     0.005 A  
HETATM   10  C   UNL     1      -8.441  14.723  68.398  1.00  0.00    -0.157 A  
HETATM   11  C   UNL     1      -6.548  13.744  69.574  1.00  0.00    -0.081 A  
HETATM   12  C   UNL     1      -7.944  16.002  68.582  1.00  0.00    -0.174 A  
HETATM   13  C   UNL     1      -6.732  16.152  69.264  1.00  0.00    -0.198 A  
HETATM   14  C   UNL     1      -6.040  15.033  69.756  1.00  0.00    -0.135 A  
ENDROOT
BRANCH   7  15
HETATM   15  C   UNL     1      -7.693  11.391  67.646  1.00  0.00    -0.121 A  
HETATM   16  C   UNL     1      -6.121  10.993  65.829  1.00  0.00    -0.019 A  
HETATM   17  C   UNL     1      -7.116   9.125  66.984  1.00  0.00    -0.086 A  
HETATM   18  C   UNL     1      -6.830  11.873  66.648  1.00  0.00     0.086 A  
HETATM   19  C   UNL     1      -7.826  10.002  67.806  1.00  0.00    -0.094 A  
HETATM   20  C   UNL     1      -6.264   9.620  65.996  1.00  0.00    -0.065 A  
ENDBRANCH   7  15
TORSDOF 1
ENDMDL
MODEL      117
REMARK 921   NORMALIZED FREE ENERGY PREDICTED BY IDOCK:   -3.00 KCAL/MOL
REMARK 922        TOTAL FREE ENERGY PREDICTED BY IDOCK:   -3.94 KCAL/MOL
REMARK 923 INTER-LIGAND FREE ENERGY PREDICTED BY IDOCK:   -3.84 KCAL/MOL
REMARK 924 INTRA-LIGAND FREE ENERGY PREDICTED BY IDOCK:   -0.10 KCAL/MOL
REMARK 927      BINDING AFFINITY PREDICTED BY RF-SCORE:    0.00 PKD
ROOT
HETATM    1  C   UNL     1      -9.359  17.115  66.496  1.00  0.00    -0.265 C  
HETATM    2  N   UNL     1      -9.897  15.818  66.120  1.00  0.00    -0.290 NA 
HETATM    3  C   UNL     1     -11.334  15.672  66.387  1.00  0.00     0.065 C  
HETATM    4  C   UNL     1     -11.845  14.627  67.406  1.00  0.00    -0.374 C  
HETATM    5  C   UNL     1     -10.823  13.633  67.782  1.00  0.00    -0.266 C  
HETATM    6  C   UNL     1      -9.548  13.676  67.374  1.00  0.00    -0.226 C  
HETATM    7  C   UNL     1      -8.706  12.553  67.956  1.00  0.00    -0.186 C  
HETATM    8  C   UNL     1      -9.001  14.707  66.456  1.00  0.00    -0.204 C  
HETATM    9  C   UNL     1      -9.758  11.808  68.750  1.00  0.00    -0.079 A  
HETATM   10  C   UNL     1     -10.993  12.468  68.637  1.00  0.00    -0.291 A  
HETATM   11  C   UNL     1      -9.622  10.660  69.518  1.00  0.00    -0.060 A  
HETATM   12  C   UNL     1     -12.113  11.993  69.297  1.00  0.00    -0.249 A  
HETATM   13  C   UNL     1     -11.984  10.841  70.080  1.00  0.00    -0.427 A  
HETATM   14  C   UNL     1     -10.748  10.180  70.189  1.00  0.00    -0.355 A  
ENDROOT
BRANCH   7  15
HETATM   15  C   UNL     1      -7.550  13.061  68.804  1.00  0.00    -0.027 A  
HETATM   16  C   UNL     1      -6.270  14.892  69.774  1.00  0.00    -0.144 A  
HETATM   17  C   UNL     1      -5.561  12.614  70.128  1.00  0.00    -0.138 A  
HETATM   18  C   UNL     1      -7.350  14.435  69.017  1.00  0.00    -0.127 A  
HETATM   19  C   UNL     1      -6.641  12.154  69.372  1.00  0.00    -0.090 A  
HETATM   20  C   UNL     1      -5.375  13.983  70.329  1.00  0.00    -0.106 A  
ENDBRANCH   7  15
TORSDOF 1
ENDMDL
MODEL      118
REMARK 921   NORMALIZED FREE ENERGY PREDICTED BY IDOCK:   -2.93 KCAL/MOL
REMARK 922        TOTAL FREE ENERGY PREDICTED BY IDOCK:   -3.87 KCAL/MOL
REMARK 923 INTER-LIGAND FREE ENERGY PREDICTED BY IDOCK:   -3.09 KCAL/MOL
REMARK 924 INTRA-LIGAND FREE ENERGY PREDICTED BY IDOCK:   -0.78 KCAL/MOL
REMARK 927      BINDING AFFINITY PREDICTED BY RF-SCORE:    0.00 PKD
ROOT
HETATM    1  C   UNL     1     -12.979  13.919  70.600  1.00  0.00    -0.153 C  
HETATM    2  N   UNL     1     -12.725  12.965  69.533  1.00  0.00     0.437 NA 
HETATM    3  C   UNL     1     -12.507  11.591  70.005  1.00  0.00    -0.122 C  
HETATM    4  C   UNL     1     -11.148  10.888  69.789  1.00  0.00    -0.328 C  
HETATM    5  C   UNL     1     -10.283  11.581  68.814  1.00  0.00    -0.204 C  
HETATM    6  C   UNL     1     -10.585  12.755  68.245  1.00  0.00    -0.251 C  
HETATM    7  C   UNL     1      -9.490  13.259  67.320  1.00  0.00    -0.233 C  
HETATM    8  C   UNL     1     -11.848  13.497  68.485  1.00  0.00    -0.362 C  
HETATM    9  C   UNL     1      -8.502  12.115  67.421  1.00  0.00    -0.173 A  
HETATM   10  C   UNL     1      -8.989  11.146  68.312  1.00  0.00    -0.166 A  
HETATM   11  C   UNL     1      -7.275  11.965  66.792  1.00  0.00    -0.007 A  
HETATM   12  C   UNL     1      -8.251  10.009  68.594  1.00  0.00    -0.111 A  
HETATM   13  C   UNL     1      -7.009   9.852  67.971  1.00  0.00    -0.077 A  
HETATM   14  C   UNL     1      -6.525  10.822  67.077  1.00  0.00    -0.083 A  
ENDROOT
BRANCH   7  15
HETATM   15  C   UNL     1      -8.917  14.598  67.759  1.00  0.00    -0.181 A  
HETATM   16  C   UNL     1      -8.423  16.943  67.323  1.00  0.00    -0.213 A  
HETATM   17  C   UNL     1      -7.738  15.940  69.407  1.00  0.00    -0.199 A  
HETATM   18  C   UNL     1      -8.976  15.725  66.922  1.00  0.00    -0.266 A  
HETATM   19  C   UNL     1      -8.291  14.721  69.010  1.00  0.00    -0.144 A  
HETATM   20  C   UNL     1      -7.803  17.050  68.564  1.00  0.00    -0.251 A  
ENDBRANCH   7  15
TORSDOF 1
ENDMDL
MODEL      119
REMARK 921   NORMALIZED FREE ENERGY PREDICTED BY IDOCK:   -2.83 KCAL/MOL
REMARK 922        TOTAL FREE ENERGY PREDICTED BY IDOCK:   -3.77 KCAL/MOL
REMARK 923 INTER-LIGAND FREE ENERGY PREDICTED BY IDOCK:   -3.26 KCAL/MOL
REMARK 924 INTRA-LIGAND FREE ENERGY PREDICTED BY IDOCK:   -0.50 KCAL/MOL
REMARK 927      BINDING AFFINITY PREDICTED BY RF-SCORE:    0.00 PKD
ROOT
HETATM    1  C   UNL     1     -10.824  17.341  67.005  1.00  0.00    -0.045 C  
HETATM    2  N   UNL     1     -10.142  16.244  66.339  1.00  0.00    -0.289 NA 
HETATM    3  C   UNL     1     -10.760  14.932  66.571  1.00  0.00    -0.309 C  
HETATM    4  C   UNL     1      -9.993  13.819  67.320  1.00  0.00    -0.239 C  
HETATM    5  C   UNL     1      -8.549  14.093  67.449  1.00  0.00    -0.219 C  
HETATM    6  C   UNL     1      -7.964  15.232  67.056  1.00  0.00    -0.243 C  
HETATM    7  C   UNL     1      -6.474  15.261  67.356  1.00  0.00    -0.080 C  
HETATM    8  C   UNL     1      -8.681  16.355  66.402  1.00  0.00    -0.319 C  
HETATM    9  C   UNL     1      -6.291  13.884  67.958  1.00  0.00    -0.144 A  
HETATM   10  C   UNL     1      -7.528  13.221  68.009  1.00  0.00    -0.138 A  
HETATM   11  C   UNL     1      -5.133  13.288  68.436  1.00  0.00    -0.077 A  
HETATM   12  C   UNL     1      -7.628  11.949  68.545  1.00  0.00    -0.127 A  
HETATM   13  C   UNL     1      -6.468  11.342  69.036  1.00  0.00    -0.069 A  
HETATM   14  C   UNL     1      -5.231  12.006  68.983  1.00  0.00    -0.054 A  
ENDROOT
BRANCH   7  15
HETATM   15  C   UNL     1      -6.083  16.393  68.294  1.00  0.00    -0.119 A  
HETATM   16  C   UNL     1      -5.750  17.272  70.541  1.00  0.00    -0.038 A  
HETATM   17  C   UNL     1      -5.405  18.702  68.630  1.00  0.00    -0.189 A  
HETATM   18  C   UNL     1      -6.084  16.219  69.688  1.00  0.00    -0.190 A  
HETATM   19  C   UNL     1      -5.737  17.651  67.774  1.00  0.00    -0.143 A  
HETATM   20  C   UNL     1      -5.412  18.513  70.013  1.00  0.00    -0.233 A  
ENDBRANCH   7  15
TORSDOF 1
ENDMDL
MODEL      120
REMARK 921   NORMALIZED FREE ENERGY PREDICTED BY IDOCK:   -2.82 KCAL/MOL
REMARK 922        TOTAL FREE ENERGY PREDICTED BY IDOCK:   -3.76 KCAL/MOL
REMARK 923 INTER-LIGAND FREE ENERGY PREDICTED BY IDOCK:   -3.02 KCAL/MOL
REMARK 924 INTRA-LIGAND FREE ENERGY PREDICTED BY IDOCK:   -0.74 KCAL/MOL
REMARK 927      BINDING AFFINITY PREDICTED BY RF-SCORE:    0.00 PKD
ROOT
HETATM    1  C   UNL     1      -8.100   4.135  70.828  1.00  0.00    -0.063 C  
HETATM    2  N   UNL     1      -8.891   3.266  69.972  1.00  0.00    -0.078 NA 
HETATM    3  C   UNL     1      -8.175   2.064  69.524  1.00  0.00    -0.044 C  
HETATM    4  C   UNL     1      -7.877   1.836  68.025  1.00  0.00    -0.058 C  
HETATM    5  C   UNL     1      -8.648   2.725  67.136  1.00  0.00    -0.118 C  
HETATM    6  C   UNL     1      -9.450   3.706  67.569  1.00  0.00    -0.237 C  
HETATM    7  C   UNL     1     -10.079   4.495  66.433  1.00  0.00    -0.271 C  
HETATM    8  C   UNL     1      -9.704   4.005  69.000  1.00  0.00    -0.091 C  
HETATM    9  C   UNL     1      -9.524   3.744  65.241  1.00  0.00    -0.168 A  
HETATM   10  C   UNL     1      -8.679   2.713  65.682  1.00  0.00    -0.122 A  
HETATM   11  C   UNL     1      -9.737   3.973  63.889  1.00  0.00    -0.157 A  
HETATM   12  C   UNL     1      -8.026   1.895  64.775  1.00  0.00    -0.070 A  
HETATM   13  C   UNL     1      -8.228   2.123  63.410  1.00  0.00    -0.073 A  
HETATM   14  C   UNL     1      -9.076   3.154  62.971  1.00  0.00    -0.091 A  
ENDROOT
BRANCH   7  15
HETATM   15  C   UNL     1      -9.699   5.967  66.455  1.00  0.00    -0.183 A  
HETATM   16  C   UNL     1      -8.053   7.742  66.179  1.00  0.00    -0.113 A  
HETATM   17  C   UNL     1     -10.295   8.284  66.884  1.00  0.00    -0.391 A  
HETATM   18  C   UNL     1      -8.400   6.391  66.128  1.00  0.00    -0.128 A  
HETATM   19  C   UNL     1     -10.645   6.934  66.833  1.00  0.00    -0.372 A  
HETATM   20  C   UNL     1      -9.000   8.688  66.557  1.00  0.00    -0.187 A  
ENDBRANCH   7  15
TORSDOF 1
ENDMDL
MODEL      121
REMARK 921   NORMALIZED FREE ENERGY PREDICTED BY IDOCK:   -2.82 KCAL/MOL
REMARK 922        TOTAL FREE ENERGY PREDICTED BY IDOCK:   -3.75 KCAL/MOL
REMARK 923 INTER-LIGAND FREE ENERGY PREDICTED BY IDOCK:   -3.03 KCAL/MOL
REMARK 924 INTRA-LIGAND FREE ENERGY PREDICTED BY IDOCK:   -0.72 KCAL/MOL
REMARK 927      BINDING AFFINITY PREDICTED BY RF-SCORE:    0.00 PKD
ROOT
HETATM    1  C   UNL     1      -6.380   6.572  70.252  1.00  0.00    -0.039 C  
HETATM    2  N   UNL     1      -7.398   5.552  70.062  1.00  0.00    -0.067 NA 
HETATM    3  C   UNL     1      -6.855   4.225  69.742  1.00  0.00    -0.041 C  
HETATM    4  C   UNL     1      -7.155   3.556  68.382  1.00  0.00    -0.050 C  
HETATM    5  C   UNL     1      -8.255   4.205  67.644  1.00  0.00    -0.095 C  
HETATM    6  C   UNL     1      -8.872   5.323  68.048  1.00  0.00    -0.106 C  
HETATM    7  C   UNL     1      -9.933   5.796  67.067  1.00  0.00    -0.193 C  
HETATM    8  C   UNL     1      -8.561   6.037  69.311  1.00  0.00    -0.118 C  
HETATM    9  C   UNL     1      -9.851   4.697  66.028  1.00  0.00    -0.236 A  
HETATM   10  C   UNL     1      -8.850   3.779  66.387  1.00  0.00    -0.128 A  
HETATM   11  C   UNL     1     -10.585   4.544  64.861  1.00  0.00    -0.042 A  
HETATM   12  C   UNL     1      -8.564   2.692  65.579  1.00  0.00    -0.108 A  
HETATM   13  C   UNL     1      -9.294   2.533  64.396  1.00  0.00    -0.135 A  
HETATM   14  C   UNL     1     -10.296   3.452  64.040  1.00  0.00    -0.220 A  
ENDROOT
BRANCH   7  15
HETATM   15  C   UNL     1      -9.647   7.182  66.512  1.00  0.00    -0.203 A  
HETATM   16  C   UNL     1     -10.153   9.560  66.369  1.00  0.00    -0.328 A  
HETATM   17  C   UNL     1      -8.376   8.630  65.030  1.00  0.00    -0.181 A  
HETATM   18  C   UNL     1     -10.406   8.297  66.906  1.00  0.00    -0.391 A  
HETATM   19  C   UNL     1      -8.625   7.365  65.566  1.00  0.00    -0.093 A  
HETATM   20  C   UNL     1      -9.140   9.727  65.431  1.00  0.00    -0.251 A  
ENDBRANCH   7  15
TORSDOF 1
ENDMDL
MODEL      122
REMARK 921   NORMALIZED FREE ENERGY PREDICTED BY IDOCK:   -2.75 KCAL/MOL
REMARK 922        TOTAL FREE ENERGY PREDICTED BY IDOCK:   -3.68 KCAL/MOL
REMARK 923 INTER-LIGAND FREE ENERGY PREDICTED BY IDOCK:   -2.97 KCAL/MOL
REMARK 924 INTRA-LIGAND FREE ENERGY PREDICTED BY IDOCK:   -0.71 KCAL/MOL
REMARK 927      BINDING AFFINITY PREDICTED BY RF-SCORE:    0.00 PKD
ROOT
HETATM    1  C   UNL     1      -5.515   4.735  72.180  1.00  0.00    -0.004 C  
HETATM    2  N   UNL     1      -6.419   3.836  71.483  1.00  0.00    -0.015 NA 
HETATM    3  C   UNL     1      -5.846   3.243  70.267  1.00  0.00    -0.018 C  
HETATM    4  C   UNL     1      -6.454   3.545  68.879  1.00  0.00    -0.030 C  
HETATM    5  C   UNL     1      -7.790   4.167  68.952  1.00  0.00    -0.061 C  
HETATM    6  C   UNL     1      -8.385   4.534  70.094  1.00  0.00    -0.080 C  
HETATM    7  C   UNL     1      -9.734   5.196  69.867  1.00  0.00    -0.269 C  
HETATM    8  C   UNL     1      -7.799   4.330  71.442  1.00  0.00    -0.080 C  
HETATM    9  C   UNL     1      -9.837   5.094  68.360  1.00  0.00    -0.211 A  
HETATM   10  C   UNL     1      -8.676   4.492  67.846  1.00  0.00    -0.114 A  
HETATM   11  C   UNL     1     -10.860   5.518  67.524  1.00  0.00    -0.100 A  
HETATM   12  C   UNL     1      -8.518   4.310  66.482  1.00  0.00    -0.108 A  
HETATM   13  C   UNL     1      -9.540   4.742  65.632  1.00  0.00    -0.184 A  
HETATM   14  C   UNL     1     -10.702   5.341  66.148  1.00  0.00    -0.211 A  
ENDROOT
BRANCH   7  15
HETATM   15  C   UNL     1      -9.787   6.624  70.386  1.00  0.00    -0.189 A  
HETATM   16  C   UNL     1     -10.564   8.270  72.004  1.00  0.00    -0.365 A  
HETATM   17  C   UNL     1      -9.204   8.971  70.140  1.00  0.00    -0.212 A  
HETATM   18  C   UNL     1     -10.500   6.951  71.551  1.00  0.00    -0.231 A  
HETATM   19  C   UNL     1      -9.136   7.652  69.685  1.00  0.00    -0.147 A  
HETATM   20  C   UNL     1      -9.918   9.280  71.299  1.00  0.00    -0.341 A  
ENDBRANCH   7  15
TORSDOF 1
ENDMDL
MODEL      123
REMARK 921   NORMALIZED FREE ENERGY PREDICTED BY IDOCK:   -2.58 KCAL/MOL
REMARK 922        TOTAL FREE ENERGY PREDICTED BY IDOCK:   -3.50 KCAL/MOL
REMARK 923 INTER-LIGAND FREE ENERGY PREDICTED BY IDOCK:   -2.75 KCAL/MOL
REMARK 924 INTRA-LIGAND FREE ENERGY PREDICTED BY IDOCK:   -0.74 KCAL/MOL
REMARK 927      BINDING AFFINITY PREDICTED BY RF-SCORE:    0.00 PKD
ROOT
HETATM    1  C   UNL     1      -9.180   9.882  63.428  1.00  0.00    -0.240 C  
HETATM    2  N   UNL     1      -7.942   9.593  64.132  1.00  0.00    -0.134 NA 
HETATM    3  C   UNL     1      -7.758   8.170  64.450  1.00  0.00    -0.126 C  
HETATM    4  C   UNL     1      -7.699   7.691  65.918  1.00  0.00    -0.098 C  
HETATM    5  C   UNL     1      -7.507   8.790  66.882  1.00  0.00    -0.090 C  
HETATM    6  C   UNL     1      -7.490  10.087  66.548  1.00  0.00    -0.105 C  
HETATM    7  C   UNL     1      -7.327  11.002  67.750  1.00  0.00    -0.093 C  
HETATM    8  C   UNL     1      -7.620  10.591  65.158  1.00  0.00    -0.046 C  
HETATM    9  C   UNL     1      -7.198   9.976  68.856  1.00  0.00    -0.077 A  
HETATM   10  C   UNL     1      -7.316   8.683  68.320  1.00  0.00    -0.087 A  
HETATM   11  C   UNL     1      -7.015  10.179  70.217  1.00  0.00    -0.150 A  
HETATM   12  C   UNL     1      -7.258   7.569  69.140  1.00  0.00    -0.084 A  
HETATM   13  C   UNL     1      -7.082   7.763  70.513  1.00  0.00    -0.047 A  
HETATM   14  C   UNL     1      -6.961   9.058  71.048  1.00  0.00    -0.097 A  
ENDROOT
BRANCH   7  15
HETATM   15  C   UNL     1      -8.501  11.951  67.933  1.00  0.00    -0.154 A  
HETATM   16  C   UNL     1      -9.438  14.199  67.920  1.00  0.00    -0.211 A  
HETATM   17  C   UNL     1     -10.823  12.326  68.542  1.00  0.00    -0.267 A  
HETATM   18  C   UNL     1      -8.361  13.333  67.723  1.00  0.00    -0.171 A  
HETATM   19  C   UNL     1      -9.749  11.457  68.344  1.00  0.00    -0.203 A  
HETATM   20  C   UNL     1     -10.668  13.697  68.330  1.00  0.00    -0.272 A  
ENDBRANCH   7  15
TORSDOF 1
ENDMDL
MODEL      124
REMARK 921   NORMALIZED FREE ENERGY PREDICTED BY IDOCK:   -2.32 KCAL/MOL
REMARK 922        TOTAL FREE ENERGY PREDICTED BY IDOCK:   -3.22 KCAL/MOL
REMARK 923 INTER-LIGAND FREE ENERGY PREDICTED BY IDOCK:   -2.54 KCAL/MOL
REMARK 924 INTRA-LIGAND FREE ENERGY PREDICTED BY IDOCK:   -0.68 KCAL/MOL
REMARK 927      BINDING AFFINITY PREDICTED BY RF-SCORE:    0.00 PKD
ROOT
HETATM    1  C   UNL     1     -10.977   8.483  70.307  1.00  0.00    -0.235 C  
HETATM    2  N   UNL     1     -10.097   8.451  69.150  1.00  0.00    -0.198 NA 
HETATM    3  C   UNL     1     -10.808   8.466  67.864  1.00  0.00     0.032 C  
HETATM    4  C   UNL     1     -10.710   7.267  66.894  1.00  0.00    -0.346 C  
HETATM    5  C   UNL     1      -9.621   6.332  67.231  1.00  0.00    -0.138 C  
HETATM    6  C   UNL     1      -8.851   6.440  68.322  1.00  0.00    -0.115 C  
HETATM    7  C   UNL     1      -7.842   5.310  68.443  1.00  0.00    -0.087 C  
HETATM    8  C   UNL     1      -8.964   7.535  69.317  1.00  0.00    -0.136 C  
HETATM    9  C   UNL     1      -8.139   4.543  67.171  1.00  0.00    -0.102 A  
HETATM   10  C   UNL     1      -9.195   5.161  66.481  1.00  0.00    -0.136 A  
HETATM   11  C   UNL     1      -7.538   3.390  66.687  1.00  0.00    -0.077 A  
HETATM   12  C   UNL     1      -9.671   4.631  65.294  1.00  0.00    -0.149 A  
HETATM   13  C   UNL     1      -9.077   3.465  64.802  1.00  0.00    -0.136 A  
HETATM   14  C   UNL     1      -8.019   2.849  65.493  1.00  0.00    -0.086 A  
ENDROOT
BRANCH   7  15
HETATM   15  C   UNL     1      -8.027   4.486  69.708  1.00  0.00    -0.061 A  
HETATM   16  C   UNL     1      -7.328   3.853  71.954  1.00  0.00    -0.059 A  
HETATM   17  C   UNL     1      -9.216   2.755  70.932  1.00  0.00    -0.206 A  
HETATM   18  C   UNL     1      -7.166   4.634  70.808  1.00  0.00    -0.045 A  
HETATM   19  C   UNL     1      -9.058   3.535  69.785  1.00  0.00    -0.196 A  
HETATM   20  C   UNL     1      -8.352   2.914  72.016  1.00  0.00    -0.065 A  
ENDBRANCH   7  15
TORSDOF 1
ENDMDL
MODEL      125
REMARK 921   NORMALIZED FREE ENERGY PREDICTED BY IDOCK:   -2.20 KCAL/MOL
REMARK 922        TOTAL FREE ENERGY PREDICTED BY IDOCK:   -3.10 KCAL/MOL
REMARK 923 INTER-LIGAND FREE ENERGY PREDICTED BY IDOCK:   -3.41 KCAL/MOL
REMARK 924 INTRA-LIGAND FREE ENERGY PREDICTED BY IDOCK:    0.31 KCAL/MOL
REMARK 927      BINDING AFFINITY PREDICTED BY RF-SCORE:    0.00 PKD
ROOT
HETATM    1  C   UNL     1      -5.373   9.776  68.631  1.00  0.00    -0.036 C  
HETATM    2  N   UNL     1      -6.325  10.189  69.650  1.00  0.00    -0.050 NA 
HETATM    3  C   UNL     1      -5.882   9.914  71.023  1.00  0.00    -0.082 C  
HETATM    4  C   UNL     1      -6.659   8.924  71.920  1.00  0.00    -0.036 C  
HETATM    5  C   UNL     1      -7.996   8.588  71.395  1.00  0.00    -0.168 C  
HETATM    6  C   UNL     1      -8.463   9.005  70.211  1.00  0.00    -0.180 C  
HETATM    7  C   UNL     1      -9.849   8.465  69.902  1.00  0.00    -0.186 C  
HETATM    8  C   UNL     1      -7.716   9.895  69.286  1.00  0.00    -0.109 C  
HETATM    9  C   UNL     1     -10.126   7.687  71.172  1.00  0.00    -0.196 A  
HETATM   10  C   UNL     1      -9.016   7.769  72.029  1.00  0.00    -0.175 A  
HETATM   11  C   UNL     1     -11.253   6.957  71.519  1.00  0.00    -0.290 A  
HETATM   12  C   UNL     1      -9.014   7.115  73.249  1.00  0.00    -0.174 A  
HETATM   13  C   UNL     1     -10.143   6.370  73.605  1.00  0.00    -0.256 A  
HETATM   14  C   UNL     1     -11.253   6.291  72.747  1.00  0.00    -0.272 A  
ENDROOT
BRANCH   7  15
HETATM   15  C   UNL     1      -9.884   7.611  68.645  1.00  0.00    -0.175 A  
HETATM   16  C   UNL     1      -9.129   7.133  66.379  1.00  0.00    -0.189 A  
HETATM   17  C   UNL     1     -10.819   5.747  67.398  1.00  0.00    -0.279 A  
HETATM   18  C   UNL     1      -9.069   7.906  67.539  1.00  0.00    -0.141 A  
HETATM   19  C   UNL     1     -10.761   6.518  68.560  1.00  0.00    -0.329 A  
HETATM   20  C   UNL     1     -10.004   6.054  66.307  1.00  0.00    -0.085 A  
ENDBRANCH   7  15
TORSDOF 1
ENDMDL
MODEL      126
REMARK 921   NORMALIZED FREE ENERGY PREDICTED BY IDOCK:   -2.15 KCAL/MOL
REMARK 922        TOTAL FREE ENERGY PREDICTED BY IDOCK:   -3.04 KCAL/MOL
REMARK 923 INTER-LIGAND FREE ENERGY PREDICTED BY IDOCK:   -2.29 KCAL/MOL
REMARK 924 INTRA-LIGAND FREE ENERGY PREDICTED BY IDOCK:   -0.76 KCAL/MOL
REMARK 927      BINDING AFFINITY PREDICTED BY RF-SCORE:    0.00 PKD
ROOT
HETATM    1  C   UNL     1      -5.593  10.151  68.349  1.00  0.00    -0.038 C  
HETATM    2  N   UNL     1      -6.954   9.950  68.819  1.00  0.00    -0.061 NA 
HETATM    3  C   UNL     1      -7.092  10.007  70.280  1.00  0.00    -0.150 C  
HETATM    4  C   UNL     1      -7.550   8.766  71.079  1.00  0.00    -0.124 C  
HETATM    5  C   UNL     1      -8.127   7.707  70.229  1.00  0.00    -0.114 C  
HETATM    6  C   UNL     1      -8.163   7.756  68.891  1.00  0.00    -0.127 C  
HETATM    7  C   UNL     1      -8.768   6.506  68.274  1.00  0.00    -0.117 C  
HETATM    8  C   UNL     1      -7.664   8.898  68.085  1.00  0.00    -0.100 C  
HETATM    9  C   UNL     1      -9.130   5.733  69.525  1.00  0.00    -0.143 A  
HETATM   10  C   UNL     1      -8.734   6.458  70.661  1.00  0.00    -0.144 A  
HETATM   11  C   UNL     1      -9.735   4.489  69.637  1.00  0.00    -0.288 A  
HETATM   12  C   UNL     1      -8.934   5.947  71.932  1.00  0.00    -0.139 A  
HETATM   13  C   UNL     1      -9.537   4.691  72.055  1.00  0.00    -0.205 A  
HETATM   14  C   UNL     1      -9.934   3.968  70.918  1.00  0.00    -0.167 A  
ENDROOT
BRANCH   7  15
HETATM   15  C   UNL     1      -7.798   5.769  67.362  1.00  0.00    -0.102 A  
HETATM   16  C   UNL     1      -5.769   4.465  67.028  1.00  0.00    -0.022 A  
HETATM   17  C   UNL     1      -7.110   5.105  65.128  1.00  0.00    -0.063 A  
HETATM   18  C   UNL     1      -6.667   5.115  67.876  1.00  0.00    -0.055 A  
HETATM   19  C   UNL     1      -8.010   5.755  65.974  1.00  0.00    -0.103 A  
HETATM   20  C   UNL     1      -5.989   4.461  65.654  1.00  0.00    -0.023 A  
ENDBRANCH   7  15
TORSDOF 1
ENDMDL
MODEL      127
REMARK 921   NORMALIZED FREE ENERGY PREDICTED BY IDOCK:   -1.94 KCAL/MOL
REMARK 922        TOTAL FREE ENERGY PREDICTED BY IDOCK:   -2.82 KCAL/MOL
REMARK 923 INTER-LIGAND FREE ENERGY PREDICTED BY IDOCK:   -2.04 KCAL/MOL
REMARK 924 INTRA-LIGAND FREE ENERGY PREDICTED BY IDOCK:   -0.79 KCAL/MOL
REMARK 927      BINDING AFFINITY PREDICTED BY RF-SCORE:    0.00 PKD
ROOT
HETATM    1  C   UNL     1      -5.875   8.674  72.310  1.00  0.00    -0.065 C  
HETATM    2  N   UNL     1      -5.337   7.989  71.147  1.00  0.00    -0.030 NA 
HETATM    3  C   UNL     1      -5.209   8.846  69.960  1.00  0.00    -0.029 C  
HETATM    4  C   UNL     1      -6.028   8.553  68.683  1.00  0.00    -0.045 C  
HETATM    5  C   UNL     1      -6.638   7.210  68.677  1.00  0.00    -0.041 C  
HETATM    6  C   UNL     1      -6.584   6.358  69.709  1.00  0.00    -0.048 C  
HETATM    7  C   UNL     1      -7.341   5.067  69.445  1.00  0.00    -0.057 C  
HETATM    8  C   UNL     1      -5.872   6.633  70.982  1.00  0.00    -0.028 C  
HETATM    9  C   UNL     1      -7.807   5.311  68.025  1.00  0.00    -0.091 A  
HETATM   10  C   UNL     1      -7.387   6.582  67.600  1.00  0.00    -0.095 A  
HETATM   11  C   UNL     1      -8.554   4.484  67.198  1.00  0.00    -0.104 A  
HETATM   12  C   UNL     1      -7.713   7.051  66.339  1.00  0.00    -0.104 A  
HETATM   13  C   UNL     1      -8.472   6.228  65.501  1.00  0.00    -0.145 A  
HETATM   14  C   UNL     1      -8.890   4.956  65.927  1.00  0.00    -0.130 A  
ENDROOT
BRANCH   7  15
HETATM   15  C   UNL     1      -8.479   4.838  70.428  1.00  0.00    -0.102 A  
HETATM   16  C   UNL     1      -9.630   3.442  72.059  1.00  0.00    -0.214 A  
HETATM   17  C   UNL     1     -10.546   5.591  71.460  1.00  0.00    -0.302 A  
HETATM   18  C   UNL     1      -8.567   3.654  71.179  1.00  0.00    -0.108 A  
HETATM   19  C   UNL     1      -9.484   5.807  70.581  1.00  0.00    -0.198 A  
HETATM   20  C   UNL     1     -10.620   4.409  72.199  1.00  0.00    -0.101 A  
ENDBRANCH   7  15
TORSDOF 1
ENDMDL
MODEL      128
REMARK 921   NORMALIZED FREE ENERGY PREDICTED BY IDOCK:   -1.75 KCAL/MOL
REMARK 922        TOTAL FREE ENERGY PREDICTED BY IDOCK:   -2.62 KCAL/MOL
REMARK 923 INTER-LIGAND FREE ENERGY PREDICTED BY IDOCK:   -1.86 KCAL/MOL
REMARK 924 INTRA-LIGAND FREE ENERGY PREDICTED BY IDOCK:   -0.76 KCAL/MOL
REMARK 927      BINDING AFFINITY PREDICTED BY RF-SCORE:    0.00 PKD
ROOT
HETATM    1  C   UNL     1     -10.712   6.485  66.759  1.00  0.00    -0.273 C  
HETATM    2  N   UNL     1     -10.745   6.883  68.157  1.00  0.00    -0.211 NA 
HETATM    3  C   UNL     1     -10.573   8.327  68.367  1.00  0.00    -0.099 C  
HETATM    4  C   UNL     1      -9.347   8.873  69.133  1.00  0.00    -0.148 C  
HETATM    5  C   UNL     1      -8.612   7.830  69.874  1.00  0.00    -0.137 C  
HETATM    6  C   UNL     1      -8.902   6.524  69.818  1.00  0.00    -0.143 C  
HETATM    7  C   UNL     1      -7.950   5.675  70.642  1.00  0.00    -0.104 C  
HETATM    8  C   UNL     1     -10.026   5.953  69.034  1.00  0.00    -0.165 C  
HETATM    9  C   UNL     1      -7.071   6.753  71.240  1.00  0.00    -0.075 A  
HETATM   10  C   UNL     1      -7.477   8.012  70.765  1.00  0.00    -0.072 A  
HETATM   11  C   UNL     1      -5.997   6.622  72.108  1.00  0.00    -0.038 A  
HETATM   12  C   UNL     1      -6.809   9.162  71.149  1.00  0.00    -0.088 A  
HETATM   13  C   UNL     1      -5.720   9.039  72.018  1.00  0.00    -0.069 A  
HETATM   14  C   UNL     1      -5.317   7.780  72.494  1.00  0.00    -0.036 A  
ENDROOT
BRANCH   7  15
HETATM   15  C   UNL     1      -7.185   4.661  69.804  1.00  0.00    -0.054 A  
HETATM   16  C   UNL     1      -5.537   4.132  68.092  1.00  0.00    -0.017 A  
HETATM   17  C   UNL     1      -6.786   2.357  69.143  1.00  0.00    -0.033 A  
HETATM   18  C   UNL     1      -6.213   5.068  68.876  1.00  0.00    -0.031 A  
HETATM   19  C   UNL     1      -7.463   3.291  69.930  1.00  0.00    -0.044 A  
HETATM   20  C   UNL     1      -5.823   2.777  68.224  1.00  0.00    -0.023 A  
ENDBRANCH   7  15
TORSDOF 1
ENDMDL
MODEL      129
REMARK 921   NORMALIZED FREE ENERGY PREDICTED BY IDOCK:   -1.65 KCAL/MOL
REMARK 922        TOTAL FREE ENERGY PREDICTED BY IDOCK:   -2.52 KCAL/MOL
REMARK 923 INTER-LIGAND FREE ENERGY PREDICTED BY IDOCK:   -2.54 KCAL/MOL
REMARK 924 INTRA-LIGAND FREE ENERGY PREDICTED BY IDOCK:    0.02 KCAL/MOL
REMARK 927      BINDING AFFINITY PREDICTED BY RF-SCORE:    0.00 PKD
ROOT
HETATM    1  C   UNL     1      -5.253   8.193  67.960  1.00  0.00    -0.033 C  
HETATM    2  N   UNL     1      -5.519   7.727  69.311  1.00  0.00    -0.025 NA 
HETATM    3  C   UNL     1      -5.600   6.265  69.429  1.00  0.00    -0.013 C  
HETATM    4  C   UNL     1      -6.918   5.580  69.856  1.00  0.00    -0.061 C  
HETATM    5  C   UNL     1      -7.903   6.517  70.428  1.00  0.00    -0.110 C  
HETATM    6  C   UNL     1      -7.731   7.844  70.484  1.00  0.00    -0.086 C  
HETATM    7  C   UNL     1      -8.928   8.567  71.078  1.00  0.00    -0.219 C  
HETATM    8  C   UNL     1      -6.510   8.547  70.015  1.00  0.00    -0.038 C  
HETATM    9  C   UNL     1      -9.819   7.389  71.411  1.00  0.00    -0.194 A  
HETATM   10  C   UNL     1      -9.196   6.196  71.011  1.00  0.00    -0.166 A  
HETATM   11  C   UNL     1     -11.078   7.385  71.995  1.00  0.00    -0.279 A  
HETATM   12  C   UNL     1      -9.826   4.975  71.184  1.00  0.00    -0.254 A  
HETATM   13  C   UNL     1     -11.098   4.962  71.766  1.00  0.00     0.175 A  
HETATM   14  C   UNL     1     -11.719   6.157  72.168  1.00  0.00    -0.361 A  
ENDROOT
BRANCH   7  15
HETATM   15  C   UNL     1      -9.560   9.556  70.111  1.00  0.00    -0.290 A  
HETATM   16  C   UNL     1      -9.452  11.593  68.781  1.00  0.00    -0.068 A  
HETATM   17  C   UNL     1     -11.482  10.292  68.818  1.00  0.00    -0.176 A  
HETATM   18  C   UNL     1      -8.852  10.677  69.647  1.00  0.00     0.140 A  
HETATM   19  C   UNL     1     -10.885   9.373  69.683  1.00  0.00    -0.245 A  
HETATM   20  C   UNL     1     -10.766  11.402  68.367  1.00  0.00    -0.237 A  
ENDBRANCH   7  15
TORSDOF 1
ENDMDL
MODEL      130
REMARK 921   NORMALIZED FREE ENERGY PREDICTED BY IDOCK:   -1.50 KCAL/MOL
REMARK 922        TOTAL FREE ENERGY PREDICTED BY IDOCK:   -2.36 KCAL/MOL
REMARK 923 INTER-LIGAND FREE ENERGY PREDICTED BY IDOCK:   -2.49 KCAL/MOL
REMARK 924 INTRA-LIGAND FREE ENERGY PREDICTED BY IDOCK:    0.13 KCAL/MOL
REMARK 927      BINDING AFFINITY PREDICTED BY RF-SCORE:    0.00 PKD
ROOT
HETATM    1  C   UNL     1      -6.682  10.785  65.058  1.00  0.00     0.192 C  
HETATM    2  N   UNL     1      -6.027  10.179  66.205  1.00  0.00    -0.065 NA 
HETATM    3  C   UNL     1      -5.611   8.787  65.984  1.00  0.00    -0.042 C  
HETATM    4  C   UNL     1      -6.226   7.638  66.814  1.00  0.00    -0.049 C  
HETATM    5  C   UNL     1      -6.961   8.107  68.003  1.00  0.00    -0.077 C  
HETATM    6  C   UNL     1      -7.173   9.398  68.293  1.00  0.00    -0.077 C  
HETATM    7  C   UNL     1      -8.003   9.589  69.551  1.00  0.00    -0.110 C  
HETATM    8  C   UNL     1      -6.663  10.530  67.480  1.00  0.00    -0.070 C  
HETATM    9  C   UNL     1      -8.193   8.147  69.973  1.00  0.00    -0.120 A  
HETATM   10  C   UNL     1      -7.577   7.296  69.041  1.00  0.00    -0.099 A  
HETATM   11  C   UNL     1      -8.870   7.642  71.074  1.00  0.00    -0.142 A  
HETATM   12  C   UNL     1      -7.634   5.921  69.193  1.00  0.00    -0.090 A  
HETATM   13  C   UNL     1      -8.320   5.402  70.295  1.00  0.00    -0.112 A  
HETATM   14  C   UNL     1      -8.933   6.255  71.228  1.00  0.00    -0.139 A  
ENDROOT
BRANCH   7  15
HETATM   15  C   UNL     1      -9.309  10.324  69.291  1.00  0.00    -0.221 A  
HETATM   16  C   UNL     1     -11.742  10.424  69.359  1.00  0.00    -0.231 A  
HETATM   17  C   UNL     1     -10.492  12.256  68.412  1.00  0.00    -0.244 A  
HETATM   18  C   UNL     1     -10.547   9.753  69.628  1.00  0.00    -0.260 A  
HETATM   19  C   UNL     1      -9.296  11.588  68.680  1.00  0.00    -0.142 A  
HETATM   20  C   UNL     1     -11.715  11.674  68.751  1.00  0.00    -0.392 A  
ENDBRANCH   7  15
TORSDOF 1
ENDMDL
MODEL      131
REMARK 921   NORMALIZED FREE ENERGY PREDICTED BY IDOCK:    0.90 KCAL/MOL
REMARK 922        TOTAL FREE ENERGY PREDICTED BY IDOCK:    0.19 KCAL/MOL
REMARK 923 INTER-LIGAND FREE ENERGY PREDICTED BY IDOCK:    0.41 KCAL/MOL
REMARK 924 INTRA-LIGAND FREE ENERGY PREDICTED BY IDOCK:   -0.22 KCAL/MOL
REMARK 927      BINDING AFFINITY PREDICTED BY RF-SCORE:    0.00 PKD
ROOT
HETATM    1  C   UNL     1     -13.875  13.518  73.174  1.00  0.00     1.169 C  
HETATM    2  N   UNL     1     -13.835  12.694  71.977  1.00  0.00    -0.194 NA 
HETATM    3  C   UNL     1     -13.250  11.364  72.191  1.00  0.00    -0.188 C  
HETATM    4  C   UNL     1     -11.943  10.952  71.476  1.00  0.00     0.043 C  
HETATM    5  C   UNL     1     -11.577  11.854  70.367  1.00  0.00    -0.060 C  
HETATM    6  C   UNL     1     -12.240  12.977  70.064  1.00  0.00    -0.306 C  
HETATM    7  C   UNL     1     -11.612  13.737  68.908  1.00  0.00    -0.358 C  
HETATM    8  C   UNL     1     -13.456  13.446  70.776  1.00  0.00     0.396 C  
HETATM    9  C   UNL     1     -10.473  12.803  68.556  1.00  0.00    -0.252 A  
HETATM   10  C   UNL     1     -10.470  11.708  69.435  1.00  0.00     0.061 A  
HETATM   11  C   UNL     1      -9.516  12.930  67.559  1.00  0.00    -0.198 A  
HETATM   12  C   UNL     1      -9.504  10.721  69.335  1.00  0.00    -0.037 A  
HETATM   13  C   UNL     1      -8.531  10.845  68.338  1.00  0.00    -0.141 A  
HETATM   14  C   UNL     1      -8.537  11.940  67.458  1.00  0.00    -0.160 A  
ENDROOT
BRANCH   7  15
HETATM   15  C   UNL     1     -11.156  15.134  69.297  1.00  0.00    -0.279 A  
HETATM   16  C   UNL     1     -10.777  16.855  70.979  1.00  0.00     1.096 A  
HETATM   17  C   UNL     1     -10.338  17.331  68.656  1.00  0.00    -0.357 A  
HETATM   18  C   UNL     1     -11.171  15.560  70.636  1.00  0.00    -0.373 A  
HETATM   19  C   UNL     1     -10.731  16.037  68.309  1.00  0.00    -0.298 A  
HETATM   20  C   UNL     1     -10.361  17.740  69.991  1.00  0.00     0.847 A  
ENDBRANCH   7  15
TORSDOF 1
ENDMDL
MODEL      132
REMARK 921   NORMALIZED FREE ENERGY PREDICTED BY IDOCK:    1.09 KCAL/MOL
REMARK 922        TOTAL FREE ENERGY PREDICTED BY IDOCK:    0.39 KCAL/MOL
REMARK 923 INTER-LIGAND FREE ENERGY PREDICTED BY IDOCK:    0.88 KCAL/MOL
REMARK 924 INTRA-LIGAND FREE ENERGY PREDICTED BY IDOCK:   -0.50 KCAL/MOL
REMARK 927      BINDING AFFINITY PREDICTED BY RF-SCORE:    0.00 PKD
ROOT
HETATM    1  C   UNL     1     -11.239  17.275  69.942  1.00  0.00     0.976 C  
HETATM    2  N   UNL     1     -11.519  15.880  70.236  1.00  0.00    -0.343 NA 
HETATM    3  C   UNL     1     -10.435  15.195  70.953  1.00  0.00     0.247 C  
HETATM    4  C   UNL     1      -9.681  14.013  70.302  1.00  0.00     2.133 C  
HETATM    5  C   UNL     1     -10.364  13.471  69.113  1.00  0.00     0.068 C  
HETATM    6  C   UNL     1     -11.471  14.002  68.576  1.00  0.00    -0.336 C  
HETATM    7  C   UNL     1     -11.928  13.269  67.326  1.00  0.00    -0.393 C  
HETATM    8  C   UNL     1     -12.181  15.182  69.129  1.00  0.00    -0.150 C  
HETATM    9  C   UNL     1     -10.894  12.164  67.266  1.00  0.00    -0.286 A  
HETATM   10  C   UNL     1      -9.981  12.311  68.324  1.00  0.00    -0.216 A  
HETATM   11  C   UNL     1     -10.768  11.136  66.342  1.00  0.00    -0.303 A  
HETATM   12  C   UNL     1      -8.921  11.433  68.471  1.00  0.00    -0.158 A  
HETATM   13  C   UNL     1      -8.781  10.399  67.540  1.00  0.00    -0.125 A  
HETATM   14  C   UNL     1      -9.696  10.252  66.484  1.00  0.00    -0.243 A  
ENDROOT
BRANCH   7  15
HETATM   15  C   UNL     1     -11.942  14.157  66.092  1.00  0.00    -0.437 A  
HETATM   16  C   UNL     1     -11.178  16.130  64.885  1.00  0.00    -0.292 A  
HETATM   17  C   UNL     1     -12.827  14.679  63.890  1.00  0.00     0.749 A  
HETATM   18  C   UNL     1     -11.138  15.306  66.011  1.00  0.00    -0.278 A  
HETATM   19  C   UNL     1     -12.788  13.852  65.014  1.00  0.00    -0.309 A  
HETATM   20  C   UNL     1     -12.023  15.818  63.825  1.00  0.00     0.579 A  
ENDBRANCH   7  15
TORSDOF 1
ENDMDL
MODEL      133
REMARK 921   NORMALIZED FREE ENERGY PREDICTED BY IDOCK:    2.27 KCAL/MOL
REMARK 922        TOTAL FREE ENERGY PREDICTED BY IDOCK:    1.64 KCAL/MOL
REMARK 923 INTER-LIGAND FREE ENERGY PREDICTED BY IDOCK:    1.62 KCAL/MOL
REMARK 924 INTRA-LIGAND FREE ENERGY PREDICTED BY IDOCK:    0.02 KCAL/MOL
REMARK 927      BINDING AFFINITY PREDICTED BY RF-SCORE:    0.00 PKD
ROOT
HETATM    1  C   UNL     1     -10.275  19.676  68.941  1.00  0.00    -0.325 C  
HETATM    2  N   UNL     1     -11.065  18.675  68.243  1.00  0.00     0.321 NA 
HETATM    3  C   UNL     1     -11.954  17.902  69.121  1.00  0.00     4.441 C  
HETATM    4  C   UNL     1     -11.760  16.380  69.300  1.00  0.00     0.005 C  
HETATM    5  C   UNL     1     -10.868  15.784  68.287  1.00  0.00    -0.305 C  
HETATM    6  C   UNL     1     -10.204  16.491  67.364  1.00  0.00    -0.287 C  
HETATM    7  C   UNL     1      -9.320  15.624  66.483  1.00  0.00    -0.305 C  
HETATM    8  C   UNL     1     -10.306  17.964  67.209  1.00  0.00    -0.369 C  
HETATM    9  C   UNL     1      -9.640  14.254  67.042  1.00  0.00    -0.260 A  
HETATM   10  C   UNL     1     -10.547  14.377  68.107  1.00  0.00    -0.236 A  
HETATM   11  C   UNL     1      -9.151  13.015  66.651  1.00  0.00    -0.181 A  
HETATM   12  C   UNL     1     -10.977  13.260  68.804  1.00  0.00    -0.294 A  
HETATM   13  C   UNL     1     -10.483  12.009  68.422  1.00  0.00    -0.231 A  
HETATM   14  C   UNL     1      -9.578  11.887  67.354  1.00  0.00    -0.176 A  
ENDROOT
BRANCH   7  15
HETATM   15  C   UNL     1      -7.847  15.992  66.580  1.00  0.00    -0.226 A  
HETATM   16  C   UNL     1      -5.557  15.447  67.204  1.00  0.00     0.480 A  
HETATM   17  C   UNL     1      -6.066  17.620  66.289  1.00  0.00    -0.261 A  
HETATM   18  C   UNL     1      -6.902  15.089  67.093  1.00  0.00     0.142 A  
HETATM   19  C   UNL     1      -7.411  17.265  66.176  1.00  0.00    -0.321 A  
HETATM   20  C   UNL     1      -5.139  16.712  66.803  1.00  0.00     0.006 A  
ENDBRANCH   7  15
TORSDOF 1
ENDMDL
MODEL      134
REMARK 921   NORMALIZED FREE ENERGY PREDICTED BY IDOCK:    3.22 KCAL/MOL
REMARK 922        TOTAL FREE ENERGY PREDICTED BY IDOCK:    2.64 KCAL/MOL
REMARK 923 INTER-LIGAND FREE ENERGY PREDICTED BY IDOCK:    3.19 KCAL/MOL
REMARK 924 INTRA-LIGAND FREE ENERGY PREDICTED BY IDOCK:   -0.55 KCAL/MOL
REMARK 927      BINDING AFFINITY PREDICTED BY RF-SCORE:    0.00 PKD
ROOT
HETATM    1  C   UNL     1     -11.770  13.129  72.060  1.00  0.00     2.472 C  
HETATM    2  N   UNL     1     -12.251  14.269  71.296  1.00  0.00    -0.347 NA 
HETATM    3  C   UNL     1     -13.405  13.964  70.440  1.00  0.00     0.404 C  
HETATM    4  C   UNL     1     -13.297  14.073  68.902  1.00  0.00     3.213 C  
HETATM    5  C   UNL     1     -12.097  14.804  68.453  1.00  0.00    -0.202 C  
HETATM    6  C   UNL     1     -11.136  15.244  69.275  1.00  0.00    -0.277 C  
HETATM    7  C   UNL     1      -9.993  15.918  68.534  1.00  0.00    -0.216 C  
HETATM    8  C   UNL     1     -11.167  15.092  70.751  1.00  0.00    -0.236 C  
HETATM    9  C   UNL     1     -10.503  15.832  67.111  1.00  0.00    -0.309 A  
HETATM   10  C   UNL     1     -11.739  15.165  67.090  1.00  0.00    -0.141 A  
HETATM   11  C   UNL     1      -9.910  16.288  65.943  1.00  0.00    -0.365 A  
HETATM   12  C   UNL     1     -12.400  14.937  65.896  1.00  0.00     0.156 A  
HETATM   13  C   UNL     1     -11.806  15.386  64.712  1.00  0.00    -0.169 A  
HETATM   14  C   UNL     1     -10.571  16.056  64.735  1.00  0.00    -0.099 A  
ENDROOT
BRANCH   7  15
HETATM   15  C   UNL     1      -8.658  15.220  68.746  1.00  0.00    -0.190 A  
HETATM   16  C   UNL     1      -7.046  13.493  68.154  1.00  0.00    -0.117 A  
HETATM   17  C   UNL     1      -6.594  14.973  70.004  1.00  0.00    -0.158 A  
HETATM   18  C   UNL     1      -8.261  14.145  67.934  1.00  0.00    -0.155 A  
HETATM   19  C   UNL     1      -7.807  15.628  69.785  1.00  0.00     0.023 A  
HETATM   20  C   UNL     1      -6.213  13.906  69.189  1.00  0.00    -0.098 A  
ENDBRANCH   7  15
TORSDOF 1
ENDMDL
MODEL      135
REMARK 921   NORMALIZED FREE ENERGY PREDICTED BY IDOCK:    5.22 KCAL/MOL
REMARK 922        TOTAL FREE ENERGY PREDICTED BY IDOCK:    4.76 KCAL/MOL
REMARK 923 INTER-LIGAND FREE ENERGY PREDICTED BY IDOCK:    5.17 KCAL/MOL
REMARK 924 INTRA-LIGAND FREE ENERGY PREDICTED BY IDOCK:   -0.41 KCAL/MOL
REMARK 927      BINDING AFFINITY PREDICTED BY RF-SCORE:    0.00 PKD
ROOT
HETATM    1  C   UNL     1     -13.160  12.465  67.908  1.00  0.00     4.045 C  
HETATM    2  N   UNL     1     -12.063  12.703  66.985  1.00  0.00    -0.486 NA 
HETATM    3  C   UNL     1     -11.209  11.529  66.762  1.00  0.00    -0.285 C  
HETATM    4  C   UNL     1      -9.722  11.543  67.183  1.00  0.00    -0.199 C  
HETATM    5  C   UNL     1      -9.215  12.895  67.486  1.00  0.00    -0.192 C  
HETATM    6  C   UNL     1      -9.978  13.996  67.501  1.00  0.00    -0.236 C  
HETATM    7  C   UNL     1      -9.203  15.242  67.894  1.00  0.00    -0.184 C  
HETATM    8  C   UNL     1     -11.426  14.011  67.176  1.00  0.00    -0.352 C  
HETATM    9  C   UNL     1      -7.815  14.660  68.056  1.00  0.00    -0.136 A  
HETATM   10  C   UNL     1      -7.851  13.276  67.819  1.00  0.00    -0.157 A  
HETATM   11  C   UNL     1      -6.635  15.301  68.404  1.00  0.00    -0.110 A  
HETATM   12  C   UNL     1      -6.705  12.508  67.931  1.00  0.00    -0.103 A  
HETATM   13  C   UNL     1      -5.512  13.144  68.289  1.00  0.00    -0.089 A  
HETATM   14  C   UNL     1      -5.477  14.529  68.524  1.00  0.00    -0.099 A  
ENDROOT
BRANCH   7  15
HETATM   15  C   UNL     1      -9.740  15.897  69.158  1.00  0.00    -0.249 A  
HETATM   16  C   UNL     1     -11.072  15.811  71.195  1.00  0.00    -0.300 A  
HETATM   17  C   UNL     1      -9.952  17.856  70.580  1.00  0.00     2.282 A  
HETATM   18  C   UNL     1     -10.562  15.192  70.052  1.00  0.00    -0.237 A  
HETATM   19  C   UNL     1      -9.439  17.240  69.437  1.00  0.00     0.189 A  
HETATM   20  C   UNL     1     -10.768  17.142  71.459  1.00  0.00     2.067 A  
ENDBRANCH   7  15
TORSDOF 1
ENDMDL
MODEL      136
REMARK 921   NORMALIZED FREE ENERGY PREDICTED BY IDOCK:   28.59 KCAL/MOL
REMARK 922        TOTAL FREE ENERGY PREDICTED BY IDOCK:   29.50 KCAL/MOL
REMARK 923 INTER-LIGAND FREE ENERGY PREDICTED BY IDOCK:   30.27 KCAL/MOL
REMARK 924 INTRA-LIGAND FREE ENERGY PREDICTED BY IDOCK:   -0.78 KCAL/MOL
REMARK 927      BINDING AFFINITY PREDICTED BY RF-SCORE:    0.00 PKD
ROOT
HETATM    1  C   UNL     1      -7.706  19.687  66.804  1.00  0.00    -0.266 C  
HETATM    2  N   UNL     1      -6.878  18.633  66.243  1.00  0.00    -0.212 NA 
HETATM    3  C   UNL     1      -7.418  18.046  65.009  1.00  0.00     2.067 C  
HETATM    4  C   UNL     1      -7.838  16.559  64.961  1.00  0.00     4.718 C  
HETATM    5  C   UNL     1      -7.338  15.775  66.106  1.00  0.00     1.420 C  
HETATM    6  C   UNL     1      -6.676  16.303  67.144  1.00  0.00    -0.237 C  
HETATM    7  C   UNL     1      -6.326  15.271  68.203  1.00  0.00    -0.135 C  
HETATM    8  C   UNL     1      -6.320  17.739  67.263  1.00  0.00    -0.155 C  
HETATM    9  C   UNL     1      -6.872  14.017  67.552  1.00  0.00    -0.150 A  
HETATM   10  C   UNL     1      -7.469  14.343  66.323  1.00  0.00     2.541 A  
HETATM   11  C   UNL     1      -6.855  12.712  68.022  1.00  0.00    -0.095 A  
HETATM   12  C   UNL     1      -8.066  13.366  65.545  1.00  0.00     3.599 A  
HETATM   13  C   UNL     1      -8.062  12.049  66.014  1.00  0.00     0.516 A  
HETATM   14  C   UNL     1      -7.461  11.724  67.243  1.00  0.00    -0.151 A  
ENDROOT
BRANCH   7  15
HETATM   15  C   UNL     1      -6.953  15.576  69.555  1.00  0.00    -0.190 A  
HETATM   16  C   UNL     1      -8.893  16.117  70.925  1.00  0.00     3.612 A  
HETATM   17  C   UNL     1      -6.711  15.964  71.942  1.00  0.00     3.566 A  
HETATM   18  C   UNL     1      -8.332  15.810  69.684  1.00  0.00    -0.013 A  
HETATM   19  C   UNL     1      -6.147  15.655  70.703  1.00  0.00     0.163 A  
HETATM   20  C   UNL     1      -8.083  16.195  72.053  1.00  0.00     9.673 A  
ENDBRANCH   7  15
TORSDOF 1
ENDMDL
MODEL      137
REMARK 921   NORMALIZED FREE ENERGY PREDICTED BY IDOCK:   33.76 KCAL/MOL
REMARK 922        TOTAL FREE ENERGY PREDICTED BY IDOCK:   34.97 KCAL/MOL
REMARK 923 INTER-LIGAND FREE ENERGY PREDICTED BY IDOCK:   34.84 KCAL/MOL
REMARK 924 INTRA-LIGAND FREE ENERGY PREDICTED BY IDOCK:    0.13 KCAL/MOL
REMARK 927      BINDING AFFINITY PREDICTED BY RF-SCORE:    0.00 PKD
ROOT
HETATM    1  C   UNL     1      -5.831  10.053  66.658  1.00  0.00    -0.055 C  
HETATM    2  N   UNL     1      -6.635   9.532  67.751  1.00  0.00    -0.062 NA 
HETATM    3  C   UNL     1      -6.718   8.066  67.780  1.00  0.00    -0.068 C  
HETATM    4  C   UNL     1      -8.072   7.348  67.582  1.00  0.00    -0.114 C  
HETATM    5  C   UNL     1      -9.233   8.250  67.705  1.00  0.00    -0.144 C  
HETATM    6  C   UNL     1      -9.138   9.576  67.868  1.00  0.00    -0.131 C  
HETATM    7  C   UNL     1     -10.494  10.261  67.913  1.00  0.00    -0.253 C  
HETATM    8  C   UNL     1      -7.855  10.312  67.986  1.00  0.00    -0.100 C  
HETATM    9  C   UNL     1     -11.409   9.060  67.798  1.00  0.00     0.765 A  
HETATM   10  C   UNL     1     -10.642   7.891  67.668  1.00  0.00    -0.276 A  
HETATM   11  C   UNL     1     -12.796   9.018  67.788  1.00  0.00    10.763 A  
HETATM   12  C   UNL     1     -11.252   6.657  67.520  1.00  0.00    -0.276 A  
HETATM   13  C   UNL     1     -12.649   6.604  67.501  1.00  0.00     6.975 A  
HETATM   14  C   UNL     1     -13.415   7.775  67.633  1.00  0.00    18.533 A  
ENDROOT
BRANCH   7  15
HETATM   15  C   UNL     1     -10.680  11.278  66.798  1.00  0.00    -0.323 A  
HETATM   16  C   UNL     1     -11.896  12.103  64.855  1.00  0.00    -0.366 A  
HETATM   17  C   UNL     1      -9.907  13.246  65.600  1.00  0.00    -0.177 A  
HETATM   18  C   UNL     1     -11.750  11.180  65.893  1.00  0.00     0.729 A  
HETATM   19  C   UNL     1      -9.759  12.326  66.639  1.00  0.00    -0.229 A  
HETATM   20  C   UNL     1     -10.975  13.135  64.708  1.00  0.00    -0.355 A  
ENDBRANCH   7  15
TORSDOF 1
ENDMDL
