MODEL        1
REMARK 921   NORMALIZED FREE ENERGY PREDICTED BY IDOCK:   -6.09 KCAL/MOL
REMARK 922        TOTAL FREE ENERGY PREDICTED BY IDOCK:   -9.68 KCAL/MOL
REMARK 923 INTER-LIGAND FREE ENERGY PREDICTED BY IDOCK:   -8.59 KCAL/MOL
REMARK 924 INTRA-LIGAND FREE ENERGY PREDICTED BY IDOCK:   -1.10 KCAL/MOL
REMARK 927      BINDING AFFINITY PREDICTED BY RF-SCORE:    0.00 PKD
ROOT
HETATM    1  C   UNL     1     -10.624  15.487  66.619  1.00  0.00    -0.307 C  
HETATM    2  C   UNL     1     -10.534  14.447  67.754  1.00  0.00    -0.245 C  
ENDROOT
BRANCH   2   3
HETATM    3  N   UNL     1     -11.420  13.248  67.577  1.00  0.00    -0.303 NA 
BRANCH   3   4
HETATM    4  C   UNL     1     -11.941  13.137  66.189  1.00  0.00    -0.422 C  
HETATM    5 CL   UNL     1     -12.047  12.101  63.671  1.00  0.00    -0.612 Cl 
HETATM    6  C   UNL     1     -11.249  12.118  65.271  1.00  0.00    -0.332 C  
ENDBRANCH   3   4
BRANCH   3   7
HETATM    7  C   UNL     1     -10.754  11.992  67.985  1.00  0.00    -0.212 C  
BRANCH   7   8
HETATM    8  C   UNL     1     -11.336  11.287  69.195  1.00  0.00    -0.349 A  
HETATM    9  C   UNL     1     -12.194  11.975  70.065  1.00  0.00    -0.280 A  
HETATM   10  C   UNL     1     -12.667  11.372  71.234  1.00  0.00    -0.498 A  
HETATM   11  C   UNL     1     -10.973   9.971  69.510  1.00  0.00    -0.289 A  
HETATM   12  C   UNL     1     -12.286  10.070  71.545  1.00  0.00    -0.513 A  
HETATM   13  C   UNL     1     -11.445   9.367  70.682  1.00  0.00    -0.344 A  
ENDBRANCH   7   8
ENDBRANCH   3   7
ENDBRANCH   2   3
BRANCH   2  14
HETATM   14  C   UNL     1     -10.742  15.154  69.124  1.00  0.00    -0.253 C  
BRANCH  14  15
HETATM   15  O   UNL     1     -12.140  15.390  69.333  1.00  0.00    -0.325 OA 
BRANCH  15  16
HETATM   16  C   UNL     1     -12.548  15.495  70.635  1.00  0.00    -0.443 A  
HETATM   17  C   UNL     1     -11.926  16.250  72.854  1.00  0.00    -0.615 A  
HETATM   18  C   UNL     1     -11.633  16.106  71.497  1.00  0.00    -0.502 A  
HETATM   19  C   UNL     1     -14.076  15.223  72.494  1.00  0.00    -0.567 A  
HETATM   20  C   UNL     1     -13.146  15.801  73.354  1.00  0.00    -0.690 A  
HETATM   21  C   UNL     1     -13.781  15.072  71.137  1.00  0.00    -0.484 A  
ENDBRANCH  15  16
ENDBRANCH  14  15
ENDBRANCH   2  14
TORSDOF 7
ENDMDL
MODEL        2
REMARK 921   NORMALIZED FREE ENERGY PREDICTED BY IDOCK:   -6.05 KCAL/MOL
REMARK 922        TOTAL FREE ENERGY PREDICTED BY IDOCK:   -9.62 KCAL/MOL
REMARK 923 INTER-LIGAND FREE ENERGY PREDICTED BY IDOCK:   -8.22 KCAL/MOL
REMARK 924 INTRA-LIGAND FREE ENERGY PREDICTED BY IDOCK:   -1.40 KCAL/MOL
REMARK 927      BINDING AFFINITY PREDICTED BY RF-SCORE:    0.00 PKD
ROOT
HETATM    1  C   UNL     1     -11.900  14.042  66.167  1.00  0.00    -0.422 C  
HETATM    2  C   UNL     1     -11.986  13.704  67.670  1.00  0.00    -0.351 C  
ENDROOT
BRANCH   2   3
HETATM    3  N   UNL     1     -11.198  14.617  68.564  1.00  0.00    -0.258 NA 
BRANCH   3   4
HETATM    4  C   UNL     1      -9.995  15.165  67.883  1.00  0.00    -0.221 C  
HETATM    5 CL   UNL     1      -8.402  17.152  66.913  1.00  0.00    -0.235 Cl 
HETATM    6  C   UNL     1      -9.938  16.690  67.704  1.00  0.00    -0.264 C  
ENDBRANCH   3   4
BRANCH   3   7
HETATM    7  C   UNL     1     -12.023  15.710  69.122  1.00  0.00    -0.310 C  
BRANCH   7   8
HETATM    8  C   UNL     1     -12.440  15.562  70.572  1.00  0.00    -0.472 A  
HETATM    9  C   UNL     1     -11.473  15.581  71.588  1.00  0.00    -0.496 A  
HETATM   10  C   UNL     1     -11.826  15.355  72.921  1.00  0.00    -0.547 A  
HETATM   11  C   UNL     1     -13.776  15.331  70.922  1.00  0.00    -0.363 A  
HETATM   12  C   UNL     1     -13.154  15.109  73.254  1.00  0.00    -0.622 A  
HETATM   13  C   UNL     1     -14.130  15.102  72.257  1.00  0.00    -0.633 A  
ENDBRANCH   7   8
ENDBRANCH   3   7
ENDBRANCH   2   3
BRANCH   2  14
HETATM   14  C   UNL     1     -11.644  12.203  67.886  1.00  0.00    -0.347 C  
BRANCH  14  15
HETATM   15  O   UNL     1     -10.987  12.040  69.150  1.00  0.00    -0.226 OA 
BRANCH  15  16
HETATM   16  C   UNL     1     -11.625  11.250  70.067  1.00  0.00    -0.321 A  
HETATM   17  C   UNL     1     -13.279  11.208  71.840  1.00  0.00    -0.488 A  
HETATM   18  C   UNL     1     -12.577  11.903  70.854  1.00  0.00    -0.361 A  
HETATM   19  C   UNL     1     -12.124   9.183  71.228  1.00  0.00    -0.392 A  
HETATM   20  C   UNL     1     -13.046   9.849  72.032  1.00  0.00    -0.545 A  
HETATM   21  C   UNL     1     -11.416   9.880  70.245  1.00  0.00    -0.349 A  
ENDBRANCH  15  16
ENDBRANCH  14  15
ENDBRANCH   2  14
TORSDOF 7
ENDMDL
MODEL        3
REMARK 921   NORMALIZED FREE ENERGY PREDICTED BY IDOCK:   -6.03 KCAL/MOL
REMARK 922        TOTAL FREE ENERGY PREDICTED BY IDOCK:   -9.59 KCAL/MOL
REMARK 923 INTER-LIGAND FREE ENERGY PREDICTED BY IDOCK:   -8.90 KCAL/MOL
REMARK 924 INTRA-LIGAND FREE ENERGY PREDICTED BY IDOCK:   -0.69 KCAL/MOL
REMARK 927      BINDING AFFINITY PREDICTED BY RF-SCORE:    0.00 PKD
ROOT
HETATM    1  C   UNL     1     -12.021  13.104  69.850  1.00  0.00    -0.387 C  
HETATM    2  C   UNL     1     -11.558  14.225  68.897  1.00  0.00    -0.305 C  
ENDROOT
BRANCH   2   3
HETATM    3  N   UNL     1     -11.801  15.618  69.402  1.00  0.00    -0.376 NA 
BRANCH   3   4
HETATM    4  C   UNL     1     -12.514  15.623  70.707  1.00  0.00    -0.435 C  
HETATM    5 CL   UNL     1     -12.750  16.065  73.385  1.00  0.00    -0.613 Cl 
HETATM    6  C   UNL     1     -11.708  16.083  71.931  1.00  0.00    -0.504 C  
ENDBRANCH   3   4
BRANCH   3   7
HETATM    7  C   UNL     1     -10.556  16.412  69.486  1.00  0.00    -0.320 C  
BRANCH   7   8
HETATM    8  C   UNL     1     -10.395  17.515  68.459  1.00  0.00    -0.380 A  
HETATM    9  C   UNL     1     -10.160  18.834  68.874  1.00  0.00    -0.360 A  
HETATM   10  C   UNL     1     -10.099  19.879  67.948  1.00  0.00    -0.571 A  
HETATM   11  C   UNL     1     -10.550  17.260  67.091  1.00  0.00    -0.256 A  
HETATM   12  C   UNL     1     -10.272  19.616  66.593  1.00  0.00    -0.576 A  
HETATM   13  C   UNL     1     -10.492  18.307  66.162  1.00  0.00    -0.403 A  
ENDBRANCH   7   8
ENDBRANCH   3   7
ENDBRANCH   2   3
BRANCH   2  14
HETATM   14  C   UNL     1     -12.154  13.983  67.481  1.00  0.00    -0.326 C  
BRANCH  14  15
HETATM   15  O   UNL     1     -12.132  12.580  67.185  1.00  0.00    -0.504 OA 
BRANCH  15  16
HETATM   16  C   UNL     1     -11.665  12.230  65.948  1.00  0.00    -0.389 A  
HETATM   17  C   UNL     1     -11.787  12.708  63.573  1.00  0.00    -0.619 A  
HETATM   18  C   UNL     1     -12.171  12.985  64.887  1.00  0.00    -0.490 A  
HETATM   19  C   UNL     1     -10.343  10.952  64.372  1.00  0.00    -0.430 A  
HETATM   20  C   UNL     1     -10.878  11.685  63.315  1.00  0.00    -0.380 A  
HETATM   21  C   UNL     1     -10.732  11.224  65.686  1.00  0.00    -0.279 A  
ENDBRANCH  15  16
ENDBRANCH  14  15
ENDBRANCH   2  14
TORSDOF 7
ENDMDL
MODEL        4
REMARK 921   NORMALIZED FREE ENERGY PREDICTED BY IDOCK:   -6.02 KCAL/MOL
REMARK 922        TOTAL FREE ENERGY PREDICTED BY IDOCK:   -9.58 KCAL/MOL
REMARK 923 INTER-LIGAND FREE ENERGY PREDICTED BY IDOCK:   -8.16 KCAL/MOL
REMARK 924 INTRA-LIGAND FREE ENERGY PREDICTED BY IDOCK:   -1.42 KCAL/MOL
REMARK 927      BINDING AFFINITY PREDICTED BY RF-SCORE:    0.00 PKD
ROOT
HETATM    1  C   UNL     1     -12.363  13.918  66.226  1.00  0.00    -0.489 C  
HETATM    2  C   UNL     1     -12.114  13.587  67.711  1.00  0.00    -0.280 C  
ENDROOT
BRANCH   2   3
HETATM    3  N   UNL     1     -11.219  14.557  68.428  1.00  0.00    -0.259 NA 
BRANCH   3   4
HETATM    4  C   UNL     1     -10.124  15.057  67.556  1.00  0.00    -0.228 C  
HETATM    5 CL   UNL     1      -8.649  16.978  66.306  1.00  0.00    -0.308 Cl 
HETATM    6  C   UNL     1     -10.054  16.576  67.337  1.00  0.00    -0.279 C  
ENDBRANCH   3   4
BRANCH   3   7
HETATM    7  C   UNL     1     -11.971  15.686  69.018  1.00  0.00    -0.304 C  
BRANCH   7   8
HETATM    8  C   UNL     1     -12.385  15.530  70.468  1.00  0.00    -0.461 A  
HETATM    9  C   UNL     1     -11.415  15.517  71.480  1.00  0.00    -0.489 A  
HETATM   10  C   UNL     1     -11.768  15.283  72.812  1.00  0.00    -0.502 A  
HETATM   11  C   UNL     1     -13.725  15.322  70.820  1.00  0.00    -0.255 A  
HETATM   12  C   UNL     1     -13.100  15.061  73.147  1.00  0.00    -0.619 A  
HETATM   13  C   UNL     1     -14.080  15.086  72.154  1.00  0.00    -0.629 A  
ENDBRANCH   7   8
ENDBRANCH   3   7
ENDBRANCH   2   3
BRANCH   2  14
HETATM   14  C   UNL     1     -11.635  12.114  67.843  1.00  0.00    -0.347 C  
BRANCH  14  15
HETATM   15  O   UNL     1     -10.931  11.948  69.081  1.00  0.00    -0.234 OA 
BRANCH  15  16
HETATM   16  C   UNL     1     -11.600  11.285  70.074  1.00  0.00    -0.321 A  
HETATM   17  C   UNL     1     -11.906   9.144  71.171  1.00  0.00    -0.374 A  
HETATM   18  C   UNL     1     -11.274   9.933  70.208  1.00  0.00    -0.364 A  
HETATM   19  C   UNL     1     -13.158  11.065  71.915  1.00  0.00    -0.525 A  
HETATM   20  C   UNL     1     -12.854   9.709  72.020  1.00  0.00    -0.497 A  
HETATM   21  C   UNL     1     -12.531  11.853  70.946  1.00  0.00    -0.397 A  
ENDBRANCH  15  16
ENDBRANCH  14  15
ENDBRANCH   2  14
TORSDOF 7
ENDMDL
MODEL        5
REMARK 921   NORMALIZED FREE ENERGY PREDICTED BY IDOCK:   -5.99 KCAL/MOL
REMARK 922        TOTAL FREE ENERGY PREDICTED BY IDOCK:   -9.53 KCAL/MOL
REMARK 923 INTER-LIGAND FREE ENERGY PREDICTED BY IDOCK:   -8.68 KCAL/MOL
REMARK 924 INTRA-LIGAND FREE ENERGY PREDICTED BY IDOCK:   -0.85 KCAL/MOL
REMARK 927      BINDING AFFINITY PREDICTED BY RF-SCORE:    0.00 PKD
ROOT
HETATM    1  C   UNL     1      -8.776  14.298  67.417  1.00  0.00    -0.217 C  
HETATM    2  C   UNL     1     -10.218  14.377  67.957  1.00  0.00    -0.228 C  
ENDROOT
BRANCH   2   3
HETATM    3  N   UNL     1     -10.390  15.258  69.161  1.00  0.00    -0.237 NA 
BRANCH   3   4
HETATM    4  C   UNL     1      -9.587  16.506  69.059  1.00  0.00    -0.255 C  
HETATM    5 CL   UNL     1      -9.205  19.157  68.558  1.00  0.00    -0.407 Cl 
HETATM    6  C   UNL     1     -10.323  17.761  68.564  1.00  0.00    -0.364 C  
ENDBRANCH   3   4
BRANCH   3   7
HETATM    7  C   UNL     1     -11.810  15.573  69.430  1.00  0.00    -0.374 C  
BRANCH   7   8
HETATM    8  C   UNL     1     -12.287  15.355  70.852  1.00  0.00    -0.452 A  
HETATM    9  C   UNL     1     -11.805  16.167  71.889  1.00  0.00    -0.605 A  
HETATM   10  C   UNL     1     -12.162  15.923  73.218  1.00  0.00    -0.625 A  
HETATM   11  C   UNL     1     -13.152  14.301  71.172  1.00  0.00    -0.412 A  
HETATM   12  C   UNL     1     -13.009  14.862  73.525  1.00  0.00    -0.518 A  
HETATM   13  C   UNL     1     -13.508  14.055  72.504  1.00  0.00    -0.661 A  
ENDBRANCH   7   8
ENDBRANCH   3   7
ENDBRANCH   2   3
BRANCH   2  14
HETATM   14  C   UNL     1     -10.769  12.940  68.179  1.00  0.00    -0.241 C  
BRANCH  14  15
HETATM   15  O   UNL     1     -11.930  12.741  67.361  1.00  0.00    -0.360 OA 
BRANCH  15  16
HETATM   16  C   UNL     1     -11.701  12.463  66.041  1.00  0.00    -0.410 A  
HETATM   17  C   UNL     1     -10.425  11.101  64.493  1.00  0.00    -0.415 A  
HETATM   18  C   UNL     1     -10.760  11.459  65.800  1.00  0.00    -0.309 A  
HETATM   19  C   UNL     1     -12.009  12.711  63.652  1.00  0.00    -0.615 A  
HETATM   20  C   UNL     1     -11.044  11.734  63.418  1.00  0.00    -0.448 A  
HETATM   21  C   UNL     1     -12.340  13.074  64.960  1.00  0.00    -0.526 A  
ENDBRANCH  15  16
ENDBRANCH  14  15
ENDBRANCH   2  14
TORSDOF 7
ENDMDL
MODEL        6
REMARK 921   NORMALIZED FREE ENERGY PREDICTED BY IDOCK:   -5.97 KCAL/MOL
REMARK 922        TOTAL FREE ENERGY PREDICTED BY IDOCK:   -9.51 KCAL/MOL
REMARK 923 INTER-LIGAND FREE ENERGY PREDICTED BY IDOCK:   -8.43 KCAL/MOL
REMARK 924 INTRA-LIGAND FREE ENERGY PREDICTED BY IDOCK:   -1.09 KCAL/MOL
REMARK 927      BINDING AFFINITY PREDICTED BY RF-SCORE:    0.00 PKD
ROOT
HETATM    1  C   UNL     1     -12.099  14.334  66.700  1.00  0.00    -0.448 C  
HETATM    2  C   UNL     1     -11.138  13.616  67.668  1.00  0.00    -0.273 C  
ENDROOT
BRANCH   2   3
HETATM    3  N   UNL     1     -11.433  12.158  67.879  1.00  0.00    -0.305 NA 
BRANCH   3   4
HETATM    4  C   UNL     1     -11.231  11.363  66.639  1.00  0.00    -0.231 C  
HETATM    5 CL   UNL     1      -9.754  10.014  64.788  1.00  0.00    -0.383 Cl 
HETATM    6  C   UNL     1      -9.781  11.008  66.275  1.00  0.00    -0.207 C  
ENDBRANCH   3   4
BRANCH   3   7
HETATM    7  C   UNL     1     -10.657  11.583  68.999  1.00  0.00    -0.173 C  
BRANCH   7   8
HETATM    8  C   UNL     1     -11.457  10.879  70.077  1.00  0.00    -0.411 A  
HETATM    9  C   UNL     1     -12.495  11.553  70.736  1.00  0.00    -0.444 A  
HETATM   10  C   UNL     1     -13.184  10.954  71.794  1.00  0.00    -0.513 A  
HETATM   11  C   UNL     1     -11.133   9.580  70.487  1.00  0.00    -0.342 A  
HETATM   12  C   UNL     1     -12.841   9.668  72.204  1.00  0.00    -0.460 A  
HETATM   13  C   UNL     1     -11.821   8.979  71.549  1.00  0.00    -0.415 A  
ENDBRANCH   7   8
ENDBRANCH   3   7
ENDBRANCH   2   3
BRANCH   2  14
HETATM   14  C   UNL     1     -11.051  14.412  69.001  1.00  0.00    -0.261 C  
BRANCH  14  15
HETATM   15  O   UNL     1     -12.284  15.108  69.224  1.00  0.00    -0.262 OA 
BRANCH  15  16
HETATM   16  C   UNL     1     -12.632  15.321  70.530  1.00  0.00    -0.399 A  
HETATM   17  C   UNL     1     -11.856  16.122  72.684  1.00  0.00    -0.609 A  
HETATM   18  C   UNL     1     -11.629  15.878  71.328  1.00  0.00    -0.509 A  
HETATM   19  C   UNL     1     -14.111  15.307  72.447  1.00  0.00    -0.622 A  
HETATM   20  C   UNL     1     -13.096  15.829  73.245  1.00  0.00    -0.692 A  
HETATM   21  C   UNL     1     -13.882  15.056  71.092  1.00  0.00    -0.468 A  
ENDBRANCH  15  16
ENDBRANCH  14  15
ENDBRANCH   2  14
TORSDOF 7
ENDMDL
MODEL        7
REMARK 921   NORMALIZED FREE ENERGY PREDICTED BY IDOCK:   -5.96 KCAL/MOL
REMARK 922        TOTAL FREE ENERGY PREDICTED BY IDOCK:   -9.49 KCAL/MOL
REMARK 923 INTER-LIGAND FREE ENERGY PREDICTED BY IDOCK:   -8.63 KCAL/MOL
REMARK 924 INTRA-LIGAND FREE ENERGY PREDICTED BY IDOCK:   -0.86 KCAL/MOL
REMARK 927      BINDING AFFINITY PREDICTED BY RF-SCORE:    0.00 PKD
ROOT
HETATM    1  C   UNL     1     -12.032  13.206  66.295  1.00  0.00    -0.473 C  
HETATM    2  C   UNL     1     -11.819  14.448  67.183  1.00  0.00    -0.410 C  
ENDROOT
BRANCH   2   3
HETATM    3  N   UNL     1     -10.452  15.063  67.083  1.00  0.00    -0.272 NA 
BRANCH   3   4
HETATM    4  C   UNL     1      -9.414  14.063  66.718  1.00  0.00    -0.282 C  
HETATM    5 CL   UNL     1      -7.390  12.312  67.229  1.00  0.00    -0.148 Cl 
HETATM    6  C   UNL     1      -8.536  13.531  67.861  1.00  0.00    -0.179 C  
ENDBRANCH   3   4
BRANCH   3   7
HETATM    7  C   UNL     1     -10.418  16.213  66.153  1.00  0.00    -0.325 C  
BRANCH   7   8
HETATM    8  C   UNL     1     -10.310  17.585  66.787  1.00  0.00    -0.314 A  
HETATM    9  C   UNL     1     -10.327  18.735  65.985  1.00  0.00    -0.467 A  
HETATM   10  C   UNL     1     -10.137  20.003  66.541  1.00  0.00    -0.606 A  
HETATM   11  C   UNL     1     -10.117  17.732  68.167  1.00  0.00    -0.362 A  
HETATM   12  C   UNL     1      -9.928  20.135  67.911  1.00  0.00    -0.537 A  
HETATM   13  C   UNL     1      -9.924  19.002  68.725  1.00  0.00    -0.475 A  
ENDBRANCH   7   8
ENDBRANCH   3   7
ENDBRANCH   2   3
BRANCH   2  14
HETATM   14  C   UNL     1     -12.227  14.118  68.646  1.00  0.00    -0.181 C  
BRANCH  14  15
HETATM   15  O   UNL     1     -11.929  15.238  69.491  1.00  0.00    -0.320 OA 
BRANCH  15  16
HETATM   16  C   UNL     1     -12.300  15.123  70.803  1.00  0.00    -0.360 A  
HETATM   17  C   UNL     1     -12.135  16.125  73.005  1.00  0.00    -0.636 A  
HETATM   18  C   UNL     1     -11.841  16.143  71.640  1.00  0.00    -0.557 A  
HETATM   19  C   UNL     1     -13.397  14.094  72.701  1.00  0.00    -0.638 A  
HETATM   20  C   UNL     1     -12.907  15.095  73.537  1.00  0.00    -0.657 A  
HETATM   21  C   UNL     1     -13.097  14.108  71.336  1.00  0.00    -0.428 A  
ENDBRANCH  15  16
ENDBRANCH  14  15
ENDBRANCH   2  14
TORSDOF 7
ENDMDL
MODEL        8
REMARK 921   NORMALIZED FREE ENERGY PREDICTED BY IDOCK:   -5.95 KCAL/MOL
REMARK 922        TOTAL FREE ENERGY PREDICTED BY IDOCK:   -9.49 KCAL/MOL
REMARK 923 INTER-LIGAND FREE ENERGY PREDICTED BY IDOCK:   -8.68 KCAL/MOL
REMARK 924 INTRA-LIGAND FREE ENERGY PREDICTED BY IDOCK:   -0.80 KCAL/MOL
REMARK 927      BINDING AFFINITY PREDICTED BY RF-SCORE:    0.00 PKD
ROOT
HETATM    1  C   UNL     1      -8.928  13.607  66.917  1.00  0.00    -0.229 C  
HETATM    2  C   UNL     1      -9.782  14.005  68.137  1.00  0.00    -0.220 C  
ENDROOT
BRANCH   2   3
HETATM    3  N   UNL     1     -11.198  13.505  68.102  1.00  0.00    -0.259 NA 
BRANCH   3   4
HETATM    4  C   UNL     1     -11.497  12.762  66.850  1.00  0.00    -0.340 C  
HETATM    5 CL   UNL     1     -12.589  12.443  64.373  1.00  0.00    -0.533 Cl 
HETATM    6  C   UNL     1     -12.388  13.475  65.820  1.00  0.00    -0.468 C  
ENDBRANCH   3   4
BRANCH   3   7
HETATM    7  C   UNL     1     -11.535  12.687  69.287  1.00  0.00    -0.294 C  
BRANCH   7   8
HETATM    8  C   UNL     1     -12.402  13.353  70.337  1.00  0.00    -0.382 A  
HETATM    9  C   UNL     1     -12.595  14.742  70.314  1.00  0.00    -0.365 A  
HETATM   10  C   UNL     1     -13.314  15.385  71.324  1.00  0.00    -0.598 A  
HETATM   11  C   UNL     1     -12.963  12.615  71.387  1.00  0.00    -0.353 A  
HETATM   12  C   UNL     1     -13.852  14.644  72.372  1.00  0.00    -0.580 A  
HETATM   13  C   UNL     1     -13.682  13.259  72.402  1.00  0.00    -0.678 A  
ENDBRANCH   7   8
ENDBRANCH   3   7
ENDBRANCH   2   3
BRANCH   2  14
HETATM   14  C   UNL     1      -9.690  15.542  68.357  1.00  0.00    -0.203 C  
BRANCH  14  15
HETATM   15  O   UNL     1     -10.631  16.205  67.502  1.00  0.00    -0.304 OA 
BRANCH  15  16
HETATM   16  C   UNL     1     -10.471  17.556  67.358  1.00  0.00    -0.342 A  
HETATM   17  C   UNL     1     -10.111  19.647  68.533  1.00  0.00    -0.557 A  
HETATM   18  C   UNL     1     -10.266  18.259  68.548  1.00  0.00    -0.402 A  
HETATM   19  C   UNL     1     -10.310  19.638  66.131  1.00  0.00    -0.627 A  
HETATM   20  C   UNL     1     -10.141  20.337  67.324  1.00  0.00    -0.545 A  
HETATM   21  C   UNL     1     -10.471  18.250  66.146  1.00  0.00    -0.403 A  
ENDBRANCH  15  16
ENDBRANCH  14  15
ENDBRANCH   2  14
TORSDOF 7
ENDMDL
MODEL        9
REMARK 921   NORMALIZED FREE ENERGY PREDICTED BY IDOCK:   -5.86 KCAL/MOL
REMARK 922        TOTAL FREE ENERGY PREDICTED BY IDOCK:   -9.36 KCAL/MOL
REMARK 923 INTER-LIGAND FREE ENERGY PREDICTED BY IDOCK:   -8.20 KCAL/MOL
REMARK 924 INTRA-LIGAND FREE ENERGY PREDICTED BY IDOCK:   -1.16 KCAL/MOL
REMARK 927      BINDING AFFINITY PREDICTED BY RF-SCORE:    0.00 PKD
ROOT
HETATM    1  C   UNL     1      -9.096  15.602  69.336  1.00  0.00    -0.278 C  
HETATM    2  C   UNL     1     -10.539  16.058  69.629  1.00  0.00    -0.311 C  
ENDROOT
BRANCH   2   3
HETATM    3  N   UNL     1     -11.259  15.239  70.661  1.00  0.00    -0.309 NA 
BRANCH   3   4
HETATM    4  C   UNL     1     -11.745  16.070  71.795  1.00  0.00    -0.509 C  
HETATM    5 CL   UNL     1     -12.454  16.533  74.385  1.00  0.00    -0.525 Cl 
HETATM    6  C   UNL     1     -11.912  15.361  73.148  1.00  0.00    -0.447 C  
ENDBRANCH   3   4
BRANCH   3   7
HETATM    7  C   UNL     1     -12.368  14.451  70.081  1.00  0.00    -0.348 C  
BRANCH   7   8
HETATM    8  C   UNL     1     -12.310  12.952  70.299  1.00  0.00    -0.294 A  
HETATM    9  C   UNL     1     -11.732  12.120  69.330  1.00  0.00    -0.386 A  
HETATM   10  C   UNL     1     -11.750  10.730  69.470  1.00  0.00    -0.384 A  
HETATM   11  C   UNL     1     -12.894  12.361  71.428  1.00  0.00    -0.360 A  
HETATM   12  C   UNL     1     -12.349  10.154  70.587  1.00  0.00    -0.382 A  
HETATM   13  C   UNL     1     -12.916  10.968  71.568  1.00  0.00    -0.553 A  
ENDBRANCH   7   8
ENDBRANCH   3   7
ENDBRANCH   2   3
BRANCH   2  14
HETATM   14  C   UNL     1     -11.328  16.175  68.294  1.00  0.00    -0.316 C  
BRANCH  14  15
HETATM   15  O   UNL     1     -10.480  15.797  67.201  1.00  0.00    -0.296 OA 
BRANCH  15  16
HETATM   16  C   UNL     1     -10.960  14.820  66.372  1.00  0.00    -0.331 A  
HETATM   17  C   UNL     1     -10.430  13.372  64.500  1.00  0.00    -0.431 A  
HETATM   18  C   UNL     1     -10.052  14.353  65.418  1.00  0.00    -0.388 A  
HETATM   19  C   UNL     1     -12.614  13.274  65.514  1.00  0.00    -0.505 A  
HETATM   20  C   UNL     1     -11.715  12.838  64.543  1.00  0.00    -0.420 A  
HETATM   21  C   UNL     1     -12.238  14.261  66.429  1.00  0.00    -0.426 A  
ENDBRANCH  15  16
ENDBRANCH  14  15
ENDBRANCH   2  14
TORSDOF 7
ENDMDL
MODEL       10
REMARK 921   NORMALIZED FREE ENERGY PREDICTED BY IDOCK:   -5.83 KCAL/MOL
REMARK 922        TOTAL FREE ENERGY PREDICTED BY IDOCK:   -9.32 KCAL/MOL
REMARK 923 INTER-LIGAND FREE ENERGY PREDICTED BY IDOCK:   -8.34 KCAL/MOL
REMARK 924 INTRA-LIGAND FREE ENERGY PREDICTED BY IDOCK:   -0.98 KCAL/MOL
REMARK 927      BINDING AFFINITY PREDICTED BY RF-SCORE:    0.00 PKD
ROOT
HETATM    1  C   UNL     1      -8.978  14.063  67.472  1.00  0.00    -0.195 C  
HETATM    2  C   UNL     1     -10.314  13.744  68.172  1.00  0.00    -0.252 C  
ENDROOT
BRANCH   2   3
HETATM    3  N   UNL     1     -11.250  12.881  67.374  1.00  0.00    -0.277 NA 
BRANCH   3   4
HETATM    4  C   UNL     1     -11.203  13.199  65.922  1.00  0.00    -0.289 C  
HETATM    5 CL   UNL     1     -12.148  13.198  63.367  1.00  0.00    -0.613 Cl 
HETATM    6  C   UNL     1     -12.362  12.671  65.062  1.00  0.00    -0.497 C  
ENDBRANCH   3   4
BRANCH   3   7
HETATM    7  C   UNL     1     -11.014  11.439  67.599  1.00  0.00    -0.250 C  
BRANCH   7   8
HETATM    8  C   UNL     1     -11.271  10.928  69.003  1.00  0.00    -0.327 A  
HETATM    9  C   UNL     1     -10.439   9.946  69.559  1.00  0.00    -0.261 A  
HETATM   10  C   UNL     1     -10.714   9.397  70.814  1.00  0.00    -0.373 A  
HETATM   11  C   UNL     1     -12.378  11.367  69.741  1.00  0.00    -0.250 A  
HETATM   12  C   UNL     1     -11.826   9.828  71.531  1.00  0.00    -0.476 A  
HETATM   13  C   UNL     1     -12.655  10.816  70.998  1.00  0.00    -0.520 A  
ENDBRANCH   7   8
ENDBRANCH   3   7
ENDBRANCH   2   3
BRANCH   2  14
HETATM   14  C   UNL     1     -10.977  15.065  68.655  1.00  0.00    -0.257 C  
BRANCH  14  15
HETATM   15  O   UNL     1     -12.278  14.782  69.187  1.00  0.00    -0.262 OA 
BRANCH  15  16
HETATM   16  C   UNL     1     -12.501  15.168  70.481  1.00  0.00    -0.379 A  
HETATM   17  C   UNL     1     -14.137  15.261  72.268  1.00  0.00    -0.651 A  
HETATM   18  C   UNL     1     -13.781  14.895  70.969  1.00  0.00    -0.367 A  
HETATM   19  C   UNL     1     -11.917  16.129  72.625  1.00  0.00    -0.653 A  
HETATM   20  C   UNL     1     -13.206  15.886  73.094  1.00  0.00    -0.692 A  
HETATM   21  C   UNL     1     -11.563  15.769  71.322  1.00  0.00    -0.499 A  
ENDBRANCH  15  16
ENDBRANCH  14  15
ENDBRANCH   2  14
TORSDOF 7
ENDMDL
MODEL       11
REMARK 921   NORMALIZED FREE ENERGY PREDICTED BY IDOCK:   -5.81 KCAL/MOL
REMARK 922        TOTAL FREE ENERGY PREDICTED BY IDOCK:   -9.28 KCAL/MOL
REMARK 923 INTER-LIGAND FREE ENERGY PREDICTED BY IDOCK:   -8.38 KCAL/MOL
REMARK 924 INTRA-LIGAND FREE ENERGY PREDICTED BY IDOCK:   -0.90 KCAL/MOL
REMARK 927      BINDING AFFINITY PREDICTED BY RF-SCORE:    0.00 PKD
ROOT
HETATM    1  C   UNL     1      -8.179  16.701  69.075  1.00  0.00    -0.190 C  
HETATM    2  C   UNL     1      -9.579  16.218  68.646  1.00  0.00    -0.237 C  
ENDROOT
BRANCH   2   3
HETATM    3  N   UNL     1     -10.037  16.729  67.311  1.00  0.00    -0.274 NA 
BRANCH   3   4
HETATM    4  C   UNL     1      -9.542  18.105  67.039  1.00  0.00    -0.287 C  
HETATM    5 CL   UNL     1      -9.677  20.826  67.082  1.00  0.00    -0.561 Cl 
HETATM    6  C   UNL     1     -10.467  19.263  67.444  1.00  0.00    -0.459 C  
ENDBRANCH   3   4
BRANCH   3   7
HETATM    7  C   UNL     1      -9.674  15.817  66.204  1.00  0.00    -0.322 C  
BRANCH   7   8
HETATM    8  C   UNL     1     -10.713  14.783  65.820  1.00  0.00    -0.333 A  
HETATM    9  C   UNL     1     -10.956  13.684  66.656  1.00  0.00    -0.295 A  
HETATM   10  C   UNL     1     -11.843  12.673  66.276  1.00  0.00    -0.471 A  
HETATM   11  C   UNL     1     -11.393  14.860  64.597  1.00  0.00    -0.362 A  
HETATM   12  C   UNL     1     -12.500  12.752  65.052  1.00  0.00    -0.572 A  
HETATM   13  C   UNL     1     -12.280  13.846  64.214  1.00  0.00    -0.447 A  
ENDBRANCH   7   8
ENDBRANCH   3   7
ENDBRANCH   2   3
BRANCH   2  14
HETATM   14  C   UNL     1     -10.599  16.503  69.784  1.00  0.00    -0.265 C  
BRANCH  14  15
HETATM   15  O   UNL     1     -11.872  15.940  69.438  1.00  0.00    -0.362 OA 
BRANCH  15  16
HETATM   16  C   UNL     1     -12.428  15.091  70.356  1.00  0.00    -0.356 A  
HETATM   17  C   UNL     1     -12.616  12.778  71.060  1.00  0.00    -0.362 A  
HETATM   18  C   UNL     1     -12.092  13.745  70.198  1.00  0.00    -0.429 A  
HETATM   19  C   UNL     1     -13.773  14.503  72.282  1.00  0.00    -0.559 A  
HETATM   20  C   UNL     1     -13.463  13.158  72.098  1.00  0.00    -0.653 A  
HETATM   21  C   UNL     1     -13.256  15.469  71.416  1.00  0.00    -0.587 A  
ENDBRANCH  15  16
ENDBRANCH  14  15
ENDBRANCH   2  14
TORSDOF 7
ENDMDL
MODEL       12
REMARK 921   NORMALIZED FREE ENERGY PREDICTED BY IDOCK:   -5.80 KCAL/MOL
REMARK 922        TOTAL FREE ENERGY PREDICTED BY IDOCK:   -9.27 KCAL/MOL
REMARK 923 INTER-LIGAND FREE ENERGY PREDICTED BY IDOCK:   -7.25 KCAL/MOL
REMARK 924 INTRA-LIGAND FREE ENERGY PREDICTED BY IDOCK:   -2.02 KCAL/MOL
REMARK 927      BINDING AFFINITY PREDICTED BY RF-SCORE:    0.00 PKD
ROOT
HETATM    1  C   UNL     1     -12.368  11.060  70.588  1.00  0.00    -0.480 C  
HETATM    2  C   UNL     1     -11.490  11.925  69.661  1.00  0.00    -0.266 C  
ENDROOT
BRANCH   2   3
HETATM    3  N   UNL     1     -11.870  13.378  69.614  1.00  0.00    -0.316 NA 
BRANCH   3   4
HETATM    4  C   UNL     1     -12.751  13.762  70.748  1.00  0.00    -0.290 C  
HETATM    5 CL   UNL     1     -14.114  15.517  72.326  1.00  0.00    -0.637 Cl 
HETATM    6  C   UNL     1     -12.998  15.265  70.951  1.00  0.00    -0.462 C  
ENDBRANCH   3   4
BRANCH   3   7
HETATM    7  C   UNL     1     -10.689  14.266  69.546  1.00  0.00    -0.065 C  
BRANCH   7   8
HETATM    8  C   UNL     1     -10.318  14.784  68.171  1.00  0.00    -0.239 A  
HETATM    9  C   UNL     1     -11.285  15.403  67.366  1.00  0.00    -0.287 A  
HETATM   10  C   UNL     1     -10.986  15.805  66.062  1.00  0.00    -0.177 A  
HETATM   11  C   UNL     1      -9.033  14.591  67.647  1.00  0.00    -0.193 A  
HETATM   12  C   UNL     1      -9.711  15.592  65.546  1.00  0.00    -0.307 A  
HETATM   13  C   UNL     1      -8.733  14.990  66.339  1.00  0.00    -0.169 A  
ENDBRANCH   7   8
ENDBRANCH   3   7
ENDBRANCH   2   3
BRANCH   2  14
HETATM   14  C   UNL     1     -11.422  11.273  68.251  1.00  0.00    -0.308 C  
BRANCH  14  15
HETATM   15  O   UNL     1     -12.146  12.082  67.314  1.00  0.00    -0.572 OA 
BRANCH  15  16
HETATM   16  C   UNL     1     -11.637  12.141  66.045  1.00  0.00    -0.358 A  
HETATM   17  C   UNL     1     -12.099  12.778  63.751  1.00  0.00    -0.596 A  
HETATM   18  C   UNL     1     -12.496  12.684  65.087  1.00  0.00    -0.531 A  
HETATM   19  C   UNL     1      -9.957  11.836  64.328  1.00  0.00    -0.287 A  
HETATM   20  C   UNL     1     -10.832  12.346  63.371  1.00  0.00    -0.417 A  
HETATM   21  C   UNL     1     -10.357  11.736  65.663  1.00  0.00    -0.293 A  
ENDBRANCH  15  16
ENDBRANCH  14  15
ENDBRANCH   2  14
TORSDOF 7
ENDMDL
MODEL       13
REMARK 921   NORMALIZED FREE ENERGY PREDICTED BY IDOCK:   -5.80 KCAL/MOL
REMARK 922        TOTAL FREE ENERGY PREDICTED BY IDOCK:   -9.27 KCAL/MOL
REMARK 923 INTER-LIGAND FREE ENERGY PREDICTED BY IDOCK:   -8.38 KCAL/MOL
REMARK 924 INTRA-LIGAND FREE ENERGY PREDICTED BY IDOCK:   -0.90 KCAL/MOL
REMARK 927      BINDING AFFINITY PREDICTED BY RF-SCORE:    0.00 PKD
ROOT
HETATM    1  C   UNL     1     -12.352  14.104  65.785  1.00  0.00    -0.481 C  
HETATM    2  C   UNL     1     -11.191  13.671  66.702  1.00  0.00    -0.313 C  
ENDROOT
BRANCH   2   3
HETATM    3  N   UNL     1     -11.601  12.838  67.883  1.00  0.00    -0.329 NA 
BRANCH   3   4
HETATM    4  C   UNL     1     -11.193  11.416  67.732  1.00  0.00    -0.283 C  
HETATM    5 CL   UNL     1      -9.982   9.318  66.486  1.00  0.00    -0.324 Cl 
HETATM    6  C   UNL     1     -10.420  11.051  66.456  1.00  0.00    -0.257 C  
ENDBRANCH   3   4
BRANCH   3   7
HETATM    7  C   UNL     1     -11.102  13.391  69.161  1.00  0.00    -0.213 C  
BRANCH   7   8
HETATM    8  C   UNL     1     -12.148  13.674  70.221  1.00  0.00    -0.427 A  
HETATM    9  C   UNL     1     -12.651  14.973  70.385  1.00  0.00    -0.399 A  
HETATM   10  C   UNL     1     -13.546  15.273  71.415  1.00  0.00    -0.598 A  
HETATM   11  C   UNL     1     -12.576  12.673  71.103  1.00  0.00    -0.354 A  
HETATM   12  C   UNL     1     -13.950  14.274  72.296  1.00  0.00    -0.629 A  
HETATM   13  C   UNL     1     -13.471  12.973  72.137  1.00  0.00    -0.638 A  
ENDBRANCH   7   8
ENDBRANCH   3   7
ENDBRANCH   2   3
BRANCH   2  14
HETATM   14  C   UNL     1     -10.353  14.918  67.105  1.00  0.00    -0.260 C  
BRANCH  14  15
HETATM   15  O   UNL     1     -10.863  16.076  66.430  1.00  0.00    -0.269 OA 
BRANCH  15  16
HETATM   16  C   UNL     1     -10.524  17.288  66.967  1.00  0.00    -0.287 A  
HETATM   17  C   UNL     1     -10.178  19.641  66.490  1.00  0.00    -0.588 A  
HETATM   18  C   UNL     1     -10.528  18.357  66.067  1.00  0.00    -0.400 A  
HETATM   19  C   UNL     1      -9.870  18.811  68.732  1.00  0.00    -0.434 A  
HETATM   20  C   UNL     1      -9.841  19.866  67.822  1.00  0.00    -0.530 A  
HETATM   21  C   UNL     1     -10.213  17.525  68.307  1.00  0.00    -0.365 A  
ENDBRANCH  15  16
ENDBRANCH  14  15
ENDBRANCH   2  14
TORSDOF 7
ENDMDL
MODEL       14
REMARK 921   NORMALIZED FREE ENERGY PREDICTED BY IDOCK:   -5.80 KCAL/MOL
REMARK 922        TOTAL FREE ENERGY PREDICTED BY IDOCK:   -9.27 KCAL/MOL
REMARK 923 INTER-LIGAND FREE ENERGY PREDICTED BY IDOCK:   -6.91 KCAL/MOL
REMARK 924 INTRA-LIGAND FREE ENERGY PREDICTED BY IDOCK:   -2.35 KCAL/MOL
REMARK 927      BINDING AFFINITY PREDICTED BY RF-SCORE:    0.00 PKD
ROOT
HETATM    1  C   UNL     1      -8.310  13.160  67.256  1.00  0.00    -0.182 C  
HETATM    2  C   UNL     1      -8.602  14.641  67.569  1.00  0.00    -0.187 C  
ENDROOT
BRANCH   2   3
HETATM    3  N   UNL     1      -9.665  15.266  66.711  1.00  0.00    -0.228 NA 
BRANCH   3   4
HETATM    4  C   UNL     1     -10.375  14.260  65.879  1.00  0.00    -0.314 C  
HETATM    5 CL   UNL     1     -12.538  12.812  65.072  1.00  0.00    -0.569 Cl 
HETATM    6  C   UNL     1     -11.855  14.013  66.208  1.00  0.00    -0.411 C  
ENDBRANCH   3   4
BRANCH   3   7
HETATM    7  C   UNL     1     -10.629  16.064  67.500  1.00  0.00    -0.313 C  
BRANCH   7   8
HETATM    8  C   UNL     1     -10.500  17.570  67.392  1.00  0.00    -0.342 A  
HETATM    9  C   UNL     1     -10.532  18.191  66.135  1.00  0.00    -0.377 A  
HETATM   10  C   UNL     1     -10.323  19.567  66.007  1.00  0.00    -0.604 A  
HETATM   11  C   UNL     1     -10.272  18.360  68.526  1.00  0.00    -0.394 A  
HETATM   12  C   UNL     1     -10.081  20.340  67.139  1.00  0.00    -0.556 A  
HETATM   13  C   UNL     1     -10.060  19.739  68.398  1.00  0.00    -0.568 A  
ENDBRANCH   7   8
ENDBRANCH   3   7
ENDBRANCH   2   3
BRANCH   2  14
HETATM   14  C   UNL     1      -7.272  15.446  67.565  1.00  0.00    -0.196 C  
BRANCH  14  15
HETATM   15  O   UNL     1      -7.266  16.355  66.456  1.00  0.00    -0.213 OA 
BRANCH  15  16
HETATM   16  C   UNL     1      -6.955  17.657  66.741  1.00  0.00    -0.199 A  
HETATM   17  C   UNL     1      -6.440  19.231  68.513  1.00  0.00    -0.278 A  
HETATM   18  C   UNL     1      -6.743  17.934  68.094  1.00  0.00    -0.200 A  
HETATM   19  C   UNL     1      -6.504  19.979  66.223  1.00  0.00    -0.222 A  
HETATM   20  C   UNL     1      -6.328  20.255  67.577  1.00  0.00    -0.257 A  
HETATM   21  C   UNL     1      -6.814  18.683  65.804  1.00  0.00    -0.307 A  
ENDBRANCH  15  16
ENDBRANCH  14  15
ENDBRANCH   2  14
TORSDOF 7
ENDMDL
MODEL       15
REMARK 921   NORMALIZED FREE ENERGY PREDICTED BY IDOCK:   -5.80 KCAL/MOL
REMARK 922        TOTAL FREE ENERGY PREDICTED BY IDOCK:   -9.27 KCAL/MOL
REMARK 923 INTER-LIGAND FREE ENERGY PREDICTED BY IDOCK:   -8.31 KCAL/MOL
REMARK 924 INTRA-LIGAND FREE ENERGY PREDICTED BY IDOCK:   -0.96 KCAL/MOL
REMARK 927      BINDING AFFINITY PREDICTED BY RF-SCORE:    0.00 PKD
ROOT
HETATM    1  C   UNL     1      -8.406  14.750  68.485  1.00  0.00    -0.160 C  
HETATM    2  C   UNL     1      -9.675  14.339  67.711  1.00  0.00    -0.222 C  
ENDROOT
BRANCH   2   3
HETATM    3  N   UNL     1      -9.972  15.180  66.502  1.00  0.00    -0.255 NA 
BRANCH   3   4
HETATM    4  C   UNL     1     -10.338  14.353  65.322  1.00  0.00    -0.403 C  
HETATM    5 CL   UNL     1     -12.045  13.342  63.454  1.00  0.00    -0.583 Cl 
HETATM    6  C   UNL     1     -11.819  14.350  64.915  1.00  0.00    -0.417 C  
ENDBRANCH   3   4
BRANCH   3   7
HETATM    7  C   UNL     1     -11.011  16.199  66.767  1.00  0.00    -0.080 C  
BRANCH   7   8
HETATM    8  C   UNL     1     -10.516  17.604  67.045  1.00  0.00    -0.305 A  
HETATM    9  C   UNL     1     -10.290  18.023  68.364  1.00  0.00    -0.377 A  
HETATM   10  C   UNL     1      -9.922  19.341  68.647  1.00  0.00    -0.506 A  
HETATM   11  C   UNL     1     -10.346  18.531  66.008  1.00  0.00    -0.423 A  
HETATM   12  C   UNL     1      -9.774  20.258  67.610  1.00  0.00    -0.555 A  
HETATM   13  C   UNL     1      -9.980  19.853  66.291  1.00  0.00    -0.596 A  
ENDBRANCH   7   8
ENDBRANCH   3   7
ENDBRANCH   2   3
BRANCH   2  14
HETATM   14  C   UNL     1     -10.878  14.249  68.693  1.00  0.00    -0.253 C  
BRANCH  14  15
HETATM   15  O   UNL     1     -10.604  15.039  69.858  1.00  0.00    -0.239 OA 
BRANCH  15  16
HETATM   16  C   UNL     1     -11.557  15.020  70.840  1.00  0.00    -0.319 A  
HETATM   17  C   UNL     1     -13.400  13.762  71.791  1.00  0.00    -0.463 A  
HETATM   18  C   UNL     1     -12.376  13.888  70.850  1.00  0.00    -0.451 A  
HETATM   19  C   UNL     1     -12.762  15.875  72.758  1.00  0.00    -0.562 A  
HETATM   20  C   UNL     1     -13.598  14.761  72.740  1.00  0.00    -0.542 A  
HETATM   21  C   UNL     1     -11.742  16.005  71.812  1.00  0.00    -0.593 A  
ENDBRANCH  15  16
ENDBRANCH  14  15
ENDBRANCH   2  14
TORSDOF 7
ENDMDL
MODEL       16
REMARK 921   NORMALIZED FREE ENERGY PREDICTED BY IDOCK:   -5.79 KCAL/MOL
REMARK 922        TOTAL FREE ENERGY PREDICTED BY IDOCK:   -9.25 KCAL/MOL
REMARK 923 INTER-LIGAND FREE ENERGY PREDICTED BY IDOCK:   -8.68 KCAL/MOL
REMARK 924 INTRA-LIGAND FREE ENERGY PREDICTED BY IDOCK:   -0.57 KCAL/MOL
REMARK 927      BINDING AFFINITY PREDICTED BY RF-SCORE:    0.00 PKD
ROOT
HETATM    1  C   UNL     1     -12.078  14.244  66.209  1.00  0.00    -0.433 C  
HETATM    2  C   UNL     1     -11.242  14.160  67.502  1.00  0.00    -0.306 C  
ENDROOT
BRANCH   2   3
HETATM    3  N   UNL     1     -12.040  14.250  68.771  1.00  0.00    -0.304 NA 
BRANCH   3   4
HETATM    4  C   UNL     1     -11.688  13.170  69.730  1.00  0.00    -0.280 C  
HETATM    5 CL   UNL     1     -11.250  10.588  70.484  1.00  0.00    -0.386 Cl 
HETATM    6  C   UNL     1     -11.753  11.729  69.202  1.00  0.00    -0.325 C  
ENDBRANCH   3   4
BRANCH   3   7
HETATM    7  C   UNL     1     -11.925  15.577  69.415  1.00  0.00    -0.336 C  
BRANCH   7   8
HETATM    8  C   UNL     1     -12.466  15.686  70.826  1.00  0.00    -0.484 A  
HETATM    9  C   UNL     1     -11.625  16.086  71.875  1.00  0.00    -0.524 A  
HETATM   10  C   UNL     1     -12.081  16.105  73.195  1.00  0.00    -0.621 A  
HETATM   11  C   UNL     1     -13.785  15.321  71.126  1.00  0.00    -0.519 A  
HETATM   12  C   UNL     1     -13.389  15.724  73.483  1.00  0.00    -0.495 A  
HETATM   13  C   UNL     1     -14.243  15.338  72.449  1.00  0.00    -0.579 A  
ENDBRANCH   7   8
ENDBRANCH   3   7
ENDBRANCH   2   3
BRANCH   2  14
HETATM   14  C   UNL     1     -10.085  15.196  67.442  1.00  0.00    -0.229 C  
BRANCH  14  15
HETATM   15  O   UNL     1     -10.329  16.126  66.378  1.00  0.00    -0.296 OA 
BRANCH  15  16
HETATM   16  C   UNL     1     -10.233  17.453  66.699  1.00  0.00    -0.324 A  
HETATM   17  C   UNL     1      -9.581  19.035  68.418  1.00  0.00    -0.429 A  
HETATM   18  C   UNL     1      -9.708  17.720  67.966  1.00  0.00    -0.304 A  
HETATM   19  C   UNL     1     -10.452  19.834  66.317  1.00  0.00    -0.614 A  
HETATM   20  C   UNL     1      -9.961  20.092  67.595  1.00  0.00    -0.560 A  
HETATM   21  C   UNL     1     -10.586  18.518  65.868  1.00  0.00    -0.336 A  
ENDBRANCH  15  16
ENDBRANCH  14  15
ENDBRANCH   2  14
TORSDOF 7
ENDMDL
MODEL       17
REMARK 921   NORMALIZED FREE ENERGY PREDICTED BY IDOCK:   -5.77 KCAL/MOL
REMARK 922        TOTAL FREE ENERGY PREDICTED BY IDOCK:   -9.23 KCAL/MOL
REMARK 923 INTER-LIGAND FREE ENERGY PREDICTED BY IDOCK:   -8.40 KCAL/MOL
REMARK 924 INTRA-LIGAND FREE ENERGY PREDICTED BY IDOCK:   -0.83 KCAL/MOL
REMARK 927      BINDING AFFINITY PREDICTED BY RF-SCORE:    0.00 PKD
ROOT
HETATM    1  C   UNL     1      -9.079  14.430  67.642  1.00  0.00    -0.194 C  
HETATM    2  C   UNL     1     -10.338  15.269  67.347  1.00  0.00    -0.256 C  
ENDROOT
BRANCH   2   3
HETATM    3  N   UNL     1     -11.638  14.549  67.566  1.00  0.00    -0.365 NA 
BRANCH   3   4
HETATM    4  C   UNL     1     -12.220  14.048  66.293  1.00  0.00    -0.462 C  
HETATM    5 CL   UNL     1     -12.723  12.172  64.381  1.00  0.00    -0.427 Cl 
HETATM    6  C   UNL     1     -11.895  12.596  65.909  1.00  0.00    -0.444 C  
ENDBRANCH   3   4
BRANCH   3   7
HETATM    7  C   UNL     1     -11.514  13.451  68.549  1.00  0.00    -0.310 C  
BRANCH   7   8
HETATM    8  C   UNL     1     -12.146  13.692  69.905  1.00  0.00    -0.406 A  
HETATM    9  C   UNL     1     -12.311  12.629  70.805  1.00  0.00    -0.372 A  
HETATM   10  C   UNL     1     -12.973  12.812  72.022  1.00  0.00    -0.380 A  
HETATM   11  C   UNL     1     -12.643  14.954  70.259  1.00  0.00    -0.361 A  
HETATM   12  C   UNL     1     -13.478  14.066  72.354  1.00  0.00    -0.639 A  
HETATM   13  C   UNL     1     -13.309  15.138  71.477  1.00  0.00    -0.533 A  
ENDBRANCH   7   8
ENDBRANCH   3   7
ENDBRANCH   2   3
BRANCH   2  14
HETATM   14  C   UNL     1     -10.226  15.894  65.928  1.00  0.00    -0.352 C  
BRANCH  14  15
HETATM   15  O   UNL     1      -9.060  16.726  65.861  1.00  0.00    -0.492 OA 
BRANCH  15  16
HETATM   16  C   UNL     1      -9.188  17.991  66.366  1.00  0.00    -0.242 A  
HETATM   17  C   UNL     1     -10.627  19.940  66.491  1.00  0.00    -0.531 A  
HETATM   18  C   UNL     1     -10.387  18.636  66.052  1.00  0.00    -0.436 A  
HETATM   19  C   UNL     1      -8.492  19.949  67.610  1.00  0.00    -0.374 A  
HETATM   20  C   UNL     1      -9.675  20.599  67.264  1.00  0.00    -0.562 A  
HETATM   21  C   UNL     1      -8.249  18.647  67.165  1.00  0.00    -0.258 A  
ENDBRANCH  15  16
ENDBRANCH  14  15
ENDBRANCH   2  14
TORSDOF 7
ENDMDL
MODEL       18
REMARK 921   NORMALIZED FREE ENERGY PREDICTED BY IDOCK:   -5.77 KCAL/MOL
REMARK 922        TOTAL FREE ENERGY PREDICTED BY IDOCK:   -9.22 KCAL/MOL
REMARK 923 INTER-LIGAND FREE ENERGY PREDICTED BY IDOCK:   -8.48 KCAL/MOL
REMARK 924 INTRA-LIGAND FREE ENERGY PREDICTED BY IDOCK:   -0.75 KCAL/MOL
REMARK 927      BINDING AFFINITY PREDICTED BY RF-SCORE:    0.00 PKD
ROOT
HETATM    1  C   UNL     1      -8.955  14.129  67.260  1.00  0.00    -0.221 C  
HETATM    2  C   UNL     1     -10.315  14.821  67.034  1.00  0.00    -0.255 C  
ENDROOT
BRANCH   2   3
HETATM    3  N   UNL     1     -11.505  13.911  67.128  1.00  0.00    -0.329 NA 
BRANCH   3   4
HETATM    4  C   UNL     1     -12.054  13.567  65.790  1.00  0.00    -0.433 C  
HETATM    5 CL   UNL     1     -12.305  12.042  63.545  1.00  0.00    -0.670 Cl 
HETATM    6  C   UNL     1     -11.488  12.309  65.114  1.00  0.00    -0.341 C  
ENDBRANCH   3   4
BRANCH   3   7
HETATM    7  C   UNL     1     -11.216  12.684  67.903  1.00  0.00    -0.266 C  
BRANCH   7   8
HETATM    8  C   UNL     1     -11.902  12.564  69.249  1.00  0.00    -0.360 A  
HETATM    9  C   UNL     1     -12.250  13.717  69.968  1.00  0.00    -0.407 A  
HETATM   10  C   UNL     1     -12.800  13.627  71.249  1.00  0.00    -0.424 A  
HETATM   11  C   UNL     1     -12.134  11.313  69.834  1.00  0.00    -0.414 A  
HETATM   12  C   UNL     1     -13.010  12.379  71.828  1.00  0.00    -0.422 A  
HETATM   13  C   UNL     1     -12.683  11.222  71.120  1.00  0.00    -0.492 A  
ENDBRANCH   7   8
ENDBRANCH   3   7
ENDBRANCH   2   3
BRANCH   2  14
HETATM   14  C   UNL     1     -10.274  15.625  65.704  1.00  0.00    -0.375 C  
BRANCH  14  15
HETATM   15  O   UNL     1      -9.258  16.633  65.785  1.00  0.00    -0.502 OA 
BRANCH  15  16
HETATM   16  C   UNL     1      -9.573  17.755  66.503  1.00  0.00    -0.308 A  
HETATM   17  C   UNL     1      -9.101  19.015  68.521  1.00  0.00    -0.401 A  
HETATM   18  C   UNL     1      -8.854  17.920  67.690  1.00  0.00    -0.250 A  
HETATM   19  C   UNL     1     -10.750  19.821  66.959  1.00  0.00    -0.542 A  
HETATM   20  C   UNL     1     -10.056  19.961  68.158  1.00  0.00    -0.569 A  
HETATM   21  C   UNL     1     -10.509  18.722  66.131  1.00  0.00    -0.499 A  
ENDBRANCH  15  16
ENDBRANCH  14  15
ENDBRANCH   2  14
TORSDOF 7
ENDMDL
MODEL       19
REMARK 921   NORMALIZED FREE ENERGY PREDICTED BY IDOCK:   -5.76 KCAL/MOL
REMARK 922        TOTAL FREE ENERGY PREDICTED BY IDOCK:   -9.21 KCAL/MOL
REMARK 923 INTER-LIGAND FREE ENERGY PREDICTED BY IDOCK:   -8.25 KCAL/MOL
REMARK 924 INTRA-LIGAND FREE ENERGY PREDICTED BY IDOCK:   -0.97 KCAL/MOL
REMARK 927      BINDING AFFINITY PREDICTED BY RF-SCORE:    0.00 PKD
ROOT
HETATM    1  C   UNL     1      -8.886  14.398  68.437  1.00  0.00    -0.182 C  
HETATM    2  C   UNL     1     -10.295  14.266  69.048  1.00  0.00    -0.176 C  
ENDROOT
BRANCH   2   3
HETATM    3  N   UNL     1     -11.042  13.028  68.641  1.00  0.00    -0.257 NA 
BRANCH   3   4
HETATM    4  C   UNL     1     -11.710  12.374  69.797  1.00  0.00    -0.291 C  
HETATM    5 CL   UNL     1     -12.274  10.294  71.465  1.00  0.00    -0.466 Cl 
HETATM    6  C   UNL     1     -11.421  10.879  70.006  1.00  0.00    -0.329 C  
ENDBRANCH   3   4
BRANCH   3   7
HETATM    7  C   UNL     1     -12.012  13.287  67.556  1.00  0.00    -0.324 C  
BRANCH   7   8
HETATM    8  C   UNL     1     -11.743  12.593  66.236  1.00  0.00    -0.460 A  
HETATM    9  C   UNL     1     -10.664  11.705  66.114  1.00  0.00    -0.325 A  
HETATM   10  C   UNL     1     -10.345  11.126  64.883  1.00  0.00    -0.375 A  
HETATM   11  C   UNL     1     -12.512  12.876  65.099  1.00  0.00    -0.561 A  
HETATM   12  C   UNL     1     -11.105  11.428  63.757  1.00  0.00    -0.417 A  
HETATM   13  C   UNL     1     -12.191  12.298  63.865  1.00  0.00    -0.608 A  
ENDBRANCH   7   8
ENDBRANCH   3   7
ENDBRANCH   2   3
BRANCH   2  14
HETATM   14  C   UNL     1     -11.101  15.570  68.785  1.00  0.00    -0.291 C  
BRANCH  14  15
HETATM   15  O   UNL     1     -11.099  16.380  69.968  1.00  0.00    -0.350 OA 
BRANCH  15  16
HETATM   16  C   UNL     1     -11.801  15.893  71.037  1.00  0.00    -0.428 A  
HETATM   17  C   UNL     1     -13.951  15.052  71.781  1.00  0.00    -0.598 A  
HETATM   18  C   UNL     1     -13.126  15.541  70.766  1.00  0.00    -0.446 A  
HETATM   19  C   UNL     1     -12.119  15.210  73.339  1.00  0.00    -0.532 A  
HETATM   20  C   UNL     1     -13.449  14.894  73.070  1.00  0.00    -0.496 A  
HETATM   21  C   UNL     1     -11.295  15.706  72.325  1.00  0.00    -0.337 A  
ENDBRANCH  15  16
ENDBRANCH  14  15
ENDBRANCH   2  14
TORSDOF 7
ENDMDL
MODEL       20
REMARK 921   NORMALIZED FREE ENERGY PREDICTED BY IDOCK:   -5.74 KCAL/MOL
REMARK 922        TOTAL FREE ENERGY PREDICTED BY IDOCK:   -9.18 KCAL/MOL
REMARK 923 INTER-LIGAND FREE ENERGY PREDICTED BY IDOCK:   -8.47 KCAL/MOL
REMARK 924 INTRA-LIGAND FREE ENERGY PREDICTED BY IDOCK:   -0.71 KCAL/MOL
REMARK 927      BINDING AFFINITY PREDICTED BY RF-SCORE:    0.00 PKD
ROOT
HETATM    1  C   UNL     1     -12.035  15.554  69.303  1.00  0.00    -0.338 C  
HETATM    2  C   UNL     1     -11.642  14.959  67.936  1.00  0.00    -0.344 C  
ENDROOT
BRANCH   2   3
HETATM    3  N   UNL     1     -11.872  13.480  67.805  1.00  0.00    -0.359 NA 
BRANCH   3   4
HETATM    4  C   UNL     1     -11.753  13.018  66.397  1.00  0.00    -0.390 C  
HETATM    5 CL   UNL     1     -12.245  13.119  63.719  1.00  0.00    -0.528 Cl 
HETATM    6  C   UNL     1     -12.560  13.794  65.345  1.00  0.00    -0.497 C  
ENDBRANCH   3   4
BRANCH   3   7
HETATM    7  C   UNL     1     -10.987  12.692  68.689  1.00  0.00    -0.256 C  
BRANCH   7   8
HETATM    8  C   UNL     1     -11.673  11.838  69.737  1.00  0.00    -0.408 A  
HETATM    9  C   UNL     1     -12.516  12.431  70.688  1.00  0.00    -0.320 A  
HETATM   10  C   UNL     1     -13.084  11.675  71.716  1.00  0.00    -0.487 A  
HETATM   11  C   UNL     1     -11.424  10.462  69.825  1.00  0.00    -0.348 A  
HETATM   12  C   UNL     1     -12.817  10.312  71.804  1.00  0.00    -0.565 A  
HETATM   13  C   UNL     1     -11.992   9.704  70.857  1.00  0.00    -0.391 A  
ENDBRANCH   7   8
ENDBRANCH   3   7
ENDBRANCH   2   3
BRANCH   2  14
HETATM   14  C   UNL     1     -10.184  15.375  67.587  1.00  0.00    -0.246 C  
BRANCH  14  15
HETATM   15  O   UNL     1     -10.204  16.364  66.549  1.00  0.00    -0.283 OA 
BRANCH  15  16
HETATM   16  C   UNL     1     -10.096  17.667  66.952  1.00  0.00    -0.331 A  
HETATM   17  C   UNL     1     -10.342  19.981  66.268  1.00  0.00    -0.570 A  
HETATM   18  C   UNL     1     -10.433  18.617  65.984  1.00  0.00    -0.456 A  
HETATM   19  C   UNL     1      -9.628  19.460  68.511  1.00  0.00    -0.472 A  
HETATM   20  C   UNL     1      -9.932  20.402  67.530  1.00  0.00    -0.537 A  
HETATM   21  C   UNL     1      -9.713  18.095  68.224  1.00  0.00    -0.344 A  
ENDBRANCH  15  16
ENDBRANCH  14  15
ENDBRANCH   2  14
TORSDOF 7
ENDMDL
MODEL       21
REMARK 921   NORMALIZED FREE ENERGY PREDICTED BY IDOCK:   -5.73 KCAL/MOL
REMARK 922        TOTAL FREE ENERGY PREDICTED BY IDOCK:   -9.17 KCAL/MOL
REMARK 923 INTER-LIGAND FREE ENERGY PREDICTED BY IDOCK:   -8.39 KCAL/MOL
REMARK 924 INTRA-LIGAND FREE ENERGY PREDICTED BY IDOCK:   -0.78 KCAL/MOL
REMARK 927      BINDING AFFINITY PREDICTED BY RF-SCORE:    0.00 PKD
ROOT
HETATM    1  C   UNL     1      -9.014  14.304  67.779  1.00  0.00    -0.188 C  
HETATM    2  C   UNL     1     -10.281  14.310  68.659  1.00  0.00    -0.246 C  
ENDROOT
BRANCH   2   3
HETATM    3  N   UNL     1     -11.208  13.151  68.431  1.00  0.00    -0.254 NA 
BRANCH   3   4
HETATM    4  C   UNL     1     -11.972  12.797  69.657  1.00  0.00    -0.288 C  
HETATM    5 CL   UNL     1     -12.794  11.138  71.655  1.00  0.00    -0.538 Cl 
HETATM    6  C   UNL     1     -11.847  11.348  70.153  1.00  0.00    -0.355 C  
ENDBRANCH   3   4
BRANCH   3   7
HETATM    7  C   UNL     1     -12.125  13.379  67.293  1.00  0.00    -0.304 C  
BRANCH   7   8
HETATM    8  C   UNL     1     -11.800  12.639  66.011  1.00  0.00    -0.492 A  
HETATM    9  C   UNL     1     -10.879  11.581  66.023  1.00  0.00    -0.330 A  
HETATM   10  C   UNL     1     -10.497  10.947  64.838  1.00  0.00    -0.352 A  
HETATM   11  C   UNL     1     -12.347  13.039  64.786  1.00  0.00    -0.490 A  
HETATM   12  C   UNL     1     -11.035  11.365  63.624  1.00  0.00    -0.443 A  
HETATM   13  C   UNL     1     -11.964  12.406  63.597  1.00  0.00    -0.626 A  
ENDBRANCH   7   8
ENDBRANCH   3   7
ENDBRANCH   2   3
BRANCH   2  14
HETATM   14  C   UNL     1     -10.993  15.686  68.534  1.00  0.00    -0.303 C  
BRANCH  14  15
HETATM   15  O   UNL     1     -10.633  16.302  67.290  1.00  0.00    -0.309 OA 
BRANCH  15  16
HETATM   16  C   UNL     1     -10.356  17.641  67.335  1.00  0.00    -0.360 A  
HETATM   17  C   UNL     1      -9.832  19.511  68.788  1.00  0.00    -0.532 A  
HETATM   18  C   UNL     1     -10.105  18.153  68.610  1.00  0.00    -0.406 A  
HETATM   19  C   UNL     1     -10.002  19.850  66.408  1.00  0.00    -0.593 A  
HETATM   20  C   UNL     1      -9.788  20.361  67.686  1.00  0.00    -0.538 A  
HETATM   21  C   UNL     1     -10.282  18.493  66.230  1.00  0.00    -0.446 A  
ENDBRANCH  15  16
ENDBRANCH  14  15
ENDBRANCH   2  14
TORSDOF 7
ENDMDL
MODEL       22
REMARK 921   NORMALIZED FREE ENERGY PREDICTED BY IDOCK:   -5.73 KCAL/MOL
REMARK 922        TOTAL FREE ENERGY PREDICTED BY IDOCK:   -9.16 KCAL/MOL
REMARK 923 INTER-LIGAND FREE ENERGY PREDICTED BY IDOCK:   -8.43 KCAL/MOL
REMARK 924 INTRA-LIGAND FREE ENERGY PREDICTED BY IDOCK:   -0.74 KCAL/MOL
REMARK 927      BINDING AFFINITY PREDICTED BY RF-SCORE:    0.00 PKD
ROOT
HETATM    1  C   UNL     1      -8.331  14.736  69.068  1.00  0.00    -0.144 C  
HETATM    2  C   UNL     1      -9.630  14.881  68.251  1.00  0.00    -0.214 C  
ENDROOT
BRANCH   2   3
HETATM    3  N   UNL     1     -10.592  15.906  68.780  1.00  0.00    -0.233 NA 
BRANCH   3   4
HETATM    4  C   UNL     1     -10.779  17.037  67.833  1.00  0.00    -0.348 C  
HETATM    5 CL   UNL     1     -10.621  19.639  67.040  1.00  0.00    -0.587 Cl 
HETATM    6  C   UNL     1     -10.366  18.430  68.333  1.00  0.00    -0.327 C  
ENDBRANCH   3   4
BRANCH   3   7
HETATM    7  C   UNL     1     -11.897  15.315  69.149  1.00  0.00    -0.321 C  
BRANCH   7   8
HETATM    8  C   UNL     1     -12.188  15.209  70.633  1.00  0.00    -0.401 A  
HETATM    9  C   UNL     1     -12.976  14.158  71.123  1.00  0.00    -0.419 A  
HETATM   10  C   UNL     1     -13.332  14.093  72.473  1.00  0.00    -0.616 A  
HETATM   11  C   UNL     1     -11.744  16.189  71.530  1.00  0.00    -0.533 A  
HETATM   12  C   UNL     1     -12.900  15.083  73.351  1.00  0.00    -0.652 A  
HETATM   13  C   UNL     1     -12.102  16.127  72.883  1.00  0.00    -0.643 A  
ENDBRANCH   7   8
ENDBRANCH   3   7
ENDBRANCH   2   3
BRANCH   2  14
HETATM   14  C   UNL     1     -10.283  13.483  68.059  1.00  0.00    -0.243 C  
BRANCH  14  15
HETATM   15  O   UNL     1      -9.774  12.877  66.864  1.00  0.00    -0.227 OA 
BRANCH  15  16
HETATM   16  C   UNL     1     -10.580  12.943  65.760  1.00  0.00    -0.275 A  
HETATM   17  C   UNL     1     -11.334  11.763  63.780  1.00  0.00    -0.524 A  
HETATM   18  C   UNL     1     -10.569  11.807  64.947  1.00  0.00    -0.344 A  
HETATM   19  C   UNL     1     -12.174  13.972  64.254  1.00  0.00    -0.453 A  
HETATM   20  C   UNL     1     -12.130  12.850  63.429  1.00  0.00    -0.610 A  
HETATM   21  C   UNL     1     -11.403  14.019  65.419  1.00  0.00    -0.315 A  
ENDBRANCH  15  16
ENDBRANCH  14  15
ENDBRANCH   2  14
TORSDOF 7
ENDMDL
MODEL       23
REMARK 921   NORMALIZED FREE ENERGY PREDICTED BY IDOCK:   -5.71 KCAL/MOL
REMARK 922        TOTAL FREE ENERGY PREDICTED BY IDOCK:   -9.14 KCAL/MOL
REMARK 923 INTER-LIGAND FREE ENERGY PREDICTED BY IDOCK:   -8.23 KCAL/MOL
REMARK 924 INTRA-LIGAND FREE ENERGY PREDICTED BY IDOCK:   -0.91 KCAL/MOL
REMARK 927      BINDING AFFINITY PREDICTED BY RF-SCORE:    0.00 PKD
ROOT
HETATM    1  C   UNL     1      -8.900  14.481  68.218  1.00  0.00    -0.179 C  
HETATM    2  C   UNL     1     -10.327  14.446  68.803  1.00  0.00    -0.241 C  
ENDROOT
BRANCH   2   3
HETATM    3  N   UNL     1     -11.099  13.195  68.497  1.00  0.00    -0.252 NA 
BRANCH   3   4
HETATM    4  C   UNL     1     -11.778  12.648  69.701  1.00  0.00    -0.303 C  
HETATM    5 CL   UNL     1     -12.776  10.664  71.281  1.00  0.00    -0.498 Cl 
HETATM    6  C   UNL     1     -11.994  11.127  69.740  1.00  0.00    -0.357 C  
ENDBRANCH   3   4
BRANCH   3   7
HETATM    7  C   UNL     1     -12.067  13.387  67.395  1.00  0.00    -0.293 C  
BRANCH   7   8
HETATM    8  C   UNL     1     -11.699  12.765  66.063  1.00  0.00    -0.470 A  
HETATM    9  C   UNL     1     -12.573  12.870  64.971  1.00  0.00    -0.538 A  
HETATM   10  C   UNL     1     -12.294  12.228  63.762  1.00  0.00    -0.637 A  
HETATM   11  C   UNL     1     -10.525  12.016  65.913  1.00  0.00    -0.290 A  
HETATM   12  C   UNL     1     -11.133  11.471  63.631  1.00  0.00    -0.469 A  
HETATM   13  C   UNL     1     -10.246  11.369  64.703  1.00  0.00    -0.347 A  
ENDBRANCH   7   8
ENDBRANCH   3   7
ENDBRANCH   2   3
BRANCH   2  14
HETATM   14  C   UNL     1     -11.088  15.739  68.397  1.00  0.00    -0.341 C  
BRANCH  14  15
HETATM   15  O   UNL     1     -10.418  16.881  68.948  1.00  0.00    -0.307 OA 
BRANCH  15  16
HETATM   16  C   UNL     1     -10.310  17.973  68.130  1.00  0.00    -0.388 A  
HETATM   17  C   UNL     1     -10.454  18.757  65.839  1.00  0.00    -0.424 A  
HETATM   18  C   UNL     1     -10.555  17.727  66.777  1.00  0.00    -0.235 A  
HETATM   19  C   UNL     1      -9.916  20.304  67.607  1.00  0.00    -0.551 A  
HETATM   20  C   UNL     1     -10.126  20.045  66.254  1.00  0.00    -0.603 A  
HETATM   21  C   UNL     1     -10.010  19.272  68.544  1.00  0.00    -0.513 A  
ENDBRANCH  15  16
ENDBRANCH  14  15
ENDBRANCH   2  14
TORSDOF 7
ENDMDL
MODEL       24
REMARK 921   NORMALIZED FREE ENERGY PREDICTED BY IDOCK:   -5.71 KCAL/MOL
REMARK 922        TOTAL FREE ENERGY PREDICTED BY IDOCK:   -9.14 KCAL/MOL
REMARK 923 INTER-LIGAND FREE ENERGY PREDICTED BY IDOCK:   -8.29 KCAL/MOL
REMARK 924 INTRA-LIGAND FREE ENERGY PREDICTED BY IDOCK:   -0.86 KCAL/MOL
REMARK 927      BINDING AFFINITY PREDICTED BY RF-SCORE:    0.00 PKD
ROOT
HETATM    1  C   UNL     1      -9.278  14.837  68.721  1.00  0.00    -0.196 C  
HETATM    2  C   UNL     1     -10.474  14.741  67.753  1.00  0.00    -0.254 C  
ENDROOT
BRANCH   2   3
HETATM    3  N   UNL     1     -10.218  15.296  66.382  1.00  0.00    -0.265 NA 
BRANCH   3   4
HETATM    4  C   UNL     1     -10.570  14.327  65.311  1.00  0.00    -0.381 C  
HETATM    5 CL   UNL     1     -12.210  13.194  63.454  1.00  0.00    -0.594 Cl 
HETATM    6  C   UNL     1     -12.001  14.400  64.757  1.00  0.00    -0.447 C  
ENDBRANCH   3   4
BRANCH   3   7
HETATM    7  C   UNL     1     -10.903  16.588  66.161  1.00  0.00    -0.050 C  
BRANCH   7   8
HETATM    8  C   UNL     1     -10.078  17.835  66.405  1.00  0.00    -0.357 A  
HETATM    9  C   UNL     1      -8.680  17.751  66.483  1.00  0.00    -0.281 A  
HETATM   10  C   UNL     1      -7.908  18.872  66.798  1.00  0.00    -0.262 A  
HETATM   11  C   UNL     1     -10.689  19.075  66.631  1.00  0.00    -0.429 A  
HETATM   12  C   UNL     1      -8.527  20.095  67.038  1.00  0.00    -0.397 A  
HETATM   13  C   UNL     1      -9.916  20.199  66.950  1.00  0.00    -0.600 A  
ENDBRANCH   7   8
ENDBRANCH   3   7
ENDBRANCH   2   3
BRANCH   2  14
HETATM   14  C   UNL     1     -11.737  15.351  68.425  1.00  0.00    -0.316 C  
BRANCH  14  15
HETATM   15  O   UNL     1     -12.275  14.417  69.371  1.00  0.00    -0.317 OA 
BRANCH  15  16
HETATM   16  C   UNL     1     -12.637  14.928  70.588  1.00  0.00    -0.363 A  
HETATM   17  C   UNL     1     -11.877  16.186  72.516  1.00  0.00    -0.630 A  
HETATM   18  C   UNL     1     -11.636  15.636  71.256  1.00  0.00    -0.485 A  
HETATM   19  C   UNL     1     -14.144  15.373  72.430  1.00  0.00    -0.645 A  
HETATM   20  C   UNL     1     -13.131  16.048  73.107  1.00  0.00    -0.631 A  
HETATM   21  C   UNL     1     -13.901  14.816  71.172  1.00  0.00    -0.388 A  
ENDBRANCH  15  16
ENDBRANCH  14  15
ENDBRANCH   2  14
TORSDOF 7
ENDMDL
MODEL       25
REMARK 921   NORMALIZED FREE ENERGY PREDICTED BY IDOCK:   -5.70 KCAL/MOL
REMARK 922        TOTAL FREE ENERGY PREDICTED BY IDOCK:   -9.13 KCAL/MOL
REMARK 923 INTER-LIGAND FREE ENERGY PREDICTED BY IDOCK:   -8.40 KCAL/MOL
REMARK 924 INTRA-LIGAND FREE ENERGY PREDICTED BY IDOCK:   -0.73 KCAL/MOL
REMARK 927      BINDING AFFINITY PREDICTED BY RF-SCORE:    0.00 PKD
ROOT
HETATM    1  C   UNL     1     -10.147  13.706  67.899  1.00  0.00    -0.244 C  
HETATM    2  C   UNL     1     -10.757  14.561  69.027  1.00  0.00    -0.251 C  
ENDROOT
BRANCH   2   3
HETATM    3  N   UNL     1     -11.584  13.795  70.018  1.00  0.00    -0.233 NA 
BRANCH   3   4
HETATM    4  C   UNL     1     -12.686  14.619  70.583  1.00  0.00    -0.357 C  
HETATM    5 CL   UNL     1     -14.084  15.825  72.586  1.00  0.00    -0.604 Cl 
HETATM    6  C   UNL     1     -12.725  14.764  72.112  1.00  0.00    -0.326 C  
ENDBRANCH   3   4
BRANCH   3   7
HETATM    7  C   UNL     1     -12.113  12.534  69.454  1.00  0.00    -0.180 C  
BRANCH   7   8
HETATM    8  C   UNL     1     -12.012  11.309  70.341  1.00  0.00    -0.471 A  
HETATM    9  C   UNL     1     -10.991  10.370  70.131  1.00  0.00    -0.365 A  
HETATM   10  C   UNL     1     -10.935   9.190  70.876  1.00  0.00    -0.349 A  
HETATM   11  C   UNL     1     -12.968  11.050  71.331  1.00  0.00    -0.517 A  
HETATM   12  C   UNL     1     -11.901   8.935  71.846  1.00  0.00    -0.440 A  
HETATM   13  C   UNL     1     -12.914   9.866  72.077  1.00  0.00    -0.518 A  
ENDBRANCH   7   8
ENDBRANCH   3   7
ENDBRANCH   2   3
BRANCH   2  14
HETATM   14  C   UNL     1     -11.519  15.768  68.410  1.00  0.00    -0.365 C  
BRANCH  14  15
HETATM   15  O   UNL     1     -10.797  16.260  67.273  1.00  0.00    -0.302 OA 
BRANCH  15  16
HETATM   16  C   UNL     1     -10.510  17.598  67.269  1.00  0.00    -0.338 A  
HETATM   17  C   UNL     1      -9.897  19.498  68.646  1.00  0.00    -0.530 A  
HETATM   18  C   UNL     1     -10.188  18.138  68.517  1.00  0.00    -0.399 A  
HETATM   19  C   UNL     1     -10.194  19.781  66.271  1.00  0.00    -0.615 A  
HETATM   20  C   UNL     1      -9.908  20.321  67.523  1.00  0.00    -0.576 A  
HETATM   21  C   UNL     1     -10.492  18.422  66.142  1.00  0.00    -0.422 A  
ENDBRANCH  15  16
ENDBRANCH  14  15
ENDBRANCH   2  14
TORSDOF 7
ENDMDL
MODEL       26
REMARK 921   NORMALIZED FREE ENERGY PREDICTED BY IDOCK:   -5.69 KCAL/MOL
REMARK 922        TOTAL FREE ENERGY PREDICTED BY IDOCK:   -9.11 KCAL/MOL
REMARK 923 INTER-LIGAND FREE ENERGY PREDICTED BY IDOCK:   -8.25 KCAL/MOL
REMARK 924 INTRA-LIGAND FREE ENERGY PREDICTED BY IDOCK:   -0.86 KCAL/MOL
REMARK 927      BINDING AFFINITY PREDICTED BY RF-SCORE:    0.00 PKD
ROOT
HETATM    1  C   UNL     1      -9.659  14.165  68.216  1.00  0.00    -0.226 C  
HETATM    2  C   UNL     1     -11.167  14.468  68.107  1.00  0.00    -0.284 C  
ENDROOT
BRANCH   2   3
HETATM    3  N   UNL     1     -11.604  15.730  68.792  1.00  0.00    -0.382 NA 
BRANCH   3   4
HETATM    4  C   UNL     1     -12.399  15.454  70.018  1.00  0.00    -0.336 C  
HETATM    5 CL   UNL     1     -12.947  15.592  72.684  1.00  0.00    -0.504 Cl 
HETATM    6  C   UNL     1     -11.828  15.981  71.343  1.00  0.00    -0.470 C  
ENDBRANCH   3   4
BRANCH   3   7
HETATM    7  C   UNL     1     -10.469  16.627  69.098  1.00  0.00    -0.333 C  
BRANCH   7   8
HETATM    8  C   UNL     1     -10.310  17.838  68.200  1.00  0.00    -0.393 A  
HETATM    9  C   UNL     1     -10.027  19.094  68.756  1.00  0.00    -0.493 A  
HETATM   10  C   UNL     1      -9.967  20.238  67.955  1.00  0.00    -0.459 A  
HETATM   11  C   UNL     1     -10.515  17.746  66.818  1.00  0.00    -0.300 A  
HETATM   12  C   UNL     1     -10.190  20.137  66.585  1.00  0.00    -0.556 A  
HETATM   13  C   UNL     1     -10.458  18.892  66.015  1.00  0.00    -0.507 A  
ENDBRANCH   7   8
ENDBRANCH   3   7
ENDBRANCH   2   3
BRANCH   2  14
HETATM   14  C   UNL     1     -11.982  13.223  68.558  1.00  0.00    -0.304 C  
BRANCH  14  15
HETATM   15  O   UNL     1     -11.106  12.281  69.192  1.00  0.00    -0.238 OA 
BRANCH  15  16
HETATM   16  C   UNL     1     -11.680  11.439  70.105  1.00  0.00    -0.328 A  
HETATM   17  C   UNL     1     -11.703   9.175  70.974  1.00  0.00    -0.363 A  
HETATM   18  C   UNL     1     -11.181  10.134  70.103  1.00  0.00    -0.377 A  
HETATM   19  C   UNL     1     -13.190  10.831  71.898  1.00  0.00    -0.524 A  
HETATM   20  C   UNL     1     -12.713   9.522  71.866  1.00  0.00    -0.496 A  
HETATM   21  C   UNL     1     -12.674  11.789  71.021  1.00  0.00    -0.372 A  
ENDBRANCH  15  16
ENDBRANCH  14  15
ENDBRANCH   2  14
TORSDOF 7
ENDMDL
MODEL       27
REMARK 921   NORMALIZED FREE ENERGY PREDICTED BY IDOCK:   -5.65 KCAL/MOL
REMARK 922        TOTAL FREE ENERGY PREDICTED BY IDOCK:   -9.05 KCAL/MOL
REMARK 923 INTER-LIGAND FREE ENERGY PREDICTED BY IDOCK:   -8.08 KCAL/MOL
REMARK 924 INTRA-LIGAND FREE ENERGY PREDICTED BY IDOCK:   -0.98 KCAL/MOL
REMARK 927      BINDING AFFINITY PREDICTED BY RF-SCORE:    0.00 PKD
ROOT
HETATM    1  C   UNL     1     -12.151  14.795  64.605  1.00  0.00    -0.437 C  
HETATM    2  C   UNL     1     -10.777  14.227  65.012  1.00  0.00    -0.420 C  
ENDROOT
BRANCH   2   3
HETATM    3  N   UNL     1     -10.836  12.975  65.839  1.00  0.00    -0.270 NA 
BRANCH   3   4
HETATM    4  C   UNL     1     -10.443  11.772  65.060  1.00  0.00    -0.285 C  
HETATM    5 CL   UNL     1      -9.561  10.447  62.848  1.00  0.00    -0.347 Cl 
HETATM    6  C   UNL     1     -10.043  11.999  63.594  1.00  0.00    -0.415 C  
ENDBRANCH   3   4
BRANCH   3   7
HETATM    7  C   UNL     1     -10.032  13.080  67.076  1.00  0.00    -0.242 C  
BRANCH   7   8
HETATM    8  C   UNL     1     -10.799  13.004  68.382  1.00  0.00    -0.280 A  
HETATM    9  C   UNL     1     -10.978  11.770  69.023  1.00  0.00    -0.276 A  
HETATM   10  C   UNL     1     -11.758  11.665  70.178  1.00  0.00    -0.381 A  
HETATM   11  C   UNL     1     -11.404  14.141  68.933  1.00  0.00    -0.308 A  
HETATM   12  C   UNL     1     -12.368  12.799  70.706  1.00  0.00    -0.375 A  
HETATM   13  C   UNL     1     -12.188  14.037  70.089  1.00  0.00    -0.425 A  
ENDBRANCH   7   8
ENDBRANCH   3   7
ENDBRANCH   2   3
BRANCH   2  14
HETATM   14  C   UNL     1      -9.926  15.348  65.674  1.00  0.00    -0.362 C  
BRANCH  14  15
HETATM   15  O   UNL     1     -10.541  16.621  65.434  1.00  0.00    -0.537 OA 
BRANCH  15  16
HETATM   16  C   UNL     1     -10.369  17.570  66.405  1.00  0.00    -0.334 A  
HETATM   17  C   UNL     1     -10.363  19.949  66.874  1.00  0.00    -0.596 A  
HETATM   18  C   UNL     1     -10.535  18.890  65.980  1.00  0.00    -0.507 A  
HETATM   19  C   UNL     1      -9.912  18.376  68.642  1.00  0.00    -0.415 A  
HETATM   20  C   UNL     1     -10.044  19.691  68.204  1.00  0.00    -0.556 A  
HETATM   21  C   UNL     1     -10.077  17.316  67.747  1.00  0.00    -0.311 A  
ENDBRANCH  15  16
ENDBRANCH  14  15
ENDBRANCH   2  14
TORSDOF 7
ENDMDL
MODEL       28
REMARK 921   NORMALIZED FREE ENERGY PREDICTED BY IDOCK:   -5.62 KCAL/MOL
REMARK 922        TOTAL FREE ENERGY PREDICTED BY IDOCK:   -9.02 KCAL/MOL
REMARK 923 INTER-LIGAND FREE ENERGY PREDICTED BY IDOCK:   -8.20 KCAL/MOL
REMARK 924 INTRA-LIGAND FREE ENERGY PREDICTED BY IDOCK:   -0.82 KCAL/MOL
REMARK 927      BINDING AFFINITY PREDICTED BY RF-SCORE:    0.00 PKD
ROOT
HETATM    1  C   UNL     1     -11.632  13.168  68.955  1.00  0.00    -0.360 C  
HETATM    2  C   UNL     1     -10.632  14.330  68.788  1.00  0.00    -0.252 C  
ENDROOT
BRANCH   2   3
HETATM    3  N   UNL     1     -11.208  15.694  69.040  1.00  0.00    -0.283 NA 
BRANCH   3   4
HETATM    4  C   UNL     1     -12.217  15.683  70.131  1.00  0.00    -0.361 C  
HETATM    5 CL   UNL     1     -13.057  15.905  72.714  1.00  0.00    -0.561 Cl 
HETATM    6  C   UNL     1     -11.692  15.906  71.558  1.00  0.00    -0.475 C  
ENDBRANCH   3   4
BRANCH   3   7
HETATM    7  C   UNL     1     -10.162  16.706  69.307  1.00  0.00    -0.291 C  
BRANCH   7   8
HETATM    8  C   UNL     1     -10.131  17.900  68.375  1.00  0.00    -0.385 A  
HETATM    9  C   UNL     1     -10.661  17.798  67.081  1.00  0.00    -0.222 A  
HETATM   10  C   UNL     1     -10.561  18.858  66.176  1.00  0.00    -0.476 A  
HETATM   11  C   UNL     1      -9.512  19.098  68.754  1.00  0.00    -0.454 A  
HETATM   12  C   UNL     1      -9.927  20.037  66.558  1.00  0.00    -0.603 A  
HETATM   13  C   UNL     1      -9.408  20.161  67.847  1.00  0.00    -0.406 A  
ENDBRANCH   7   8
ENDBRANCH   3   7
ENDBRANCH   2   3
BRANCH   2  14
HETATM   14  C   UNL     1      -9.929  14.217  67.406  1.00  0.00    -0.242 C  
BRANCH  14  15
HETATM   15  O   UNL     1     -10.826  14.656  66.376  1.00  0.00    -0.303 OA 
BRANCH  15  16
HETATM   16  C   UNL     1     -11.120  13.743  65.400  1.00  0.00    -0.302 A  
HETATM   17  C   UNL     1     -10.594  11.547  64.514  1.00  0.00    -0.387 A  
HETATM   18  C   UNL     1     -10.399  12.548  65.468  1.00  0.00    -0.303 A  
HETATM   19  C   UNL     1     -12.276  12.903  63.445  1.00  0.00    -0.574 A  
HETATM   20  C   UNL     1     -11.528  11.728  63.498  1.00  0.00    -0.489 A  
HETATM   21  C   UNL     1     -12.076  13.907  64.395  1.00  0.00    -0.477 A  
ENDBRANCH  15  16
ENDBRANCH  14  15
ENDBRANCH   2  14
TORSDOF 7
ENDMDL
MODEL       29
REMARK 921   NORMALIZED FREE ENERGY PREDICTED BY IDOCK:   -5.59 KCAL/MOL
REMARK 922        TOTAL FREE ENERGY PREDICTED BY IDOCK:   -8.97 KCAL/MOL
REMARK 923 INTER-LIGAND FREE ENERGY PREDICTED BY IDOCK:   -8.27 KCAL/MOL
REMARK 924 INTRA-LIGAND FREE ENERGY PREDICTED BY IDOCK:   -0.70 KCAL/MOL
REMARK 927      BINDING AFFINITY PREDICTED BY RF-SCORE:    0.00 PKD
ROOT
HETATM    1  C   UNL     1     -10.723  16.565  69.661  1.00  0.00    -0.323 C  
HETATM    2  C   UNL     1     -11.559  15.275  69.542  1.00  0.00    -0.322 C  
ENDROOT
BRANCH   2   3
HETATM    3  N   UNL     1     -11.684  14.489  70.815  1.00  0.00    -0.290 NA 
BRANCH   3   4
HETATM    4  C   UNL     1     -11.650  15.363  72.017  1.00  0.00    -0.459 C  
HETATM    5 CL   UNL     1     -12.419  16.164  74.506  1.00  0.00    -0.677 Cl 
HETATM    6  C   UNL     1     -12.651  15.037  73.136  1.00  0.00    -0.469 C  
ENDBRANCH   3   4
BRANCH   3   7
HETATM    7  C   UNL     1     -12.888  13.629  70.830  1.00  0.00    -0.251 C  
BRANCH   7   8
HETATM    8  C   UNL     1     -12.643  12.135  70.885  1.00  0.00    -0.340 A  
HETATM    9  C   UNL     1     -13.166  11.373  71.940  1.00  0.00    -0.485 A  
HETATM   10  C   UNL     1     -12.876  10.012  72.058  1.00  0.00    -0.484 A  
HETATM   11  C   UNL     1     -11.834  11.498  69.935  1.00  0.00    -0.430 A  
HETATM   12  C   UNL     1     -12.057   9.393  71.117  1.00  0.00    -0.406 A  
HETATM   13  C   UNL     1     -11.541  10.133  70.053  1.00  0.00    -0.323 A  
ENDBRANCH   7   8
ENDBRANCH   3   7
ENDBRANCH   2   3
BRANCH   2  14
HETATM   14  C   UNL     1     -11.032  14.421  68.354  1.00  0.00    -0.248 C  
BRANCH  14  15
HETATM   15  O   UNL     1     -11.986  14.446  67.285  1.00  0.00    -0.399 OA 
BRANCH  15  16
HETATM   16  C   UNL     1     -11.742  13.603  66.235  1.00  0.00    -0.367 A  
HETATM   17  C   UNL     1     -12.452  12.950  64.009  1.00  0.00    -0.407 A  
HETATM   18  C   UNL     1     -12.587  13.766  65.134  1.00  0.00    -0.471 A  
HETATM   19  C   UNL     1     -10.587  11.834  65.051  1.00  0.00    -0.338 A  
HETATM   20  C   UNL     1     -11.455  11.978  63.972  1.00  0.00    -0.484 A  
HETATM   21  C   UNL     1     -10.727  12.646  66.180  1.00  0.00    -0.293 A  
ENDBRANCH  15  16
ENDBRANCH  14  15
ENDBRANCH   2  14
TORSDOF 7
ENDMDL
MODEL       30
REMARK 921   NORMALIZED FREE ENERGY PREDICTED BY IDOCK:   -5.53 KCAL/MOL
REMARK 922        TOTAL FREE ENERGY PREDICTED BY IDOCK:   -8.88 KCAL/MOL
REMARK 923 INTER-LIGAND FREE ENERGY PREDICTED BY IDOCK:   -6.68 KCAL/MOL
REMARK 924 INTRA-LIGAND FREE ENERGY PREDICTED BY IDOCK:   -2.21 KCAL/MOL
REMARK 927      BINDING AFFINITY PREDICTED BY RF-SCORE:    0.00 PKD
ROOT
HETATM    1  C   UNL     1     -11.710  15.475  68.592  1.00  0.00    -0.363 C  
HETATM    2  C   UNL     1     -10.485  15.914  67.764  1.00  0.00    -0.287 C  
ENDROOT
BRANCH   2   3
HETATM    3  N   UNL     1     -10.776  16.210  66.321  1.00  0.00    -0.261 NA 
BRANCH   3   4
HETATM    4  C   UNL     1     -10.511  17.632  65.978  1.00  0.00    -0.278 C  
HETATM    5 CL   UNL     1      -9.730  20.190  66.500  1.00  0.00    -0.543 Cl 
HETATM    6  C   UNL     1     -10.040  18.542  67.123  1.00  0.00    -0.353 C  
ENDBRANCH   3   4
BRANCH   3   7
HETATM    7  C   UNL     1     -10.048  15.308  65.403  1.00  0.00    -0.362 C  
BRANCH   7   8
HETATM    8  C   UNL     1     -10.805  14.085  64.925  1.00  0.00    -0.421 A  
HETATM    9  C   UNL     1     -10.141  13.085  64.200  1.00  0.00    -0.146 A  
HETATM   10  C   UNL     1     -10.839  11.996  63.672  1.00  0.00    -0.510 A  
HETATM   11  C   UNL     1     -12.185  13.962  65.127  1.00  0.00    -0.443 A  
HETATM   12  C   UNL     1     -12.213  11.893  63.865  1.00  0.00    -0.497 A  
HETATM   13  C   UNL     1     -12.886  12.872  64.596  1.00  0.00    -0.323 A  
ENDBRANCH   7   8
ENDBRANCH   3   7
ENDBRANCH   2   3
BRANCH   2  14
HETATM   14  C   UNL     1      -9.336  14.882  67.948  1.00  0.00    -0.191 C  
BRANCH  14  15
HETATM   15  O   UNL     1      -9.808  13.774  68.728  1.00  0.00    -0.190 OA 
BRANCH  15  16
HETATM   16  C   UNL     1      -9.862  12.564  68.091  1.00  0.00    -0.221 A  
HETATM   17  C   UNL     1     -11.259  10.645  67.593  1.00  0.00    -0.361 A  
HETATM   18  C   UNL     1     -11.087  11.899  68.184  1.00  0.00    -0.294 A  
HETATM   19  C   UNL     1      -8.998  10.733  66.763  1.00  0.00    -0.157 A  
HETATM   20  C   UNL     1     -10.211  10.059  66.889  1.00  0.00    -0.299 A  
HETATM   21  C   UNL     1      -8.824  11.984  67.359  1.00  0.00    -0.178 A  
ENDBRANCH  15  16
ENDBRANCH  14  15
ENDBRANCH   2  14
TORSDOF 7
ENDMDL
MODEL       31
REMARK 921   NORMALIZED FREE ENERGY PREDICTED BY IDOCK:   -5.51 KCAL/MOL
REMARK 922        TOTAL FREE ENERGY PREDICTED BY IDOCK:   -8.86 KCAL/MOL
REMARK 923 INTER-LIGAND FREE ENERGY PREDICTED BY IDOCK:   -7.80 KCAL/MOL
REMARK 924 INTRA-LIGAND FREE ENERGY PREDICTED BY IDOCK:   -1.07 KCAL/MOL
REMARK 927      BINDING AFFINITY PREDICTED BY RF-SCORE:    0.00 PKD
ROOT
HETATM    1  C   UNL     1      -8.970  12.346  68.205  1.00  0.00    -0.196 C  
HETATM    2  C   UNL     1     -10.462  12.673  67.993  1.00  0.00    -0.224 C  
ENDROOT
BRANCH   2   3
HETATM    3  N   UNL     1     -10.884  14.026  68.491  1.00  0.00    -0.246 NA 
BRANCH   3   4
HETATM    4  C   UNL     1     -10.748  15.074  67.446  1.00  0.00    -0.289 C  
HETATM    5 CL   UNL     1     -10.789  16.032  64.895  1.00  0.00    -0.456 Cl 
HETATM    6  C   UNL     1     -10.943  14.626  65.989  1.00  0.00    -0.325 C  
ENDBRANCH   3   4
BRANCH   3   7
HETATM    7  C   UNL     1     -12.254  14.018  69.046  1.00  0.00    -0.245 C  
BRANCH   7   8
HETATM    8  C   UNL     1     -12.397  14.468  70.487  1.00  0.00    -0.403 A  
HETATM    9  C   UNL     1     -13.502  14.058  71.247  1.00  0.00    -0.308 A  
HETATM   10  C   UNL     1     -13.698  14.535  72.546  1.00  0.00    -0.580 A  
HETATM   11  C   UNL     1     -11.477  15.354  71.063  1.00  0.00    -0.407 A  
HETATM   12  C   UNL     1     -12.787  15.429  73.101  1.00  0.00    -0.606 A  
HETATM   13  C   UNL     1     -11.675  15.835  72.364  1.00  0.00    -0.577 A  
ENDBRANCH   7   8
ENDBRANCH   3   7
ENDBRANCH   2   3
BRANCH   2  14
HETATM   14  C   UNL     1     -11.334  11.520  68.565  1.00  0.00    -0.277 C  
BRANCH  14  15
HETATM   15  O   UNL     1     -10.608  10.837  69.596  1.00  0.00    -0.231 OA 
BRANCH  15  16
HETATM   16  C   UNL     1     -11.344  10.033  70.424  1.00  0.00    -0.320 A  
HETATM   17  C   UNL     1     -13.220   9.955  71.958  1.00  0.00    -0.555 A  
HETATM   18  C   UNL     1     -12.409  10.665  71.070  1.00  0.00    -0.507 A  
HETATM   19  C   UNL     1     -11.942   7.959  71.521  1.00  0.00    -0.333 A  
HETATM   20  C   UNL     1     -12.981   8.603  72.189  1.00  0.00    -0.432 A  
HETATM   21  C   UNL     1     -11.126   8.671  70.637  1.00  0.00    -0.282 A  
ENDBRANCH  15  16
ENDBRANCH  14  15
ENDBRANCH   2  14
TORSDOF 7
ENDMDL
MODEL       32
REMARK 921   NORMALIZED FREE ENERGY PREDICTED BY IDOCK:   -5.47 KCAL/MOL
REMARK 922        TOTAL FREE ENERGY PREDICTED BY IDOCK:   -8.81 KCAL/MOL
REMARK 923 INTER-LIGAND FREE ENERGY PREDICTED BY IDOCK:   -8.10 KCAL/MOL
REMARK 924 INTRA-LIGAND FREE ENERGY PREDICTED BY IDOCK:   -0.71 KCAL/MOL
REMARK 927      BINDING AFFINITY PREDICTED BY RF-SCORE:    0.00 PKD
ROOT
HETATM    1  C   UNL     1      -9.423  13.779  67.771  1.00  0.00    -0.216 C  
HETATM    2  C   UNL     1     -10.919  13.878  68.131  1.00  0.00    -0.249 C  
ENDROOT
BRANCH   2   3
HETATM    3  N   UNL     1     -11.793  12.851  67.471  1.00  0.00    -0.366 NA 
BRANCH   3   4
HETATM    4  C   UNL     1     -12.109  13.208  66.062  1.00  0.00    -0.436 C  
HETATM    5 CL   UNL     1     -12.160  12.802  63.368  1.00  0.00    -0.626 Cl 
HETATM    6  C   UNL     1     -11.644  12.222  64.979  1.00  0.00    -0.343 C  
ENDBRANCH   3   4
BRANCH   3   7
HETATM    7  C   UNL     1     -11.218  11.490  67.546  1.00  0.00    -0.298 C  
BRANCH   7   8
HETATM    8  C   UNL     1     -11.131  10.876  68.929  1.00  0.00    -0.307 A  
HETATM    9  C   UNL     1      -9.964  10.210  69.332  1.00  0.00    -0.247 A  
HETATM   10  C   UNL     1      -9.897   9.559  70.567  1.00  0.00    -0.331 A  
HETATM   11  C   UNL     1     -12.229  10.892  69.799  1.00  0.00    -0.381 A  
HETATM   12  C   UNL     1     -11.001   9.567  71.415  1.00  0.00    -0.415 A  
HETATM   13  C   UNL     1     -12.164  10.238  71.036  1.00  0.00    -0.487 A  
ENDBRANCH   7   8
ENDBRANCH   3   7
ENDBRANCH   2   3
BRANCH   2  14
HETATM   14  C   UNL     1     -11.415  15.333  67.896  1.00  0.00    -0.316 C  
BRANCH  14  15
HETATM   15  O   UNL     1     -10.472  16.033  67.074  1.00  0.00    -0.299 OA 
BRANCH  15  16
HETATM   16  C   UNL     1     -10.396  17.387  67.257  1.00  0.00    -0.336 A  
HETATM   17  C   UNL     1     -10.436  19.545  66.150  1.00  0.00    -0.613 A  
HETATM   18  C   UNL     1     -10.519  18.152  66.094  1.00  0.00    -0.377 A  
HETATM   19  C   UNL     1     -10.160  19.427  68.541  1.00  0.00    -0.527 A  
HETATM   20  C   UNL     1     -10.249  20.182  67.374  1.00  0.00    -0.534 A  
HETATM   21  C   UNL     1     -10.236  18.033  68.485  1.00  0.00    -0.392 A  
ENDBRANCH  15  16
ENDBRANCH  14  15
ENDBRANCH   2  14
TORSDOF 7
ENDMDL
MODEL       33
REMARK 921   NORMALIZED FREE ENERGY PREDICTED BY IDOCK:   -5.42 KCAL/MOL
REMARK 922        TOTAL FREE ENERGY PREDICTED BY IDOCK:   -8.73 KCAL/MOL
REMARK 923 INTER-LIGAND FREE ENERGY PREDICTED BY IDOCK:   -7.97 KCAL/MOL
REMARK 924 INTRA-LIGAND FREE ENERGY PREDICTED BY IDOCK:   -0.76 KCAL/MOL
REMARK 927      BINDING AFFINITY PREDICTED BY RF-SCORE:    0.00 PKD
ROOT
HETATM    1  C   UNL     1     -12.143  14.503  64.574  1.00  0.00    -0.501 C  
HETATM    2  C   UNL     1     -10.668  14.124  64.819  1.00  0.00    -0.419 C  
ENDROOT
BRANCH   2   3
HETATM    3  N   UNL     1     -10.467  12.852  65.592  1.00  0.00    -0.273 NA 
BRANCH   3   4
HETATM    4  C   UNL     1      -9.405  12.987  66.623  1.00  0.00    -0.241 C  
HETATM    5 CL   UNL     1      -7.233  12.163  68.048  1.00  0.00    -0.090 Cl 
HETATM    6  C   UNL     1      -8.462  11.788  66.804  1.00  0.00    -0.177 C  
ENDBRANCH   3   4
BRANCH   3   7
HETATM    7  C   UNL     1     -11.723  12.358  66.198  1.00  0.00    -0.400 C  
BRANCH   7   8
HETATM    8  C   UNL     1     -11.906  12.633  67.677  1.00  0.00    -0.390 A  
HETATM    9  C   UNL     1     -12.018  13.952  68.140  1.00  0.00    -0.385 A  
HETATM   10  C   UNL     1     -12.096  14.231  69.507  1.00  0.00    -0.376 A  
HETATM   11  C   UNL     1     -11.892  11.592  68.615  1.00  0.00    -0.370 A  
HETATM   12  C   UNL     1     -12.064  13.190  70.430  1.00  0.00    -0.392 A  
HETATM   13  C   UNL     1     -11.968  11.871  69.985  1.00  0.00    -0.409 A  
ENDBRANCH   7   8
ENDBRANCH   3   7
ENDBRANCH   2   3
BRANCH   2  14
HETATM   14  C   UNL     1      -9.916  15.334  65.441  1.00  0.00    -0.329 C  
BRANCH  14  15
HETATM   15  O   UNL     1     -10.647  16.539  65.177  1.00  0.00    -0.632 OA 
BRANCH  15  16
HETATM   16  C   UNL     1     -10.525  17.537  66.106  1.00  0.00    -0.288 A  
HETATM   17  C   UNL     1     -10.172  18.029  68.454  1.00  0.00    -0.399 A  
HETATM   18  C   UNL     1     -10.293  17.105  67.414  1.00  0.00    -0.333 A  
HETATM   19  C   UNL     1     -10.461  19.831  66.880  1.00  0.00    -0.596 A  
HETATM   20  C   UNL     1     -10.264  19.392  68.187  1.00  0.00    -0.537 A  
HETATM   21  C   UNL     1     -10.588  18.906  65.840  1.00  0.00    -0.438 A  
ENDBRANCH  15  16
ENDBRANCH  14  15
ENDBRANCH   2  14
TORSDOF 7
ENDMDL
MODEL       34
REMARK 921   NORMALIZED FREE ENERGY PREDICTED BY IDOCK:   -5.42 KCAL/MOL
REMARK 922        TOTAL FREE ENERGY PREDICTED BY IDOCK:   -8.73 KCAL/MOL
REMARK 923 INTER-LIGAND FREE ENERGY PREDICTED BY IDOCK:   -6.80 KCAL/MOL
REMARK 924 INTRA-LIGAND FREE ENERGY PREDICTED BY IDOCK:   -1.93 KCAL/MOL
REMARK 927      BINDING AFFINITY PREDICTED BY RF-SCORE:    0.00 PKD
ROOT
HETATM    1  C   UNL     1     -12.744  10.984  71.255  1.00  0.00    -0.537 C  
HETATM    2  C   UNL     1     -11.973  10.670  69.957  1.00  0.00    -0.329 C  
ENDROOT
BRANCH   2   3
HETATM    3  N   UNL     1     -10.689   9.917  70.158  1.00  0.00    -0.286 NA 
BRANCH   3   4
HETATM    4  C   UNL     1     -10.636   9.245  71.483  1.00  0.00    -0.335 C  
HETATM    5 CL   UNL     1     -10.777   7.112  73.172  1.00  0.00    -0.350 Cl 
HETATM    6  C   UNL     1     -10.939   7.739  71.505  1.00  0.00    -0.233 C  
ENDBRANCH   3   4
BRANCH   3   7
HETATM    7  C   UNL     1     -10.430   8.948  69.071  1.00  0.00    -0.214 C  
BRANCH   7   8
HETATM    8  C   UNL     1      -9.739   9.493  67.837  1.00  0.00    -0.171 A  
HETATM    9  C   UNL     1      -8.717  10.445  67.964  1.00  0.00    -0.123 A  
HETATM   10  C   UNL     1      -8.131  11.027  66.837  1.00  0.00    -0.142 A  
HETATM   11  C   UNL     1     -10.152   9.120  66.552  1.00  0.00    -0.357 A  
HETATM   12  C   UNL     1      -8.562  10.661  65.565  1.00  0.00    -0.191 A  
HETATM   13  C   UNL     1      -9.567   9.704  65.421  1.00  0.00    -0.361 A  
ENDBRANCH   7   8
ENDBRANCH   3   7
ENDBRANCH   2   3
BRANCH   2  14
HETATM   14  C   UNL     1     -11.784  11.977  69.136  1.00  0.00    -0.330 C  
BRANCH  14  15
HETATM   15  O   UNL     1     -12.260  11.775  67.799  1.00  0.00    -0.536 OA 
BRANCH  15  16
HETATM   16  C   UNL     1     -11.707  12.570  66.832  1.00  0.00    -0.377 A  
HETATM   17  C   UNL     1     -10.193  14.417  66.410  1.00  0.00    -0.294 A  
HETATM   18  C   UNL     1     -10.806  13.530  67.298  1.00  0.00    -0.285 A  
HETATM   19  C   UNL     1     -11.335  13.356  64.572  1.00  0.00    -0.391 A  
HETATM   20  C   UNL     1     -10.464  14.334  65.046  1.00  0.00    -0.458 A  
HETATM   21  C   UNL     1     -11.954  12.474  65.461  1.00  0.00    -0.500 A  
ENDBRANCH  15  16
ENDBRANCH  14  15
ENDBRANCH   2  14
TORSDOF 7
ENDMDL
MODEL       35
REMARK 921   NORMALIZED FREE ENERGY PREDICTED BY IDOCK:   -5.41 KCAL/MOL
REMARK 922        TOTAL FREE ENERGY PREDICTED BY IDOCK:   -8.72 KCAL/MOL
REMARK 923 INTER-LIGAND FREE ENERGY PREDICTED BY IDOCK:   -7.63 KCAL/MOL
REMARK 924 INTRA-LIGAND FREE ENERGY PREDICTED BY IDOCK:   -1.09 KCAL/MOL
REMARK 927      BINDING AFFINITY PREDICTED BY RF-SCORE:    0.00 PKD
ROOT
HETATM    1  C   UNL     1     -10.127  14.428  66.249  1.00  0.00    -0.308 C  
HETATM    2  C   UNL     1     -11.280  14.779  67.211  1.00  0.00    -0.346 C  
ENDROOT
BRANCH   2   3
HETATM    3  N   UNL     1     -10.843  15.264  68.564  1.00  0.00    -0.244 NA 
BRANCH   3   4
HETATM    4  C   UNL     1      -9.549  15.993  68.505  1.00  0.00    -0.215 C  
HETATM    5 CL   UNL     1      -7.971  18.214  68.448  1.00  0.00    -0.301 Cl 
HETATM    6  C   UNL     1      -9.622  17.527  68.466  1.00  0.00    -0.305 C  
ENDBRANCH   3   4
BRANCH   3   7
HETATM    7  C   UNL     1     -11.876  16.088  69.227  1.00  0.00    -0.257 C  
BRANCH   7   8
HETATM    8  C   UNL     1     -12.301  15.644  70.612  1.00  0.00    -0.457 A  
HETATM    9  C   UNL     1     -11.817  16.314  71.746  1.00  0.00    -0.510 A  
HETATM   10  C   UNL     1     -12.124  15.864  73.033  1.00  0.00    -0.615 A  
HETATM   11  C   UNL     1     -13.117  14.520  70.794  1.00  0.00    -0.363 A  
HETATM   12  C   UNL     1     -12.921  14.735  73.201  1.00  0.00    -0.623 A  
HETATM   13  C   UNL     1     -13.422  14.067  72.083  1.00  0.00    -0.567 A  
ENDBRANCH   7   8
ENDBRANCH   3   7
ENDBRANCH   2   3
BRANCH   2  14
HETATM   14  C   UNL     1     -12.273  13.586  67.289  1.00  0.00    -0.260 C  
BRANCH  14  15
HETATM   15  O   UNL     1     -11.658  12.414  66.740  1.00  0.00    -0.349 OA 
BRANCH  15  16
HETATM   16  C   UNL     1     -11.379  11.405  67.622  1.00  0.00    -0.290 A  
HETATM   17  C   UNL     1     -11.574  10.677  69.927  1.00  0.00    -0.396 A  
HETATM   18  C   UNL     1     -11.818  11.624  68.930  1.00  0.00    -0.392 A  
HETATM   19  C   UNL     1     -10.497   9.256  68.305  1.00  0.00    -0.260 A  
HETATM   20  C   UNL     1     -10.906   9.496  69.615  1.00  0.00    -0.255 A  
HETATM   21  C   UNL     1     -10.735  10.206  67.309  1.00  0.00    -0.316 A  
ENDBRANCH  15  16
ENDBRANCH  14  15
ENDBRANCH   2  14
TORSDOF 7
ENDMDL
MODEL       36
REMARK 921   NORMALIZED FREE ENERGY PREDICTED BY IDOCK:   -5.38 KCAL/MOL
REMARK 922        TOTAL FREE ENERGY PREDICTED BY IDOCK:   -8.68 KCAL/MOL
REMARK 923 INTER-LIGAND FREE ENERGY PREDICTED BY IDOCK:   -7.76 KCAL/MOL
REMARK 924 INTRA-LIGAND FREE ENERGY PREDICTED BY IDOCK:   -0.92 KCAL/MOL
REMARK 927      BINDING AFFINITY PREDICTED BY RF-SCORE:    0.00 PKD
ROOT
HETATM    1  C   UNL     1     -10.199  15.189  65.624  1.00  0.00    -0.387 C  
HETATM    2  C   UNL     1     -11.304  14.856  66.647  1.00  0.00    -0.326 C  
ENDROOT
BRANCH   2   3
HETATM    3  N   UNL     1     -10.839  14.792  68.074  1.00  0.00    -0.254 NA 
BRANCH   3   4
HETATM    4  C   UNL     1      -9.391  15.101  68.205  1.00  0.00    -0.192 C  
HETATM    5 CL   UNL     1      -7.250  16.616  68.946  1.00  0.00    -0.207 Cl 
HETATM    6  C   UNL     1      -9.028  16.455  68.833  1.00  0.00    -0.256 C  
ENDBRANCH   3   4
BRANCH   3   7
HETATM    7  C   UNL     1     -11.639  15.659  68.966  1.00  0.00    -0.386 C  
BRANCH   7   8
HETATM    8  C   UNL     1     -12.384  14.962  70.086  1.00  0.00    -0.376 A  
HETATM    9  C   UNL     1     -13.133  15.710  71.007  1.00  0.00    -0.487 A  
HETATM   10  C   UNL     1     -13.751  15.096  72.099  1.00  0.00    -0.583 A  
HETATM   11  C   UNL     1     -12.283  13.577  70.272  1.00  0.00    -0.417 A  
HETATM   12  C   UNL     1     -13.629  13.721  72.283  1.00  0.00    -0.656 A  
HETATM   13  C   UNL     1     -12.900  12.961  71.368  1.00  0.00    -0.377 A  
ENDBRANCH   7   8
ENDBRANCH   3   7
ENDBRANCH   2   3
BRANCH   2  14
HETATM   14  C   UNL     1     -12.058  13.572  66.200  1.00  0.00    -0.436 C  
BRANCH  14  15
HETATM   15  O   UNL     1     -11.930  12.565  67.212  1.00  0.00    -0.474 OA 
BRANCH  15  16
HETATM   16  C   UNL     1     -11.250  11.432  66.857  1.00  0.00    -0.264 A  
HETATM   17  C   UNL     1     -10.077  10.304  65.058  1.00  0.00    -0.353 A  
HETATM   18  C   UNL     1     -10.768  11.416  65.545  1.00  0.00    -0.313 A  
HETATM   19  C   UNL     1     -10.293   9.235  67.207  1.00  0.00    -0.332 A  
HETATM   20  C   UNL     1      -9.846   9.210  65.888  1.00  0.00    -0.305 A  
HETATM   21  C   UNL     1     -10.991  10.343  67.693  1.00  0.00    -0.374 A  
ENDBRANCH  15  16
ENDBRANCH  14  15
ENDBRANCH   2  14
TORSDOF 7
ENDMDL
MODEL       37
REMARK 921   NORMALIZED FREE ENERGY PREDICTED BY IDOCK:   -5.37 KCAL/MOL
REMARK 922        TOTAL FREE ENERGY PREDICTED BY IDOCK:   -8.66 KCAL/MOL
REMARK 923 INTER-LIGAND FREE ENERGY PREDICTED BY IDOCK:   -7.90 KCAL/MOL
REMARK 924 INTRA-LIGAND FREE ENERGY PREDICTED BY IDOCK:   -0.76 KCAL/MOL
REMARK 927      BINDING AFFINITY PREDICTED BY RF-SCORE:    0.00 PKD
ROOT
HETATM    1  C   UNL     1     -11.670  15.487  71.460  1.00  0.00    -0.479 C  
HETATM    2  C   UNL     1     -11.352  14.611  70.231  1.00  0.00    -0.202 C  
ENDROOT
BRANCH   2   3
HETATM    3  N   UNL     1     -11.184  15.371  68.946  1.00  0.00    -0.272 NA 
BRANCH   3   4
HETATM    4  C   UNL     1     -10.800  16.788  69.181  1.00  0.00    -0.287 C  
HETATM    5 CL   UNL     1     -10.208  19.338  68.427  1.00  0.00    -0.501 Cl 
HETATM    6  C   UNL     1     -10.618  17.668  67.935  1.00  0.00    -0.387 C  
ENDBRANCH   3   4
BRANCH   3   7
HETATM    7  C   UNL     1     -10.228  14.717  68.027  1.00  0.00    -0.231 C  
BRANCH   7   8
HETATM    8  C   UNL     1     -10.808  14.151  66.747  1.00  0.00    -0.296 A  
HETATM    9  C   UNL     1     -12.190  14.207  66.515  1.00  0.00    -0.463 A  
HETATM   10  C   UNL     1     -12.755  13.610  65.385  1.00  0.00    -0.500 A  
HETATM   11  C   UNL     1      -9.996  13.499  65.810  1.00  0.00    -0.266 A  
HETATM   12  C   UNL     1     -11.940  12.950  64.469  1.00  0.00    -0.452 A  
HETATM   13  C   UNL     1     -10.561  12.898  64.678  1.00  0.00    -0.384 A  
ENDBRANCH   7   8
ENDBRANCH   3   7
ENDBRANCH   2   3
BRANCH   2  14
HETATM   14  C   UNL     1     -12.400  13.467  70.123  1.00  0.00    -0.275 C  
BRANCH  14  15
HETATM   15  O   UNL     1     -11.743  12.252  69.739  1.00  0.00    -0.308 OA 
BRANCH  15  16
HETATM   16  C   UNL     1     -11.944  11.171  70.553  1.00  0.00    -0.380 A  
HETATM   17  C   UNL     1     -11.048   9.034  71.271  1.00  0.00    -0.382 A  
HETATM   18  C   UNL     1     -10.945  10.195  70.502  1.00  0.00    -0.380 A  
HETATM   19  C   UNL     1     -13.125   9.837  72.194  1.00  0.00    -0.513 A  
HETATM   20  C   UNL     1     -12.143   8.852  72.112  1.00  0.00    -0.430 A  
HETATM   21  C   UNL     1     -13.025  10.996  71.419  1.00  0.00    -0.517 A  
ENDBRANCH  15  16
ENDBRANCH  14  15
ENDBRANCH   2  14
TORSDOF 7
ENDMDL
MODEL       38
REMARK 921   NORMALIZED FREE ENERGY PREDICTED BY IDOCK:   -5.37 KCAL/MOL
REMARK 922        TOTAL FREE ENERGY PREDICTED BY IDOCK:   -8.66 KCAL/MOL
REMARK 923 INTER-LIGAND FREE ENERGY PREDICTED BY IDOCK:   -6.35 KCAL/MOL
REMARK 924 INTRA-LIGAND FREE ENERGY PREDICTED BY IDOCK:   -2.32 KCAL/MOL
REMARK 927      BINDING AFFINITY PREDICTED BY RF-SCORE:    0.00 PKD
ROOT
HETATM    1  C   UNL     1      -7.304  16.633  67.095  1.00  0.00    -0.220 C  
HETATM    2  C   UNL     1      -8.320  15.485  66.931  1.00  0.00    -0.255 C  
ENDROOT
BRANCH   2   3
HETATM    3  N   UNL     1      -9.746  15.928  66.772  1.00  0.00    -0.230 NA 
BRANCH   3   4
HETATM    4  C   UNL     1      -9.949  17.331  67.221  1.00  0.00    -0.283 C  
HETATM    5 CL   UNL     1     -10.591  19.958  66.884  1.00  0.00    -0.570 Cl 
HETATM    6  C   UNL     1     -10.349  18.349  66.141  1.00  0.00    -0.407 C  
ENDBRANCH   3   4
BRANCH   3   7
HETATM    7  C   UNL     1     -10.241  15.746  65.391  1.00  0.00    -0.349 C  
BRANCH   7   8
HETATM    8  C   UNL     1     -10.917  14.423  65.090  1.00  0.00    -0.380 A  
HETATM    9  C   UNL     1     -10.246  13.443  64.344  1.00  0.00    -0.262 A  
HETATM   10  C   UNL     1     -10.884  12.255  63.979  1.00  0.00    -0.439 A  
HETATM   11  C   UNL     1     -12.240  14.179  65.481  1.00  0.00    -0.443 A  
HETATM   12  C   UNL     1     -12.204  12.032  64.358  1.00  0.00    -0.358 A  
HETATM   13  C   UNL     1     -12.881  12.990  65.114  1.00  0.00    -0.335 A  
ENDBRANCH   7   8
ENDBRANCH   3   7
ENDBRANCH   2   3
BRANCH   2  14
HETATM   14  C   UNL     1      -8.132  14.456  68.082  1.00  0.00    -0.137 C  
BRANCH  14  15
HETATM   15  O   UNL     1      -8.145  13.128  67.542  1.00  0.00    -0.158 OA 
BRANCH  15  16
HETATM   16  C   UNL     1      -9.303  12.418  67.709  1.00  0.00    -0.196 A  
HETATM   17  C   UNL     1     -10.448  10.342  67.197  1.00  0.00    -0.311 A  
HETATM   18  C   UNL     1      -9.314  11.153  67.115  1.00  0.00    -0.176 A  
HETATM   19  C   UNL     1     -11.553  12.029  68.516  1.00  0.00    -0.363 A  
HETATM   20  C   UNL     1     -11.571  10.784  67.891  1.00  0.00    -0.212 A  
HETATM   21  C   UNL     1     -10.422  12.844  68.428  1.00  0.00    -0.260 A  
ENDBRANCH  15  16
ENDBRANCH  14  15
ENDBRANCH   2  14
TORSDOF 7
ENDMDL
MODEL       39
REMARK 921   NORMALIZED FREE ENERGY PREDICTED BY IDOCK:   -5.37 KCAL/MOL
REMARK 922        TOTAL FREE ENERGY PREDICTED BY IDOCK:   -8.66 KCAL/MOL
REMARK 923 INTER-LIGAND FREE ENERGY PREDICTED BY IDOCK:   -7.98 KCAL/MOL
REMARK 924 INTRA-LIGAND FREE ENERGY PREDICTED BY IDOCK:   -0.69 KCAL/MOL
REMARK 927      BINDING AFFINITY PREDICTED BY RF-SCORE:    0.00 PKD
ROOT
HETATM    1  C   UNL     1     -10.404  18.223  68.009  1.00  0.00    -0.410 C  
HETATM    2  C   UNL     1      -9.924  16.759  68.075  1.00  0.00    -0.272 C  
ENDROOT
BRANCH   2   3
HETATM    3  N   UNL     1      -9.636  16.132  66.741  1.00  0.00    -0.231 NA 
BRANCH   3   4
HETATM    4  C   UNL     1      -8.319  16.557  66.196  1.00  0.00    -0.270 C  
HETATM    5 CL   UNL     1      -5.697  17.277  66.368  1.00  0.00    -0.233 Cl 
HETATM    6  C   UNL     1      -7.205  16.829  67.219  1.00  0.00    -0.172 C  
ENDBRANCH   3   4
BRANCH   3   7
HETATM    7  C   UNL     1      -9.733  14.657  66.780  1.00  0.00    -0.257 C  
BRANCH   7   8
HETATM    8  C   UNL     1     -10.552  14.010  65.681  1.00  0.00    -0.313 A  
HETATM    9  C   UNL     1     -10.225  12.726  65.222  1.00  0.00    -0.296 A  
HETATM   10  C   UNL     1     -10.909  12.150  64.148  1.00  0.00    -0.410 A  
HETATM   11  C   UNL     1     -11.596  14.702  65.053  1.00  0.00    -0.385 A  
HETATM   12  C   UNL     1     -11.933  12.854  63.521  1.00  0.00    -0.629 A  
HETATM   13  C   UNL     1     -12.281  14.127  63.975  1.00  0.00    -0.369 A  
ENDBRANCH   7   8
ENDBRANCH   3   7
ENDBRANCH   2   3
BRANCH   2  14
HETATM   14  C   UNL     1     -10.916  15.924  68.933  1.00  0.00    -0.290 C  
BRANCH  14  15
HETATM   15  O   UNL     1     -10.993  16.479  70.253  1.00  0.00    -0.332 OA 
BRANCH  15  16
HETATM   16  C   UNL     1     -11.788  15.813  71.145  1.00  0.00    -0.425 A  
HETATM   17  C   UNL     1     -13.080  13.796  71.529  1.00  0.00    -0.435 A  
HETATM   18  C   UNL     1     -12.243  14.563  70.716  1.00  0.00    -0.403 A  
HETATM   19  C   UNL     1     -12.973  15.497  73.233  1.00  0.00    -0.654 A  
HETATM   20  C   UNL     1     -13.452  14.268  72.785  1.00  0.00    -0.590 A  
HETATM   21  C   UNL     1     -12.141  16.268  72.417  1.00  0.00    -0.598 A  
ENDBRANCH  15  16
ENDBRANCH  14  15
ENDBRANCH   2  14
TORSDOF 7
ENDMDL
MODEL       40
REMARK 921   NORMALIZED FREE ENERGY PREDICTED BY IDOCK:   -5.34 KCAL/MOL
REMARK 922        TOTAL FREE ENERGY PREDICTED BY IDOCK:   -8.62 KCAL/MOL
REMARK 923 INTER-LIGAND FREE ENERGY PREDICTED BY IDOCK:   -7.88 KCAL/MOL
REMARK 924 INTRA-LIGAND FREE ENERGY PREDICTED BY IDOCK:   -0.74 KCAL/MOL
REMARK 927      BINDING AFFINITY PREDICTED BY RF-SCORE:    0.00 PKD
ROOT
HETATM    1  C   UNL     1     -11.722  15.803  70.649  1.00  0.00    -0.412 C  
HETATM    2  C   UNL     1     -10.993  14.961  69.582  1.00  0.00    -0.274 C  
ENDROOT
BRANCH   2   3
HETATM    3  N   UNL     1     -10.620  15.713  68.337  1.00  0.00    -0.244 NA 
BRANCH   3   4
HETATM    4  C   UNL     1     -10.943  14.947  67.104  1.00  0.00    -0.323 C  
HETATM    5 CL   UNL     1     -10.467  14.003  64.593  1.00  0.00    -0.451 Cl 
HETATM    6  C   UNL     1      -9.923  15.023  65.957  1.00  0.00    -0.310 C  
ENDBRANCH   3   4
BRANCH   3   7
HETATM    7  C   UNL     1     -11.230  17.059  68.288  1.00  0.00    -0.038 C  
BRANCH   7   8
HETATM    8  C   UNL     1     -10.289  18.211  67.994  1.00  0.00    -0.405 A  
HETATM    9  C   UNL     1     -10.678  19.232  67.114  1.00  0.00    -0.584 A  
HETATM   10  C   UNL     1      -9.793  20.252  66.759  1.00  0.00    -0.586 A  
HETATM   11  C   UNL     1      -8.994  18.243  68.528  1.00  0.00    -0.329 A  
HETATM   12  C   UNL     1      -8.503  20.264  67.283  1.00  0.00    -0.415 A  
HETATM   13  C   UNL     1      -8.105  19.264  68.171  1.00  0.00    -0.349 A  
ENDBRANCH   7   8
ENDBRANCH   3   7
ENDBRANCH   2   3
BRANCH   2  14
HETATM   14  C   UNL     1     -11.812  13.673  69.287  1.00  0.00    -0.346 C  
BRANCH  14  15
HETATM   15  O   UNL     1     -12.386  13.181  70.505  1.00  0.00    -0.344 OA 
BRANCH  15  16
HETATM   16  C   UNL     1     -12.287  11.833  70.721  1.00  0.00    -0.337 A  
HETATM   17  C   UNL     1     -13.152   9.960  71.996  1.00  0.00    -0.545 A  
HETATM   18  C   UNL     1     -13.171  11.318  71.672  1.00  0.00    -0.431 A  
HETATM   19  C   UNL     1     -11.401   9.606  70.377  1.00  0.00    -0.337 A  
HETATM   20  C   UNL     1     -12.261   9.105  71.353  1.00  0.00    -0.407 A  
HETATM   21  C   UNL     1     -11.415  10.966  70.059  1.00  0.00    -0.411 A  
ENDBRANCH  15  16
ENDBRANCH  14  15
ENDBRANCH   2  14
TORSDOF 7
ENDMDL
MODEL       41
REMARK 921   NORMALIZED FREE ENERGY PREDICTED BY IDOCK:   -5.32 KCAL/MOL
REMARK 922        TOTAL FREE ENERGY PREDICTED BY IDOCK:   -8.59 KCAL/MOL
REMARK 923 INTER-LIGAND FREE ENERGY PREDICTED BY IDOCK:   -7.66 KCAL/MOL
REMARK 924 INTRA-LIGAND FREE ENERGY PREDICTED BY IDOCK:   -0.93 KCAL/MOL
REMARK 927      BINDING AFFINITY PREDICTED BY RF-SCORE:    0.00 PKD
ROOT
HETATM    1  C   UNL     1     -10.661  17.154  68.314  1.00  0.00    -0.363 C  
HETATM    2  C   UNL     1     -11.204  15.745  68.003  1.00  0.00    -0.338 C  
ENDROOT
BRANCH   2   3
HETATM    3  N   UNL     1     -11.364  14.855  69.202  1.00  0.00    -0.275 NA 
BRANCH   3   4
HETATM    4  C   UNL     1     -11.959  15.577  70.358  1.00  0.00    -0.367 C  
HETATM    5 CL   UNL     1     -12.349  16.096  73.005  1.00  0.00    -0.588 Cl 
HETATM    6  C   UNL     1     -11.575  15.074  71.758  1.00  0.00    -0.356 C  
ENDBRANCH   3   4
BRANCH   3   7
HETATM    7  C   UNL     1     -12.138  13.633  68.898  1.00  0.00    -0.300 C  
BRANCH   7   8
HETATM    8  C   UNL     1     -11.567  12.330  69.421  1.00  0.00    -0.378 A  
HETATM    9  C   UNL     1     -10.488  11.719  68.765  1.00  0.00    -0.221 A  
HETATM   10  C   UNL     1     -10.007  10.474  69.178  1.00  0.00    -0.236 A  
HETATM   11  C   UNL     1     -12.146  11.674  70.516  1.00  0.00    -0.458 A  
HETATM   12  C   UNL     1     -10.601   9.824  70.256  1.00  0.00    -0.348 A  
HETATM   13  C   UNL     1     -11.666  10.425  70.928  1.00  0.00    -0.455 A  
ENDBRANCH   7   8
ENDBRANCH   3   7
ENDBRANCH   2   3
BRANCH   2  14
HETATM   14  C   UNL     1     -10.349  15.094  66.879  1.00  0.00    -0.272 C  
BRANCH  14  15
HETATM   15  O   UNL     1     -11.142  14.959  65.692  1.00  0.00    -0.331 OA 
BRANCH  15  16
HETATM   16  C   UNL     1     -11.056  13.758  65.040  1.00  0.00    -0.346 A  
HETATM   17  C   UNL     1     -12.196  12.231  63.541  1.00  0.00    -0.669 A  
HETATM   18  C   UNL     1     -12.156  13.439  64.239  1.00  0.00    -0.479 A  
HETATM   19  C   UNL     1     -10.012  11.671  64.393  1.00  0.00    -0.298 A  
HETATM   20  C   UNL     1     -11.127  11.343  63.624  1.00  0.00    -0.411 A  
HETATM   21  C   UNL     1      -9.975  12.877  65.097  1.00  0.00    -0.175 A  
ENDBRANCH  15  16
ENDBRANCH  14  15
ENDBRANCH   2  14
TORSDOF 7
ENDMDL
MODEL       42
REMARK 921   NORMALIZED FREE ENERGY PREDICTED BY IDOCK:   -5.31 KCAL/MOL
REMARK 922        TOTAL FREE ENERGY PREDICTED BY IDOCK:   -8.58 KCAL/MOL
REMARK 923 INTER-LIGAND FREE ENERGY PREDICTED BY IDOCK:   -7.57 KCAL/MOL
REMARK 924 INTRA-LIGAND FREE ENERGY PREDICTED BY IDOCK:   -1.01 KCAL/MOL
REMARK 927      BINDING AFFINITY PREDICTED BY RF-SCORE:    0.00 PKD
ROOT
HETATM    1  C   UNL     1     -11.980  14.265  66.215  1.00  0.00    -0.428 C  
HETATM    2  C   UNL     1     -10.466  14.176  66.495  1.00  0.00    -0.280 C  
ENDROOT
BRANCH   2   3
HETATM    3  N   UNL     1     -10.110  13.757  67.892  1.00  0.00    -0.240 NA 
BRANCH   3   4
HETATM    4  C   UNL     1      -8.723  14.149  68.257  1.00  0.00    -0.181 C  
HETATM    5 CL   UNL     1      -6.827  15.360  69.795  1.00  0.00    -0.179 Cl 
HETATM    6  C   UNL     1      -8.562  15.042  69.497  1.00  0.00    -0.068 C  
ENDBRANCH   3   4
BRANCH   3   7
HETATM    7  C   UNL     1     -11.075  14.261  68.894  1.00  0.00    -0.262 C  
BRANCH   7   8
HETATM    8  C   UNL     1     -11.799  13.212  69.713  1.00  0.00    -0.386 A  
HETATM    9  C   UNL     1     -12.470  13.577  70.890  1.00  0.00    -0.448 A  
HETATM   10  C   UNL     1     -13.067  12.612  71.706  1.00  0.00    -0.461 A  
HETATM   11  C   UNL     1     -11.753  11.857  69.359  1.00  0.00    -0.401 A  
HETATM   12  C   UNL     1     -12.999  11.267  71.353  1.00  0.00    -0.482 A  
HETATM   13  C   UNL     1     -12.348  10.890  70.178  1.00  0.00    -0.399 A  
ENDBRANCH   7   8
ENDBRANCH   3   7
ENDBRANCH   2   3
BRANCH   2  14
HETATM   14  C   UNL     1      -9.780  15.506  66.071  1.00  0.00    -0.345 C  
BRANCH  14  15
HETATM   15  O   UNL     1     -10.756  16.556  66.029  1.00  0.00    -0.279 OA 
BRANCH  15  16
HETATM   16  C   UNL     1     -10.463  17.684  66.747  1.00  0.00    -0.289 A  
HETATM   17  C   UNL     1     -10.080  20.075  66.615  1.00  0.00    -0.607 A  
HETATM   18  C   UNL     1     -10.394  18.862  65.999  1.00  0.00    -0.485 A  
HETATM   19  C   UNL     1      -9.955  18.954  68.745  1.00  0.00    -0.466 A  
HETATM   20  C   UNL     1      -9.853  20.119  67.988  1.00  0.00    -0.498 A  
HETATM   21  C   UNL     1     -10.261  17.739  68.128  1.00  0.00    -0.383 A  
ENDBRANCH  15  16
ENDBRANCH  14  15
ENDBRANCH   2  14
TORSDOF 7
ENDMDL
MODEL       43
REMARK 921   NORMALIZED FREE ENERGY PREDICTED BY IDOCK:   -5.29 KCAL/MOL
REMARK 922        TOTAL FREE ENERGY PREDICTED BY IDOCK:   -8.54 KCAL/MOL
REMARK 923 INTER-LIGAND FREE ENERGY PREDICTED BY IDOCK:   -7.50 KCAL/MOL
REMARK 924 INTRA-LIGAND FREE ENERGY PREDICTED BY IDOCK:   -1.05 KCAL/MOL
REMARK 927      BINDING AFFINITY PREDICTED BY RF-SCORE:    0.00 PKD
ROOT
HETATM    1  C   UNL     1     -10.044   9.730  70.328  1.00  0.00    -0.323 C  
HETATM    2  C   UNL     1     -10.921  10.189  69.146  1.00  0.00    -0.230 C  
ENDROOT
BRANCH   2   3
HETATM    3  N   UNL     1     -10.240  11.119  68.183  1.00  0.00    -0.175 NA 
BRANCH   3   4
HETATM    4  C   UNL     1      -8.792  11.270  68.483  1.00  0.00    -0.159 C  
HETATM    5 CL   UNL     1      -6.433  12.628  68.628  1.00  0.00    -0.073 Cl 
HETATM    6  C   UNL     1      -8.157  12.630  68.153  1.00  0.00    -0.164 C  
ENDBRANCH   3   4
BRANCH   3   7
HETATM    7  C   UNL     1     -10.441  10.717  66.774  1.00  0.00    -0.247 C  
BRANCH   7   8
HETATM    8  C   UNL     1     -10.990  11.781  65.845  1.00  0.00    -0.354 A  
HETATM    9  C   UNL     1     -11.857  12.767  66.338  1.00  0.00    -0.472 A  
HETATM   10  C   UNL     1     -12.446  13.701  65.482  1.00  0.00    -0.544 A  
HETATM   11  C   UNL     1     -10.707  11.761  64.474  1.00  0.00    -0.369 A  
HETATM   12  C   UNL     1     -12.171  13.660  64.118  1.00  0.00    -0.450 A  
HETATM   13  C   UNL     1     -11.298  12.695  63.614  1.00  0.00    -0.544 A  
ENDBRANCH   7   8
ENDBRANCH   3   7
ENDBRANCH   2   3
BRANCH   2  14
HETATM   14  C   UNL     1     -12.265  10.756  69.684  1.00  0.00    -0.254 C  
BRANCH  14  15
HETATM   15  O   UNL     1     -12.039  11.410  70.940  1.00  0.00    -0.351 OA 
BRANCH  15  16
HETATM   16  C   UNL     1     -12.544  12.676  71.064  1.00  0.00    -0.262 A  
HETATM   17  C   UNL     1     -12.487  14.929  70.168  1.00  0.00    -0.353 A  
HETATM   18  C   UNL     1     -12.064  13.599  70.131  1.00  0.00    -0.431 A  
HETATM   19  C   UNL     1     -13.918  14.415  72.038  1.00  0.00    -0.592 A  
HETATM   20  C   UNL     1     -13.409  15.339  71.128  1.00  0.00    -0.568 A  
HETATM   21  C   UNL     1     -13.489  13.086  72.006  1.00  0.00    -0.584 A  
ENDBRANCH  15  16
ENDBRANCH  14  15
ENDBRANCH   2  14
TORSDOF 7
ENDMDL
MODEL       44
REMARK 921   NORMALIZED FREE ENERGY PREDICTED BY IDOCK:   -5.28 KCAL/MOL
REMARK 922        TOTAL FREE ENERGY PREDICTED BY IDOCK:   -8.54 KCAL/MOL
REMARK 923 INTER-LIGAND FREE ENERGY PREDICTED BY IDOCK:   -7.84 KCAL/MOL
REMARK 924 INTRA-LIGAND FREE ENERGY PREDICTED BY IDOCK:   -0.70 KCAL/MOL
REMARK 927      BINDING AFFINITY PREDICTED BY RF-SCORE:    0.00 PKD
ROOT
HETATM    1  C   UNL     1     -11.902  14.893  70.259  1.00  0.00    -0.358 C  
HETATM    2  C   UNL     1     -11.236  14.067  69.140  1.00  0.00    -0.269 C  
ENDROOT
BRANCH   2   3
HETATM    3  N   UNL     1     -11.287  14.700  67.779  1.00  0.00    -0.308 NA 
BRANCH   3   4
HETATM    4  C   UNL     1     -11.086  16.172  67.839  1.00  0.00    -0.293 C  
HETATM    5 CL   UNL     1     -10.308  18.595  66.866  1.00  0.00    -0.417 Cl 
HETATM    6  C   UNL     1     -10.414  16.827  66.622  1.00  0.00    -0.258 C  
ENDBRANCH   3   4
BRANCH   3   7
HETATM    7  C   UNL     1     -10.330  14.082  66.836  1.00  0.00    -0.269 C  
BRANCH   7   8
HETATM    8  C   UNL     1     -10.933  13.365  65.644  1.00  0.00    -0.292 A  
HETATM    9  C   UNL     1     -12.325  13.315  65.482  1.00  0.00    -0.533 A  
HETATM   10  C   UNL     1     -12.903  12.582  64.442  1.00  0.00    -0.366 A  
HETATM   11  C   UNL     1     -10.126  12.678  64.727  1.00  0.00    -0.241 A  
HETATM   12  C   UNL     1     -12.091  11.890  63.548  1.00  0.00    -0.575 A  
HETATM   13  C   UNL     1     -10.704  11.942  63.686  1.00  0.00    -0.502 A  
ENDBRANCH   7   8
ENDBRANCH   3   7
ENDBRANCH   2   3
BRANCH   2  14
HETATM   14  C   UNL     1     -11.803  12.620  69.154  1.00  0.00    -0.297 C  
BRANCH  14  15
HETATM   15  O   UNL     1     -12.280  12.305  70.469  1.00  0.00    -0.360 OA 
BRANCH  15  16
HETATM   16  C   UNL     1     -12.230  10.986  70.832  1.00  0.00    -0.367 A  
HETATM   17  C   UNL     1     -13.273   9.259  72.178  1.00  0.00    -0.535 A  
HETATM   18  C   UNL     1     -13.231  10.576  71.717  1.00  0.00    -0.522 A  
HETATM   19  C   UNL     1     -11.345   8.732  70.831  1.00  0.00    -0.322 A  
HETATM   20  C   UNL     1     -12.324   8.338  71.740  1.00  0.00    -0.366 A  
HETATM   21  C   UNL     1     -11.298  10.052  70.375  1.00  0.00    -0.392 A  
ENDBRANCH  15  16
ENDBRANCH  14  15
ENDBRANCH   2  14
TORSDOF 7
ENDMDL
MODEL       45
REMARK 921   NORMALIZED FREE ENERGY PREDICTED BY IDOCK:   -5.28 KCAL/MOL
REMARK 922        TOTAL FREE ENERGY PREDICTED BY IDOCK:   -8.54 KCAL/MOL
REMARK 923 INTER-LIGAND FREE ENERGY PREDICTED BY IDOCK:   -7.57 KCAL/MOL
REMARK 924 INTRA-LIGAND FREE ENERGY PREDICTED BY IDOCK:   -0.96 KCAL/MOL
REMARK 927      BINDING AFFINITY PREDICTED BY RF-SCORE:    0.00 PKD
ROOT
HETATM    1  C   UNL     1      -8.700  11.877  68.388  1.00  0.00    -0.157 C  
HETATM    2  C   UNL     1      -9.840  11.338  67.501  1.00  0.00    -0.178 C  
ENDROOT
BRANCH   2   3
HETATM    3  N   UNL     1     -10.670  12.398  66.835  1.00  0.00    -0.236 NA 
BRANCH   3   4
HETATM    4  C   UNL     1     -11.053  12.020  65.449  1.00  0.00    -0.320 C  
HETATM    5 CL   UNL     1     -12.612  12.091  63.216  1.00  0.00    -0.640 Cl 
HETATM    6  C   UNL     1     -12.355  12.625  64.903  1.00  0.00    -0.498 C  
ENDBRANCH   3   4
BRANCH   3   7
HETATM    7  C   UNL     1     -11.868  12.755  67.627  1.00  0.00    -0.339 C  
BRANCH   7   8
HETATM    8  C   UNL     1     -11.698  13.878  68.630  1.00  0.00    -0.396 A  
HETATM    9  C   UNL     1     -11.994  13.664  69.984  1.00  0.00    -0.413 A  
HETATM   10  C   UNL     1     -11.932  14.710  70.908  1.00  0.00    -0.388 A  
HETATM   11  C   UNL     1     -11.317  15.163  68.221  1.00  0.00    -0.338 A  
HETATM   12  C   UNL     1     -11.569  15.987  70.487  1.00  0.00    -0.383 A  
HETATM   13  C   UNL     1     -11.257  16.213  69.146  1.00  0.00    -0.336 A  
ENDBRANCH   7   8
ENDBRANCH   3   7
ENDBRANCH   2   3
BRANCH   2  14
HETATM   14  C   UNL     1     -10.694  10.323  68.311  1.00  0.00    -0.237 C  
BRANCH  14  15
HETATM   15  O   UNL     1     -10.387  10.444  69.706  1.00  0.00    -0.240 OA 
BRANCH  15  16
HETATM   16  C   UNL     1     -11.324   9.959  70.578  1.00  0.00    -0.327 A  
HETATM   17  C   UNL     1     -11.960   8.066  71.954  1.00  0.00    -0.359 A  
HETATM   18  C   UNL     1     -11.065   8.678  71.074  1.00  0.00    -0.316 A  
HETATM   19  C   UNL     1     -13.354  10.030  71.895  1.00  0.00    -0.516 A  
HETATM   20  C   UNL     1     -13.109   8.740  72.359  1.00  0.00    -0.444 A  
HETATM   21  C   UNL     1     -12.463  10.641  71.009  1.00  0.00    -0.515 A  
ENDBRANCH  15  16
ENDBRANCH  14  15
ENDBRANCH   2  14
TORSDOF 7
ENDMDL
MODEL       46
REMARK 921   NORMALIZED FREE ENERGY PREDICTED BY IDOCK:   -5.23 KCAL/MOL
REMARK 922        TOTAL FREE ENERGY PREDICTED BY IDOCK:   -8.46 KCAL/MOL
REMARK 923 INTER-LIGAND FREE ENERGY PREDICTED BY IDOCK:   -7.73 KCAL/MOL
REMARK 924 INTRA-LIGAND FREE ENERGY PREDICTED BY IDOCK:   -0.74 KCAL/MOL
REMARK 927      BINDING AFFINITY PREDICTED BY RF-SCORE:    0.00 PKD
ROOT
HETATM    1  C   UNL     1     -11.906  13.935  69.918  1.00  0.00    -0.394 C  
HETATM    2  C   UNL     1     -11.067  14.003  68.625  1.00  0.00    -0.264 C  
ENDROOT
BRANCH   2   3
HETATM    3  N   UNL     1     -10.125  15.170  68.549  1.00  0.00    -0.222 NA 
BRANCH   3   4
HETATM    4  C   UNL     1      -8.704  14.750  68.666  1.00  0.00    -0.178 C  
HETATM    5 CL   UNL     1      -6.276  13.971  67.704  1.00  0.00    -0.152 Cl 
HETATM    6  C   UNL     1      -7.977  14.402  67.358  1.00  0.00    -0.201 C  
ENDBRANCH   3   4
BRANCH   3   7
HETATM    7  C   UNL     1     -10.330  15.980  67.329  1.00  0.00    -0.295 C  
BRANCH   7   8
HETATM    8  C   UNL     1     -10.156  17.478  67.482  1.00  0.00    -0.326 A  
HETATM    9  C   UNL     1      -9.967  18.039  68.753  1.00  0.00    -0.380 A  
HETATM   10  C   UNL     1      -9.896  19.424  68.925  1.00  0.00    -0.523 A  
HETATM   11  C   UNL     1     -10.254  18.334  66.378  1.00  0.00    -0.417 A  
HETATM   12  C   UNL     1     -10.012  20.266  67.823  1.00  0.00    -0.529 A  
HETATM   13  C   UNL     1     -10.185  19.723  66.549  1.00  0.00    -0.606 A  
ENDBRANCH   7   8
ENDBRANCH   3   7
ENDBRANCH   2   3
BRANCH   2  14
HETATM   14  C   UNL     1     -12.006  13.904  67.390  1.00  0.00    -0.401 C  
BRANCH  14  15
HETATM   15  O   UNL     1     -12.137  12.532  66.996  1.00  0.00    -0.521 OA 
BRANCH  15  16
HETATM   16  C   UNL     1     -11.405  12.141  65.908  1.00  0.00    -0.356 A  
HETATM   17  C   UNL     1     -11.326  12.091  63.485  1.00  0.00    -0.528 A  
HETATM   18  C   UNL     1     -11.968  12.457  64.669  1.00  0.00    -0.462 A  
HETATM   19  C   UNL     1      -9.521  11.137  64.765  1.00  0.00    -0.250 A  
HETATM   20  C   UNL     1     -10.105  11.423  63.534  1.00  0.00    -0.437 A  
HETATM   21  C   UNL     1     -10.167  11.496  65.951  1.00  0.00    -0.286 A  
ENDBRANCH  15  16
ENDBRANCH  14  15
ENDBRANCH   2  14
TORSDOF 7
ENDMDL
MODEL       47
REMARK 921   NORMALIZED FREE ENERGY PREDICTED BY IDOCK:   -5.21 KCAL/MOL
REMARK 922        TOTAL FREE ENERGY PREDICTED BY IDOCK:   -8.44 KCAL/MOL
REMARK 923 INTER-LIGAND FREE ENERGY PREDICTED BY IDOCK:   -7.76 KCAL/MOL
REMARK 924 INTRA-LIGAND FREE ENERGY PREDICTED BY IDOCK:   -0.68 KCAL/MOL
REMARK 927      BINDING AFFINITY PREDICTED BY RF-SCORE:    0.00 PKD
ROOT
HETATM    1  C   UNL     1     -10.413   9.432  70.647  1.00  0.00    -0.354 C  
HETATM    2  C   UNL     1     -11.182  10.645  70.087  1.00  0.00    -0.302 C  
ENDROOT
BRANCH   2   3
HETATM    3  N   UNL     1     -12.642  10.678  70.436  1.00  0.00    -0.340 NA 
BRANCH   3   4
HETATM    4  C   UNL     1     -13.242   9.318  70.459  1.00  0.00     0.491 C  
HETATM    5 CL   UNL     1     -14.373   7.142  71.647  1.00  0.00    -0.557 Cl 
HETATM    6  C   UNL     1     -13.629   8.758  71.836  1.00  0.00    -0.424 C  
ENDBRANCH   3   4
BRANCH   3   7
HETATM    7  C   UNL     1     -12.901  11.383  71.710  1.00  0.00    -0.344 C  
BRANCH   7   8
HETATM    8  C   UNL     1     -13.060  12.888  71.623  1.00  0.00    -0.430 A  
HETATM    9  C   UNL     1     -14.097  13.528  72.317  1.00  0.00    -0.564 A  
HETATM   10  C   UNL     1     -14.316  14.901  72.177  1.00  0.00    -0.598 A  
HETATM   11  C   UNL     1     -12.230  13.657  70.797  1.00  0.00    -0.424 A  
HETATM   12  C   UNL     1     -13.496  15.652  71.340  1.00  0.00    -0.473 A  
HETATM   13  C   UNL     1     -12.450  15.033  70.654  1.00  0.00    -0.422 A  
ENDBRANCH   7   8
ENDBRANCH   3   7
ENDBRANCH   2   3
BRANCH   2  14
HETATM   14  C   UNL     1     -10.924  10.763  68.558  1.00  0.00    -0.243 C  
BRANCH  14  15
HETATM   15  O   UNL     1     -11.939  11.584  67.963  1.00  0.00    -0.595 OA 
BRANCH  15  16
HETATM   16  C   UNL     1     -11.520  12.465  67.004  1.00  0.00    -0.358 A  
HETATM   17  C   UNL     1     -10.825  12.697  64.691  1.00  0.00    -0.349 A  
HETATM   18  C   UNL     1     -11.278  11.903  65.748  1.00  0.00    -0.365 A  
HETATM   19  C   UNL     1     -10.903  14.635  66.122  1.00  0.00    -0.321 A  
HETATM   20  C   UNL     1     -10.630  14.062  64.882  1.00  0.00    -0.442 A  
HETATM   21  C   UNL     1     -11.349  13.840  67.181  1.00  0.00    -0.344 A  
ENDBRANCH  15  16
ENDBRANCH  14  15
ENDBRANCH   2  14
TORSDOF 7
ENDMDL
MODEL       48
REMARK 921   NORMALIZED FREE ENERGY PREDICTED BY IDOCK:   -5.21 KCAL/MOL
REMARK 922        TOTAL FREE ENERGY PREDICTED BY IDOCK:   -8.43 KCAL/MOL
REMARK 923 INTER-LIGAND FREE ENERGY PREDICTED BY IDOCK:   -7.59 KCAL/MOL
REMARK 924 INTRA-LIGAND FREE ENERGY PREDICTED BY IDOCK:   -0.85 KCAL/MOL
REMARK 927      BINDING AFFINITY PREDICTED BY RF-SCORE:    0.00 PKD
ROOT
HETATM    1  C   UNL     1      -9.395  12.144  68.293  1.00  0.00    -0.198 C  
HETATM    2  C   UNL     1     -10.698  12.337  67.492  1.00  0.00    -0.225 C  
ENDROOT
BRANCH   2   3
HETATM    3  N   UNL     1     -10.713  13.543  66.597  1.00  0.00    -0.281 NA 
BRANCH   3   4
HETATM    4  C   UNL     1     -11.557  13.335  65.391  1.00  0.00    -0.321 C  
HETATM    5 CL   UNL     1     -12.625  11.876  63.352  1.00  0.00    -0.674 Cl 
HETATM    6  C   UNL     1     -11.513  11.938  64.752  1.00  0.00    -0.260 C  
ENDBRANCH   3   4
BRANCH   3   7
HETATM    7  C   UNL     1     -11.123  14.770  67.314  1.00  0.00    -0.332 C  
BRANCH   7   8
HETATM    8  C   UNL     1     -10.237  15.986  67.123  1.00  0.00    -0.278 A  
HETATM    9  C   UNL     1      -9.013  15.866  66.450  1.00  0.00    -0.361 A  
HETATM   10  C   UNL     1      -8.141  16.953  66.343  1.00  0.00    -0.350 A  
HETATM   11  C   UNL     1     -10.583  17.227  67.673  1.00  0.00    -0.350 A  
HETATM   12  C   UNL     1      -8.488  18.177  66.909  1.00  0.00    -0.265 A  
HETATM   13  C   UNL     1      -9.709  18.317  67.569  1.00  0.00    -0.305 A  
ENDBRANCH   7   8
ENDBRANCH   3   7
ENDBRANCH   2   3
BRANCH   2  14
HETATM   14  C   UNL     1     -11.915  12.288  68.459  1.00  0.00    -0.219 C  
BRANCH  14  15
HETATM   15  O   UNL     1     -11.457  12.423  69.811  1.00  0.00    -0.237 OA 
BRANCH  15  16
HETATM   16  C   UNL     1     -12.287  13.095  70.667  1.00  0.00    -0.326 A  
HETATM   17  C   UNL     1     -13.270  15.249  71.193  1.00  0.00    -0.567 A  
HETATM   18  C   UNL     1     -12.464  14.451  70.379  1.00  0.00    -0.420 A  
HETATM   19  C   UNL     1     -13.775  13.331  72.563  1.00  0.00    -0.613 A  
HETATM   20  C   UNL     1     -13.919  14.690  72.291  1.00  0.00    -0.589 A  
HETATM   21  C   UNL     1     -12.963  12.534  71.752  1.00  0.00    -0.419 A  
ENDBRANCH  15  16
ENDBRANCH  14  15
ENDBRANCH   2  14
TORSDOF 7
ENDMDL
MODEL       49
REMARK 921   NORMALIZED FREE ENERGY PREDICTED BY IDOCK:   -5.20 KCAL/MOL
REMARK 922        TOTAL FREE ENERGY PREDICTED BY IDOCK:   -8.42 KCAL/MOL
REMARK 923 INTER-LIGAND FREE ENERGY PREDICTED BY IDOCK:   -7.69 KCAL/MOL
REMARK 924 INTRA-LIGAND FREE ENERGY PREDICTED BY IDOCK:   -0.73 KCAL/MOL
REMARK 927      BINDING AFFINITY PREDICTED BY RF-SCORE:    0.00 PKD
ROOT
HETATM    1  C   UNL     1     -12.091  14.382  65.951  1.00  0.00    -0.358 C  
HETATM    2  C   UNL     1     -12.150  14.216  67.483  1.00  0.00    -0.328 C  
ENDROOT
BRANCH   2   3
HETATM    3  N   UNL     1     -11.821  15.457  68.262  1.00  0.00    -0.290 NA 
BRANCH   3   4
HETATM    4  C   UNL     1     -12.114  15.301  69.712  1.00  0.00    -0.328 C  
HETATM    5 CL   UNL     1     -11.500  15.322  72.366  1.00  0.00    -0.523 Cl 
HETATM    6  C   UNL     1     -10.937  15.502  70.679  1.00  0.00    -0.342 C  
ENDBRANCH   3   4
BRANCH   3   7
HETATM    7  C   UNL     1     -10.424  15.897  68.057  1.00  0.00    -0.274 C  
BRANCH   7   8
HETATM    8  C   UNL     1     -10.232  17.335  67.618  1.00  0.00    -0.333 A  
HETATM    9  C   UNL     1      -9.878  18.316  68.556  1.00  0.00    -0.400 A  
HETATM   10  C   UNL     1      -9.785  19.661  68.189  1.00  0.00    -0.503 A  
HETATM   11  C   UNL     1     -10.473  17.727  66.295  1.00  0.00    -0.307 A  
HETATM   12  C   UNL     1     -10.044  20.041  66.875  1.00  0.00    -0.601 A  
HETATM   13  C   UNL     1     -10.383  19.075  65.927  1.00  0.00    -0.435 A  
ENDBRANCH   7   8
ENDBRANCH   3   7
ENDBRANCH   2   3
BRANCH   2  14
HETATM   14  C   UNL     1     -11.290  12.992  67.907  1.00  0.00    -0.288 C  
BRANCH  14  15
HETATM   15  O   UNL     1     -11.864  11.794  67.369  1.00  0.00    -0.590 OA 
BRANCH  15  16
HETATM   16  C   UNL     1     -11.023  10.989  66.649  1.00  0.00    -0.190 A  
HETATM   17  C   UNL     1      -9.727   8.940  66.682  1.00  0.00    -0.303 A  
HETATM   18  C   UNL     1     -10.604   9.830  67.306  1.00  0.00    -0.320 A  
HETATM   19  C   UNL     1      -9.721  10.333  64.715  1.00  0.00    -0.397 A  
HETATM   20  C   UNL     1      -9.280   9.196  65.389  1.00  0.00    -0.266 A  
HETATM   21  C   UNL     1     -10.594  11.227  65.342  1.00  0.00    -0.312 A  
ENDBRANCH  15  16
ENDBRANCH  14  15
ENDBRANCH   2  14
TORSDOF 7
ENDMDL
MODEL       50
REMARK 921   NORMALIZED FREE ENERGY PREDICTED BY IDOCK:   -5.19 KCAL/MOL
REMARK 922        TOTAL FREE ENERGY PREDICTED BY IDOCK:   -8.41 KCAL/MOL
REMARK 923 INTER-LIGAND FREE ENERGY PREDICTED BY IDOCK:   -7.69 KCAL/MOL
REMARK 924 INTRA-LIGAND FREE ENERGY PREDICTED BY IDOCK:   -0.72 KCAL/MOL
REMARK 927      BINDING AFFINITY PREDICTED BY RF-SCORE:    0.00 PKD
ROOT
HETATM    1  C   UNL     1     -11.842  15.701  69.803  1.00  0.00    -0.376 C  
HETATM    2  C   UNL     1     -11.160  14.719  68.828  1.00  0.00    -0.265 C  
ENDROOT
BRANCH   2   3
HETATM    3  N   UNL     1     -11.043  15.216  67.416  1.00  0.00    -0.319 NA 
BRANCH   3   4
HETATM    4  C   UNL     1     -10.742  16.671  67.359  1.00  0.00    -0.253 C  
HETATM    5 CL   UNL     1      -9.531  18.901  66.364  1.00  0.00    -0.352 Cl 
HETATM    6  C   UNL     1      -9.718  17.123  66.306  1.00  0.00    -0.278 C  
ENDBRANCH   3   4
BRANCH   3   7
HETATM    7  C   UNL     1     -10.055  14.448  66.629  1.00  0.00    -0.274 C  
BRANCH   7   8
HETATM    8  C   UNL     1     -10.615  13.534  65.558  1.00  0.00    -0.299 A  
HETATM    9  C   UNL     1     -10.081  12.250  65.377  1.00  0.00    -0.292 A  
HETATM   10  C   UNL     1     -10.521  11.428  64.337  1.00  0.00    -0.388 A  
HETATM   11  C   UNL     1     -11.618  13.973  64.684  1.00  0.00    -0.400 A  
HETATM   12  C   UNL     1     -11.506  11.881  63.464  1.00  0.00    -0.523 A  
HETATM   13  C   UNL     1     -12.059  13.150  63.639  1.00  0.00    -0.583 A  
ENDBRANCH   7   8
ENDBRANCH   3   7
ENDBRANCH   2   3
BRANCH   2  14
HETATM   14  C   UNL     1     -11.850  13.329  68.923  1.00  0.00    -0.327 C  
BRANCH  14  15
HETATM   15  O   UNL     1     -12.250  13.084  70.278  1.00  0.00    -0.339 OA 
BRANCH  15  16
HETATM   16  C   UNL     1     -12.278  11.775  70.675  1.00  0.00    -0.349 A  
HETATM   17  C   UNL     1     -11.227   9.603  70.423  1.00  0.00    -0.342 A  
HETATM   18  C   UNL     1     -11.288  10.964  70.113  1.00  0.00    -0.367 A  
HETATM   19  C   UNL     1     -13.111   9.861  71.904  1.00  0.00    -0.559 A  
HETATM   20  C   UNL     1     -12.144   9.051  71.313  1.00  0.00    -0.375 A  
HETATM   21  C   UNL     1     -13.177  11.221  71.588  1.00  0.00    -0.431 A  
ENDBRANCH  15  16
ENDBRANCH  14  15
ENDBRANCH   2  14
TORSDOF 7
ENDMDL
MODEL       51
REMARK 921   NORMALIZED FREE ENERGY PREDICTED BY IDOCK:   -5.19 KCAL/MOL
REMARK 922        TOTAL FREE ENERGY PREDICTED BY IDOCK:   -8.41 KCAL/MOL
REMARK 923 INTER-LIGAND FREE ENERGY PREDICTED BY IDOCK:   -6.23 KCAL/MOL
REMARK 924 INTRA-LIGAND FREE ENERGY PREDICTED BY IDOCK:   -2.18 KCAL/MOL
REMARK 927      BINDING AFFINITY PREDICTED BY RF-SCORE:    0.00 PKD
ROOT
HETATM    1  C   UNL     1     -13.124   9.984  71.941  1.00  0.00    -0.563 C  
HETATM    2  C   UNL     1     -12.235  10.001  70.681  1.00  0.00    -0.269 C  
ENDROOT
BRANCH   2   3
HETATM    3  N   UNL     1     -10.890   9.356  70.854  1.00  0.00    -0.293 NA 
BRANCH   3   4
HETATM    4  C   UNL     1     -10.745   8.714  72.187  1.00  0.00    -0.347 C  
HETATM    5 CL   UNL     1     -10.535   6.601  73.895  1.00  0.00    -0.370 Cl 
HETATM    6  C   UNL     1     -10.771   7.177  72.218  1.00  0.00    -0.221 C  
ENDBRANCH   3   4
BRANCH   3   7
HETATM    7  C   UNL     1     -10.585   8.392  69.775  1.00  0.00    -0.221 C  
BRANCH   7   8
HETATM    8  C   UNL     1      -9.938   8.963  68.528  1.00  0.00    -0.195 A  
HETATM    9  C   UNL     1     -10.409   8.596  67.259  1.00  0.00    -0.366 A  
HETATM   10  C   UNL     1      -9.769   9.039  66.099  1.00  0.00    -0.354 A  
HETATM   11  C   UNL     1      -8.820   9.802  68.613  1.00  0.00    -0.126 A  
HETATM   12  C   UNL     1      -8.648   9.859  66.195  1.00  0.00    -0.138 A  
HETATM   13  C   UNL     1      -8.176  10.245  67.450  1.00  0.00    -0.114 A  
ENDBRANCH   7   8
ENDBRANCH   3   7
ENDBRANCH   2   3
BRANCH   2  14
HETATM   14  C   UNL     1     -12.142  11.452  70.129  1.00  0.00    -0.357 C  
BRANCH  14  15
HETATM   15  O   UNL     1     -12.374  11.442  68.714  1.00  0.00    -0.480 OA 
BRANCH  15  16
HETATM   16  C   UNL     1     -11.513  12.185  67.953  1.00  0.00    -0.328 A  
HETATM   17  C   UNL     1     -10.891  12.801  65.692  1.00  0.00    -0.300 A  
HETATM   18  C   UNL     1     -11.720  12.105  66.574  1.00  0.00    -0.392 A  
HETATM   19  C   UNL     1      -9.674  13.712  67.562  1.00  0.00    -0.227 A  
HETATM   20  C   UNL     1      -9.863  13.599  66.187  1.00  0.00    -0.304 A  
HETATM   21  C   UNL     1     -10.499  13.009  68.445  1.00  0.00    -0.261 A  
ENDBRANCH  15  16
ENDBRANCH  14  15
ENDBRANCH   2  14
TORSDOF 7
ENDMDL
MODEL       52
REMARK 921   NORMALIZED FREE ENERGY PREDICTED BY IDOCK:   -5.19 KCAL/MOL
REMARK 922        TOTAL FREE ENERGY PREDICTED BY IDOCK:   -8.41 KCAL/MOL
REMARK 923 INTER-LIGAND FREE ENERGY PREDICTED BY IDOCK:   -7.57 KCAL/MOL
REMARK 924 INTRA-LIGAND FREE ENERGY PREDICTED BY IDOCK:   -0.84 KCAL/MOL
REMARK 927      BINDING AFFINITY PREDICTED BY RF-SCORE:    0.00 PKD
ROOT
HETATM    1  C   UNL     1     -10.628  17.337  67.773  1.00  0.00    -0.367 C  
HETATM    2  C   UNL     1     -11.147  15.887  67.837  1.00  0.00    -0.317 C  
ENDROOT
BRANCH   2   3
HETATM    3  N   UNL     1     -10.449  15.015  68.841  1.00  0.00    -0.234 NA 
BRANCH   3   4
HETATM    4  C   UNL     1      -9.088  14.623  68.390  1.00  0.00    -0.192 C  
HETATM    5 CL   UNL     1      -7.124  12.853  67.728  1.00  0.00    -0.121 Cl 
HETATM    6  C   UNL     1      -8.785  13.117  68.338  1.00  0.00    -0.120 C  
ENDBRANCH   3   4
BRANCH   3   7
HETATM    7  C   UNL     1     -10.395  15.633  70.183  1.00  0.00    -0.254 C  
BRANCH   7   8
HETATM    8  C   UNL     1     -11.496  15.240  71.147  1.00  0.00    -0.414 A  
HETATM    9  C   UNL     1     -12.253  14.082  70.917  1.00  0.00    -0.436 A  
HETATM   10  C   UNL     1     -13.331  13.751  71.743  1.00  0.00    -0.463 A  
HETATM   11  C   UNL     1     -11.830  16.054  72.237  1.00  0.00    -0.628 A  
HETATM   12  C   UNL     1     -13.664  14.577  72.813  1.00  0.00    -0.466 A  
HETATM   13  C   UNL     1     -12.911  15.725  73.064  1.00  0.00    -0.628 A  
ENDBRANCH   7   8
ENDBRANCH   3   7
ENDBRANCH   2   3
BRANCH   2  14
HETATM   14  C   UNL     1     -11.157  15.274  66.408  1.00  0.00    -0.273 C  
BRANCH  14  15
HETATM   15  O   UNL     1     -11.882  14.037  66.423  1.00  0.00    -0.377 OA 
BRANCH  15  16
HETATM   16  C   UNL     1     -11.639  13.180  65.384  1.00  0.00    -0.333 A  
HETATM   17  C   UNL     1      -9.914  12.037  64.119  1.00  0.00    -0.289 A  
HETATM   18  C   UNL     1     -10.292  12.883  65.164  1.00  0.00    -0.320 A  
HETATM   19  C   UNL     1     -12.233  11.731  63.537  1.00  0.00    -0.489 A  
HETATM   20  C   UNL     1     -10.886  11.467  63.300  1.00  0.00    -0.342 A  
HETATM   21  C   UNL     1     -12.611  12.583  64.578  1.00  0.00    -0.503 A  
ENDBRANCH  15  16
ENDBRANCH  14  15
ENDBRANCH   2  14
TORSDOF 7
ENDMDL
MODEL       53
REMARK 921   NORMALIZED FREE ENERGY PREDICTED BY IDOCK:   -5.19 KCAL/MOL
REMARK 922        TOTAL FREE ENERGY PREDICTED BY IDOCK:   -8.40 KCAL/MOL
REMARK 923 INTER-LIGAND FREE ENERGY PREDICTED BY IDOCK:   -7.60 KCAL/MOL
REMARK 924 INTRA-LIGAND FREE ENERGY PREDICTED BY IDOCK:   -0.80 KCAL/MOL
REMARK 927      BINDING AFFINITY PREDICTED BY RF-SCORE:    0.00 PKD
ROOT
HETATM    1  C   UNL     1     -10.998  10.802  67.906  1.00  0.00    -0.344 C  
HETATM    2  C   UNL     1     -11.786  11.633  68.939  1.00  0.00    -0.329 C  
ENDROOT
BRANCH   2   3
HETATM    3  N   UNL     1     -11.174  12.963  69.273  1.00  0.00    -0.224 NA 
BRANCH   3   4
HETATM    4  C   UNL     1     -10.106  13.344  68.311  1.00  0.00    -0.247 C  
HETATM    5 CL   UNL     1      -9.004  14.836  66.314  1.00  0.00    -0.230 Cl 
HETATM    6  C   UNL     1     -10.423  14.501  67.351  1.00  0.00    -0.264 C  
ENDBRANCH   3   4
BRANCH   3   7
HETATM    7  C   UNL     1     -12.185  14.037  69.381  1.00  0.00    -0.292 C  
BRANCH   7   8
HETATM    8  C   UNL     1     -12.373  14.645  70.756  1.00  0.00    -0.398 A  
HETATM    9  C   UNL     1     -11.817  15.898  71.055  1.00  0.00    -0.468 A  
HETATM   10  C   UNL     1     -11.901  16.433  72.342  1.00  0.00    -0.548 A  
HETATM   11  C   UNL     1     -13.033  13.944  71.774  1.00  0.00    -0.442 A  
HETATM   12  C   UNL     1     -12.545  15.720  73.350  1.00  0.00    -0.663 A  
HETATM   13  C   UNL     1     -13.116  14.479  73.065  1.00  0.00    -0.611 A  
ENDBRANCH   7   8
ENDBRANCH   3   7
ENDBRANCH   2   3
BRANCH   2  14
HETATM   14  C   UNL     1     -12.068  10.766  70.199  1.00  0.00    -0.346 C  
BRANCH  14  15
HETATM   15  O   UNL     1     -10.852  10.139  70.630  1.00  0.00    -0.308 OA 
BRANCH  15  16
HETATM   16  C   UNL     1     -10.979   8.906  71.209  1.00  0.00    -0.293 A  
HETATM   17  C   UNL     1     -11.589   6.589  70.829  1.00  0.00    -0.437 A  
HETATM   18  C   UNL     1     -11.402   7.888  70.350  1.00  0.00    -0.201 A  
HETATM   19  C   UNL     1     -10.880   7.300  73.020  1.00  0.00    -0.399 A  
HETATM   20  C   UNL     1     -11.336   6.298  72.166  1.00  0.00    -0.343 A  
HETATM   21  C   UNL     1     -10.699   8.601  72.543  1.00  0.00    -0.214 A  
ENDBRANCH  15  16
ENDBRANCH  14  15
ENDBRANCH   2  14
TORSDOF 7
ENDMDL
MODEL       54
REMARK 921   NORMALIZED FREE ENERGY PREDICTED BY IDOCK:   -5.17 KCAL/MOL
REMARK 922        TOTAL FREE ENERGY PREDICTED BY IDOCK:   -8.38 KCAL/MOL
REMARK 923 INTER-LIGAND FREE ENERGY PREDICTED BY IDOCK:   -7.69 KCAL/MOL
REMARK 924 INTRA-LIGAND FREE ENERGY PREDICTED BY IDOCK:   -0.69 KCAL/MOL
REMARK 927      BINDING AFFINITY PREDICTED BY RF-SCORE:    0.00 PKD
ROOT
HETATM    1  C   UNL     1      -8.459  14.370  68.223  1.00  0.00    -0.165 C  
HETATM    2  C   UNL     1      -9.975  14.294  67.952  1.00  0.00    -0.230 C  
ENDROOT
BRANCH   2   3
HETATM    3  N   UNL     1     -10.474  15.251  66.907  1.00  0.00    -0.283 NA 
BRANCH   3   4
HETATM    4  C   UNL     1     -11.368  14.586  65.922  1.00  0.00    -0.341 C  
HETATM    5 CL   UNL     1     -11.924  13.124  63.691  1.00  0.00    -0.569 Cl 
HETATM    6  C   UNL     1     -10.690  13.900  64.726  1.00  0.00    -0.423 C  
ENDBRANCH   3   4
BRANCH   3   7
HETATM    7  C   UNL     1     -11.137  16.433  67.497  1.00  0.00    -0.109 C  
BRANCH   7   8
HETATM    8  C   UNL     1     -10.404  17.752  67.358  1.00  0.00    -0.370 A  
HETATM    9  C   UNL     1      -9.675  18.271  68.439  1.00  0.00    -0.373 A  
HETATM   10  C   UNL     1      -9.068  19.527  68.360  1.00  0.00    -0.410 A  
HETATM   11  C   UNL     1     -10.497  18.512  66.185  1.00  0.00    -0.447 A  
HETATM   12  C   UNL     1      -9.183  20.281  67.196  1.00  0.00    -0.519 A  
HETATM   13  C   UNL     1      -9.891  19.773  66.107  1.00  0.00    -0.544 A  
ENDBRANCH   7   8
ENDBRANCH   3   7
ENDBRANCH   2   3
BRANCH   2  14
HETATM   14  C   UNL     1     -10.750  14.409  69.295  1.00  0.00    -0.206 C  
BRANCH  14  15
HETATM   15  O   UNL     1     -12.009  13.732  69.181  1.00  0.00    -0.331 OA 
BRANCH  15  16
HETATM   16  C   UNL     1     -12.148  12.585  69.914  1.00  0.00    -0.252 A  
HETATM   17  C   UNL     1     -13.083  11.625  71.935  1.00  0.00    -0.490 A  
HETATM   18  C   UNL     1     -12.889  12.720  71.091  1.00  0.00    -0.315 A  
HETATM   19  C   UNL     1     -11.842  10.234  70.407  1.00  0.00    -0.396 A  
HETATM   20  C   UNL     1     -12.552  10.383  71.597  1.00  0.00    -0.521 A  
HETATM   21  C   UNL     1     -11.642  11.331  69.565  1.00  0.00    -0.398 A  
ENDBRANCH  15  16
ENDBRANCH  14  15
ENDBRANCH   2  14
TORSDOF 7
ENDMDL
MODEL       55
REMARK 921   NORMALIZED FREE ENERGY PREDICTED BY IDOCK:   -5.16 KCAL/MOL
REMARK 922        TOTAL FREE ENERGY PREDICTED BY IDOCK:   -8.36 KCAL/MOL
REMARK 923 INTER-LIGAND FREE ENERGY PREDICTED BY IDOCK:   -7.40 KCAL/MOL
REMARK 924 INTRA-LIGAND FREE ENERGY PREDICTED BY IDOCK:   -0.97 KCAL/MOL
REMARK 927      BINDING AFFINITY PREDICTED BY RF-SCORE:    0.00 PKD
ROOT
HETATM    1  C   UNL     1     -11.834  14.589  69.637  1.00  0.00    -0.367 C  
HETATM    2  C   UNL     1     -11.102  14.078  68.380  1.00  0.00    -0.253 C  
ENDROOT
BRANCH   2   3
HETATM    3  N   UNL     1      -9.916  14.902  67.967  1.00  0.00    -0.218 NA 
BRANCH   3   4
HETATM    4  C   UNL     1      -8.709  14.066  67.734  1.00  0.00    -0.185 C  
HETATM    5 CL   UNL     1      -6.040  13.520  67.792  1.00  0.00    -0.151 Cl 
HETATM    6  C   UNL     1      -7.354  14.693  68.098  1.00  0.00    -0.125 C  
ENDBRANCH   3   4
BRANCH   3   7
HETATM    7  C   UNL     1     -10.201  15.746  66.787  1.00  0.00    -0.282 C  
BRANCH   7   8
HETATM    8  C   UNL     1     -10.307  17.237  67.039  1.00  0.00    -0.318 A  
HETATM    9  C   UNL     1     -10.475  18.123  65.965  1.00  0.00    -0.346 A  
HETATM   10  C   UNL     1     -10.483  19.506  66.167  1.00  0.00    -0.613 A  
HETATM   11  C   UNL     1     -10.165  17.765  68.329  1.00  0.00    -0.382 A  
HETATM   12  C   UNL     1     -10.324  20.019  67.451  1.00  0.00    -0.533 A  
HETATM   13  C   UNL     1     -10.171  19.151  68.532  1.00  0.00    -0.448 A  
ENDBRANCH   7   8
ENDBRANCH   3   7
ENDBRANCH   2   3
BRANCH   2  14
HETATM   14  C   UNL     1     -12.126  13.875  67.228  1.00  0.00    -0.368 C  
BRANCH  14  15
HETATM   15  O   UNL     1     -12.254  12.476  66.942  1.00  0.00    -0.511 OA 
BRANCH  15  16
HETATM   16  C   UNL     1     -11.551  12.011  65.864  1.00  0.00    -0.300 A  
HETATM   17  C   UNL     1      -9.720  10.587  65.153  1.00  0.00    -0.341 A  
HETATM   18  C   UNL     1     -10.523  11.115  66.167  1.00  0.00    -0.307 A  
HETATM   19  C   UNL     1     -11.001  11.805  63.515  1.00  0.00    -0.499 A  
HETATM   20  C   UNL     1      -9.955  10.940  63.827  1.00  0.00    -0.408 A  
HETATM   21  C   UNL     1     -11.799  12.339  64.529  1.00  0.00    -0.441 A  
ENDBRANCH  15  16
ENDBRANCH  14  15
ENDBRANCH   2  14
TORSDOF 7
ENDMDL
MODEL       56
REMARK 921   NORMALIZED FREE ENERGY PREDICTED BY IDOCK:   -5.15 KCAL/MOL
REMARK 922        TOTAL FREE ENERGY PREDICTED BY IDOCK:   -8.36 KCAL/MOL
REMARK 923 INTER-LIGAND FREE ENERGY PREDICTED BY IDOCK:   -7.61 KCAL/MOL
REMARK 924 INTRA-LIGAND FREE ENERGY PREDICTED BY IDOCK:   -0.75 KCAL/MOL
REMARK 927      BINDING AFFINITY PREDICTED BY RF-SCORE:    0.00 PKD
ROOT
HETATM    1  C   UNL     1      -9.391  13.609  68.311  1.00  0.00    -0.204 C  
HETATM    2  C   UNL     1     -10.671  13.930  67.513  1.00  0.00    -0.267 C  
ENDROOT
BRANCH   2   3
HETATM    3  N   UNL     1     -10.666  15.268  66.831  1.00  0.00    -0.309 NA 
BRANCH   3   4
HETATM    4  C   UNL     1      -9.774  16.241  67.515  1.00  0.00    -0.234 C  
HETATM    5 CL   UNL     1      -9.145  18.646  68.631  1.00  0.00    -0.355 Cl 
HETATM    6  C   UNL     1     -10.345  17.647  67.759  1.00  0.00    -0.365 C  
ENDBRANCH   3   4
BRANCH   3   7
HETATM    7  C   UNL     1     -10.321  15.166  65.396  1.00  0.00    -0.388 C  
BRANCH   7   8
HETATM    8  C   UNL     1     -10.897  13.978  64.652  1.00  0.00    -0.416 A  
HETATM    9  C   UNL     1     -10.052  12.958  64.190  1.00  0.00    -0.212 A  
HETATM   10  C   UNL     1     -10.550  11.902  63.424  1.00  0.00    -0.485 A  
HETATM   11  C   UNL     1     -12.262  13.908  64.344  1.00  0.00    -0.449 A  
HETATM   12  C   UNL     1     -11.906  11.852  63.110  1.00  0.00    -0.269 A  
HETATM   13  C   UNL     1     -12.763  12.851  63.574  1.00  0.00    -0.157 A  
ENDBRANCH   7   8
ENDBRANCH   3   7
ENDBRANCH   2   3
BRANCH   2  14
HETATM   14  C   UNL     1     -11.916  13.721  68.421  1.00  0.00    -0.360 C  
BRANCH  14  15
HETATM   15  O   UNL     1     -11.493  13.299  69.724  1.00  0.00    -0.243 OA 
BRANCH  15  16
HETATM   16  C   UNL     1     -12.127  13.884  70.787  1.00  0.00    -0.330 A  
HETATM   17  C   UNL     1     -12.212  15.844  72.211  1.00  0.00    -0.585 A  
HETATM   18  C   UNL     1     -11.659  15.154  71.131  1.00  0.00    -0.405 A  
HETATM   19  C   UNL     1     -13.745  14.023  72.583  1.00  0.00    -0.586 A  
HETATM   20  C   UNL     1     -13.251  15.274  72.943  1.00  0.00    -0.610 A  
HETATM   21  C   UNL     1     -13.188  13.329  71.506  1.00  0.00    -0.383 A  
ENDBRANCH  15  16
ENDBRANCH  14  15
ENDBRANCH   2  14
TORSDOF 7
ENDMDL
MODEL       57
REMARK 921   NORMALIZED FREE ENERGY PREDICTED BY IDOCK:   -5.15 KCAL/MOL
REMARK 922        TOTAL FREE ENERGY PREDICTED BY IDOCK:   -8.35 KCAL/MOL
REMARK 923 INTER-LIGAND FREE ENERGY PREDICTED BY IDOCK:   -7.32 KCAL/MOL
REMARK 924 INTRA-LIGAND FREE ENERGY PREDICTED BY IDOCK:   -1.03 KCAL/MOL
REMARK 927      BINDING AFFINITY PREDICTED BY RF-SCORE:    0.00 PKD
ROOT
HETATM    1  C   UNL     1     -12.140  10.996  68.823  1.00  0.00    -0.184 C  
HETATM    2  C   UNL     1     -10.797  11.748  68.917  1.00  0.00    -0.223 C  
ENDROOT
BRANCH   2   3
HETATM    3  N   UNL     1     -10.914  13.246  68.902  1.00  0.00    -0.251 NA 
BRANCH   3   4
HETATM    4  C   UNL     1     -10.532  13.823  67.587  1.00  0.00    -0.242 C  
HETATM    5 CL   UNL     1     -10.969  15.214  65.284  1.00  0.00    -0.378 Cl 
HETATM    6  C   UNL     1     -11.636  14.553  66.806  1.00  0.00    -0.376 C  
ENDBRANCH   3   4
BRANCH   3   7
HETATM    7  C   UNL     1     -12.260  13.709  69.303  1.00  0.00    -0.238 C  
BRANCH   7   8
HETATM    8  C   UNL     1     -12.359  14.395  70.651  1.00  0.00    -0.422 A  
HETATM    9  C   UNL     1     -13.060  13.787  71.702  1.00  0.00    -0.456 A  
HETATM   10  C   UNL     1     -13.240  14.444  72.922  1.00  0.00    -0.613 A  
HETATM   11  C   UNL     1     -11.824  15.674  70.853  1.00  0.00    -0.428 A  
HETATM   12  C   UNL     1     -12.718  15.721  73.105  1.00  0.00    -0.618 A  
HETATM   13  C   UNL     1     -12.006  16.334  72.074  1.00  0.00    -0.544 A  
ENDBRANCH   7   8
ENDBRANCH   3   7
ENDBRANCH   2   3
BRANCH   2  14
HETATM   14  C   UNL     1      -9.822  11.209  67.832  1.00  0.00    -0.174 C  
BRANCH  14  15
HETATM   15  O   UNL     1     -10.554  10.434  66.873  1.00  0.00    -0.248 OA 
BRANCH  15  16
HETATM   16  C   UNL     1     -10.177  10.574  65.566  1.00  0.00    -0.256 A  
HETATM   17  C   UNL     1     -10.682  11.670  63.462  1.00  0.00    -0.495 A  
HETATM   18  C   UNL     1     -10.955  11.459  64.815  1.00  0.00    -0.303 A  
HETATM   19  C   UNL     1      -8.814  10.155  63.608  1.00  0.00    -0.240 A  
HETATM   20  C   UNL     1      -9.616  11.011  62.857  1.00  0.00    -0.369 A  
HETATM   21  C   UNL     1      -9.091   9.938  64.960  1.00  0.00    -0.264 A  
ENDBRANCH  15  16
ENDBRANCH  14  15
ENDBRANCH   2  14
TORSDOF 7
ENDMDL
MODEL       58
REMARK 921   NORMALIZED FREE ENERGY PREDICTED BY IDOCK:   -5.13 KCAL/MOL
REMARK 922        TOTAL FREE ENERGY PREDICTED BY IDOCK:   -8.32 KCAL/MOL
REMARK 923 INTER-LIGAND FREE ENERGY PREDICTED BY IDOCK:   -7.42 KCAL/MOL
REMARK 924 INTRA-LIGAND FREE ENERGY PREDICTED BY IDOCK:   -0.90 KCAL/MOL
REMARK 927      BINDING AFFINITY PREDICTED BY RF-SCORE:    0.00 PKD
ROOT
HETATM    1  C   UNL     1     -10.875  14.932  64.766  1.00  0.00    -0.382 C  
HETATM    2  C   UNL     1     -11.797  14.717  65.983  1.00  0.00    -0.276 C  
ENDROOT
BRANCH   2   3
HETATM    3  N   UNL     1     -11.410  15.494  67.208  1.00  0.00    -0.232 NA 
BRANCH   3   4
HETATM    4  C   UNL     1     -11.441  14.655  68.435  1.00  0.00    -0.311 C  
HETATM    5 CL   UNL     1     -12.232  14.012  70.962  1.00  0.00    -0.423 Cl 
HETATM    6  C   UNL     1     -12.284  15.179  69.608  1.00  0.00    -0.257 C  
ENDBRANCH   3   4
BRANCH   3   7
HETATM    7  C   UNL     1     -10.095  16.155  67.063  1.00  0.00    -0.270 C  
BRANCH   7   8
HETATM    8  C   UNL     1     -10.075  17.658  67.263  1.00  0.00    -0.331 A  
HETATM    9  C   UNL     1     -10.001  18.515  66.156  1.00  0.00    -0.341 A  
HETATM   10  C   UNL     1      -9.889  19.898  66.323  1.00  0.00    -0.570 A  
HETATM   11  C   UNL     1     -10.054  18.217  68.547  1.00  0.00    -0.413 A  
HETATM   12  C   UNL     1      -9.852  20.441  67.604  1.00  0.00    -0.538 A  
HETATM   13  C   UNL     1      -9.940  19.602  68.716  1.00  0.00    -0.542 A  
ENDBRANCH   7   8
ENDBRANCH   3   7
ENDBRANCH   2   3
BRANCH   2  14
HETATM   14  C   UNL     1     -11.949  13.194  66.257  1.00  0.00    -0.415 C  
BRANCH  14  15
HETATM   15  O   UNL     1     -10.980  12.470  65.489  1.00  0.00    -0.274 OA 
BRANCH  15  16
HETATM   16  C   UNL     1     -10.572  11.269  66.004  1.00  0.00    -0.258 A  
HETATM   17  C   UNL     1     -10.660   9.809  67.938  1.00  0.00    -0.310 A  
HETATM   18  C   UNL     1     -11.027  10.993  67.296  1.00  0.00    -0.356 A  
HETATM   19  C   UNL     1      -9.422   9.138  65.982  1.00  0.00    -0.321 A  
HETATM   20  C   UNL     1      -9.850   8.885  67.283  1.00  0.00    -0.256 A  
HETATM   21  C   UNL     1      -9.783  10.326  65.342  1.00  0.00    -0.340 A  
ENDBRANCH  15  16
ENDBRANCH  14  15
ENDBRANCH   2  14
TORSDOF 7
ENDMDL
MODEL       59
REMARK 921   NORMALIZED FREE ENERGY PREDICTED BY IDOCK:   -5.12 KCAL/MOL
REMARK 922        TOTAL FREE ENERGY PREDICTED BY IDOCK:   -8.31 KCAL/MOL
REMARK 923 INTER-LIGAND FREE ENERGY PREDICTED BY IDOCK:   -7.39 KCAL/MOL
REMARK 924 INTRA-LIGAND FREE ENERGY PREDICTED BY IDOCK:   -0.92 KCAL/MOL
REMARK 927      BINDING AFFINITY PREDICTED BY RF-SCORE:    0.00 PKD
ROOT
HETATM    1  C   UNL     1      -9.923  12.559  67.206  1.00  0.00    -0.211 C  
HETATM    2  C   UNL     1     -10.532  12.046  68.526  1.00  0.00    -0.229 C  
ENDROOT
BRANCH   2   3
HETATM    3  N   UNL     1     -10.624  10.551  68.635  1.00  0.00    -0.187 NA 
BRANCH   3   4
HETATM    4  C   UNL     1      -9.668   9.864  67.727  1.00  0.00    -0.150 C  
HETATM    5 CL   UNL     1      -8.927   8.005  65.877  1.00  0.00    -0.200 Cl 
HETATM    6  C   UNL     1     -10.207   8.658  66.942  1.00  0.00    -0.296 C  
ENDBRANCH   3   4
BRANCH   3   7
HETATM    7  C   UNL     1     -10.454  10.076  70.025  1.00  0.00    -0.287 C  
BRANCH   7   8
HETATM    8  C   UNL     1     -11.587   9.245  70.593  1.00  0.00    -0.305 A  
HETATM    9  C   UNL     1     -12.679   9.872  71.211  1.00  0.00    -0.482 A  
HETATM   10  C   UNL     1     -13.688   9.122  71.821  1.00  0.00    -0.465 A  
HETATM   11  C   UNL     1     -11.535   7.845  70.582  1.00  0.00    -0.247 A  
HETATM   12  C   UNL     1     -13.617   7.732  71.818  1.00  0.00    -0.390 A  
HETATM   13  C   UNL     1     -12.545   7.093  71.195  1.00  0.00    -0.384 A  
ENDBRANCH   7   8
ENDBRANCH   3   7
ENDBRANCH   2   3
BRANCH   2  14
HETATM   14  C   UNL     1     -11.892  12.754  68.783  1.00  0.00    -0.307 C  
BRANCH  14  15
HETATM   15  O   UNL     1     -11.656  14.081  69.274  1.00  0.00    -0.268 OA 
BRANCH  15  16
HETATM   16  C   UNL     1     -12.166  14.369  70.510  1.00  0.00    -0.341 A  
HETATM   17  C   UNL     1     -12.195  15.988  72.316  1.00  0.00    -0.604 A  
HETATM   18  C   UNL     1     -11.759  15.591  71.050  1.00  0.00    -0.423 A  
HETATM   19  C   UNL     1     -13.496  13.967  72.493  1.00  0.00    -0.676 A  
HETATM   20  C   UNL     1     -13.058  15.171  73.041  1.00  0.00    -0.605 A  
HETATM   21  C   UNL     1     -13.054  13.567  71.230  1.00  0.00    -0.339 A  
ENDBRANCH  15  16
ENDBRANCH  14  15
ENDBRANCH   2  14
TORSDOF 7
ENDMDL
MODEL       60
REMARK 921   NORMALIZED FREE ENERGY PREDICTED BY IDOCK:   -5.12 KCAL/MOL
REMARK 922        TOTAL FREE ENERGY PREDICTED BY IDOCK:   -8.30 KCAL/MOL
REMARK 923 INTER-LIGAND FREE ENERGY PREDICTED BY IDOCK:   -7.20 KCAL/MOL
REMARK 924 INTRA-LIGAND FREE ENERGY PREDICTED BY IDOCK:   -1.10 KCAL/MOL
REMARK 927      BINDING AFFINITY PREDICTED BY RF-SCORE:    0.00 PKD
ROOT
HETATM    1  C   UNL     1      -9.353  15.251  69.682  1.00  0.00    -0.161 C  
HETATM    2  C   UNL     1     -10.297  15.102  68.473  1.00  0.00    -0.230 C  
ENDROOT
BRANCH   2   3
HETATM    3  N   UNL     1      -9.607  14.819  67.169  1.00  0.00    -0.222 NA 
BRANCH   3   4
HETATM    4  C   UNL     1      -8.237  15.396  67.126  1.00  0.00    -0.219 C  
HETATM    5 CL   UNL     1      -6.342  17.191  66.343  1.00  0.00    -0.250 Cl 
HETATM    6  C   UNL     1      -8.033  16.620  66.220  1.00  0.00    -0.305 C  
ENDBRANCH   3   4
BRANCH   3   7
HETATM    7  C   UNL     1      -9.575  13.375  66.851  1.00  0.00    -0.257 C  
BRANCH   7   8
HETATM    8  C   UNL     1     -10.447  12.924  65.697  1.00  0.00    -0.292 A  
HETATM    9  C   UNL     1     -10.098  11.789  64.951  1.00  0.00    -0.298 A  
HETATM   10  C   UNL     1     -10.838  11.409  63.829  1.00  0.00    -0.468 A  
HETATM   11  C   UNL     1     -11.570  13.664  65.305  1.00  0.00    -0.334 A  
HETATM   12  C   UNL     1     -11.941  12.163  63.439  1.00  0.00    -0.578 A  
HETATM   13  C   UNL     1     -12.311  13.286  64.179  1.00  0.00    -0.408 A  
ENDBRANCH   7   8
ENDBRANCH   3   7
ENDBRANCH   2   3
BRANCH   2  14
HETATM   14  C   UNL     1     -11.246  16.331  68.399  1.00  0.00    -0.349 C  
BRANCH  14  15
HETATM   15  O   UNL     1     -10.659  17.432  69.105  1.00  0.00    -0.321 OA 
BRANCH  15  16
HETATM   16  C   UNL     1     -10.142  18.439  68.336  1.00  0.00    -0.390 A  
HETATM   17  C   UNL     1     -10.469  19.779  66.342  1.00  0.00    -0.618 A  
HETATM   18  C   UNL     1     -10.903  18.781  67.216  1.00  0.00    -0.408 A  
HETATM   19  C   UNL     1      -8.531  20.142  67.729  1.00  0.00    -0.311 A  
HETATM   20  C   UNL     1      -9.277  20.455  66.595  1.00  0.00    -0.372 A  
HETATM   21  C   UNL     1      -8.962  19.139  68.600  1.00  0.00    -0.411 A  
ENDBRANCH  15  16
ENDBRANCH  14  15
ENDBRANCH   2  14
TORSDOF 7
ENDMDL
MODEL       61
REMARK 921   NORMALIZED FREE ENERGY PREDICTED BY IDOCK:   -5.11 KCAL/MOL
REMARK 922        TOTAL FREE ENERGY PREDICTED BY IDOCK:   -8.30 KCAL/MOL
REMARK 923 INTER-LIGAND FREE ENERGY PREDICTED BY IDOCK:   -7.22 KCAL/MOL
REMARK 924 INTRA-LIGAND FREE ENERGY PREDICTED BY IDOCK:   -1.07 KCAL/MOL
REMARK 927      BINDING AFFINITY PREDICTED BY RF-SCORE:    0.00 PKD
ROOT
HETATM    1  C   UNL     1     -12.192  13.509  70.193  1.00  0.00    -0.400 C  
HETATM    2  C   UNL     1     -12.029  12.745  68.863  1.00  0.00    -0.244 C  
ENDROOT
BRANCH   2   3
HETATM    3  N   UNL     1     -11.602  11.313  69.010  1.00  0.00    -0.289 NA 
BRANCH   3   4
HETATM    4  C   UNL     1     -10.384  11.008  68.215  1.00  0.00    -0.178 C  
HETATM    5 CL   UNL     1      -8.915   9.613  66.393  1.00  0.00    -0.168 Cl 
HETATM    6  C   UNL     1     -10.451   9.780  67.293  1.00  0.00    -0.261 C  
ENDBRANCH   3   4
BRANCH   3   7
HETATM    7  C   UNL     1     -11.412  10.925  70.425  1.00  0.00    -0.275 C  
BRANCH   7   8
HETATM    8  C   UNL     1     -12.134   9.673  70.880  1.00  0.00    -0.383 A  
HETATM    9  C   UNL     1     -11.517   8.420  70.757  1.00  0.00    -0.277 A  
HETATM   10  C   UNL     1     -12.201   7.246  71.086  1.00  0.00    -0.376 A  
HETATM   11  C   UNL     1     -13.450   9.729  71.358  1.00  0.00    -0.397 A  
HETATM   12  C   UNL     1     -13.514   7.313  71.543  1.00  0.00    -0.439 A  
HETATM   13  C   UNL     1     -14.137   8.553  71.685  1.00  0.00    -0.482 A  
ENDBRANCH   7   8
ENDBRANCH   3   7
ENDBRANCH   2   3
BRANCH   2  14
HETATM   14  C   UNL     1     -11.106  13.555  67.909  1.00  0.00    -0.265 C  
BRANCH  14  15
HETATM   15  O   UNL     1     -11.873  14.039  66.798  1.00  0.00    -0.380 OA 
BRANCH  15  16
HETATM   16  C   UNL     1     -11.772  13.325  65.635  1.00  0.00    -0.356 A  
HETATM   17  C   UNL     1     -10.234  12.375  64.018  1.00  0.00    -0.401 A  
HETATM   18  C   UNL     1     -10.467  13.075  65.204  1.00  0.00    -0.335 A  
HETATM   19  C   UNL     1     -12.610  12.118  63.709  1.00  0.00    -0.585 A  
HETATM   20  C   UNL     1     -11.307  11.903  63.267  1.00  0.00    -0.373 A  
HETATM   21  C   UNL     1     -12.844  12.825  64.892  1.00  0.00    -0.357 A  
ENDBRANCH  15  16
ENDBRANCH  14  15
ENDBRANCH   2  14
TORSDOF 7
ENDMDL
MODEL       62
REMARK 921   NORMALIZED FREE ENERGY PREDICTED BY IDOCK:   -5.09 KCAL/MOL
REMARK 922        TOTAL FREE ENERGY PREDICTED BY IDOCK:   -8.27 KCAL/MOL
REMARK 923 INTER-LIGAND FREE ENERGY PREDICTED BY IDOCK:   -7.57 KCAL/MOL
REMARK 924 INTRA-LIGAND FREE ENERGY PREDICTED BY IDOCK:   -0.70 KCAL/MOL
REMARK 927      BINDING AFFINITY PREDICTED BY RF-SCORE:    0.00 PKD
ROOT
HETATM    1  C   UNL     1     -11.161  11.187  68.874  1.00  0.00    -0.293 C  
HETATM    2  C   UNL     1     -11.120  12.513  68.088  1.00  0.00    -0.243 C  
ENDROOT
BRANCH   2   3
HETATM    3  N   UNL     1      -9.744  13.078  67.881  1.00  0.00    -0.212 NA 
BRANCH   3   4
HETATM    4  C   UNL     1      -8.680  12.087  68.195  1.00  0.00    -0.177 C  
HETATM    5 CL   UNL     1      -6.222  10.942  67.927  1.00  0.00    -0.053 Cl 
HETATM    6  C   UNL     1      -7.387  12.179  67.369  1.00  0.00    -0.151 C  
ENDBRANCH   3   4
BRANCH   3   7
HETATM    7  C   UNL     1      -9.560  13.627  66.521  1.00  0.00    -0.286 C  
BRANCH   7   8
HETATM    8  C   UNL     1     -10.498  13.102  65.453  1.00  0.00    -0.307 A  
HETATM    9  C   UNL     1     -10.249  11.863  64.843  1.00  0.00    -0.310 A  
HETATM   10  C   UNL     1     -11.049  11.404  63.794  1.00  0.00    -0.417 A  
HETATM   11  C   UNL     1     -11.582  13.866  65.001  1.00  0.00    -0.350 A  
HETATM   12  C   UNL     1     -12.113  12.180  63.343  1.00  0.00    -0.608 A  
HETATM   13  C   UNL     1     -12.384  13.407  63.948  1.00  0.00    -0.410 A  
ENDBRANCH   7   8
ENDBRANCH   3   7
ENDBRANCH   2   3
BRANCH   2  14
HETATM   14  C   UNL     1     -12.100  13.532  68.736  1.00  0.00    -0.270 C  
BRANCH  14  15
HETATM   15  O   UNL     1     -11.380  14.378  69.642  1.00  0.00    -0.256 OA 
BRANCH  15  16
HETATM   16  C   UNL     1     -11.981  14.627  70.846  1.00  0.00    -0.326 A  
HETATM   17  C   UNL     1     -12.129  16.176  72.706  1.00  0.00    -0.653 A  
HETATM   18  C   UNL     1     -11.601  15.821  71.463  1.00  0.00    -0.531 A  
HETATM   19  C   UNL     1     -13.468  14.172  72.703  1.00  0.00    -0.634 A  
HETATM   20  C   UNL     1     -13.057  15.346  73.330  1.00  0.00    -0.642 A  
HETATM   21  C   UNL     1     -12.934  13.813  71.462  1.00  0.00    -0.444 A  
ENDBRANCH  15  16
ENDBRANCH  14  15
ENDBRANCH   2  14
TORSDOF 7
ENDMDL
MODEL       63
REMARK 921   NORMALIZED FREE ENERGY PREDICTED BY IDOCK:   -5.09 KCAL/MOL
REMARK 922        TOTAL FREE ENERGY PREDICTED BY IDOCK:   -8.27 KCAL/MOL
REMARK 923 INTER-LIGAND FREE ENERGY PREDICTED BY IDOCK:   -7.01 KCAL/MOL
REMARK 924 INTRA-LIGAND FREE ENERGY PREDICTED BY IDOCK:   -1.26 KCAL/MOL
REMARK 927      BINDING AFFINITY PREDICTED BY RF-SCORE:    0.00 PKD
ROOT
HETATM    1  C   UNL     1      -7.416  15.955  66.944  1.00  0.00    -0.233 C  
HETATM    2  C   UNL     1      -8.604  14.973  66.920  1.00  0.00    -0.249 C  
ENDROOT
BRANCH   2   3
HETATM    3  N   UNL     1      -9.819  15.475  66.195  1.00  0.00    -0.291 NA 
BRANCH   3   4
HETATM    4  C   UNL     1     -10.536  14.384  65.483  1.00  0.00    -0.347 C  
HETATM    5 CL   UNL     1     -12.685  12.809  64.913  1.00  0.00    -0.544 Cl 
HETATM    6  C   UNL     1     -11.986  14.116  65.914  1.00  0.00    -0.409 C  
ENDBRANCH   3   4
BRANCH   3   7
HETATM    7  C   UNL     1     -10.742  16.210  67.087  1.00  0.00    -0.262 C  
BRANCH   7   8
HETATM    8  C   UNL     1     -10.459  17.687  67.274  1.00  0.00    -0.338 A  
HETATM    9  C   UNL     1     -10.497  18.557  66.175  1.00  0.00    -0.447 A  
HETATM   10  C   UNL     1     -10.150  19.904  66.310  1.00  0.00    -0.613 A  
HETATM   11  C   UNL     1     -10.083  18.200  68.522  1.00  0.00    -0.413 A  
HETATM   12  C   UNL     1      -9.761  20.398  67.552  1.00  0.00    -0.571 A  
HETATM   13  C   UNL     1      -9.732  19.549  68.659  1.00  0.00    -0.514 A  
ENDBRANCH   7   8
ENDBRANCH   3   7
ENDBRANCH   2   3
BRANCH   2  14
HETATM   14  C   UNL     1      -8.918  14.501  68.368  1.00  0.00    -0.186 C  
BRANCH  14  15
HETATM   15  O   UNL     1      -8.412  13.172  68.559  1.00  0.00    -0.144 OA 
BRANCH  15  16
HETATM   16  C   UNL     1      -9.206  12.152  68.112  1.00  0.00    -0.197 A  
HETATM   17  C   UNL     1      -9.299  10.185  66.696  1.00  0.00    -0.195 A  
HETATM   18  C   UNL     1      -8.585  11.256  67.238  1.00  0.00    -0.143 A  
HETATM   19  C   UNL     1     -11.249  10.862  67.939  1.00  0.00    -0.387 A  
HETATM   20  C   UNL     1     -10.634   9.993  67.041  1.00  0.00    -0.279 A  
HETATM   21  C   UNL     1     -10.537  11.938  68.477  1.00  0.00    -0.245 A  
ENDBRANCH  15  16
ENDBRANCH  14  15
ENDBRANCH   2  14
TORSDOF 7
ENDMDL
MODEL       64
REMARK 921   NORMALIZED FREE ENERGY PREDICTED BY IDOCK:   -5.07 KCAL/MOL
REMARK 922        TOTAL FREE ENERGY PREDICTED BY IDOCK:   -8.24 KCAL/MOL
REMARK 923 INTER-LIGAND FREE ENERGY PREDICTED BY IDOCK:   -7.34 KCAL/MOL
REMARK 924 INTRA-LIGAND FREE ENERGY PREDICTED BY IDOCK:   -0.90 KCAL/MOL
REMARK 927      BINDING AFFINITY PREDICTED BY RF-SCORE:    0.00 PKD
ROOT
HETATM    1  C   UNL     1      -9.230  16.957  67.388  1.00  0.00    -0.224 C  
HETATM    2  C   UNL     1      -9.578  15.738  68.267  1.00  0.00    -0.201 C  
ENDROOT
BRANCH   2   3
HETATM    3  N   UNL     1      -9.282  14.407  67.639  1.00  0.00    -0.191 NA 
BRANCH   3   4
HETATM    4  C   UNL     1      -8.241  13.655  68.388  1.00  0.00    -0.146 C  
HETATM    5 CL   UNL     1      -6.471  11.620  68.779  1.00  0.00    -0.059 Cl 
HETATM    6  C   UNL     1      -7.747  12.344  67.757  1.00  0.00    -0.139 C  
ENDBRANCH   3   4
BRANCH   3   7
HETATM    7  C   UNL     1     -10.497  13.582  67.467  1.00  0.00    -0.237 C  
BRANCH   7   8
HETATM    8  C   UNL     1     -10.965  13.367  66.042  1.00  0.00    -0.281 A  
HETATM    9  C   UNL     1     -11.570  14.415  65.333  1.00  0.00    -0.347 A  
HETATM   10  C   UNL     1     -12.090  14.211  64.052  1.00  0.00    -0.382 A  
HETATM   11  C   UNL     1     -10.874  12.109  65.432  1.00  0.00    -0.335 A  
HETATM   12  C   UNL     1     -12.009  12.952  63.463  1.00  0.00    -0.629 A  
HETATM   13  C   UNL     1     -11.397  11.903  64.149  1.00  0.00    -0.455 A  
ENDBRANCH   7   8
ENDBRANCH   3   7
ENDBRANCH   2   3
BRANCH   2  14
HETATM   14  C   UNL     1     -11.047  15.857  68.763  1.00  0.00    -0.328 C  
BRANCH  14  15
HETATM   15  O   UNL     1     -11.060  16.381  70.098  1.00  0.00    -0.355 OA 
BRANCH  15  16
HETATM   16  C   UNL     1     -11.830  15.706  71.006  1.00  0.00    -0.400 A  
HETATM   17  C   UNL     1     -13.316  13.817  71.331  1.00  0.00    -0.340 A  
HETATM   18  C   UNL     1     -12.484  14.577  70.506  1.00  0.00    -0.408 A  
HETATM   19  C   UNL     1     -12.808  15.277  73.180  1.00  0.00    -0.606 A  
HETATM   20  C   UNL     1     -13.484  14.173  72.667  1.00  0.00    -0.634 A  
HETATM   21  C   UNL     1     -11.980  16.041  72.353  1.00  0.00    -0.644 A  
ENDBRANCH  15  16
ENDBRANCH  14  15
ENDBRANCH   2  14
TORSDOF 7
ENDMDL
MODEL       65
REMARK 921   NORMALIZED FREE ENERGY PREDICTED BY IDOCK:   -5.05 KCAL/MOL
REMARK 922        TOTAL FREE ENERGY PREDICTED BY IDOCK:   -8.21 KCAL/MOL
REMARK 923 INTER-LIGAND FREE ENERGY PREDICTED BY IDOCK:   -7.59 KCAL/MOL
REMARK 924 INTRA-LIGAND FREE ENERGY PREDICTED BY IDOCK:   -0.62 KCAL/MOL
REMARK 927      BINDING AFFINITY PREDICTED BY RF-SCORE:    0.00 PKD
ROOT
HETATM    1  C   UNL     1     -10.928  15.168  65.989  1.00  0.00    -0.332 C  
HETATM    2  C   UNL     1     -11.590  14.534  67.229  1.00  0.00    -0.385 C  
ENDROOT
BRANCH   2   3
HETATM    3  N   UNL     1     -11.089  15.058  68.544  1.00  0.00    -0.260 NA 
BRANCH   3   4
HETATM    4  C   UNL     1      -9.795  15.777  68.403  1.00  0.00    -0.206 C  
HETATM    5 CL   UNL     1      -7.089  16.040  68.582  1.00  0.00    -0.129 Cl 
HETATM    6  C   UNL     1      -8.537  15.034  68.880  1.00  0.00    -0.189 C  
ENDBRANCH   3   4
BRANCH   3   7
HETATM    7  C   UNL     1     -12.086  15.910  69.228  1.00  0.00    -0.151 C  
BRANCH   7   8
HETATM    8  C   UNL     1     -12.420  15.536  70.658  1.00  0.00    -0.483 A  
HETATM    9  C   UNL     1     -13.697  15.053  70.980  1.00  0.00    -0.417 A  
HETATM   10  C   UNL     1     -14.053  14.789  72.305  1.00  0.00    -0.587 A  
HETATM   11  C   UNL     1     -11.496  15.732  71.692  1.00  0.00    -0.495 A  
HETATM   12  C   UNL     1     -13.132  15.004  73.326  1.00  0.00    -0.607 A  
HETATM   13  C   UNL     1     -11.853  15.470  73.021  1.00  0.00    -0.555 A  
ENDBRANCH   7   8
ENDBRANCH   3   7
ENDBRANCH   2   3
BRANCH   2  14
HETATM   14  C   UNL     1     -11.510  12.985  67.127  1.00  0.00    -0.331 C  
BRANCH  14  15
HETATM   15  O   UNL     1     -11.913  12.570  65.815  1.00  0.00    -0.425 OA 
BRANCH  15  16
HETATM   16  C   UNL     1     -10.988  11.868  65.091  1.00  0.00    -0.312 A  
HETATM   17  C   UNL     1      -9.286  10.143  65.188  1.00  0.00    -0.262 A  
HETATM   18  C   UNL     1     -10.273  10.909  65.812  1.00  0.00    -0.318 A  
HETATM   19  C   UNL     1      -9.754  11.252  63.100  1.00  0.00    -0.408 A  
HETATM   20  C   UNL     1      -9.021  10.321  63.833  1.00  0.00    -0.259 A  
HETATM   21  C   UNL     1     -10.738  12.023  63.726  1.00  0.00    -0.478 A  
ENDBRANCH  15  16
ENDBRANCH  14  15
ENDBRANCH   2  14
TORSDOF 7
ENDMDL
MODEL       66
REMARK 921   NORMALIZED FREE ENERGY PREDICTED BY IDOCK:   -5.04 KCAL/MOL
REMARK 922        TOTAL FREE ENERGY PREDICTED BY IDOCK:   -8.20 KCAL/MOL
REMARK 923 INTER-LIGAND FREE ENERGY PREDICTED BY IDOCK:   -7.39 KCAL/MOL
REMARK 924 INTRA-LIGAND FREE ENERGY PREDICTED BY IDOCK:   -0.81 KCAL/MOL
REMARK 927      BINDING AFFINITY PREDICTED BY RF-SCORE:    0.00 PKD
ROOT
HETATM    1  C   UNL     1     -10.425   9.772  68.855  1.00  0.00    -0.233 C  
HETATM    2  C   UNL     1     -11.763  10.468  69.179  1.00  0.00    -0.189 C  
ENDROOT
BRANCH   2   3
HETATM    3  N   UNL     1     -11.936  11.820  68.547  1.00  0.00    -0.461 NA 
BRANCH   3   4
HETATM    4  C   UNL     1     -12.112  12.892  69.561  1.00  0.00    -0.214 C  
HETATM    5 CL   UNL     1     -12.274  15.475  70.414  1.00  0.00    -0.414 Cl 
HETATM    6  C   UNL     1     -11.982  14.340  69.063  1.00  0.00    -0.325 C  
ENDBRANCH   3   4
BRANCH   3   7
HETATM    7  C   UNL     1     -10.831  12.154  67.622  1.00  0.00    -0.233 C  
BRANCH   7   8
HETATM    8  C   UNL     1     -11.132  12.021  66.142  1.00  0.00    -0.367 A  
HETATM    9  C   UNL     1     -10.269  11.294  65.310  1.00  0.00    -0.328 A  
HETATM   10  C   UNL     1     -10.479  11.237  63.930  1.00  0.00    -0.452 A  
HETATM   11  C   UNL     1     -12.227  12.677  65.565  1.00  0.00    -0.501 A  
HETATM   12  C   UNL     1     -11.560  11.907  63.365  1.00  0.00    -0.477 A  
HETATM   13  C   UNL     1     -12.437  12.623  64.181  1.00  0.00    -0.488 A  
ENDBRANCH   7   8
ENDBRANCH   3   7
ENDBRANCH   2   3
BRANCH   2  14
HETATM   14  C   UNL     1     -11.979  10.490  70.718  1.00  0.00    -0.370 C  
BRANCH  14  15
HETATM   15  O   UNL     1     -12.739   9.340  71.112  1.00  0.00    -0.306 OA 
BRANCH  15  16
HETATM   16  C   UNL     1     -12.050   8.350  71.759  1.00  0.00    -0.328 A  
HETATM   17  C   UNL     1     -12.019   5.988  72.307  1.00  0.00    -0.259 A  
HETATM   18  C   UNL     1     -12.618   7.077  71.670  1.00  0.00    -0.419 A  
HETATM   19  C   UNL     1     -10.247   7.425  73.084  1.00  0.00    -0.363 A  
HETATM   20  C   UNL     1     -10.836   6.165  73.021  1.00  0.00    -0.284 A  
HETATM   21  C   UNL     1     -10.849   8.516  72.452  1.00  0.00    -0.378 A  
ENDBRANCH  15  16
ENDBRANCH  14  15
ENDBRANCH   2  14
TORSDOF 7
ENDMDL
MODEL       67
REMARK 921   NORMALIZED FREE ENERGY PREDICTED BY IDOCK:   -5.03 KCAL/MOL
REMARK 922        TOTAL FREE ENERGY PREDICTED BY IDOCK:   -8.19 KCAL/MOL
REMARK 923 INTER-LIGAND FREE ENERGY PREDICTED BY IDOCK:   -7.43 KCAL/MOL
REMARK 924 INTRA-LIGAND FREE ENERGY PREDICTED BY IDOCK:   -0.75 KCAL/MOL
REMARK 927      BINDING AFFINITY PREDICTED BY RF-SCORE:    0.00 PKD
ROOT
HETATM    1  C   UNL     1     -12.021  14.256  68.075  1.00  0.00    -0.353 C  
HETATM    2  C   UNL     1     -11.634  12.838  68.543  1.00  0.00    -0.321 C  
ENDROOT
BRANCH   2   3
HETATM    3  N   UNL     1     -11.805  12.595  70.015  1.00  0.00    -0.319 NA 
BRANCH   3   4
HETATM    4  C   UNL     1     -12.328  13.794  70.723  1.00  0.00    -0.379 C  
HETATM    5 CL   UNL     1     -13.695  15.094  72.689  1.00  0.00    -0.569 Cl 
HETATM    6  C   UNL     1     -13.208  13.537  71.956  1.00  0.00    -0.439 C  
ENDBRANCH   3   4
BRANCH   3   7
HETATM    7  C   UNL     1     -12.649  11.414  70.296  1.00  0.00    -0.147 C  
BRANCH   7   8
HETATM    8  C   UNL     1     -11.966  10.253  70.991  1.00  0.00    -0.483 A  
HETATM    9  C   UNL     1     -10.660   9.887  70.634  1.00  0.00    -0.341 A  
HETATM   10  C   UNL     1     -10.048   8.764  71.197  1.00  0.00    -0.317 A  
HETATM   11  C   UNL     1     -12.643   9.479  71.942  1.00  0.00    -0.479 A  
HETATM   12  C   UNL     1     -10.737   7.993  72.128  1.00  0.00    -0.339 A  
HETATM   13  C   UNL     1     -12.031   8.352  72.506  1.00  0.00    -0.418 A  
ENDBRANCH   7   8
ENDBRANCH   3   7
ENDBRANCH   2   3
BRANCH   2  14
HETATM   14  C   UNL     1     -10.205  12.496  68.036  1.00  0.00    -0.225 C  
BRANCH  14  15
HETATM   15  O   UNL     1      -9.959  13.177  66.799  1.00  0.00    -0.239 OA 
BRANCH  15  16
HETATM   16  C   UNL     1     -10.107  12.435  65.659  1.00  0.00    -0.257 A  
HETATM   17  C   UNL     1      -9.711  10.273  64.634  1.00  0.00    -0.398 A  
HETATM   18  C   UNL     1      -9.636  11.122  65.740  1.00  0.00    -0.255 A  
HETATM   19  C   UNL     1     -10.780  12.024  63.369  1.00  0.00    -0.475 A  
HETATM   20  C   UNL     1     -10.277  10.727  63.446  1.00  0.00    -0.287 A  
HETATM   21  C   UNL     1     -10.699  12.876  64.473  1.00  0.00    -0.392 A  
ENDBRANCH  15  16
ENDBRANCH  14  15
ENDBRANCH   2  14
TORSDOF 7
ENDMDL
MODEL       68
REMARK 921   NORMALIZED FREE ENERGY PREDICTED BY IDOCK:   -5.03 KCAL/MOL
REMARK 922        TOTAL FREE ENERGY PREDICTED BY IDOCK:   -8.18 KCAL/MOL
REMARK 923 INTER-LIGAND FREE ENERGY PREDICTED BY IDOCK:   -7.60 KCAL/MOL
REMARK 924 INTRA-LIGAND FREE ENERGY PREDICTED BY IDOCK:   -0.57 KCAL/MOL
REMARK 927      BINDING AFFINITY PREDICTED BY RF-SCORE:    0.00 PKD
ROOT
HETATM    1  C   UNL     1     -13.667   8.066  71.545  1.00  0.00    -0.365 C  
HETATM    2  C   UNL     1     -12.489   9.055  71.429  1.00  0.00    -0.317 C  
ENDROOT
BRANCH   2   3
HETATM    3  N   UNL     1     -11.236   8.624  72.134  1.00  0.00    -0.364 NA 
BRANCH   3   4
HETATM    4  C   UNL     1     -11.406   7.320  72.828  1.00  0.00    -0.274 C  
HETATM    5 CL   UNL     1     -10.545   5.117  74.182  1.00  0.00    -0.327 Cl 
HETATM    6  C   UNL     1     -10.127   6.638  73.339  1.00  0.00    -0.228 C  
ENDBRANCH   3   4
BRANCH   3   7
HETATM    7  C   UNL     1     -10.067   8.583  71.229  1.00  0.00    -0.222 C  
BRANCH   7   8
HETATM    8  C   UNL     1     -10.324   8.072  69.825  1.00  0.00    -0.219 A  
HETATM    9  C   UNL     1     -10.297   8.956  68.737  1.00  0.00    -0.232 A  
HETATM   10  C   UNL     1     -10.620   8.522  67.449  1.00  0.00    -0.304 A  
HETATM   11  C   UNL     1     -10.665   6.733  69.593  1.00  0.00    -0.290 A  
HETATM   12  C   UNL     1     -10.975   7.194  67.233  1.00  0.00    -0.333 A  
HETATM   13  C   UNL     1     -10.992   6.297  68.303  1.00  0.00    -0.408 A  
ENDBRANCH   7   8
ENDBRANCH   3   7
ENDBRANCH   2   3
BRANCH   2  14
HETATM   14  C   UNL     1     -12.960  10.476  71.851  1.00  0.00    -0.447 C  
BRANCH  14  15
HETATM   15  O   UNL     1     -12.346  11.455  71.001  1.00  0.00    -0.369 OA 
BRANCH  15  16
HETATM   16  C   UNL     1     -12.759  12.749  71.171  1.00  0.00    -0.263 A  
HETATM   17  C   UNL     1     -12.491  15.034  70.403  1.00  0.00    -0.407 A  
HETATM   18  C   UNL     1     -12.167  13.678  70.312  1.00  0.00    -0.423 A  
HETATM   19  C   UNL     1     -14.044  14.538  72.178  1.00  0.00    -0.616 A  
HETATM   20  C   UNL     1     -13.424  15.464  71.342  1.00  0.00    -0.607 A  
HETATM   21  C   UNL     1     -13.716  13.182  72.092  1.00  0.00    -0.588 A  
ENDBRANCH  15  16
ENDBRANCH  14  15
ENDBRANCH   2  14
TORSDOF 7
ENDMDL
MODEL       69
REMARK 921   NORMALIZED FREE ENERGY PREDICTED BY IDOCK:   -5.02 KCAL/MOL
REMARK 922        TOTAL FREE ENERGY PREDICTED BY IDOCK:   -8.17 KCAL/MOL
REMARK 923 INTER-LIGAND FREE ENERGY PREDICTED BY IDOCK:   -7.39 KCAL/MOL
REMARK 924 INTRA-LIGAND FREE ENERGY PREDICTED BY IDOCK:   -0.78 KCAL/MOL
REMARK 927      BINDING AFFINITY PREDICTED BY RF-SCORE:    0.00 PKD
ROOT
HETATM    1  C   UNL     1     -13.302   9.865  71.435  1.00  0.00    -0.447 C  
HETATM    2  C   UNL     1     -11.858  10.361  71.216  1.00  0.00    -0.289 C  
ENDROOT
BRANCH   2   3
HETATM    3  N   UNL     1     -11.735  11.554  70.313  1.00  0.00    -0.320 NA 
BRANCH   3   4
HETATM    4  C   UNL     1     -11.488  11.163  68.901  1.00  0.00    -0.295 C  
HETATM    5 CL   UNL     1     -11.218  11.619  66.228  1.00  0.00    -0.355 Cl 
HETATM    6  C   UNL     1     -11.596  12.277  67.847  1.00  0.00    -0.354 C  
ENDBRANCH   3   4
BRANCH   3   7
HETATM    7  C   UNL     1     -12.905  12.454  70.408  1.00  0.00     0.255 C  
BRANCH   7   8
HETATM    8  C   UNL     1     -12.696  13.748  71.168  1.00  0.00    -0.438 A  
HETATM    9  C   UNL     1     -11.833  14.731  70.663  1.00  0.00    -0.364 A  
HETATM   10  C   UNL     1     -11.556  15.890  71.393  1.00  0.00    -0.529 A  
HETATM   11  C   UNL     1     -13.294  13.959  72.418  1.00  0.00    -0.629 A  
HETATM   12  C   UNL     1     -12.143  16.080  72.641  1.00  0.00    -0.640 A  
HETATM   13  C   UNL     1     -13.016  15.119  73.151  1.00  0.00    -0.627 A  
ENDBRANCH   7   8
ENDBRANCH   3   7
ENDBRANCH   2   3
BRANCH   2  14
HETATM   14  C   UNL     1     -10.962   9.171  70.770  1.00  0.00    -0.270 C  
BRANCH  14  15
HETATM   15  O   UNL     1     -11.773   8.004  70.583  1.00  0.00    -0.254 OA 
BRANCH  15  16
HETATM   16  C   UNL     1     -11.234   6.818  71.002  1.00  0.00    -0.290 A  
HETATM   17  C   UNL     1     -10.912   5.349  72.904  1.00  0.00    -0.338 A  
HETATM   18  C   UNL     1     -11.434   6.521  72.352  1.00  0.00    -0.306 A  
HETATM   19  C   UNL     1     -10.033   4.731  70.747  1.00  0.00    -0.291 A  
HETATM   20  C   UNL     1     -10.204   4.458  72.102  1.00  0.00    -0.247 A  
HETATM   21  C   UNL     1     -10.548   5.907  70.196  1.00  0.00    -0.362 A  
ENDBRANCH  15  16
ENDBRANCH  14  15
ENDBRANCH   2  14
TORSDOF 7
ENDMDL
MODEL       70
REMARK 921   NORMALIZED FREE ENERGY PREDICTED BY IDOCK:   -4.99 KCAL/MOL
REMARK 922        TOTAL FREE ENERGY PREDICTED BY IDOCK:   -8.12 KCAL/MOL
REMARK 923 INTER-LIGAND FREE ENERGY PREDICTED BY IDOCK:   -7.37 KCAL/MOL
REMARK 924 INTRA-LIGAND FREE ENERGY PREDICTED BY IDOCK:   -0.75 KCAL/MOL
REMARK 927      BINDING AFFINITY PREDICTED BY RF-SCORE:    0.00 PKD
ROOT
HETATM    1  C   UNL     1     -11.769  15.339  68.759  1.00  0.00    -0.374 C  
HETATM    2  C   UNL     1     -10.980  14.022  68.912  1.00  0.00    -0.259 C  
ENDROOT
BRANCH   2   3
HETATM    3  N   UNL     1      -9.983  13.758  67.820  1.00  0.00    -0.236 NA 
BRANCH   3   4
HETATM    4  C   UNL     1      -9.747  12.304  67.619  1.00  0.00    -0.194 C  
HETATM    5 CL   UNL     1      -8.379   9.965  67.911  1.00  0.00    -0.113 Cl 
HETATM    6  C   UNL     1      -8.454  11.726  68.216  1.00  0.00    -0.161 C  
ENDBRANCH   3   4
BRANCH   3   7
HETATM    7  C   UNL     1     -10.359  14.406  66.545  1.00  0.00    -0.281 C  
BRANCH   7   8
HETATM    8  C   UNL     1     -10.968  13.505  65.490  1.00  0.00    -0.295 A  
HETATM    9  C   UNL     1     -10.164  12.964  64.476  1.00  0.00    -0.334 A  
HETATM   10  C   UNL     1     -10.722  12.206  63.443  1.00  0.00    -0.461 A  
HETATM   11  C   UNL     1     -12.346  13.255  65.459  1.00  0.00    -0.533 A  
HETATM   12  C   UNL     1     -12.095  11.979  63.413  1.00  0.00    -0.597 A  
HETATM   13  C   UNL     1     -12.907  12.498  64.422  1.00  0.00    -0.366 A  
ENDBRANCH   7   8
ENDBRANCH   3   7
ENDBRANCH   2   3
BRANCH   2  14
HETATM   14  C   UNL     1     -11.973  12.844  69.120  1.00  0.00    -0.259 C  
BRANCH  14  15
HETATM   15  O   UNL     1     -12.163  12.621  70.524  1.00  0.00    -0.365 OA 
BRANCH  15  16
HETATM   16  C   UNL     1     -12.276  11.316  70.921  1.00  0.00    -0.356 A  
HETATM   17  C   UNL     1     -11.312   9.098  70.740  1.00  0.00    -0.337 A  
HETATM   18  C   UNL     1     -11.291  10.458  70.424  1.00  0.00    -0.417 A  
HETATM   19  C   UNL     1     -13.271   9.449  72.099  1.00  0.00    -0.541 A  
HETATM   20  C   UNL     1     -12.307   8.592  71.572  1.00  0.00    -0.370 A  
HETATM   21  C   UNL     1     -13.255  10.809  71.777  1.00  0.00    -0.523 A  
ENDBRANCH  15  16
ENDBRANCH  14  15
ENDBRANCH   2  14
TORSDOF 7
ENDMDL
MODEL       71
REMARK 921   NORMALIZED FREE ENERGY PREDICTED BY IDOCK:   -4.98 KCAL/MOL
REMARK 922        TOTAL FREE ENERGY PREDICTED BY IDOCK:   -8.11 KCAL/MOL
REMARK 923 INTER-LIGAND FREE ENERGY PREDICTED BY IDOCK:   -7.31 KCAL/MOL
REMARK 924 INTRA-LIGAND FREE ENERGY PREDICTED BY IDOCK:   -0.81 KCAL/MOL
REMARK 927      BINDING AFFINITY PREDICTED BY RF-SCORE:    0.00 PKD
ROOT
HETATM    1  C   UNL     1     -12.240  15.229  69.985  1.00  0.00    -0.385 C  
HETATM    2  C   UNL     1     -11.379  14.511  68.926  1.00  0.00    -0.274 C  
ENDROOT
BRANCH   2   3
HETATM    3  N   UNL     1     -11.426  13.012  68.989  1.00  0.00    -0.285 NA 
BRANCH   3   4
HETATM    4  C   UNL     1     -12.013  12.525  70.266  1.00  0.00    -0.283 C  
HETATM    5 CL   UNL     1     -12.991  10.633  71.966  1.00  0.00    -0.541 Cl 
HETATM    6  C   UNL     1     -12.345  11.026  70.345  1.00  0.00    -0.356 C  
ENDBRANCH   3   4
BRANCH   3   7
HETATM    7  C   UNL     1     -12.133  12.422  67.832  1.00  0.00    -0.019 C  
BRANCH   7   8
HETATM    8  C   UNL     1     -11.266  11.736  66.795  1.00  0.00    -0.388 A  
HETATM    9  C   UNL     1     -11.252  12.198  65.471  1.00  0.00    -0.381 A  
HETATM   10  C   UNL     1     -10.531  11.525  64.482  1.00  0.00    -0.369 A  
HETATM   11  C   UNL     1     -10.525  10.591  67.114  1.00  0.00    -0.302 A  
HETATM   12  C   UNL     1      -9.812  10.378  64.807  1.00  0.00    -0.406 A  
HETATM   13  C   UNL     1      -9.803   9.914  66.123  1.00  0.00    -0.324 A  
ENDBRANCH   7   8
ENDBRANCH   3   7
ENDBRANCH   2   3
BRANCH   2  14
HETATM   14  C   UNL     1      -9.928  15.071  68.969  1.00  0.00    -0.246 C  
BRANCH  14  15
HETATM   15  O   UNL     1      -9.584  15.606  67.684  1.00  0.00    -0.218 OA 
BRANCH  15  16
HETATM   16  C   UNL     1      -9.879  16.926  67.478  1.00  0.00    -0.260 A  
HETATM   17  C   UNL     1     -10.027  19.111  68.520  1.00  0.00    -0.496 A  
HETATM   18  C   UNL     1      -9.734  17.748  68.598  1.00  0.00    -0.346 A  
HETATM   19  C   UNL     1     -10.562  18.856  66.184  1.00  0.00    -0.476 A  
HETATM   20  C   UNL     1     -10.449  19.663  67.313  1.00  0.00    -0.596 A  
HETATM   21  C   UNL     1     -10.276  17.491  66.264  1.00  0.00    -0.356 A  
ENDBRANCH  15  16
ENDBRANCH  14  15
ENDBRANCH   2  14
TORSDOF 7
ENDMDL
MODEL       72
REMARK 921   NORMALIZED FREE ENERGY PREDICTED BY IDOCK:   -4.96 KCAL/MOL
REMARK 922        TOTAL FREE ENERGY PREDICTED BY IDOCK:   -8.09 KCAL/MOL
REMARK 923 INTER-LIGAND FREE ENERGY PREDICTED BY IDOCK:   -7.47 KCAL/MOL
REMARK 924 INTRA-LIGAND FREE ENERGY PREDICTED BY IDOCK:   -0.61 KCAL/MOL
REMARK 927      BINDING AFFINITY PREDICTED BY RF-SCORE:    0.00 PKD
ROOT
HETATM    1  C   UNL     1     -11.575  11.526  68.587  1.00  0.00    -0.375 C  
HETATM    2  C   UNL     1     -11.806  12.941  68.020  1.00  0.00    -0.343 C  
ENDROOT
BRANCH   2   3
HETATM    3  N   UNL     1     -11.355  13.129  66.599  1.00  0.00    -0.312 NA 
BRANCH   3   4
HETATM    4  C   UNL     1     -11.697  14.478  66.078  1.00  0.00    -0.345 C  
HETATM    5 CL   UNL     1     -11.168  16.855  64.854  1.00  0.00    -0.093 Cl 
HETATM    6  C   UNL     1     -10.547  15.292  65.463  1.00  0.00    -0.373 C  
ENDBRANCH   3   4
BRANCH   3   7
HETATM    7  C   UNL     1      -9.912  12.853  66.427  1.00  0.00    -0.267 C  
BRANCH   7   8
HETATM    8  C   UNL     1      -9.549  11.799  65.400  1.00  0.00    -0.210 A  
HETATM    9  C   UNL     1      -9.952  11.947  64.065  1.00  0.00    -0.318 A  
HETATM   10  C   UNL     1      -9.707  10.944  63.124  1.00  0.00    -0.396 A  
HETATM   11  C   UNL     1      -8.875  10.628  65.772  1.00  0.00    -0.198 A  
HETATM   12  C   UNL     1      -9.052   9.778  63.509  1.00  0.00    -0.263 A  
HETATM   13  C   UNL     1      -8.631   9.621  64.830  1.00  0.00    -0.197 A  
ENDBRANCH   7   8
ENDBRANCH   3   7
ENDBRANCH   2   3
BRANCH   2  14
HETATM   14  C   UNL     1     -11.202  13.996  68.989  1.00  0.00    -0.276 C  
BRANCH  14  15
HETATM   15  O   UNL     1     -12.175  15.014  69.256  1.00  0.00    -0.261 OA 
BRANCH  15  16
HETATM   16  C   UNL     1     -12.410  15.297  70.574  1.00  0.00    -0.387 A  
HETATM   17  C   UNL     1     -14.090  15.346  72.322  1.00  0.00    -0.660 A  
HETATM   18  C   UNL     1     -13.721  15.074  71.004  1.00  0.00    -0.417 A  
HETATM   19  C   UNL     1     -11.828  16.015  72.812  1.00  0.00    -0.584 A  
HETATM   20  C   UNL     1     -13.144  15.824  73.225  1.00  0.00    -0.692 A  
HETATM   21  C   UNL     1     -11.459  15.750  71.491  1.00  0.00    -0.504 A  
ENDBRANCH  15  16
ENDBRANCH  14  15
ENDBRANCH   2  14
TORSDOF 7
ENDMDL
MODEL       73
REMARK 921   NORMALIZED FREE ENERGY PREDICTED BY IDOCK:   -4.96 KCAL/MOL
REMARK 922        TOTAL FREE ENERGY PREDICTED BY IDOCK:   -8.08 KCAL/MOL
REMARK 923 INTER-LIGAND FREE ENERGY PREDICTED BY IDOCK:   -7.48 KCAL/MOL
REMARK 924 INTRA-LIGAND FREE ENERGY PREDICTED BY IDOCK:   -0.60 KCAL/MOL
REMARK 927      BINDING AFFINITY PREDICTED BY RF-SCORE:    0.00 PKD
ROOT
HETATM    1  C   UNL     1     -12.752  13.934  65.860  1.00  0.00    -0.466 C  
HETATM    2  C   UNL     1     -11.917  13.674  67.129  1.00  0.00    -0.393 C  
ENDROOT
BRANCH   2   3
HETATM    3  N   UNL     1     -11.520  14.911  67.884  1.00  0.00    -0.330 NA 
BRANCH   3   4
HETATM    4  C   UNL     1     -11.353  14.650  69.338  1.00  0.00    -0.284 C  
HETATM    5 CL   UNL     1     -11.734  15.142  71.991  1.00  0.00    -0.484 Cl 
HETATM    6  C   UNL     1     -12.005  15.656  70.299  1.00  0.00    -0.374 C  
ENDBRANCH   3   4
BRANCH   3   7
HETATM    7  C   UNL     1     -10.306  15.546  67.326  1.00  0.00    -0.267 C  
BRANCH   7   8
HETATM    8  C   UNL     1     -10.319  17.059  67.244  1.00  0.00    -0.311 A  
HETATM    9  C   UNL     1     -10.488  17.696  66.006  1.00  0.00    -0.278 A  
HETATM   10  C   UNL     1     -10.411  19.087  65.896  1.00  0.00    -0.468 A  
HETATM   11  C   UNL     1     -10.088  17.847  68.378  1.00  0.00    -0.385 A  
HETATM   12  C   UNL     1     -10.164  19.859  67.028  1.00  0.00    -0.588 A  
HETATM   13  C   UNL     1     -10.008  19.241  68.269  1.00  0.00    -0.497 A  
ENDBRANCH   7   8
ENDBRANCH   3   7
ENDBRANCH   2   3
BRANCH   2  14
HETATM   14  C   UNL     1     -10.704  12.768  66.777  1.00  0.00    -0.260 C  
BRANCH  14  15
HETATM   15  O   UNL     1     -11.163  11.605  66.076  1.00  0.00    -0.300 OA 
BRANCH  15  16
HETATM   16  C   UNL     1     -10.306  11.080  65.147  1.00  0.00    -0.283 A  
HETATM   17  C   UNL     1      -9.337  11.388  62.945  1.00  0.00    -0.351 A  
HETATM   18  C   UNL     1     -10.166  11.831  63.977  1.00  0.00    -0.387 A  
HETATM   19  C   UNL     1      -8.734   9.463  64.264  1.00  0.00    -0.224 A  
HETATM   20  C   UNL     1      -8.626  10.199  63.087  1.00  0.00    -0.193 A  
HETATM   21  C   UNL     1      -9.570   9.902  65.295  1.00  0.00    -0.361 A  
ENDBRANCH  15  16
ENDBRANCH  14  15
ENDBRANCH   2  14
TORSDOF 7
ENDMDL
MODEL       74
REMARK 921   NORMALIZED FREE ENERGY PREDICTED BY IDOCK:   -4.95 KCAL/MOL
REMARK 922        TOTAL FREE ENERGY PREDICTED BY IDOCK:   -8.07 KCAL/MOL
REMARK 923 INTER-LIGAND FREE ENERGY PREDICTED BY IDOCK:   -7.23 KCAL/MOL
REMARK 924 INTRA-LIGAND FREE ENERGY PREDICTED BY IDOCK:   -0.84 KCAL/MOL
REMARK 927      BINDING AFFINITY PREDICTED BY RF-SCORE:    0.00 PKD
ROOT
HETATM    1  C   UNL     1     -12.170  13.699  64.005  1.00  0.00    -0.443 C  
HETATM    2  C   UNL     1     -11.031  14.286  64.863  1.00  0.00    -0.404 C  
ENDROOT
BRANCH   2   3
HETATM    3  N   UNL     1     -10.772  13.553  66.148  1.00  0.00    -0.286 NA 
BRANCH   3   4
HETATM    4  C   UNL     1     -11.566  14.106  67.276  1.00  0.00    -0.373 C  
HETATM    5 CL   UNL     1     -12.150  14.534  69.904  1.00  0.00    -0.368 Cl 
HETATM    6  C   UNL     1     -11.101  13.738  68.694  1.00  0.00    -0.267 C  
ENDBRANCH   3   4
BRANCH   3   7
HETATM    7  C   UNL     1     -10.994  12.097  66.019  1.00  0.00    -0.293 C  
BRANCH   7   8
HETATM    8  C   UNL     1      -9.804  11.276  65.562  1.00  0.00    -0.274 A  
HETATM    9  C   UNL     1      -9.880  10.522  64.382  1.00  0.00    -0.405 A  
HETATM   10  C   UNL     1      -8.829   9.688  63.992  1.00  0.00    -0.256 A  
HETATM   11  C   UNL     1      -8.641  11.191  66.339  1.00  0.00    -0.172 A  
HETATM   12  C   UNL     1      -7.685   9.599  64.781  1.00  0.00    -0.122 A  
HETATM   13  C   UNL     1      -7.588  10.354  65.950  1.00  0.00    -0.146 A  
ENDBRANCH   7   8
ENDBRANCH   3   7
ENDBRANCH   2   3
BRANCH   2  14
HETATM   14  C   UNL     1     -11.271  15.808  65.074  1.00  0.00    -0.308 C  
BRANCH  14  15
HETATM   15  O   UNL     1     -10.032  16.444  65.418  1.00  0.00    -0.534 OA 
BRANCH  15  16
HETATM   16  C   UNL     1     -10.105  17.451  66.342  1.00  0.00    -0.327 A  
HETATM   17  C   UNL     1     -10.629  19.794  66.684  1.00  0.00    -0.578 A  
HETATM   18  C   UNL     1     -10.535  18.684  65.843  1.00  0.00    -0.395 A  
HETATM   19  C   UNL     1      -9.916  18.439  68.545  1.00  0.00    -0.415 A  
HETATM   20  C   UNL     1     -10.311  19.673  68.034  1.00  0.00    -0.579 A  
HETATM   21  C   UNL     1      -9.815  17.329  67.702  1.00  0.00    -0.279 A  
ENDBRANCH  15  16
ENDBRANCH  14  15
ENDBRANCH   2  14
TORSDOF 7
ENDMDL
MODEL       75
REMARK 921   NORMALIZED FREE ENERGY PREDICTED BY IDOCK:   -4.94 KCAL/MOL
REMARK 922        TOTAL FREE ENERGY PREDICTED BY IDOCK:   -8.06 KCAL/MOL
REMARK 923 INTER-LIGAND FREE ENERGY PREDICTED BY IDOCK:   -7.16 KCAL/MOL
REMARK 924 INTRA-LIGAND FREE ENERGY PREDICTED BY IDOCK:   -0.90 KCAL/MOL
REMARK 927      BINDING AFFINITY PREDICTED BY RF-SCORE:    0.00 PKD
ROOT
HETATM    1  C   UNL     1     -12.231  11.732  70.467  1.00  0.00    -0.438 C  
HETATM    2  C   UNL     1     -11.860  11.013  69.154  1.00  0.00    -0.337 C  
ENDROOT
BRANCH   2   3
HETATM    3  N   UNL     1     -11.123   9.718  69.335  1.00  0.00    -0.207 NA 
BRANCH   3   4
HETATM    4  C   UNL     1     -10.179   9.451  68.217  1.00  0.00    -0.196 C  
HETATM    5 CL   UNL     1      -9.230   8.070  66.068  1.00  0.00    -0.209 Cl 
HETATM    6  C   UNL     1     -10.436   8.186  67.384  1.00  0.00    -0.285 C  
ENDBRANCH   3   4
BRANCH   3   7
HETATM    7  C   UNL     1     -10.423   9.645  70.636  1.00  0.00    -0.312 C  
BRANCH   7   8
HETATM    8  C   UNL     1     -10.743   8.444  71.503  1.00  0.00    -0.313 A  
HETATM    9  C   UNL     1     -10.033   8.224  72.692  1.00  0.00    -0.357 A  
HETATM   10  C   UNL     1     -10.249   7.075  73.457  1.00  0.00    -0.371 A  
HETATM   11  C   UNL     1     -11.691   7.494  71.102  1.00  0.00    -0.315 A  
HETATM   12  C   UNL     1     -11.182   6.130  73.040  1.00  0.00    -0.206 A  
HETATM   13  C   UNL     1     -11.907   6.341  71.867  1.00  0.00    -0.359 A  
ENDBRANCH   7   8
ENDBRANCH   3   7
ENDBRANCH   2   3
BRANCH   2  14
HETATM   14  C   UNL     1     -11.119  12.003  68.211  1.00  0.00    -0.243 C  
BRANCH  14  15
HETATM   15  O   UNL     1     -12.050  12.558  67.273  1.00  0.00    -0.490 OA 
BRANCH  15  16
HETATM   16  C   UNL     1     -11.752  12.386  65.948  1.00  0.00    -0.419 A  
HETATM   17  C   UNL     1     -10.007  11.802  64.368  1.00  0.00    -0.281 A  
HETATM   18  C   UNL     1     -10.439  11.989  65.683  1.00  0.00    -0.293 A  
HETATM   19  C   UNL     1     -12.214  12.352  63.571  1.00  0.00    -0.661 A  
HETATM   20  C   UNL     1     -10.894  11.991  63.312  1.00  0.00    -0.400 A  
HETATM   21  C   UNL     1     -12.645  12.546  64.887  1.00  0.00    -0.469 A  
ENDBRANCH  15  16
ENDBRANCH  14  15
ENDBRANCH   2  14
TORSDOF 7
ENDMDL
MODEL       76
REMARK 921   NORMALIZED FREE ENERGY PREDICTED BY IDOCK:   -4.93 KCAL/MOL
REMARK 922        TOTAL FREE ENERGY PREDICTED BY IDOCK:   -8.04 KCAL/MOL
REMARK 923 INTER-LIGAND FREE ENERGY PREDICTED BY IDOCK:   -6.18 KCAL/MOL
REMARK 924 INTRA-LIGAND FREE ENERGY PREDICTED BY IDOCK:   -1.86 KCAL/MOL
REMARK 927      BINDING AFFINITY PREDICTED BY RF-SCORE:    0.00 PKD
ROOT
HETATM    1  C   UNL     1     -10.549  18.517  65.775  1.00  0.00    -0.265 C  
HETATM    2  C   UNL     1     -10.820  17.085  66.277  1.00  0.00     0.034 C  
ENDROOT
BRANCH   2   3
HETATM    3  N   UNL     1     -10.092  16.714  67.537  1.00  0.00    -0.267 NA 
BRANCH   3   4
HETATM    4  C   UNL     1      -9.551  17.906  68.242  1.00  0.00    -0.312 C  
HETATM    5 CL   UNL     1      -7.576  19.568  69.114  1.00  0.00    -0.370 Cl 
HETATM    6  C   UNL     1      -8.022  18.057  68.268  1.00  0.00    -0.290 C  
ENDBRANCH   3   4
BRANCH   3   7
HETATM    7  C   UNL     1     -10.926  15.903  68.451  1.00  0.00    -0.331 C  
BRANCH   7   8
HETATM    8  C   UNL     1     -10.900  14.404  68.229  1.00  0.00    -0.250 A  
HETATM    9  C   UNL     1      -9.686  13.703  68.291  1.00  0.00    -0.231 A  
HETATM   10  C   UNL     1      -9.628  12.338  67.999  1.00  0.00    -0.206 A  
HETATM   11  C   UNL     1     -12.063  13.702  67.885  1.00  0.00    -0.318 A  
HETATM   12  C   UNL     1     -10.788  11.655  67.642  1.00  0.00    -0.273 A  
HETATM   13  C   UNL     1     -12.005  12.334  67.590  1.00  0.00    -0.218 A  
ENDBRANCH   7   8
ENDBRANCH   3   7
ENDBRANCH   2   3
BRANCH   2  14
HETATM   14  C   UNL     1     -10.579  16.073  65.121  1.00  0.00    -0.370 C  
BRANCH  14  15
HETATM   15  O   UNL     1     -11.806  15.397  64.814  1.00  0.00    -0.280 OA 
BRANCH  15  16
HETATM   16  C   UNL     1     -11.693  14.095  64.407  1.00  0.00    -0.392 A  
HETATM   17  C   UNL     1     -10.157  12.251  64.060  1.00  0.00    -0.351 A  
HETATM   18  C   UNL     1     -10.403  13.563  64.469  1.00  0.00    -0.381 A  
HETATM   19  C   UNL     1     -12.501  11.969  63.573  1.00  0.00    -0.654 A  
HETATM   20  C   UNL     1     -11.206  11.456  63.604  1.00  0.00    -0.366 A  
HETATM   21  C   UNL     1     -12.746  13.285  63.976  1.00  0.00    -0.092 A  
ENDBRANCH  15  16
ENDBRANCH  14  15
ENDBRANCH   2  14
TORSDOF 7
ENDMDL
MODEL       77
REMARK 921   NORMALIZED FREE ENERGY PREDICTED BY IDOCK:   -4.93 KCAL/MOL
REMARK 922        TOTAL FREE ENERGY PREDICTED BY IDOCK:   -8.04 KCAL/MOL
REMARK 923 INTER-LIGAND FREE ENERGY PREDICTED BY IDOCK:   -7.50 KCAL/MOL
REMARK 924 INTRA-LIGAND FREE ENERGY PREDICTED BY IDOCK:   -0.54 KCAL/MOL
REMARK 927      BINDING AFFINITY PREDICTED BY RF-SCORE:    0.00 PKD
ROOT
HETATM    1  C   UNL     1      -9.061   9.935  69.807  1.00  0.00    -0.249 C  
HETATM    2  C   UNL     1     -10.592   9.871  69.979  1.00  0.00    -0.288 C  
ENDROOT
BRANCH   2   3
HETATM    3  N   UNL     1     -11.301  11.179  69.777  1.00  0.00    -0.274 NA 
BRANCH   3   4
HETATM    4  C   UNL     1     -11.842  11.315  68.399  1.00  0.00    -0.261 C  
HETATM    5 CL   UNL     1     -11.774  12.097  65.789  1.00  0.00    -0.432 Cl 
HETATM    6  C   UNL     1     -10.977  12.087  67.391  1.00  0.00    -0.261 C  
ENDBRANCH   3   4
BRANCH   3   7
HETATM    7  C   UNL     1     -12.366  11.403  70.779  1.00  0.00    -0.386 C  
BRANCH   7   8
HETATM    8  C   UNL     1     -12.666  12.848  71.126  1.00  0.00    -0.366 A  
HETATM    9  C   UNL     1     -13.600  13.152  72.128  1.00  0.00    -0.637 A  
HETATM   10  C   UNL     1     -13.957  14.475  72.400  1.00  0.00    -0.580 A  
HETATM   11  C   UNL     1     -12.080  13.901  70.412  1.00  0.00    -0.421 A  
HETATM   12  C   UNL     1     -13.381  15.512  71.672  1.00  0.00    -0.585 A  
HETATM   13  C   UNL     1     -12.440  15.227  70.683  1.00  0.00    -0.458 A  
ENDBRANCH   7   8
ENDBRANCH   3   7
ENDBRANCH   2   3
BRANCH   2  14
HETATM   14  C   UNL     1     -10.936   9.203  71.341  1.00  0.00    -0.344 C  
BRANCH  14  15
HETATM   15  O   UNL     1     -11.745   8.041  71.114  1.00  0.00    -0.281 OA 
BRANCH  15  16
HETATM   16  C   UNL     1     -11.074   6.881  70.834  1.00  0.00    -0.272 A  
HETATM   17  C   UNL     1      -9.613   5.169  71.737  1.00  0.00    -0.199 A  
HETATM   18  C   UNL     1     -10.356   6.340  71.903  1.00  0.00    -0.234 A  
HETATM   19  C   UNL     1     -10.344   5.038  69.444  1.00  0.00    -0.215 A  
HETATM   20  C   UNL     1      -9.601   4.523  70.503  1.00  0.00    -0.274 A  
HETATM   21  C   UNL     1     -11.082   6.214  69.608  1.00  0.00    -0.489 A  
ENDBRANCH  15  16
ENDBRANCH  14  15
ENDBRANCH   2  14
TORSDOF 7
ENDMDL
MODEL       78
REMARK 921   NORMALIZED FREE ENERGY PREDICTED BY IDOCK:   -4.92 KCAL/MOL
REMARK 922        TOTAL FREE ENERGY PREDICTED BY IDOCK:   -8.03 KCAL/MOL
REMARK 923 INTER-LIGAND FREE ENERGY PREDICTED BY IDOCK:   -7.26 KCAL/MOL
REMARK 924 INTRA-LIGAND FREE ENERGY PREDICTED BY IDOCK:   -0.78 KCAL/MOL
REMARK 927      BINDING AFFINITY PREDICTED BY RF-SCORE:    0.00 PKD
ROOT
HETATM    1  C   UNL     1      -9.354  12.368  68.140  1.00  0.00    -0.209 C  
HETATM    2  C   UNL     1     -10.650  13.114  68.515  1.00  0.00    -0.259 C  
ENDROOT
BRANCH   2   3
HETATM    3  N   UNL     1     -11.385  12.540  69.693  1.00  0.00    -0.170 NA 
BRANCH   3   4
HETATM    4  C   UNL     1     -12.448  13.454  70.187  1.00  0.00    -0.174 C  
HETATM    5 CL   UNL     1     -13.406  15.626  71.526  1.00  0.00    -0.565 Cl 
HETATM    6  C   UNL     1     -11.995  14.622  71.077  1.00  0.00    -0.339 C  
ENDBRANCH   3   4
BRANCH   3   7
HETATM    7  C   UNL     1     -11.941  11.199  69.410  1.00  0.00    -0.349 C  
BRANCH   7   8
HETATM    8  C   UNL     1     -11.842  10.183  70.531  1.00  0.00    -0.408 A  
HETATM    9  C   UNL     1     -10.614   9.571  70.820  1.00  0.00    -0.387 A  
HETATM   10  C   UNL     1     -10.520   8.567  71.787  1.00  0.00    -0.370 A  
HETATM   11  C   UNL     1     -12.977   9.779  71.245  1.00  0.00    -0.470 A  
HETATM   12  C   UNL     1     -11.659   8.162  72.478  1.00  0.00    -0.468 A  
HETATM   13  C   UNL     1     -12.886   8.771  72.212  1.00  0.00    -0.465 A  
ENDBRANCH   7   8
ENDBRANCH   3   7
ENDBRANCH   2   3
BRANCH   2  14
HETATM   14  C   UNL     1     -11.550  13.260  67.256  1.00  0.00    -0.359 C  
BRANCH  14  15
HETATM   15  O   UNL     1     -11.930  14.633  67.095  1.00  0.00    -0.391 OA 
BRANCH  15  16
HETATM   16  C   UNL     1     -10.908  15.541  67.037  1.00  0.00    -0.314 A  
HETATM   17  C   UNL     1      -9.985  17.555  68.025  1.00  0.00    -0.310 A  
HETATM   18  C   UNL     1     -10.960  16.555  67.996  1.00  0.00    -0.320 A  
HETATM   19  C   UNL     1      -8.863  16.505  66.168  1.00  0.00    -0.342 A  
HETATM   20  C   UNL     1      -8.940  17.533  67.105  1.00  0.00    -0.245 A  
HETATM   21  C   UNL     1      -9.842  15.509  66.135  1.00  0.00    -0.342 A  
ENDBRANCH  15  16
ENDBRANCH  14  15
ENDBRANCH   2  14
TORSDOF 7
ENDMDL
MODEL       79
REMARK 921   NORMALIZED FREE ENERGY PREDICTED BY IDOCK:   -4.92 KCAL/MOL
REMARK 922        TOTAL FREE ENERGY PREDICTED BY IDOCK:   -8.03 KCAL/MOL
REMARK 923 INTER-LIGAND FREE ENERGY PREDICTED BY IDOCK:   -7.11 KCAL/MOL
REMARK 924 INTRA-LIGAND FREE ENERGY PREDICTED BY IDOCK:   -0.92 KCAL/MOL
REMARK 927      BINDING AFFINITY PREDICTED BY RF-SCORE:    0.00 PKD
ROOT
HETATM    1  C   UNL     1      -8.056  10.955  68.557  1.00  0.00    -0.137 C  
HETATM    2  C   UNL     1      -8.520   9.531  68.190  1.00  0.00    -0.119 C  
ENDROOT
BRANCH   2   3
HETATM    3  N   UNL     1      -9.617   9.473  67.166  1.00  0.00    -0.154 NA 
BRANCH   3   4
HETATM    4  C   UNL     1     -10.369   8.191  67.224  1.00  0.00    -0.303 C  
HETATM    5 CL   UNL     1     -10.740   5.529  66.777  1.00  0.00    -0.354 Cl 
HETATM    6  C   UNL     1      -9.709   6.974  66.558  1.00  0.00    -0.125 C  
ENDBRANCH   3   4
BRANCH   3   7
HETATM    7  C   UNL     1     -10.541  10.623  67.267  1.00  0.00    -0.263 C  
BRANCH   7   8
HETATM    8  C   UNL     1     -10.898  11.312  65.964  1.00  0.00    -0.273 A  
HETATM    9  C   UNL     1     -11.893  12.300  65.940  1.00  0.00    -0.420 A  
HETATM   10  C   UNL     1     -12.299  12.881  64.736  1.00  0.00    -0.516 A  
HETATM   11  C   UNL     1     -10.303  10.928  64.756  1.00  0.00    -0.391 A  
HETATM   12  C   UNL     1     -11.713  12.480  63.539  1.00  0.00    -0.595 A  
HETATM   13  C   UNL     1     -10.712  11.508  63.548  1.00  0.00    -0.483 A  
ENDBRANCH   7   8
ENDBRANCH   3   7
ENDBRANCH   2   3
BRANCH   2  14
HETATM   14  C   UNL     1      -8.862   8.744  69.487  1.00  0.00    -0.144 C  
BRANCH  14  15
HETATM   15  O   UNL     1      -9.283   9.661  70.505  1.00  0.00    -0.249 OA 
BRANCH  15  16
HETATM   16  C   UNL     1     -10.507   9.420  71.068  1.00  0.00    -0.322 A  
HETATM   17  C   UNL     1     -12.793  10.208  71.255  1.00  0.00    -0.508 A  
HETATM   18  C   UNL     1     -11.507  10.334  70.726  1.00  0.00    -0.438 A  
HETATM   19  C   UNL     1     -12.108   8.219  72.432  1.00  0.00    -0.430 A  
HETATM   20  C   UNL     1     -13.091   9.153  72.115  1.00  0.00    -0.516 A  
HETATM   21  C   UNL     1     -10.819   8.349  71.908  1.00  0.00    -0.372 A  
ENDBRANCH  15  16
ENDBRANCH  14  15
ENDBRANCH   2  14
TORSDOF 7
ENDMDL
MODEL       80
REMARK 921   NORMALIZED FREE ENERGY PREDICTED BY IDOCK:   -4.90 KCAL/MOL
REMARK 922        TOTAL FREE ENERGY PREDICTED BY IDOCK:   -8.00 KCAL/MOL
REMARK 923 INTER-LIGAND FREE ENERGY PREDICTED BY IDOCK:   -6.94 KCAL/MOL
REMARK 924 INTRA-LIGAND FREE ENERGY PREDICTED BY IDOCK:   -1.06 KCAL/MOL
REMARK 927      BINDING AFFINITY PREDICTED BY RF-SCORE:    0.00 PKD
ROOT
HETATM    1  C   UNL     1      -8.016  11.430  67.329  1.00  0.00    -0.149 C  
HETATM    2  C   UNL     1      -9.112  11.447  68.414  1.00  0.00    -0.179 C  
ENDROOT
BRANCH   2   3
HETATM    3  N   UNL     1      -9.719  10.106  68.713  1.00  0.00    -0.165 NA 
BRANCH   3   4
HETATM    4  C   UNL     1      -9.197   9.043  67.814  1.00  0.00    -0.140 C  
HETATM    5 CL   UNL     1      -9.400   7.110  65.905  1.00  0.00    -0.014 Cl 
HETATM    6  C   UNL     1     -10.227   8.308  66.943  1.00  0.00    -0.318 C  
ENDBRANCH   3   4
BRANCH   3   7
HETATM    7  C   UNL     1      -9.555   9.717  70.130  1.00  0.00    -0.237 C  
BRANCH   7   8
HETATM    8  C   UNL     1     -10.829   9.575  70.938  1.00  0.00    -0.407 A  
HETATM    9  C   UNL     1     -11.005   8.474  71.789  1.00  0.00    -0.376 A  
HETATM   10  C   UNL     1     -12.208   8.277  72.471  1.00  0.00    -0.367 A  
HETATM   11  C   UNL     1     -11.881  10.490  70.799  1.00  0.00    -0.465 A  
HETATM   12  C   UNL     1     -13.252   9.183  72.312  1.00  0.00    -0.528 A  
HETATM   13  C   UNL     1     -13.088  10.292  71.481  1.00  0.00    -0.534 A  
ENDBRANCH   7   8
ENDBRANCH   3   7
ENDBRANCH   2   3
BRANCH   2  14
HETATM   14  C   UNL     1     -10.175  12.526  68.063  1.00  0.00    -0.225 C  
BRANCH  14  15
HETATM   15  O   UNL     1     -11.272  11.911  67.374  1.00  0.00    -0.265 OA 
BRANCH  15  16
HETATM   16  C   UNL     1     -11.508  12.347  66.099  1.00  0.00    -0.379 A  
HETATM   17  C   UNL     1     -11.270  11.814  63.745  1.00  0.00    -0.518 A  
HETATM   18  C   UNL     1     -11.103  11.471  65.088  1.00  0.00    -0.260 A  
HETATM   19  C   UNL     1     -12.300  13.889  64.408  1.00  0.00    -0.400 A  
HETATM   20  C   UNL     1     -11.862  13.028  63.405  1.00  0.00    -0.543 A  
HETATM   21  C   UNL     1     -12.127  13.550  65.753  1.00  0.00    -0.473 A  
ENDBRANCH  15  16
ENDBRANCH  14  15
ENDBRANCH   2  14
TORSDOF 7
ENDMDL
MODEL       81
REMARK 921   NORMALIZED FREE ENERGY PREDICTED BY IDOCK:   -4.88 KCAL/MOL
REMARK 922        TOTAL FREE ENERGY PREDICTED BY IDOCK:   -7.98 KCAL/MOL
REMARK 923 INTER-LIGAND FREE ENERGY PREDICTED BY IDOCK:   -7.31 KCAL/MOL
REMARK 924 INTRA-LIGAND FREE ENERGY PREDICTED BY IDOCK:   -0.67 KCAL/MOL
REMARK 927      BINDING AFFINITY PREDICTED BY RF-SCORE:    0.00 PKD
ROOT
HETATM    1  C   UNL     1     -12.107  10.872  70.347  1.00  0.00    -0.453 C  
HETATM    2  C   UNL     1     -11.976  11.702  69.053  1.00  0.00    -0.305 C  
ENDROOT
BRANCH   2   3
HETATM    3  N   UNL     1     -10.804  11.335  68.189  1.00  0.00    -0.202 NA 
BRANCH   3   4
HETATM    4  C   UNL     1     -10.216  10.024  68.572  1.00  0.00    -0.175 C  
HETATM    5 CL   UNL     1      -9.561   7.408  68.181  1.00  0.00    -0.144 Cl 
HETATM    6  C   UNL     1     -10.372   8.877  67.561  1.00  0.00    -0.263 C  
ENDBRANCH   3   4
BRANCH   3   7
HETATM    7  C   UNL     1     -11.139  11.356  66.749  1.00  0.00    -0.281 C  
BRANCH   7   8
HETATM    8  C   UNL     1     -11.159  12.718  66.085  1.00  0.00    -0.322 A  
HETATM    9  C   UNL     1     -12.251  13.100  65.293  1.00  0.00    -0.502 A  
HETATM   10  C   UNL     1     -12.248  14.312  64.599  1.00  0.00    -0.470 A  
HETATM   11  C   UNL     1     -10.066  13.588  66.184  1.00  0.00    -0.307 A  
HETATM   12  C   UNL     1     -11.149  15.161  64.692  1.00  0.00    -0.338 A  
HETATM   13  C   UNL     1     -10.060  14.803  65.487  1.00  0.00    -0.409 A  
ENDBRANCH   7   8
ENDBRANCH   3   7
ENDBRANCH   2   3
BRANCH   2  14
HETATM   14  C   UNL     1     -12.019  13.217  69.400  1.00  0.00    -0.291 C  
BRANCH  14  15
HETATM   15  O   UNL     1     -12.944  13.436  70.474  1.00  0.00    -0.084 OA 
BRANCH  15  16
HETATM   16  C   UNL     1     -12.618  14.424  71.363  1.00  0.00    -0.354 A  
HETATM   17  C   UNL     1     -12.814  15.166  73.663  1.00  0.00    -0.621 A  
HETATM   18  C   UNL     1     -13.066  14.218  72.670  1.00  0.00    -0.567 A  
HETATM   19  C   UNL     1     -11.614  16.513  72.065  1.00  0.00    -0.221 A  
HETATM   20  C   UNL     1     -12.094  16.318  73.358  1.00  0.00    -0.572 A  
HETATM   21  C   UNL     1     -11.872  15.567  71.069  1.00  0.00    -0.427 A  
ENDBRANCH  15  16
ENDBRANCH  14  15
ENDBRANCH   2  14
TORSDOF 7
ENDMDL
MODEL       82
REMARK 921   NORMALIZED FREE ENERGY PREDICTED BY IDOCK:   -4.88 KCAL/MOL
REMARK 922        TOTAL FREE ENERGY PREDICTED BY IDOCK:   -7.97 KCAL/MOL
REMARK 923 INTER-LIGAND FREE ENERGY PREDICTED BY IDOCK:   -7.34 KCAL/MOL
REMARK 924 INTRA-LIGAND FREE ENERGY PREDICTED BY IDOCK:   -0.63 KCAL/MOL
REMARK 927      BINDING AFFINITY PREDICTED BY RF-SCORE:    0.00 PKD
ROOT
HETATM    1  C   UNL     1     -11.354  14.700  66.018  1.00  0.00    -0.344 C  
HETATM    2  C   UNL     1      -9.998  14.326  66.651  1.00  0.00    -0.275 C  
ENDROOT
BRANCH   2   3
HETATM    3  N   UNL     1     -10.095  13.661  67.994  1.00  0.00    -0.243 NA 
BRANCH   3   4
HETATM    4  C   UNL     1     -10.182  14.649  69.101  1.00  0.00    -0.193 C  
HETATM    5 CL   UNL     1     -11.484  16.196  70.928  1.00  0.00    -0.444 Cl 
HETATM    6  C   UNL     1     -11.593  15.043  69.566  1.00  0.00    -0.311 C  
ENDBRANCH   3   4
BRANCH   3   7
HETATM    7  C   UNL     1     -11.215  12.698  68.066  1.00  0.00    -0.265 C  
BRANCH   7   8
HETATM    8  C   UNL     1     -11.113  11.632  69.138  1.00  0.00    -0.302 A  
HETATM    9  C   UNL     1     -10.051  10.716  69.123  1.00  0.00    -0.234 A  
HETATM   10  C   UNL     1      -9.989   9.670  70.048  1.00  0.00    -0.288 A  
HETATM   11  C   UNL     1     -12.108  11.490  70.115  1.00  0.00    -0.432 A  
HETATM   12  C   UNL     1     -10.992   9.529  71.003  1.00  0.00    -0.424 A  
HETATM   13  C   UNL     1     -12.048  10.441  71.041  1.00  0.00    -0.488 A  
ENDBRANCH   7   8
ENDBRANCH   3   7
ENDBRANCH   2   3
BRANCH   2  14
HETATM   14  C   UNL     1      -9.067  15.571  66.659  1.00  0.00    -0.279 C  
BRANCH  14  15
HETATM   15  O   UNL     1      -9.650  16.610  65.861  1.00  0.00    -0.439 OA 
BRANCH  15  16
HETATM   16  C   UNL     1      -9.582  17.877  66.373  1.00  0.00    -0.286 A  
HETATM   17  C   UNL     1      -8.112  19.742  66.865  1.00  0.00    -0.328 A  
HETATM   18  C   UNL     1      -8.313  18.460  66.350  1.00  0.00    -0.272 A  
HETATM   19  C   UNL     1     -10.461  19.896  67.382  1.00  0.00    -0.542 A  
HETATM   20  C   UNL     1      -9.186  20.457  67.388  1.00  0.00    -0.513 A  
HETATM   21  C   UNL     1     -10.661  18.610  66.873  1.00  0.00    -0.437 A  
ENDBRANCH  15  16
ENDBRANCH  14  15
ENDBRANCH   2  14
TORSDOF 7
ENDMDL
MODEL       83
REMARK 921   NORMALIZED FREE ENERGY PREDICTED BY IDOCK:   -4.87 KCAL/MOL
REMARK 922        TOTAL FREE ENERGY PREDICTED BY IDOCK:   -7.96 KCAL/MOL
REMARK 923 INTER-LIGAND FREE ENERGY PREDICTED BY IDOCK:   -7.33 KCAL/MOL
REMARK 924 INTRA-LIGAND FREE ENERGY PREDICTED BY IDOCK:   -0.63 KCAL/MOL
REMARK 927      BINDING AFFINITY PREDICTED BY RF-SCORE:    0.00 PKD
ROOT
HETATM    1  C   UNL     1     -13.551   9.198  71.719  1.00  0.00    -0.476 C  
HETATM    2  C   UNL     1     -12.274   9.608  70.958  1.00  0.00    -0.323 C  
ENDROOT
BRANCH   2   3
HETATM    3  N   UNL     1     -10.990   9.215  71.630  1.00  0.00    -0.358 NA 
BRANCH   3   4
HETATM    4  C   UNL     1     -11.175   8.076  72.568  1.00  0.00    -0.388 C  
HETATM    5 CL   UNL     1     -10.359   6.244  74.413  1.00  0.00    -0.324 Cl 
HETATM    6  C   UNL     1      -9.922   7.577  73.303  1.00  0.00    -0.313 C  
ENDBRANCH   3   4
BRANCH   3   7
HETATM    7  C   UNL     1      -9.914   8.921  70.659  1.00  0.00    -0.216 C  
BRANCH   7   8
HETATM    8  C   UNL     1     -10.324   8.161  69.414  1.00  0.00    -0.219 A  
HETATM    9  C   UNL     1     -10.740   6.825  69.509  1.00  0.00    -0.294 A  
HETATM   10  C   UNL     1     -11.034   6.080  68.364  1.00  0.00    -0.340 A  
HETATM   11  C   UNL     1     -10.227   8.745  68.144  1.00  0.00    -0.250 A  
HETATM   12  C   UNL     1     -10.917   6.666  67.107  1.00  0.00    -0.478 A  
HETATM   13  C   UNL     1     -10.520   7.999  66.996  1.00  0.00    -0.410 A  
ENDBRANCH   7   8
ENDBRANCH   3   7
ENDBRANCH   2   3
BRANCH   2  14
HETATM   14  C   UNL     1     -12.337  11.123  70.615  1.00  0.00    -0.388 C  
BRANCH  14  15
HETATM   15  O   UNL     1     -12.236  11.297  69.195  1.00  0.00    -0.379 OA 
BRANCH  15  16
HETATM   16  C   UNL     1     -12.025  12.575  68.755  1.00  0.00    -0.238 A  
HETATM   17  C   UNL     1     -11.708  14.881  69.438  1.00  0.00    -0.349 A  
HETATM   18  C   UNL     1     -11.903  13.537  69.762  1.00  0.00    -0.395 A  
HETATM   19  C   UNL     1     -11.700  14.310  67.096  1.00  0.00    -0.430 A  
HETATM   20  C   UNL     1     -11.614  15.268  68.104  1.00  0.00    -0.344 A  
HETATM   21  C   UNL     1     -11.902  12.965  67.420  1.00  0.00    -0.418 A  
ENDBRANCH  15  16
ENDBRANCH  14  15
ENDBRANCH   2  14
TORSDOF 7
ENDMDL
MODEL       84
REMARK 921   NORMALIZED FREE ENERGY PREDICTED BY IDOCK:   -4.86 KCAL/MOL
REMARK 922        TOTAL FREE ENERGY PREDICTED BY IDOCK:   -7.95 KCAL/MOL
REMARK 923 INTER-LIGAND FREE ENERGY PREDICTED BY IDOCK:   -6.81 KCAL/MOL
REMARK 924 INTRA-LIGAND FREE ENERGY PREDICTED BY IDOCK:   -1.14 KCAL/MOL
REMARK 927      BINDING AFFINITY PREDICTED BY RF-SCORE:    0.00 PKD
ROOT
HETATM    1  C   UNL     1     -11.633  13.169  68.962  1.00  0.00    -0.360 C  
HETATM    2  C   UNL     1     -10.667  14.370  68.918  1.00  0.00    -0.253 C  
ENDROOT
BRANCH   2   3
HETATM    3  N   UNL     1     -11.324  15.710  69.090  1.00  0.00    -0.313 NA 
BRANCH   3   4
HETATM    4  C   UNL     1     -12.414  15.672  70.101  1.00  0.00    -0.278 C  
HETATM    5 CL   UNL     1     -13.465  15.912  72.603  1.00  0.00    -0.584 Cl 
HETATM    6  C   UNL     1     -12.015  15.955  71.557  1.00  0.00    -0.471 C  
ENDBRANCH   3   4
BRANCH   3   7
HETATM    7  C   UNL     1     -10.352  16.776  69.413  1.00  0.00    -0.276 C  
BRANCH   7   8
HETATM    8  C   UNL     1     -10.310  17.955  68.461  1.00  0.00    -0.365 A  
HETATM    9  C   UNL     1     -10.772  17.814  67.144  1.00  0.00    -0.222 A  
HETATM   10  C   UNL     1     -10.658  18.861  66.226  1.00  0.00    -0.463 A  
HETATM   11  C   UNL     1      -9.746  19.178  68.847  1.00  0.00    -0.474 A  
HETATM   12  C   UNL     1     -10.080  20.066  66.617  1.00  0.00    -0.607 A  
HETATM   13  C   UNL     1      -9.629  20.227  67.927  1.00  0.00    -0.438 A  
ENDBRANCH   7   8
ENDBRANCH   3   7
ENDBRANCH   2   3
BRANCH   2  14
HETATM   14  C   UNL     1      -9.792  14.288  67.636  1.00  0.00    -0.224 C  
BRANCH  14  15
HETATM   15  O   UNL     1      -8.414  14.144  68.006  1.00  0.00    -0.151 OA 
BRANCH  15  16
HETATM   16  C   UNL     1      -7.569  15.140  67.595  1.00  0.00    -0.174 A  
HETATM   17  C   UNL     1      -7.360  17.114  66.202  1.00  0.00    -0.281 A  
HETATM   18  C   UNL     1      -8.129  16.064  66.709  1.00  0.00    -0.302 A  
HETATM   19  C   UNL     1      -5.478  16.358  67.504  1.00  0.00    -0.171 A  
HETATM   20  C   UNL     1      -6.032  17.256  66.594  1.00  0.00    -0.242 A  
HETATM   21  C   UNL     1      -6.245  15.304  68.006  1.00  0.00    -0.156 A  
ENDBRANCH  15  16
ENDBRANCH  14  15
ENDBRANCH   2  14
TORSDOF 7
ENDMDL
MODEL       85
REMARK 921   NORMALIZED FREE ENERGY PREDICTED BY IDOCK:   -4.85 KCAL/MOL
REMARK 922        TOTAL FREE ENERGY PREDICTED BY IDOCK:   -7.93 KCAL/MOL
REMARK 923 INTER-LIGAND FREE ENERGY PREDICTED BY IDOCK:   -6.86 KCAL/MOL
REMARK 924 INTRA-LIGAND FREE ENERGY PREDICTED BY IDOCK:   -1.08 KCAL/MOL
REMARK 927      BINDING AFFINITY PREDICTED BY RF-SCORE:    0.00 PKD
ROOT
HETATM    1  C   UNL     1     -14.181   8.809  72.276  1.00  0.00    -0.498 C  
HETATM    2  C   UNL     1     -12.686   8.482  72.086  1.00  0.00    -0.373 C  
ENDROOT
BRANCH   2   3
HETATM    3  N   UNL     1     -11.857   9.618  71.560  1.00  0.00    -0.390 NA 
BRANCH   3   4
HETATM    4  C   UNL     1     -10.603   9.144  70.916  1.00  0.00    -0.273 C  
HETATM    5 CL   UNL     1      -8.055   8.181  70.895  1.00  0.00    -0.093 Cl 
HETATM    6  C   UNL     1      -9.445   8.769  71.853  1.00  0.00    -0.292 C  
ENDBRANCH   3   4
BRANCH   3   7
HETATM    7  C   UNL     1     -12.618  10.491  70.639  1.00  0.00    -0.369 C  
BRANCH   7   8
HETATM    8  C   UNL     1     -12.714  11.952  71.028  1.00  0.00    -0.354 A  
HETATM    9  C   UNL     1     -12.019  12.924  70.293  1.00  0.00    -0.359 A  
HETATM   10  C   UNL     1     -12.022  14.264  70.690  1.00  0.00    -0.392 A  
HETATM   11  C   UNL     1     -13.431  12.354  72.162  1.00  0.00    -0.481 A  
HETATM   12  C   UNL     1     -12.724  14.649  71.829  1.00  0.00    -0.405 A  
HETATM   13  C   UNL     1     -13.433  13.697  72.562  1.00  0.00    -0.675 A  
ENDBRANCH   7   8
ENDBRANCH   3   7
ENDBRANCH   2   3
BRANCH   2  14
HETATM   14  C   UNL     1     -12.540   7.186  71.239  1.00  0.00    -0.380 C  
BRANCH  14  15
HETATM   15  O   UNL     1     -12.407   6.056  72.112  1.00  0.00    -0.254 OA 
BRANCH  15  16
HETATM   16  C   UNL     1     -11.129   5.637  72.369  1.00  0.00    -0.271 A  
HETATM   17  C   UNL     1      -9.077   4.808  71.378  1.00  0.00    -0.174 A  
HETATM   18  C   UNL     1     -10.387   5.273  71.243  1.00  0.00    -0.292 A  
HETATM   19  C   UNL     1      -9.220   5.117  73.764  1.00  0.00    -0.125 A  
HETATM   20  C   UNL     1      -8.496   4.723  72.640  1.00  0.00    -0.115 A  
HETATM   21  C   UNL     1     -10.532   5.576  73.629  1.00  0.00    -0.292 A  
ENDBRANCH  15  16
ENDBRANCH  14  15
ENDBRANCH   2  14
TORSDOF 7
ENDMDL
MODEL       86
REMARK 921   NORMALIZED FREE ENERGY PREDICTED BY IDOCK:   -4.85 KCAL/MOL
REMARK 922        TOTAL FREE ENERGY PREDICTED BY IDOCK:   -7.93 KCAL/MOL
REMARK 923 INTER-LIGAND FREE ENERGY PREDICTED BY IDOCK:   -7.08 KCAL/MOL
REMARK 924 INTRA-LIGAND FREE ENERGY PREDICTED BY IDOCK:   -0.85 KCAL/MOL
REMARK 927      BINDING AFFINITY PREDICTED BY RF-SCORE:    0.00 PKD
ROOT
HETATM    1  C   UNL     1     -13.329   8.570  71.787  1.00  0.00    -0.396 C  
HETATM    2  C   UNL     1     -11.816   8.858  71.855  1.00  0.00    -0.370 C  
ENDROOT
BRANCH   2   3
HETATM    3  N   UNL     1     -11.358  10.013  71.011  1.00  0.00    -0.365 NA 
BRANCH   3   4
HETATM    4  C   UNL     1     -10.375   9.595  69.977  1.00  0.00    -0.257 C  
HETATM    5 CL   UNL     1      -9.150   9.719  67.546  1.00  0.00    -0.139 Cl 
HETATM    6  C   UNL     1     -10.437  10.328  68.628  1.00  0.00    -0.193 C  
ENDBRANCH   3   4
BRANCH   3   7
HETATM    7  C   UNL     1     -12.488  10.739  70.391  1.00  0.00    -0.347 C  
BRANCH   7   8
HETATM    8  C   UNL     1     -12.742  12.144  70.900  1.00  0.00    -0.280 A  
HETATM    9  C   UNL     1     -12.122  13.240  70.283  1.00  0.00    -0.405 A  
HETATM   10  C   UNL     1     -12.271  14.532  70.794  1.00  0.00    -0.403 A  
HETATM   11  C   UNL     1     -13.533  12.371  72.034  1.00  0.00    -0.460 A  
HETATM   12  C   UNL     1     -13.046  14.743  71.931  1.00  0.00    -0.419 A  
HETATM   13  C   UNL     1     -13.681  13.665  72.548  1.00  0.00    -0.663 A  
ENDBRANCH   7   8
ENDBRANCH   3   7
ENDBRANCH   2   3
BRANCH   2  14
HETATM   14  C   UNL     1     -11.024   7.551  71.568  1.00  0.00    -0.229 C  
BRANCH  14  15
HETATM   15  O   UNL     1     -11.768   6.730  70.657  1.00  0.00    -0.349 OA 
BRANCH  15  16
HETATM   16  C   UNL     1     -11.039   6.053  69.718  1.00  0.00    -0.406 A  
HETATM   17  C   UNL     1      -9.416   4.286  69.363  1.00  0.00    -0.256 A  
HETATM   18  C   UNL     1     -10.225   5.035  70.220  1.00  0.00    -0.328 A  
HETATM   19  C   UNL     1     -10.269   5.529  67.483  1.00  0.00    -0.245 A  
HETATM   20  C   UNL     1      -9.433   4.539  67.994  1.00  0.00    -0.197 A  
HETATM   21  C   UNL     1     -11.073   6.283  68.341  1.00  0.00    -0.371 A  
ENDBRANCH  15  16
ENDBRANCH  14  15
ENDBRANCH   2  14
TORSDOF 7
ENDMDL
MODEL       87
REMARK 921   NORMALIZED FREE ENERGY PREDICTED BY IDOCK:   -4.85 KCAL/MOL
REMARK 922        TOTAL FREE ENERGY PREDICTED BY IDOCK:   -7.93 KCAL/MOL
REMARK 923 INTER-LIGAND FREE ENERGY PREDICTED BY IDOCK:   -7.51 KCAL/MOL
REMARK 924 INTRA-LIGAND FREE ENERGY PREDICTED BY IDOCK:   -0.42 KCAL/MOL
REMARK 927      BINDING AFFINITY PREDICTED BY RF-SCORE:    0.00 PKD
ROOT
HETATM    1  C   UNL     1     -12.102  12.776  65.611  1.00  0.00    -0.514 C  
HETATM    2  C   UNL     1     -11.367  12.777  66.966  1.00  0.00    -0.314 C  
ENDROOT
BRANCH   2   3
HETATM    3  N   UNL     1     -11.806  11.702  67.919  1.00  0.00    -0.596 NA 
BRANCH   3   4
HETATM    4  C   UNL     1     -11.391  10.349  67.464  1.00  0.00    -0.031 C  
HETATM    5 CL   UNL     1      -9.632   8.503  66.501  1.00  0.00    -0.280 Cl 
HETATM    6  C   UNL     1      -9.949  10.205  66.951  1.00  0.00    -0.207 C  
ENDBRANCH   3   4
BRANCH   3   7
HETATM    7  C   UNL     1     -11.343  11.952  69.301  1.00  0.00    -0.277 C  
BRANCH   7   8
HETATM    8  C   UNL     1     -11.705  10.898  70.329  1.00  0.00    -0.437 A  
HETATM    9  C   UNL     1     -10.772   9.915  70.688  1.00  0.00    -0.372 A  
HETATM   10  C   UNL     1     -11.117   8.883  71.565  1.00  0.00    -0.397 A  
HETATM   11  C   UNL     1     -12.990  10.838  70.883  1.00  0.00    -0.385 A  
HETATM   12  C   UNL     1     -12.402   8.823  72.095  1.00  0.00    -0.458 A  
HETATM   13  C   UNL     1     -13.337   9.803  71.760  1.00  0.00    -0.506 A  
ENDBRANCH   7   8
ENDBRANCH   3   7
ENDBRANCH   2   3
BRANCH   2  14
HETATM   14  C   UNL     1     -11.429  14.199  67.591  1.00  0.00    -0.338 C  
BRANCH  14  15
HETATM   15  O   UNL     1     -10.227  14.914  67.277  1.00  0.00    -0.239 OA 
BRANCH  15  16
HETATM   16  C   UNL     1     -10.261  16.269  67.462  1.00  0.00    -0.270 A  
HETATM   17  C   UNL     1     -10.370  18.421  66.348  1.00  0.00    -0.430 A  
HETATM   18  C   UNL     1     -10.350  17.025  66.291  1.00  0.00    -0.309 A  
HETATM   19  C   UNL     1     -10.269  18.317  68.754  1.00  0.00    -0.342 A  
HETATM   20  C   UNL     1     -10.322  19.067  67.580  1.00  0.00    -0.504 A  
HETATM   21  C   UNL     1     -10.241  16.922  68.696  1.00  0.00    -0.301 A  
ENDBRANCH  15  16
ENDBRANCH  14  15
ENDBRANCH   2  14
TORSDOF 7
ENDMDL
MODEL       88
REMARK 921   NORMALIZED FREE ENERGY PREDICTED BY IDOCK:   -4.82 KCAL/MOL
REMARK 922        TOTAL FREE ENERGY PREDICTED BY IDOCK:   -7.89 KCAL/MOL
REMARK 923 INTER-LIGAND FREE ENERGY PREDICTED BY IDOCK:   -6.02 KCAL/MOL
REMARK 924 INTRA-LIGAND FREE ENERGY PREDICTED BY IDOCK:   -1.87 KCAL/MOL
REMARK 927      BINDING AFFINITY PREDICTED BY RF-SCORE:    0.00 PKD
ROOT
HETATM    1  C   UNL     1     -11.835  12.775  68.912  1.00  0.00    -0.351 C  
HETATM    2  C   UNL     1     -11.255  11.348  68.843  1.00  0.00    -0.248 C  
ENDROOT
BRANCH   2   3
HETATM    3  N   UNL     1     -11.243  10.740  67.470  1.00  0.00    -0.384 NA 
BRANCH   3   4
HETATM    4  C   UNL     1     -11.402  11.765  66.404  1.00  0.00    -0.297 C  
HETATM    5 CL   UNL     1     -11.187  12.738  63.868  1.00  0.00    -0.456 Cl 
HETATM    6  C   UNL     1     -10.857  11.404  65.013  1.00  0.00    -0.246 C  
ENDBRANCH   3   4
BRANCH   3   7
HETATM    7  C   UNL     1     -10.036   9.920  67.228  1.00  0.00    -0.211 C  
BRANCH   7   8
HETATM    8  C   UNL     1     -10.073   8.501  67.759  1.00  0.00    -0.266 A  
HETATM    9  C   UNL     1      -9.116   8.071  68.689  1.00  0.00    -0.140 A  
HETATM   10  C   UNL     1      -9.077   6.743  69.121  1.00  0.00    -0.138 A  
HETATM   11  C   UNL     1     -11.008   7.573  67.281  1.00  0.00    -0.178 A  
HETATM   12  C   UNL     1     -10.000   5.826  68.626  1.00  0.00    -0.201 A  
HETATM   13  C   UNL     1     -10.968   6.241  67.711  1.00  0.00    -0.427 A  
ENDBRANCH   7   8
ENDBRANCH   3   7
ENDBRANCH   2   3
BRANCH   2  14
HETATM   14  C   UNL     1     -11.963  10.447  69.895  1.00  0.00    -0.215 C  
BRANCH  14  15
HETATM   15  O   UNL     1     -11.060  10.172  70.975  1.00  0.00    -0.323 OA 
BRANCH  15  16
HETATM   16  C   UNL     1     -11.109   8.908  71.498  1.00  0.00    -0.326 A  
HETATM   17  C   UNL     1     -12.229   6.760  71.392  1.00  0.00    -0.413 A  
HETATM   18  C   UNL     1     -12.068   8.067  70.928  1.00  0.00    -0.164 A  
HETATM   19  C   UNL     1     -10.435   7.103  72.964  1.00  0.00    -0.331 A  
HETATM   20  C   UNL     1     -11.417   6.281  72.416  1.00  0.00    -0.335 A  
HETATM   21  C   UNL     1     -10.278   8.413  72.505  1.00  0.00    -0.369 A  
ENDBRANCH  15  16
ENDBRANCH  14  15
ENDBRANCH   2  14
TORSDOF 7
ENDMDL
MODEL       89
REMARK 921   NORMALIZED FREE ENERGY PREDICTED BY IDOCK:   -4.82 KCAL/MOL
REMARK 922        TOTAL FREE ENERGY PREDICTED BY IDOCK:   -7.89 KCAL/MOL
REMARK 923 INTER-LIGAND FREE ENERGY PREDICTED BY IDOCK:   -7.12 KCAL/MOL
REMARK 924 INTRA-LIGAND FREE ENERGY PREDICTED BY IDOCK:   -0.77 KCAL/MOL
REMARK 927      BINDING AFFINITY PREDICTED BY RF-SCORE:    0.00 PKD
ROOT
HETATM    1  C   UNL     1      -9.198   8.450  66.065  1.00  0.00    -0.247 C  
HETATM    2  C   UNL     1     -10.371   8.464  67.066  1.00  0.00    -0.315 C  
ENDROOT
BRANCH   2   3
HETATM    3  N   UNL     1     -10.908   9.830  67.384  1.00  0.00    -0.253 NA 
BRANCH   3   4
HETATM    4  C   UNL     1     -11.032  10.055  68.848  1.00  0.00    -0.207 C  
HETATM    5 CL   UNL     1     -12.161  11.110  71.093  1.00  0.00    -0.424 Cl 
HETATM    6  C   UNL     1     -12.144  11.011  69.307  1.00  0.00    -0.292 C  
ENDBRANCH   3   4
BRANCH   3   7
HETATM    7  C   UNL     1     -10.111  10.907  66.757  1.00  0.00    -0.216 C  
BRANCH   7   8
HETATM    8  C   UNL     1     -10.801  11.705  65.669  1.00  0.00    -0.330 A  
HETATM    9  C   UNL     1     -11.743  12.689  66.006  1.00  0.00    -0.470 A  
HETATM   10  C   UNL     1     -12.456  13.371  65.017  1.00  0.00    -0.479 A  
HETATM   11  C   UNL     1     -10.574  11.430  64.314  1.00  0.00    -0.416 A  
HETATM   12  C   UNL     1     -12.234  13.076  63.674  1.00  0.00    -0.568 A  
HETATM   13  C   UNL     1     -11.290  12.111  63.322  1.00  0.00    -0.410 A  
ENDBRANCH   7   8
ENDBRANCH   3   7
ENDBRANCH   2   3
BRANCH   2  14
HETATM   14  C   UNL     1      -9.980   7.659  68.337  1.00  0.00    -0.176 C  
BRANCH  14  15
HETATM   15  O   UNL     1     -10.977   6.661  68.597  1.00  0.00    -0.260 OA 
BRANCH  15  16
HETATM   16  C   UNL     1     -11.096   6.249  69.897  1.00  0.00    -0.401 A  
HETATM   17  C   UNL     1     -10.237   4.731  71.582  1.00  0.00    -0.249 A  
HETATM   18  C   UNL     1     -10.200   5.251  70.287  1.00  0.00    -0.345 A  
HETATM   19  C   UNL     1     -12.034   6.241  72.129  1.00  0.00    -0.338 A  
HETATM   20  C   UNL     1     -11.161   5.222  72.502  1.00  0.00    -0.289 A  
HETATM   21  C   UNL     1     -12.001   6.757  70.831  1.00  0.00    -0.437 A  
ENDBRANCH  15  16
ENDBRANCH  14  15
ENDBRANCH   2  14
TORSDOF 7
ENDMDL
MODEL       90
REMARK 921   NORMALIZED FREE ENERGY PREDICTED BY IDOCK:   -4.81 KCAL/MOL
REMARK 922        TOTAL FREE ENERGY PREDICTED BY IDOCK:   -7.87 KCAL/MOL
REMARK 923 INTER-LIGAND FREE ENERGY PREDICTED BY IDOCK:   -7.25 KCAL/MOL
REMARK 924 INTRA-LIGAND FREE ENERGY PREDICTED BY IDOCK:   -0.63 KCAL/MOL
REMARK 927      BINDING AFFINITY PREDICTED BY RF-SCORE:    0.00 PKD
ROOT
HETATM    1  C   UNL     1     -10.942  17.025  68.303  1.00  0.00    -0.269 C  
HETATM    2  C   UNL     1     -10.472  15.943  67.311  1.00  0.00    -0.310 C  
ENDROOT
BRANCH   2   3
HETATM    3  N   UNL     1     -10.832  14.537  67.699  1.00  0.00    -0.268 NA 
BRANCH   3   4
HETATM    4  C   UNL     1     -10.995  14.388  69.170  1.00  0.00    -0.265 C  
HETATM    5 CL   UNL     1     -12.298  13.636  71.441  1.00  0.00    -0.370 Cl 
HETATM    6  C   UNL     1     -12.316  13.776  69.659  1.00  0.00    -0.232 C  
ENDBRANCH   3   4
BRANCH   3   7
HETATM    7  C   UNL     1     -12.033  14.048  66.990  1.00  0.00    -0.438 C  
BRANCH   7   8
HETATM    8  C   UNL     1     -11.785  13.175  65.775  1.00  0.00    -0.415 A  
HETATM    9  C   UNL     1     -10.932  12.065  65.868  1.00  0.00    -0.342 A  
HETATM   10  C   UNL     1     -10.619  11.303  64.739  1.00  0.00    -0.376 A  
HETATM   11  C   UNL     1     -12.336  13.496  64.528  1.00  0.00    -0.406 A  
HETATM   12  C   UNL     1     -11.159  11.642  63.502  1.00  0.00    -0.476 A  
HETATM   13  C   UNL     1     -12.021  12.734  63.396  1.00  0.00    -0.613 A  
ENDBRANCH   7   8
ENDBRANCH   3   7
ENDBRANCH   2   3
BRANCH   2  14
HETATM   14  C   UNL     1      -8.953  16.121  67.029  1.00  0.00    -0.211 C  
BRANCH  14  15
HETATM   15  O   UNL     1      -8.773  17.024  65.930  1.00  0.00    -0.524 OA 
BRANCH  15  16
HETATM   16  C   UNL     1      -8.133  18.201  66.212  1.00  0.00    -0.221 A  
HETATM   17  C   UNL     1      -6.058  19.435  65.982  1.00  0.00    -0.199 A  
HETATM   18  C   UNL     1      -6.822  18.292  65.738  1.00  0.00    -0.310 A  
HETATM   19  C   UNL     1      -7.928  20.432  67.130  1.00  0.00    -0.379 A  
HETATM   20  C   UNL     1      -6.610  20.503  66.685  1.00  0.00    -0.298 A  
HETATM   21  C   UNL     1      -8.691  19.286  66.892  1.00  0.00    -0.323 A  
ENDBRANCH  15  16
ENDBRANCH  14  15
ENDBRANCH   2  14
TORSDOF 7
ENDMDL
MODEL       91
REMARK 921   NORMALIZED FREE ENERGY PREDICTED BY IDOCK:   -4.80 KCAL/MOL
REMARK 922        TOTAL FREE ENERGY PREDICTED BY IDOCK:   -7.86 KCAL/MOL
REMARK 923 INTER-LIGAND FREE ENERGY PREDICTED BY IDOCK:   -6.56 KCAL/MOL
REMARK 924 INTRA-LIGAND FREE ENERGY PREDICTED BY IDOCK:   -1.31 KCAL/MOL
REMARK 927      BINDING AFFINITY PREDICTED BY RF-SCORE:    0.00 PKD
ROOT
HETATM    1  C   UNL     1     -10.573   7.630  66.956  1.00  0.00    -0.406 C  
HETATM    2  C   UNL     1     -10.432   8.999  67.652  1.00  0.00    -0.260 C  
ENDROOT
BRANCH   2   3
HETATM    3  N   UNL     1     -10.006  10.120  66.749  1.00  0.00    -0.202 NA 
BRANCH   3   4
HETATM    4  C   UNL     1      -9.564   9.628  65.417  1.00  0.00    -0.291 C  
HETATM    5 CL   UNL     1      -9.232   9.785  62.717  1.00  0.00    -0.290 Cl 
HETATM    6  C   UNL     1      -9.884  10.523  64.210  1.00  0.00    -0.338 C  
ENDBRANCH   3   4
BRANCH   3   7
HETATM    7  C   UNL     1     -11.054  11.153  66.601  1.00  0.00    -0.189 C  
BRANCH   7   8
HETATM    8  C   UNL     1     -10.768  12.495  67.244  1.00  0.00    -0.259 A  
HETATM    9  C   UNL     1      -9.446  12.891  67.491  1.00  0.00    -0.198 A  
HETATM   10  C   UNL     1      -9.165  14.082  68.165  1.00  0.00    -0.196 A  
HETATM   11  C   UNL     1     -11.809  13.330  67.671  1.00  0.00    -0.400 A  
HETATM   12  C   UNL     1     -10.208  14.895  68.600  1.00  0.00    -0.236 A  
HETATM   13  C   UNL     1     -11.529  14.523  68.349  1.00  0.00    -0.328 A  
ENDBRANCH   7   8
ENDBRANCH   3   7
ENDBRANCH   2   3
BRANCH   2  14
HETATM   14  C   UNL     1      -9.522   8.854  68.904  1.00  0.00    -0.152 C  
BRANCH  14  15
HETATM   15  O   UNL     1      -9.779   9.935  69.810  1.00  0.00    -0.214 OA 
BRANCH  15  16
HETATM   16  C   UNL     1     -10.909   9.830  70.575  1.00  0.00    -0.323 A  
HETATM   17  C   UNL     1     -12.911  10.976  71.323  1.00  0.00    -0.528 A  
HETATM   18  C   UNL     1     -11.739  10.954  70.565  1.00  0.00    -0.441 A  
HETATM   19  C   UNL     1     -12.465   8.728  72.067  1.00  0.00    -0.452 A  
HETATM   20  C   UNL     1     -13.270   9.865  72.081  1.00  0.00    -0.511 A  
HETATM   21  C   UNL     1     -11.288   8.708  71.314  1.00  0.00    -0.341 A  
ENDBRANCH  15  16
ENDBRANCH  14  15
ENDBRANCH   2  14
TORSDOF 7
ENDMDL
MODEL       92
REMARK 921   NORMALIZED FREE ENERGY PREDICTED BY IDOCK:   -4.79 KCAL/MOL
REMARK 922        TOTAL FREE ENERGY PREDICTED BY IDOCK:   -7.85 KCAL/MOL
REMARK 923 INTER-LIGAND FREE ENERGY PREDICTED BY IDOCK:   -6.73 KCAL/MOL
REMARK 924 INTRA-LIGAND FREE ENERGY PREDICTED BY IDOCK:   -1.13 KCAL/MOL
REMARK 927      BINDING AFFINITY PREDICTED BY RF-SCORE:    0.00 PKD
ROOT
HETATM    1  C   UNL     1     -10.262  16.520  68.814  1.00  0.00    -0.267 C  
HETATM    2  C   UNL     1     -10.324  17.017  67.356  1.00  0.00    -0.319 C  
ENDROOT
BRANCH   2   3
HETATM    3  N   UNL     1      -9.538  16.192  66.378  1.00  0.00    -0.266 NA 
BRANCH   3   4
HETATM    4  C   UNL     1      -8.203  16.783  66.094  1.00  0.00    -0.264 C  
HETATM    5 CL   UNL     1      -5.528  17.128  66.480  1.00  0.00    -0.207 Cl 
HETATM    6  C   UNL     1      -7.048  16.350  67.011  1.00  0.00    -0.224 C  
ENDBRANCH   3   4
BRANCH   3   7
HETATM    7  C   UNL     1      -9.403  14.784  66.810  1.00  0.00    -0.249 C  
BRANCH   7   8
HETATM    8  C   UNL     1     -10.171  13.758  66.001  1.00  0.00    -0.315 A  
HETATM    9  C   UNL     1      -9.936  12.389  66.194  1.00  0.00    -0.267 A  
HETATM   10  C   UNL     1     -10.566  11.431  65.396  1.00  0.00    -0.333 A  
HETATM   11  C   UNL     1     -11.068  14.150  64.999  1.00  0.00    -0.372 A  
HETATM   12  C   UNL     1     -11.443  11.833  64.392  1.00  0.00    -0.349 A  
HETATM   13  C   UNL     1     -11.698  13.191  64.197  1.00  0.00    -0.472 A  
ENDBRANCH   7   8
ENDBRANCH   3   7
ENDBRANCH   2   3
BRANCH   2  14
HETATM   14  C   UNL     1      -9.956  18.527  67.304  1.00  0.00    -0.330 C  
BRANCH  14  15
HETATM   15  O   UNL     1      -9.268  18.893  68.507  1.00  0.00    -0.335 OA 
BRANCH  15  16
HETATM   16  C   UNL     1      -8.078  19.551  68.348  1.00  0.00    -0.342 A  
HETATM   17  C   UNL     1      -6.867  21.159  66.997  1.00  0.00    -0.356 A  
HETATM   18  C   UNL     1      -8.034  20.444  67.275  1.00  0.00    -0.376 A  
HETATM   19  C   UNL     1      -5.793  20.136  68.896  1.00  0.00    -0.320 A  
HETATM   20  C   UNL     1      -5.744  20.998  67.804  1.00  0.00    -0.372 A  
HETATM   21  C   UNL     1      -6.958  19.415  69.171  1.00  0.00    -0.390 A  
ENDBRANCH  15  16
ENDBRANCH  14  15
ENDBRANCH   2  14
TORSDOF 7
ENDMDL
MODEL       93
REMARK 921   NORMALIZED FREE ENERGY PREDICTED BY IDOCK:   -4.79 KCAL/MOL
REMARK 922        TOTAL FREE ENERGY PREDICTED BY IDOCK:   -7.84 KCAL/MOL
REMARK 923 INTER-LIGAND FREE ENERGY PREDICTED BY IDOCK:   -6.77 KCAL/MOL
REMARK 924 INTRA-LIGAND FREE ENERGY PREDICTED BY IDOCK:   -1.08 KCAL/MOL
REMARK 927      BINDING AFFINITY PREDICTED BY RF-SCORE:    0.00 PKD
ROOT
HETATM    1  C   UNL     1     -11.388  15.264  70.610  1.00  0.00    -0.345 C  
HETATM    2  C   UNL     1     -11.316  14.124  69.575  1.00  0.00    -0.259 C  
ENDROOT
BRANCH   2   3
HETATM    3  N   UNL     1     -11.458  14.563  68.146  1.00  0.00    -0.297 NA 
BRANCH   3   4
HETATM    4  C   UNL     1     -11.526  16.043  68.021  1.00  0.00    -0.199 C  
HETATM    5 CL   UNL     1     -10.609  18.500  67.278  1.00  0.00    -0.452 Cl 
HETATM    6  C   UNL     1     -10.314  16.739  67.382  1.00  0.00    -0.302 C  
ENDBRANCH   3   4
BRANCH   3   7
HETATM    7  C   UNL     1     -10.391  14.016  67.280  1.00  0.00    -0.264 C  
BRANCH   7   8
HETATM    8  C   UNL     1     -10.847  13.313  66.017  1.00  0.00    -0.284 A  
HETATM    9  C   UNL     1      -9.915  12.968  65.027  1.00  0.00    -0.158 A  
HETATM   10  C   UNL     1     -10.327  12.403  63.818  1.00  0.00    -0.454 A  
HETATM   11  C   UNL     1     -12.204  13.063  65.778  1.00  0.00    -0.511 A  
HETATM   12  C   UNL     1     -11.680  12.175  63.584  1.00  0.00    -0.588 A  
HETATM   13  C   UNL     1     -12.618  12.499  64.565  1.00  0.00    -0.503 A  
ENDBRANCH   7   8
ENDBRANCH   3   7
ENDBRANCH   2   3
BRANCH   2  14
HETATM   14  C   UNL     1     -12.322  13.004  69.964  1.00  0.00    -0.152 C  
BRANCH  14  15
HETATM   15  O   UNL     1     -12.352  12.008  68.933  1.00  0.00    -0.164 OA 
BRANCH  15  16
HETATM   16  C   UNL     1     -11.522  10.933  69.103  1.00  0.00    -0.303 A  
HETATM   17  C   UNL     1     -10.455   9.490  70.734  1.00  0.00    -0.384 A  
HETATM   18  C   UNL     1     -11.302  10.559  70.431  1.00  0.00    -0.411 A  
HETATM   19  C   UNL     1     -10.083   9.124  68.381  1.00  0.00    -0.220 A  
HETATM   20  C   UNL     1      -9.840   8.778  69.709  1.00  0.00    -0.189 A  
HETATM   21  C   UNL     1     -10.925  10.198  68.078  1.00  0.00    -0.326 A  
ENDBRANCH  15  16
ENDBRANCH  14  15
ENDBRANCH   2  14
TORSDOF 7
ENDMDL
MODEL       94
REMARK 921   NORMALIZED FREE ENERGY PREDICTED BY IDOCK:   -4.78 KCAL/MOL
REMARK 922        TOTAL FREE ENERGY PREDICTED BY IDOCK:   -7.83 KCAL/MOL
REMARK 923 INTER-LIGAND FREE ENERGY PREDICTED BY IDOCK:   -7.08 KCAL/MOL
REMARK 924 INTRA-LIGAND FREE ENERGY PREDICTED BY IDOCK:   -0.75 KCAL/MOL
REMARK 927      BINDING AFFINITY PREDICTED BY RF-SCORE:    0.00 PKD
ROOT
HETATM    1  C   UNL     1     -11.444  16.063  69.777  1.00  0.00    -0.318 C  
HETATM    2  C   UNL     1     -11.498  15.586  68.312  1.00  0.00    -0.353 C  
ENDROOT
BRANCH   2   3
HETATM    3  N   UNL     1     -12.076  14.213  68.120  1.00  0.00    -0.319 NA 
BRANCH   3   4
HETATM    4  C   UNL     1     -12.301  13.897  66.685  1.00  0.00    -0.369 C  
HETATM    5 CL   UNL     1     -11.980  12.447  64.401  1.00  0.00    -0.456 Cl 
HETATM    6  C   UNL     1     -11.539  12.689  66.117  1.00  0.00    -0.393 C  
ENDBRANCH   3   4
BRANCH   3   7
HETATM    7  C   UNL     1     -11.257  13.163  68.763  1.00  0.00    -0.281 C  
BRANCH   7   8
HETATM    8  C   UNL     1     -11.964  12.288  69.778  1.00  0.00    -0.365 A  
HETATM    9  C   UNL     1     -12.625  12.869  70.870  1.00  0.00    -0.355 A  
HETATM   10  C   UNL     1     -13.204  12.077  71.865  1.00  0.00    -0.469 A  
HETATM   11  C   UNL     1     -11.912  10.891  69.691  1.00  0.00    -0.414 A  
HETATM   12  C   UNL     1     -13.131  10.690  71.777  1.00  0.00    -0.571 A  
HETATM   13  C   UNL     1     -12.491  10.096  70.688  1.00  0.00    -0.372 A  
ENDBRANCH   7   8
ENDBRANCH   3   7
ENDBRANCH   2   3
BRANCH   2  14
HETATM   14  C   UNL     1     -10.096  15.747  67.660  1.00  0.00    -0.247 C  
BRANCH  14  15
HETATM   15  O   UNL     1      -9.893  17.118  67.291  1.00  0.00    -0.253 OA 
BRANCH  15  16
HETATM   16  C   UNL     1      -8.599  17.561  67.294  1.00  0.00    -0.225 A  
HETATM   17  C   UNL     1      -6.833  18.519  68.653  1.00  0.00    -0.279 A  
HETATM   18  C   UNL     1      -8.132  18.021  68.528  1.00  0.00    -0.306 A  
HETATM   19  C   UNL     1      -6.436  18.052  66.322  1.00  0.00    -0.263 A  
HETATM   20  C   UNL     1      -5.988  18.542  67.547  1.00  0.00    -0.171 A  
HETATM   21  C   UNL     1      -7.737  17.560  66.195  1.00  0.00    -0.304 A  
ENDBRANCH  15  16
ENDBRANCH  14  15
ENDBRANCH   2  14
TORSDOF 7
ENDMDL
MODEL       95
REMARK 921   NORMALIZED FREE ENERGY PREDICTED BY IDOCK:   -4.78 KCAL/MOL
REMARK 922        TOTAL FREE ENERGY PREDICTED BY IDOCK:   -7.83 KCAL/MOL
REMARK 923 INTER-LIGAND FREE ENERGY PREDICTED BY IDOCK:   -7.41 KCAL/MOL
REMARK 924 INTRA-LIGAND FREE ENERGY PREDICTED BY IDOCK:   -0.42 KCAL/MOL
REMARK 927      BINDING AFFINITY PREDICTED BY RF-SCORE:    0.00 PKD
ROOT
HETATM    1  C   UNL     1      -9.939  14.230  66.261  1.00  0.00    -0.319 C  
HETATM    2  C   UNL     1     -10.719  15.019  67.332  1.00  0.00    -0.289 C  
ENDROOT
BRANCH   2   3
HETATM    3  N   UNL     1      -9.875  15.571  68.444  1.00  0.00    -0.207 NA 
BRANCH   3   4
HETATM    4  C   UNL     1      -8.455  15.741  68.036  1.00  0.00    -0.161 C  
HETATM    5 CL   UNL     1      -5.756  15.627  68.396  1.00  0.00    -0.102 Cl 
HETATM    6  C   UNL     1      -7.389  15.406  69.091  1.00  0.00    -0.175 C  
ENDBRANCH   3   4
BRANCH   3   7
HETATM    7  C   UNL     1     -10.416  16.835  68.987  1.00  0.00    -0.336 C  
BRANCH   7   8
HETATM    8  C   UNL     1      -9.930  18.110  68.327  1.00  0.00    -0.380 A  
HETATM    9  C   UNL     1     -10.669  18.689  67.285  1.00  0.00    -0.449 A  
HETATM   10  C   UNL     1     -10.193  19.812  66.603  1.00  0.00    -0.595 A  
HETATM   11  C   UNL     1      -8.708  18.692  68.687  1.00  0.00    -0.333 A  
HETATM   12  C   UNL     1      -8.969  20.371  66.958  1.00  0.00    -0.423 A  
HETATM   13  C   UNL     1      -8.228  19.816  68.002  1.00  0.00    -0.335 A  
ENDBRANCH   7   8
ENDBRANCH   3   7
ENDBRANCH   2   3
BRANCH   2  14
HETATM   14  C   UNL     1     -11.909  14.160  67.846  1.00  0.00    -0.370 C  
BRANCH  14  15
HETATM   15  O   UNL     1     -11.432  13.208  68.806  1.00  0.00    -0.264 OA 
BRANCH  15  16
HETATM   16  C   UNL     1     -12.155  13.100  69.963  1.00  0.00    -0.305 A  
HETATM   17  C   UNL     1     -13.463  14.314  71.605  1.00  0.00    -0.456 A  
HETATM   18  C   UNL     1     -12.721  14.292  70.422  1.00  0.00    -0.355 A  
HETATM   19  C   UNL     1     -13.127  11.941  71.854  1.00  0.00    -0.474 A  
HETATM   20  C   UNL     1     -13.659  13.139  72.325  1.00  0.00    -0.677 A  
HETATM   21  C   UNL     1     -12.378  11.919  70.675  1.00  0.00    -0.405 A  
ENDBRANCH  15  16
ENDBRANCH  14  15
ENDBRANCH   2  14
TORSDOF 7
ENDMDL
MODEL       96
REMARK 921   NORMALIZED FREE ENERGY PREDICTED BY IDOCK:   -4.78 KCAL/MOL
REMARK 922        TOTAL FREE ENERGY PREDICTED BY IDOCK:   -7.83 KCAL/MOL
REMARK 923 INTER-LIGAND FREE ENERGY PREDICTED BY IDOCK:   -5.91 KCAL/MOL
REMARK 924 INTRA-LIGAND FREE ENERGY PREDICTED BY IDOCK:   -1.92 KCAL/MOL
REMARK 927      BINDING AFFINITY PREDICTED BY RF-SCORE:    0.00 PKD
ROOT
HETATM    1  C   UNL     1     -10.974  13.886  65.143  1.00  0.00    -0.352 C  
HETATM    2  C   UNL     1     -10.355  14.720  66.282  1.00  0.00    -0.297 C  
ENDROOT
BRANCH   2   3
HETATM    3  N   UNL     1      -9.502  13.939  67.240  1.00  0.00    -0.230 NA 
BRANCH   3   4
HETATM    4  C   UNL     1      -9.826  12.488  67.222  1.00  0.00    -0.204 C  
HETATM    5 CL   UNL     1     -11.095  10.234  68.079  1.00  0.00    -0.345 Cl 
HETATM    6  C   UNL     1     -10.798  11.984  68.300  1.00  0.00    -0.229 C  
ENDBRANCH   3   4
BRANCH   3   7
HETATM    7  C   UNL     1      -8.057  14.152  67.011  1.00  0.00    -0.017 C  
BRANCH   7   8
HETATM    8  C   UNL     1      -7.490  15.472  67.494  1.00  0.00    -0.209 A  
HETATM    9  C   UNL     1      -7.249  15.678  68.860  1.00  0.00    -0.146 A  
HETATM   10  C   UNL     1      -6.813  16.917  69.336  1.00  0.00    -0.195 A  
HETATM   11  C   UNL     1      -7.266  16.533  66.606  1.00  0.00    -0.246 A  
HETATM   12  C   UNL     1      -6.610  17.968  68.446  1.00  0.00    -0.210 A  
HETATM   13  C   UNL     1      -6.831  17.776  67.082  1.00  0.00    -0.196 A  
ENDBRANCH   7   8
ENDBRANCH   3   7
ENDBRANCH   2   3
BRANCH   2  14
HETATM   14  C   UNL     1     -11.470  15.536  66.995  1.00  0.00    -0.036 C  
BRANCH  14  15
HETATM   15  O   UNL     1     -10.906  16.255  68.100  1.00  0.00    -0.316 OA 
BRANCH  15  16
HETATM   16  C   UNL     1     -10.546  17.553  67.857  1.00  0.00    -0.390 A  
HETATM   17  C   UNL     1     -10.248  19.241  66.142  1.00  0.00    -0.549 A  
HETATM   18  C   UNL     1     -10.612  17.946  66.518  1.00  0.00    -0.238 A  
HETATM   19  C   UNL     1      -9.801  19.780  68.448  1.00  0.00    -0.522 A  
HETATM   20  C   UNL     1      -9.835  20.156  67.107  1.00  0.00    -0.586 A  
HETATM   21  C   UNL     1     -10.158  18.483  68.824  1.00  0.00    -0.394 A  
ENDBRANCH  15  16
ENDBRANCH  14  15
ENDBRANCH   2  14
TORSDOF 7
ENDMDL
MODEL       97
REMARK 921   NORMALIZED FREE ENERGY PREDICTED BY IDOCK:   -4.77 KCAL/MOL
REMARK 922        TOTAL FREE ENERGY PREDICTED BY IDOCK:   -7.82 KCAL/MOL
REMARK 923 INTER-LIGAND FREE ENERGY PREDICTED BY IDOCK:   -6.96 KCAL/MOL
REMARK 924 INTRA-LIGAND FREE ENERGY PREDICTED BY IDOCK:   -0.86 KCAL/MOL
REMARK 927      BINDING AFFINITY PREDICTED BY RF-SCORE:    0.00 PKD
ROOT
HETATM    1  C   UNL     1      -9.708  10.457  69.521  1.00  0.00    -0.196 C  
HETATM    2  C   UNL     1     -11.088  11.137  69.617  1.00  0.00    -0.232 C  
ENDROOT
BRANCH   2   3
HETATM    3  N   UNL     1     -11.918  10.708  70.793  1.00  0.00    -0.349 NA 
BRANCH   3   4
HETATM    4  C   UNL     1     -12.975  11.700  71.123  1.00  0.00    -0.212 C  
HETATM    5 CL   UNL     1     -13.932  14.193  71.667  1.00  0.00    -0.448 Cl 
HETATM    6  C   UNL     1     -12.517  13.153  71.329  1.00  0.00    -0.232 C  
ENDBRANCH   3   4
BRANCH   3   7
HETATM    7  C   UNL     1     -12.506   9.364  70.606  1.00  0.00     0.017 C  
BRANCH   7   8
HETATM    8  C   UNL     1     -11.966   8.266  71.499  1.00  0.00    -0.335 A  
HETATM    9  C   UNL     1     -11.031   8.568  72.501  1.00  0.00    -0.323 A  
HETATM   10  C   UNL     1     -10.453   7.558  73.274  1.00  0.00    -0.426 A  
HETATM   11  C   UNL     1     -12.326   6.927  71.300  1.00  0.00    -0.422 A  
HETATM   12  C   UNL     1     -10.806   6.229  73.054  1.00  0.00    -0.286 A  
HETATM   13  C   UNL     1     -11.745   5.913  72.072  1.00  0.00    -0.255 A  
ENDBRANCH   7   8
ENDBRANCH   3   7
ENDBRANCH   2   3
BRANCH   2  14
HETATM   14  C   UNL     1     -11.837  10.988  68.263  1.00  0.00    -0.148 C  
BRANCH  14  15
HETATM   15  O   UNL     1     -11.815  12.239  67.563  1.00  0.00    -0.460 OA 
BRANCH  15  16
HETATM   16  C   UNL     1     -11.639  12.172  66.208  1.00  0.00    -0.360 A  
HETATM   17  C   UNL     1     -10.233  11.306  64.431  1.00  0.00    -0.377 A  
HETATM   18  C   UNL     1     -10.532  11.429  65.790  1.00  0.00    -0.314 A  
HETATM   19  C   UNL     1     -12.178  12.622  63.890  1.00  0.00    -0.565 A  
HETATM   20  C   UNL     1     -11.053  11.910  63.482  1.00  0.00    -0.506 A  
HETATM   21  C   UNL     1     -12.473  12.752  65.250  1.00  0.00    -0.528 A  
ENDBRANCH  15  16
ENDBRANCH  14  15
ENDBRANCH   2  14
TORSDOF 7
ENDMDL
MODEL       98
REMARK 921   NORMALIZED FREE ENERGY PREDICTED BY IDOCK:   -4.77 KCAL/MOL
REMARK 922        TOTAL FREE ENERGY PREDICTED BY IDOCK:   -7.82 KCAL/MOL
REMARK 923 INTER-LIGAND FREE ENERGY PREDICTED BY IDOCK:   -6.87 KCAL/MOL
REMARK 924 INTRA-LIGAND FREE ENERGY PREDICTED BY IDOCK:   -0.95 KCAL/MOL
REMARK 927      BINDING AFFINITY PREDICTED BY RF-SCORE:    0.00 PKD
ROOT
HETATM    1  C   UNL     1      -9.862   7.296  66.764  1.00  0.00    -0.281 C  
HETATM    2  C   UNL     1     -10.315   8.717  67.155  1.00  0.00    -0.293 C  
ENDROOT
BRANCH   2   3
HETATM    3  N   UNL     1      -9.491   9.824  66.562  1.00  0.00    -0.167 NA 
BRANCH   3   4
HETATM    4  C   UNL     1      -8.038   9.513  66.586  1.00  0.00    -0.108 C  
HETATM    5 CL   UNL     1      -5.388  10.126  66.753  1.00  0.00    -0.040 Cl 
HETATM    6  C   UNL     1      -7.078  10.708  66.689  1.00  0.00    -0.124 C  
ENDBRANCH   3   4
BRANCH   3   7
HETATM    7  C   UNL     1      -9.925  10.177  65.193  1.00  0.00    -0.309 C  
BRANCH   7   8
HETATM    8  C   UNL     1     -10.808  11.403  65.065  1.00  0.00    -0.311 A  
HETATM    9  C   UNL     1     -11.184  11.871  63.798  1.00  0.00    -0.519 A  
HETATM   10  C   UNL     1     -11.920  13.050  63.656  1.00  0.00    -0.608 A  
HETATM   11  C   UNL     1     -11.201  12.133  66.194  1.00  0.00    -0.386 A  
HETATM   12  C   UNL     1     -12.290  13.776  64.784  1.00  0.00    -0.420 A  
HETATM   13  C   UNL     1     -11.937  13.316  66.053  1.00  0.00    -0.473 A  
ENDBRANCH   7   8
ENDBRANCH   3   7
ENDBRANCH   2   3
BRANCH   2  14
HETATM   14  C   UNL     1     -10.437   8.818  68.702  1.00  0.00    -0.183 C  
BRANCH  14  15
HETATM   15  O   UNL     1     -10.416  10.196  69.095  1.00  0.00    -0.195 OA 
BRANCH  15  16
HETATM   16  C   UNL     1     -11.361  10.581  70.007  1.00  0.00    -0.318 A  
HETATM   17  C   UNL     1     -12.647  12.450  70.863  1.00  0.00    -0.337 A  
HETATM   18  C   UNL     1     -11.709  11.933  69.967  1.00  0.00    -0.366 A  
HETATM   19  C   UNL     1     -12.940  10.255  71.815  1.00  0.00    -0.574 A  
HETATM   20  C   UNL     1     -13.256  11.612  71.793  1.00  0.00    -0.438 A  
HETATM   21  C   UNL     1     -11.996   9.739  70.923  1.00  0.00    -0.413 A  
ENDBRANCH  15  16
ENDBRANCH  14  15
ENDBRANCH   2  14
TORSDOF 7
ENDMDL
MODEL       99
REMARK 921   NORMALIZED FREE ENERGY PREDICTED BY IDOCK:   -4.76 KCAL/MOL
REMARK 922        TOTAL FREE ENERGY PREDICTED BY IDOCK:   -7.81 KCAL/MOL
REMARK 923 INTER-LIGAND FREE ENERGY PREDICTED BY IDOCK:   -5.96 KCAL/MOL
REMARK 924 INTRA-LIGAND FREE ENERGY PREDICTED BY IDOCK:   -1.84 KCAL/MOL
REMARK 927      BINDING AFFINITY PREDICTED BY RF-SCORE:    0.00 PKD
ROOT
HETATM    1  C   UNL     1     -12.142  13.976  70.605  1.00  0.00    -0.424 C  
HETATM    2  C   UNL     1     -11.832  13.070  69.397  1.00  0.00    -0.322 C  
ENDROOT
BRANCH   2   3
HETATM    3  N   UNL     1     -11.662  11.616  69.732  1.00  0.00    -0.331 NA 
BRANCH   3   4
HETATM    4  C   UNL     1     -12.578  11.181  70.818  1.00  0.00    -0.352 C  
HETATM    5 CL   UNL     1     -13.700   9.375  72.523  1.00  0.00    -0.479 Cl 
HETATM    6  C   UNL     1     -12.574   9.685  71.168  1.00  0.00    -0.322 C  
ENDBRANCH   3   4
BRANCH   3   7
HETATM    7  C   UNL     1     -11.810  10.744  68.546  1.00  0.00    -0.096 C  
BRANCH   7   8
HETATM    8  C   UNL     1     -10.596   9.920  68.164  1.00  0.00    -0.270 A  
HETATM    9  C   UNL     1      -9.385  10.090  68.850  1.00  0.00    -0.172 A  
HETATM   10  C   UNL     1      -8.232   9.408  68.454  1.00  0.00    -0.117 A  
HETATM   11  C   UNL     1     -10.635   9.034  67.079  1.00  0.00    -0.270 A  
HETATM   12  C   UNL     1      -8.278   8.543  67.364  1.00  0.00    -0.109 A  
HETATM   13  C   UNL     1      -9.479   8.351  66.680  1.00  0.00    -0.267 A  
ENDBRANCH   7   8
ENDBRANCH   3   7
ENDBRANCH   2   3
BRANCH   2  14
HETATM   14  C   UNL     1     -10.626  13.652  68.606  1.00  0.00    -0.248 C  
BRANCH  14  15
HETATM   15  O   UNL     1     -11.078  14.137  67.334  1.00  0.00    -0.291 OA 
BRANCH  15  16
HETATM   16  C   UNL     1     -10.964  13.271  66.280  1.00  0.00    -0.284 A  
HETATM   17  C   UNL     1      -9.452  11.822  65.058  1.00  0.00    -0.080 A  
HETATM   18  C   UNL     1      -9.699  12.705  66.112  1.00  0.00    -0.253 A  
HETATM   19  C   UNL     1     -11.751  12.020  64.362  1.00  0.00    -0.399 A  
HETATM   20  C   UNL     1     -10.477  11.486  64.178  1.00  0.00    -0.408 A  
HETATM   21  C   UNL     1     -11.996  12.909  65.412  1.00  0.00    -0.470 A  
ENDBRANCH  15  16
ENDBRANCH  14  15
ENDBRANCH   2  14
TORSDOF 7
ENDMDL
MODEL      100
REMARK 921   NORMALIZED FREE ENERGY PREDICTED BY IDOCK:   -4.75 KCAL/MOL
REMARK 922        TOTAL FREE ENERGY PREDICTED BY IDOCK:   -7.79 KCAL/MOL
REMARK 923 INTER-LIGAND FREE ENERGY PREDICTED BY IDOCK:   -6.94 KCAL/MOL
REMARK 924 INTRA-LIGAND FREE ENERGY PREDICTED BY IDOCK:   -0.86 KCAL/MOL
REMARK 927      BINDING AFFINITY PREDICTED BY RF-SCORE:    0.00 PKD
ROOT
HETATM    1  C   UNL     1      -9.578   9.005  67.608  1.00  0.00    -0.183 C  
HETATM    2  C   UNL     1     -10.603  10.146  67.768  1.00  0.00    -0.256 C  
ENDROOT
BRANCH   2   3
HETATM    3  N   UNL     1     -10.592  11.159  66.659  1.00  0.00    -0.255 NA 
BRANCH   3   4
HETATM    4  C   UNL     1     -10.496  10.521  65.320  1.00  0.00    -0.162 C  
HETATM    5 CL   UNL     1      -9.254   9.867  62.984  1.00  0.00    -0.297 Cl 
HETATM    6  C   UNL     1      -9.194  10.751  64.538  1.00  0.00    -0.220 C  
ENDBRANCH   3   4
BRANCH   3   7
HETATM    7  C   UNL     1     -11.755  12.071  66.719  1.00  0.00    -0.264 C  
BRANCH   7   8
HETATM    8  C   UNL     1     -11.578  13.427  66.065  1.00  0.00    -0.375 A  
HETATM    9  C   UNL     1     -12.434  13.826  65.029  1.00  0.00    -0.449 A  
HETATM   10  C   UNL     1     -12.231  15.032  64.352  1.00  0.00    -0.353 A  
HETATM   11  C   UNL     1     -10.520  14.271  66.424  1.00  0.00    -0.282 A  
HETATM   12  C   UNL     1     -11.166  15.855  64.706  1.00  0.00    -0.364 A  
HETATM   13  C   UNL     1     -10.314  15.479  65.745  1.00  0.00    -0.384 A  
ENDBRANCH   7   8
ENDBRANCH   3   7
ENDBRANCH   2   3
BRANCH   2  14
HETATM   14  C   UNL     1     -10.449  10.790  69.175  1.00  0.00    -0.218 C  
BRANCH  14  15
HETATM   15  O   UNL     1     -11.672  10.636  69.908  1.00  0.00    -0.267 OA 
BRANCH  15  16
HETATM   16  C   UNL     1     -12.168  11.764  70.502  1.00  0.00    -0.347 A  
HETATM   17  C   UNL     1     -13.614  12.610  72.256  1.00  0.00    -0.508 A  
HETATM   18  C   UNL     1     -13.026  11.538  71.581  1.00  0.00    -0.499 A  
HETATM   19  C   UNL     1     -12.450  14.149  70.813  1.00  0.00    -0.436 A  
HETATM   20  C   UNL     1     -13.331  13.916  71.866  1.00  0.00    -0.496 A  
HETATM   21  C   UNL     1     -11.866  13.077  70.133  1.00  0.00    -0.324 A  
ENDBRANCH  15  16
ENDBRANCH  14  15
ENDBRANCH   2  14
TORSDOF 7
ENDMDL
MODEL      101
REMARK 921   NORMALIZED FREE ENERGY PREDICTED BY IDOCK:   -4.75 KCAL/MOL
REMARK 922        TOTAL FREE ENERGY PREDICTED BY IDOCK:   -7.78 KCAL/MOL
REMARK 923 INTER-LIGAND FREE ENERGY PREDICTED BY IDOCK:   -7.02 KCAL/MOL
REMARK 924 INTRA-LIGAND FREE ENERGY PREDICTED BY IDOCK:   -0.76 KCAL/MOL
REMARK 927      BINDING AFFINITY PREDICTED BY RF-SCORE:    0.00 PKD
ROOT
HETATM    1  C   UNL     1     -12.070  14.618  65.925  1.00  0.00    -0.212 C  
HETATM    2  C   UNL     1     -10.615  14.295  65.529  1.00  0.00    -0.340 C  
ENDROOT
BRANCH   2   3
HETATM    3  N   UNL     1     -10.058  13.047  66.152  1.00  0.00    -0.281 NA 
BRANCH   3   4
HETATM    4  C   UNL     1      -9.213  13.344  67.338  1.00  0.00    -0.213 C  
HETATM    5 CL   UNL     1      -6.940  13.228  68.837  1.00  0.00    -0.103 Cl 
HETATM    6  C   UNL     1      -7.811  12.714  67.362  1.00  0.00    -0.175 C  
ENDBRANCH   3   4
BRANCH   3   7
HETATM    7  C   UNL     1     -11.114  12.070  66.496  1.00  0.00    -0.314 C  
BRANCH   7   8
HETATM    8  C   UNL     1     -10.654  10.648  66.750  1.00  0.00    -0.297 A  
HETATM    9  C   UNL     1     -10.886  10.045  67.995  1.00  0.00    -0.311 A  
HETATM   10  C   UNL     1     -10.391   8.770  68.280  1.00  0.00    -0.252 A  
HETATM   11  C   UNL     1      -9.928   9.939  65.785  1.00  0.00    -0.347 A  
HETATM   12  C   UNL     1      -9.655   8.081  67.319  1.00  0.00    -0.210 A  
HETATM   13  C   UNL     1      -9.428   8.662  66.071  1.00  0.00    -0.278 A  
ENDBRANCH   7   8
ENDBRANCH   3   7
ENDBRANCH   2   3
BRANCH   2  14
HETATM   14  C   UNL     1      -9.720  15.543  65.773  1.00  0.00    -0.348 C  
BRANCH  14  15
HETATM   15  O   UNL     1     -10.457  16.730  65.452  1.00  0.00    -0.592 OA 
BRANCH  15  16
HETATM   16  C   UNL     1     -10.360  17.763  66.344  1.00  0.00    -0.351 A  
HETATM   17  C   UNL     1     -10.030  18.345  68.675  1.00  0.00    -0.415 A  
HETATM   18  C   UNL     1     -10.126  17.383  67.668  1.00  0.00    -0.327 A  
HETATM   19  C   UNL     1     -10.346  20.084  67.036  1.00  0.00    -0.555 A  
HETATM   20  C   UNL     1     -10.148  19.696  68.360  1.00  0.00    -0.557 A  
HETATM   21  C   UNL     1     -10.449  19.120  66.029  1.00  0.00    -0.546 A  
ENDBRANCH  15  16
ENDBRANCH  14  15
ENDBRANCH   2  14
TORSDOF 7
ENDMDL
MODEL      102
REMARK 921   NORMALIZED FREE ENERGY PREDICTED BY IDOCK:   -4.73 KCAL/MOL
REMARK 922        TOTAL FREE ENERGY PREDICTED BY IDOCK:   -7.76 KCAL/MOL
REMARK 923 INTER-LIGAND FREE ENERGY PREDICTED BY IDOCK:   -6.95 KCAL/MOL
REMARK 924 INTRA-LIGAND FREE ENERGY PREDICTED BY IDOCK:   -0.80 KCAL/MOL
REMARK 927      BINDING AFFINITY PREDICTED BY RF-SCORE:    0.00 PKD
ROOT
HETATM    1  C   UNL     1     -14.225   7.304  71.689  1.00  0.00    -0.558 C  
HETATM    2  C   UNL     1     -12.949   7.944  71.104  1.00  0.00    -0.104 C  
ENDROOT
BRANCH   2   3
HETATM    3  N   UNL     1     -11.719   7.088  71.199  1.00  0.00    -0.307 NA 
BRANCH   3   4
HETATM    4  C   UNL     1     -11.804   6.108  72.314  1.00  0.00    -0.275 C  
HETATM    5 CL   UNL     1     -10.889   4.084  73.892  1.00  0.00    -0.314 Cl 
HETATM    6  C   UNL     1     -10.619   5.143  72.477  1.00  0.00    -0.220 C  
ENDBRANCH   3   4
BRANCH   3   7
HETATM    7  C   UNL     1     -11.410   6.403  69.926  1.00  0.00    -0.434 C  
BRANCH   7   8
HETATM    8  C   UNL     1     -10.624   7.204  68.907  1.00  0.00    -0.218 A  
HETATM    9  C   UNL     1      -9.652   8.121  69.330  1.00  0.00    -0.167 A  
HETATM   10  C   UNL     1      -8.982   8.934  68.412  1.00  0.00    -0.134 A  
HETATM   11  C   UNL     1     -10.901   7.103  67.537  1.00  0.00    -0.311 A  
HETATM   12  C   UNL     1      -9.277   8.838  67.056  1.00  0.00    -0.177 A  
HETATM   13  C   UNL     1     -10.232   7.920  66.617  1.00  0.00    -0.303 A  
ENDBRANCH   7   8
ENDBRANCH   3   7
ENDBRANCH   2   3
BRANCH   2  14
HETATM   14  C   UNL     1     -12.749   9.359  71.718  1.00  0.00    -0.390 C  
BRANCH  14  15
HETATM   15  O   UNL     1     -12.154  10.224  70.741  1.00  0.00    -0.298 OA 
BRANCH  15  16
HETATM   16  C   UNL     1     -12.409  11.561  70.881  1.00  0.00    -0.359 A  
HETATM   17  C   UNL     1     -13.540  13.235  72.223  1.00  0.00    -0.703 A  
HETATM   18  C   UNL     1     -13.193  11.903  71.985  1.00  0.00    -0.461 A  
HETATM   19  C   UNL     1     -12.274  13.904  70.284  1.00  0.00    -0.428 A  
HETATM   20  C   UNL     1     -13.086  14.235  71.367  1.00  0.00    -0.421 A  
HETATM   21  C   UNL     1     -11.933  12.571  70.042  1.00  0.00    -0.372 A  
ENDBRANCH  15  16
ENDBRANCH  14  15
ENDBRANCH   2  14
TORSDOF 7
ENDMDL
MODEL      103
REMARK 921   NORMALIZED FREE ENERGY PREDICTED BY IDOCK:   -4.73 KCAL/MOL
REMARK 922        TOTAL FREE ENERGY PREDICTED BY IDOCK:   -7.76 KCAL/MOL
REMARK 923 INTER-LIGAND FREE ENERGY PREDICTED BY IDOCK:   -7.00 KCAL/MOL
REMARK 924 INTRA-LIGAND FREE ENERGY PREDICTED BY IDOCK:   -0.76 KCAL/MOL
REMARK 927      BINDING AFFINITY PREDICTED BY RF-SCORE:    0.00 PKD
ROOT
HETATM    1  C   UNL     1     -10.611   8.616  68.019  1.00  0.00    -0.205 C  
HETATM    2  C   UNL     1     -10.245   9.852  68.866  1.00  0.00    -0.196 C  
ENDROOT
BRANCH   2   3
HETATM    3  N   UNL     1     -10.898   9.902  70.217  1.00  0.00    -0.288 NA 
BRANCH   3   4
HETATM    4  C   UNL     1     -11.638  11.174  70.433  1.00  0.00    -0.259 C  
HETATM    5 CL   UNL     1     -13.443  12.796  71.673  1.00  0.00    -0.329 Cl 
HETATM    6  C   UNL     1     -12.706  11.172  71.538  1.00  0.00    -0.394 C  
ENDBRANCH   3   4
BRANCH   3   7
HETATM    7  C   UNL     1     -11.780   8.739  70.459  1.00  0.00    -0.094 C  
BRANCH   7   8
HETATM    8  C   UNL     1     -11.321   7.761  71.522  1.00  0.00    -0.289 A  
HETATM    9  C   UNL     1     -11.867   6.471  71.575  1.00  0.00    -0.386 A  
HETATM   10  C   UNL     1     -11.525   5.586  72.601  1.00  0.00    -0.331 A  
HETATM   11  C   UNL     1     -10.406   8.144  72.512  1.00  0.00    -0.401 A  
HETATM   12  C   UNL     1     -10.628   5.983  73.589  1.00  0.00    -0.281 A  
HETATM   13  C   UNL     1     -10.064   7.259  73.542  1.00  0.00    -0.387 A  
ENDBRANCH   7   8
ENDBRANCH   3   7
ENDBRANCH   2   3
BRANCH   2  14
HETATM   14  C   UNL     1     -10.483  11.143  68.032  1.00  0.00    -0.188 C  
BRANCH  14  15
HETATM   15  O   UNL     1     -10.539  10.809  66.639  1.00  0.00    -0.245 OA 
BRANCH  15  16
HETATM   16  C   UNL     1     -11.090  11.751  65.812  1.00  0.00    -0.297 A  
HETATM   17  C   UNL     1     -11.335  12.467  63.508  1.00  0.00    -0.556 A  
HETATM   18  C   UNL     1     -10.844  11.560  64.450  1.00  0.00    -0.405 A  
HETATM   19  C   UNL     1     -12.370  13.736  65.277  1.00  0.00    -0.491 A  
HETATM   20  C   UNL     1     -12.092  13.560  63.923  1.00  0.00    -0.493 A  
HETATM   21  C   UNL     1     -11.873  12.832  66.220  1.00  0.00    -0.485 A  
ENDBRANCH  15  16
ENDBRANCH  14  15
ENDBRANCH   2  14
TORSDOF 7
ENDMDL
MODEL      104
REMARK 921   NORMALIZED FREE ENERGY PREDICTED BY IDOCK:   -4.67 KCAL/MOL
REMARK 922        TOTAL FREE ENERGY PREDICTED BY IDOCK:   -7.68 KCAL/MOL
REMARK 923 INTER-LIGAND FREE ENERGY PREDICTED BY IDOCK:   -6.83 KCAL/MOL
REMARK 924 INTRA-LIGAND FREE ENERGY PREDICTED BY IDOCK:   -0.86 KCAL/MOL
REMARK 927      BINDING AFFINITY PREDICTED BY RF-SCORE:    0.00 PKD
ROOT
HETATM    1  C   UNL     1      -8.513  13.799  68.016  1.00  0.00    -0.176 C  
HETATM    2  C   UNL     1      -9.941  13.727  67.440  1.00  0.00    -0.237 C  
ENDROOT
BRANCH   2   3
HETATM    3  N   UNL     1     -10.412  14.986  66.770  1.00  0.00    -0.277 NA 
BRANCH   3   4
HETATM    4  C   UNL     1     -11.390  14.710  65.685  1.00  0.00    -0.338 C  
HETATM    5 CL   UNL     1     -12.301  13.445  63.451  1.00  0.00    -0.476 Cl 
HETATM    6  C   UNL     1     -10.979  13.668  64.633  1.00  0.00    -0.396 C  
ENDBRANCH   3   4
BRANCH   3   7
HETATM    7  C   UNL     1     -10.964  15.963  67.733  1.00  0.00    -0.315 C  
BRANCH   7   8
HETATM    8  C   UNL     1     -10.222  17.280  67.850  1.00  0.00    -0.332 A  
HETATM    9  C   UNL     1     -10.764  18.446  67.288  1.00  0.00    -0.389 A  
HETATM   10  C   UNL     1     -10.054  19.649  67.306  1.00  0.00    -0.534 A  
HETATM   11  C   UNL     1      -8.958  17.349  68.450  1.00  0.00    -0.277 A  
HETATM   12  C   UNL     1      -8.791  19.701  67.889  1.00  0.00    -0.379 A  
HETATM   13  C   UNL     1      -8.245  18.554  68.466  1.00  0.00    -0.360 A  
ENDBRANCH   7   8
ENDBRANCH   3   7
ENDBRANCH   2   3
BRANCH   2  14
HETATM   14  C   UNL     1     -10.921  13.227  68.539  1.00  0.00    -0.266 C  
BRANCH  14  15
HETATM   15  O   UNL     1     -11.738  12.174  68.010  1.00  0.00    -0.331 OA 
BRANCH  15  16
HETATM   16  C   UNL     1     -11.290  10.897  68.216  1.00  0.00    -0.308 A  
HETATM   17  C   UNL     1     -10.839   9.200  69.888  1.00  0.00    -0.242 A  
HETATM   18  C   UNL     1     -11.294  10.475  69.548  1.00  0.00    -0.341 A  
HETATM   19  C   UNL     1     -10.422   8.734  67.561  1.00  0.00    -0.340 A  
HETATM   20  C   UNL     1     -10.396   8.332  68.894  1.00  0.00    -0.230 A  
HETATM   21  C   UNL     1     -10.871  10.013  67.220  1.00  0.00    -0.284 A  
ENDBRANCH  15  16
ENDBRANCH  14  15
ENDBRANCH   2  14
TORSDOF 7
ENDMDL
MODEL      105
REMARK 921   NORMALIZED FREE ENERGY PREDICTED BY IDOCK:   -4.67 KCAL/MOL
REMARK 922        TOTAL FREE ENERGY PREDICTED BY IDOCK:   -7.68 KCAL/MOL
REMARK 923 INTER-LIGAND FREE ENERGY PREDICTED BY IDOCK:   -6.88 KCAL/MOL
REMARK 924 INTRA-LIGAND FREE ENERGY PREDICTED BY IDOCK:   -0.79 KCAL/MOL
REMARK 927      BINDING AFFINITY PREDICTED BY RF-SCORE:    0.00 PKD
ROOT
HETATM    1  C   UNL     1     -12.272  14.215  66.944  1.00  0.00    -0.400 C  
HETATM    2  C   UNL     1     -11.782  14.109  68.402  1.00  0.00    -0.345 C  
ENDROOT
BRANCH   2   3
HETATM    3  N   UNL     1     -11.281  15.397  68.991  1.00  0.00    -0.271 NA 
BRANCH   3   4
HETATM    4  C   UNL     1     -11.836  15.644  70.348  1.00  0.00    -0.370 C  
HETATM    5 CL   UNL     1     -13.637  15.333  72.369  1.00  0.00    -0.532 Cl 
HETATM    6  C   UNL     1     -13.165  14.952  70.687  1.00  0.00    -0.274 C  
ENDBRANCH   3   4
BRANCH   3   7
HETATM    7  C   UNL     1      -9.804  15.470  69.010  1.00  0.00    -0.235 C  
BRANCH   7   8
HETATM    8  C   UNL     1      -9.172  16.494  68.089  1.00  0.00    -0.217 A  
HETATM    9  C   UNL     1      -8.131  16.119  67.227  1.00  0.00    -0.202 A  
HETATM   10  C   UNL     1      -7.474  17.066  66.438  1.00  0.00    -0.336 A  
HETATM   11  C   UNL     1      -9.556  17.841  68.132  1.00  0.00    -0.303 A  
HETATM   12  C   UNL     1      -7.853  18.404  66.501  1.00  0.00    -0.279 A  
HETATM   13  C   UNL     1      -8.896  18.792  67.342  1.00  0.00    -0.285 A  
ENDBRANCH   7   8
ENDBRANCH   3   7
ENDBRANCH   2   3
BRANCH   2  14
HETATM   14  C   UNL     1     -10.752  12.951  68.522  1.00  0.00    -0.254 C  
BRANCH  14  15
HETATM   15  O   UNL     1     -11.429  11.693  68.400  1.00  0.00    -0.246 OA 
BRANCH  15  16
HETATM   16  C   UNL     1     -11.442  10.900  69.516  1.00  0.00    -0.301 A  
HETATM   17  C   UNL     1     -10.190   9.272  70.805  1.00  0.00    -0.353 A  
HETATM   18  C   UNL     1     -10.288  10.137  69.713  1.00  0.00    -0.297 A  
HETATM   19  C   UNL     1     -12.376   9.966  71.545  1.00  0.00    -0.504 A  
HETATM   20  C   UNL     1     -11.238   9.181  71.717  1.00  0.00    -0.451 A  
HETATM   21  C   UNL     1     -12.478  10.826  70.448  1.00  0.00    -0.430 A  
ENDBRANCH  15  16
ENDBRANCH  14  15
ENDBRANCH   2  14
TORSDOF 7
ENDMDL
MODEL      106
REMARK 921   NORMALIZED FREE ENERGY PREDICTED BY IDOCK:   -4.66 KCAL/MOL
REMARK 922        TOTAL FREE ENERGY PREDICTED BY IDOCK:   -7.67 KCAL/MOL
REMARK 923 INTER-LIGAND FREE ENERGY PREDICTED BY IDOCK:   -7.29 KCAL/MOL
REMARK 924 INTRA-LIGAND FREE ENERGY PREDICTED BY IDOCK:   -0.37 KCAL/MOL
REMARK 927      BINDING AFFINITY PREDICTED BY RF-SCORE:    0.00 PKD
ROOT
HETATM    1  C   UNL     1     -12.097  13.967  68.352  1.00  0.00    -0.327 C  
HETATM    2  C   UNL     1     -10.710  13.295  68.302  1.00  0.00    -0.252 C  
ENDROOT
BRANCH   2   3
HETATM    3  N   UNL     1     -10.069  13.281  66.944  1.00  0.00    -0.246 NA 
BRANCH   3   4
HETATM    4  C   UNL     1     -11.072  13.374  65.851  1.00  0.00    -0.280 C  
HETATM    5 CL   UNL     1     -11.995  13.005  63.313  1.00  0.00    -0.601 Cl 
HETATM    6  C   UNL     1     -10.641  12.852  64.471  1.00  0.00    -0.382 C  
ENDBRANCH   3   4
BRANCH   3   7
HETATM    7  C   UNL     1      -9.040  14.333  66.796  1.00  0.00    -0.249 C  
BRANCH   7   8
HETATM    8  C   UNL     1      -9.509  15.761  66.989  1.00  0.00    -0.235 A  
HETATM    9  C   UNL     1     -10.053  16.476  65.911  1.00  0.00    -0.359 A  
HETATM   10  C   UNL     1     -10.406  17.821  66.045  1.00  0.00    -0.304 A  
HETATM   11  C   UNL     1      -9.344  16.419  68.214  1.00  0.00    -0.210 A  
HETATM   12  C   UNL     1     -10.221  18.469  67.263  1.00  0.00    -0.400 A  
HETATM   13  C   UNL     1      -9.696  17.768  68.349  1.00  0.00    -0.333 A  
ENDBRANCH   7   8
ENDBRANCH   3   7
ENDBRANCH   2   3
BRANCH   2  14
HETATM   14  C   UNL     1     -10.793  11.882  68.944  1.00  0.00    -0.221 C  
BRANCH  14  15
HETATM   15  O   UNL     1     -11.823  11.869  69.941  1.00  0.00    -0.319 OA 
BRANCH  15  16
HETATM   16  C   UNL     1     -11.926  10.729  70.692  1.00  0.00    -0.367 A  
HETATM   17  C   UNL     1     -10.842   8.643  71.289  1.00  0.00    -0.327 A  
HETATM   18  C   UNL     1     -10.844   9.851  70.588  1.00  0.00    -0.400 A  
HETATM   19  C   UNL     1     -12.980   9.203  72.249  1.00  0.00    -0.492 A  
HETATM   20  C   UNL     1     -11.914   8.316  72.114  1.00  0.00    -0.429 A  
HETATM   21  C   UNL     1     -12.986  10.409  71.543  1.00  0.00    -0.562 A  
ENDBRANCH  15  16
ENDBRANCH  14  15
ENDBRANCH   2  14
TORSDOF 7
ENDMDL
MODEL      107
REMARK 921   NORMALIZED FREE ENERGY PREDICTED BY IDOCK:   -4.64 KCAL/MOL
REMARK 922        TOTAL FREE ENERGY PREDICTED BY IDOCK:   -7.63 KCAL/MOL
REMARK 923 INTER-LIGAND FREE ENERGY PREDICTED BY IDOCK:   -6.88 KCAL/MOL
REMARK 924 INTRA-LIGAND FREE ENERGY PREDICTED BY IDOCK:   -0.75 KCAL/MOL
REMARK 927      BINDING AFFINITY PREDICTED BY RF-SCORE:    0.00 PKD
ROOT
HETATM    1  C   UNL     1     -10.487   9.761  70.599  1.00  0.00    -0.358 C  
HETATM    2  C   UNL     1     -11.084  10.123  69.225  1.00  0.00    -0.225 C  
ENDROOT
BRANCH   2   3
HETATM    3  N   UNL     1     -10.071  10.469  68.172  1.00  0.00    -0.154 NA 
BRANCH   3   4
HETATM    4  C   UNL     1      -8.695  10.561  68.729  1.00  0.00    -0.154 C  
HETATM    5 CL   UNL     1      -6.313  11.788  69.224  1.00  0.00    -0.093 Cl 
HETATM    6  C   UNL     1      -7.915  11.851  68.431  1.00  0.00    -0.154 C  
ENDBRANCH   3   4
BRANCH   3   7
HETATM    7  C   UNL     1     -10.107   9.533  67.027  1.00  0.00    -0.234 C  
BRANCH   7   8
HETATM    8  C   UNL     1     -10.103  10.162  65.648  1.00  0.00    -0.324 A  
HETATM    9  C   UNL     1      -9.226   9.688  64.660  1.00  0.00    -0.293 A  
HETATM   10  C   UNL     1      -9.142  10.312  63.413  1.00  0.00    -0.284 A  
HETATM   11  C   UNL     1     -10.911  11.267  65.353  1.00  0.00    -0.255 A  
HETATM   12  C   UNL     1      -9.938  11.421  63.138  1.00  0.00    -0.402 A  
HETATM   13  C   UNL     1     -10.826  11.896  64.104  1.00  0.00    -0.412 A  
ENDBRANCH   7   8
ENDBRANCH   3   7
ENDBRANCH   2   3
BRANCH   2  14
HETATM   14  C   UNL     1     -12.169  11.223  69.402  1.00  0.00    -0.247 C  
BRANCH  14  15
HETATM   15  O   UNL     1     -12.325  11.521  70.796  1.00  0.00    -0.374 OA 
BRANCH  15  16
HETATM   16  C   UNL     1     -12.755  12.784  71.100  1.00  0.00    -0.263 A  
HETATM   17  C   UNL     1     -12.643  15.123  70.470  1.00  0.00    -0.429 A  
HETATM   18  C   UNL     1     -12.291  13.790  70.249  1.00  0.00    -0.407 A  
HETATM   19  C   UNL     1     -13.972  14.452  72.365  1.00  0.00    -0.585 A  
HETATM   20  C   UNL     1     -13.478  15.455  71.534  1.00  0.00    -0.601 A  
HETATM   21  C   UNL     1     -13.615  13.119  72.148  1.00  0.00    -0.637 A  
ENDBRANCH  15  16
ENDBRANCH  14  15
ENDBRANCH   2  14
TORSDOF 7
ENDMDL
MODEL      108
REMARK 921   NORMALIZED FREE ENERGY PREDICTED BY IDOCK:   -4.64 KCAL/MOL
REMARK 922        TOTAL FREE ENERGY PREDICTED BY IDOCK:   -7.63 KCAL/MOL
REMARK 923 INTER-LIGAND FREE ENERGY PREDICTED BY IDOCK:   -5.57 KCAL/MOL
REMARK 924 INTRA-LIGAND FREE ENERGY PREDICTED BY IDOCK:   -2.06 KCAL/MOL
REMARK 927      BINDING AFFINITY PREDICTED BY RF-SCORE:    0.00 PKD
ROOT
HETATM    1  C   UNL     1     -10.463  14.035  66.783  1.00  0.00    -0.277 C  
HETATM    2  C   UNL     1      -9.547  15.020  67.537  1.00  0.00    -0.203 C  
ENDROOT
BRANCH   2   3
HETATM    3  N   UNL     1      -8.323  14.398  68.147  1.00  0.00    -0.149 NA 
BRANCH   3   4
HETATM    4  C   UNL     1      -8.407  12.914  68.176  1.00  0.00    -0.168 C  
HETATM    5 CL   UNL     1      -7.597  10.386  67.559  1.00  0.00    -0.093 Cl 
HETATM    6  C   UNL     1      -7.359  12.147  67.355  1.00  0.00    -0.151 C  
ENDBRANCH   3   4
BRANCH   3   7
HETATM    7  C   UNL     1      -7.078  14.836  67.480  1.00  0.00    -0.184 C  
BRANCH   7   8
HETATM    8  C   UNL     1      -6.801  16.326  67.492  1.00  0.00    -0.189 A  
HETATM    9  C   UNL     1      -6.686  17.031  66.284  1.00  0.00    -0.140 A  
HETATM   10  C   UNL     1      -6.341  18.385  66.271  1.00  0.00    -0.231 A  
HETATM   11  C   UNL     1      -6.580  17.013  68.693  1.00  0.00    -0.177 A  
HETATM   12  C   UNL     1      -6.107  19.052  67.470  1.00  0.00    -0.189 A  
HETATM   13  C   UNL     1      -6.231  18.369  68.681  1.00  0.00    -0.210 A  
ENDBRANCH   7   8
ENDBRANCH   3   7
ENDBRANCH   2   3
BRANCH   2  14
HETATM   14  C   UNL     1     -10.387  15.830  68.565  1.00  0.00    -0.229 C  
BRANCH  14  15
HETATM   15  O   UNL     1     -11.214  16.773  67.870  1.00  0.00    -0.249 OA 
BRANCH  15  16
HETATM   16  C   UNL     1     -10.643  17.983  67.581  1.00  0.00    -0.399 A  
HETATM   17  C   UNL     1      -9.568  19.943  68.521  1.00  0.00    -0.377 A  
HETATM   18  C   UNL     1     -10.154  18.686  68.685  1.00  0.00    -0.412 A  
HETATM   19  C   UNL     1      -9.905  19.783  66.140  1.00  0.00    -0.544 A  
HETATM   20  C   UNL     1      -9.451  20.495  67.248  1.00  0.00    -0.559 A  
HETATM   21  C   UNL     1     -10.498  18.529  66.304  1.00  0.00    -0.441 A  
ENDBRANCH  15  16
ENDBRANCH  14  15
ENDBRANCH   2  14
TORSDOF 7
ENDMDL
MODEL      109
REMARK 921   NORMALIZED FREE ENERGY PREDICTED BY IDOCK:   -4.62 KCAL/MOL
REMARK 922        TOTAL FREE ENERGY PREDICTED BY IDOCK:   -7.61 KCAL/MOL
REMARK 923 INTER-LIGAND FREE ENERGY PREDICTED BY IDOCK:   -7.08 KCAL/MOL
REMARK 924 INTRA-LIGAND FREE ENERGY PREDICTED BY IDOCK:   -0.53 KCAL/MOL
REMARK 927      BINDING AFFINITY PREDICTED BY RF-SCORE:    0.00 PKD
ROOT
HETATM    1  C   UNL     1      -7.950  14.899  68.347  1.00  0.00    -0.134 C  
HETATM    2  C   UNL     1      -9.483  14.747  68.274  1.00  0.00    -0.207 C  
ENDROOT
BRANCH   2   3
HETATM    3  N   UNL     1     -10.099  15.210  66.985  1.00  0.00    -0.241 NA 
BRANCH   3   4
HETATM    4  C   UNL     1      -9.369  16.366  66.400  1.00  0.00    -0.292 C  
HETATM    5 CL   UNL     1      -8.735  19.003  66.135  1.00  0.00    -0.265 Cl 
HETATM    6  C   UNL     1      -9.752  17.759  66.921  1.00  0.00    -0.300 C  
ENDBRANCH   3   4
BRANCH   3   7
HETATM    7  C   UNL     1     -10.222  14.117  65.996  1.00  0.00    -0.308 C  
BRANCH   7   8
HETATM    8  C   UNL     1     -10.310  12.712  66.558  1.00  0.00    -0.256 A  
HETATM    9  C   UNL     1      -9.384  11.736  66.162  1.00  0.00    -0.236 A  
HETATM   10  C   UNL     1      -9.503  10.413  66.597  1.00  0.00    -0.199 A  
HETATM   11  C   UNL     1     -11.352  12.340  67.417  1.00  0.00    -0.389 A  
HETATM   12  C   UNL     1     -10.552  10.052  67.437  1.00  0.00    -0.330 A  
HETATM   13  C   UNL     1     -11.473  11.014  67.851  1.00  0.00    -0.358 A  
ENDBRANCH   7   8
ENDBRANCH   3   7
ENDBRANCH   2   3
BRANCH   2  14
HETATM   14  C   UNL     1     -10.131  15.408  69.524  1.00  0.00    -0.276 C  
BRANCH  14  15
HETATM   15  O   UNL     1     -11.528  15.087  69.565  1.00  0.00    -0.259 OA 
BRANCH  15  16
HETATM   16  C   UNL     1     -12.126  15.141  70.795  1.00  0.00    -0.336 A  
HETATM   17  C   UNL     1     -12.133  16.255  72.949  1.00  0.00    -0.625 A  
HETATM   18  C   UNL     1     -11.619  16.116  71.658  1.00  0.00    -0.503 A  
HETATM   19  C   UNL     1     -13.703  14.481  72.509  1.00  0.00    -0.580 A  
HETATM   20  C   UNL     1     -13.170  15.431  73.377  1.00  0.00    -0.570 A  
HETATM   21  C   UNL     1     -13.185  14.337  71.220  1.00  0.00    -0.412 A  
ENDBRANCH  15  16
ENDBRANCH  14  15
ENDBRANCH   2  14
TORSDOF 7
ENDMDL
MODEL      110
REMARK 921   NORMALIZED FREE ENERGY PREDICTED BY IDOCK:   -4.62 KCAL/MOL
REMARK 922        TOTAL FREE ENERGY PREDICTED BY IDOCK:   -7.61 KCAL/MOL
REMARK 923 INTER-LIGAND FREE ENERGY PREDICTED BY IDOCK:   -6.55 KCAL/MOL
REMARK 924 INTRA-LIGAND FREE ENERGY PREDICTED BY IDOCK:   -1.06 KCAL/MOL
REMARK 927      BINDING AFFINITY PREDICTED BY RF-SCORE:    0.00 PKD
ROOT
HETATM    1  C   UNL     1      -7.371   8.546  65.909  1.00  0.00    -0.077 C  
HETATM    2  C   UNL     1      -7.973   9.587  66.875  1.00  0.00    -0.109 C  
ENDROOT
BRANCH   2   3
HETATM    3  N   UNL     1      -9.156   9.101  67.663  1.00  0.00    -0.123 NA 
BRANCH   3   4
HETATM    4  C   UNL     1      -9.385   7.643  67.486  1.00  0.00    -0.139 C  
HETATM    5 CL   UNL     1     -10.829   5.441  66.782  1.00  0.00    -0.276 Cl 
HETATM    6  C   UNL     1     -10.770   7.219  66.974  1.00  0.00    -0.336 C  
ENDBRANCH   3   4
BRANCH   3   7
HETATM    7  C   UNL     1      -9.054   9.442  69.098  1.00  0.00    -0.148 C  
BRANCH   7   8
HETATM    8  C   UNL     1     -10.359   9.738  69.811  1.00  0.00    -0.274 A  
HETATM    9  C   UNL     1     -11.065  10.916  69.526  1.00  0.00    -0.326 A  
HETATM   10  C   UNL     1     -12.220  11.252  70.236  1.00  0.00    -0.428 A  
HETATM   11  C   UNL     1     -10.845   8.890  70.813  1.00  0.00    -0.294 A  
HETATM   12  C   UNL     1     -12.685  10.410  71.243  1.00  0.00    -0.536 A  
HETATM   13  C   UNL     1     -12.002   9.227  71.528  1.00  0.00    -0.439 A  
ENDBRANCH   7   8
ENDBRANCH   3   7
ENDBRANCH   2   3
BRANCH   2  14
HETATM   14  C   UNL     1      -8.262  10.906  66.104  1.00  0.00    -0.168 C  
BRANCH  14  15
HETATM   15  O   UNL     1      -9.164  10.640  65.022  1.00  0.00    -0.189 OA 
BRANCH  15  16
HETATM   16  C   UNL     1     -10.296  11.409  64.974  1.00  0.00    -0.287 A  
HETATM   17  C   UNL     1     -11.977  12.373  63.516  1.00  0.00    -0.627 A  
HETATM   18  C   UNL     1     -10.835  11.590  63.698  1.00  0.00    -0.488 A  
HETATM   19  C   UNL     1     -12.084  12.758  65.893  1.00  0.00    -0.485 A  
HETATM   20  C   UNL     1     -12.597  12.964  64.614  1.00  0.00    -0.459 A  
HETATM   21  C   UNL     1     -10.938  11.980  66.074  1.00  0.00    -0.346 A  
ENDBRANCH  15  16
ENDBRANCH  14  15
ENDBRANCH   2  14
TORSDOF 7
ENDMDL
MODEL      111
REMARK 921   NORMALIZED FREE ENERGY PREDICTED BY IDOCK:   -4.58 KCAL/MOL
REMARK 922        TOTAL FREE ENERGY PREDICTED BY IDOCK:   -7.55 KCAL/MOL
REMARK 923 INTER-LIGAND FREE ENERGY PREDICTED BY IDOCK:   -5.84 KCAL/MOL
REMARK 924 INTRA-LIGAND FREE ENERGY PREDICTED BY IDOCK:   -1.71 KCAL/MOL
REMARK 927      BINDING AFFINITY PREDICTED BY RF-SCORE:    0.00 PKD
ROOT
HETATM    1  C   UNL     1      -7.507  10.945  68.882  1.00  0.00    -0.116 C  
HETATM    2  C   UNL     1      -8.679  11.749  68.284  1.00  0.00    -0.167 C  
ENDROOT
BRANCH   2   3
HETATM    3  N   UNL     1      -9.761  10.914  67.663  1.00  0.00    -0.169 NA 
BRANCH   3   4
HETATM    4  C   UNL     1      -9.791   9.535  68.219  1.00  0.00    -0.155 C  
HETATM    5 CL   UNL     1     -10.170   6.839  68.105  1.00  0.00    -0.181 Cl 
HETATM    6  C   UNL     1     -10.249   8.418  67.269  1.00  0.00    -0.279 C  
ENDBRANCH   3   4
BRANCH   3   7
HETATM    7  C   UNL     1     -11.093  11.548  67.770  1.00  0.00    -0.260 C  
BRANCH   7   8
HETATM    8  C   UNL     1     -11.560  12.333  66.560  1.00  0.00    -0.440 A  
HETATM    9  C   UNL     1     -11.246  11.889  65.268  1.00  0.00    -0.351 A  
HETATM   10  C   UNL     1     -11.588  12.645  64.144  1.00  0.00    -0.458 A  
HETATM   11  C   UNL     1     -12.244  13.546  66.705  1.00  0.00    -0.411 A  
HETATM   12  C   UNL     1     -12.253  13.858  64.301  1.00  0.00    -0.447 A  
HETATM   13  C   UNL     1     -12.586  14.307  65.579  1.00  0.00    -0.429 A  
ENDBRANCH   7   8
ENDBRANCH   3   7
ENDBRANCH   2   3
BRANCH   2  14
HETATM   14  C   UNL     1      -8.126  12.835  67.319  1.00  0.00    -0.172 C  
BRANCH  14  15
HETATM   15  O   UNL     1      -8.019  14.085  68.014  1.00  0.00    -0.127 OA 
BRANCH  15  16
HETATM   16  C   UNL     1      -8.803  15.105  67.550  1.00  0.00    -0.182 A  
HETATM   17  C   UNL     1     -10.337  16.874  68.184  1.00  0.00    -0.336 A  
HETATM   18  C   UNL     1      -9.487  15.823  68.534  1.00  0.00    -0.201 A  
HETATM   19  C   UNL     1      -9.786  16.537  65.862  1.00  0.00    -0.324 A  
HETATM   20  C   UNL     1     -10.492  17.226  66.846  1.00  0.00    -0.272 A  
HETATM   21  C   UNL     1      -8.941  15.480  66.212  1.00  0.00    -0.362 A  
ENDBRANCH  15  16
ENDBRANCH  14  15
ENDBRANCH   2  14
TORSDOF 7
ENDMDL
MODEL      112
REMARK 921   NORMALIZED FREE ENERGY PREDICTED BY IDOCK:   -4.57 KCAL/MOL
REMARK 922        TOTAL FREE ENERGY PREDICTED BY IDOCK:   -7.54 KCAL/MOL
REMARK 923 INTER-LIGAND FREE ENERGY PREDICTED BY IDOCK:   -6.57 KCAL/MOL
REMARK 924 INTRA-LIGAND FREE ENERGY PREDICTED BY IDOCK:   -0.96 KCAL/MOL
REMARK 927      BINDING AFFINITY PREDICTED BY RF-SCORE:    0.00 PKD
ROOT
HETATM    1  C   UNL     1      -8.054  11.662  68.187  1.00  0.00    -0.148 C  
HETATM    2  C   UNL     1      -9.451  11.844  67.559  1.00  0.00    -0.176 C  
ENDROOT
BRANCH   2   3
HETATM    3  N   UNL     1     -10.208  13.044  68.051  1.00  0.00    -0.227 NA 
BRANCH   3   4
HETATM    4  C   UNL     1     -10.071  14.206  67.133  1.00  0.00    -0.258 C  
HETATM    5 CL   UNL     1     -10.853  15.855  65.110  1.00  0.00    -0.443 Cl 
HETATM    6  C   UNL     1     -11.172  14.384  66.076  1.00  0.00    -0.333 C  
ENDBRANCH   3   4
BRANCH   3   7
HETATM    7  C   UNL     1     -11.635  12.745  68.302  1.00  0.00    -0.334 C  
BRANCH   7   8
HETATM    8  C   UNL     1     -12.139  13.016  69.706  1.00  0.00    -0.325 A  
HETATM    9  C   UNL     1     -12.501  11.951  70.543  1.00  0.00    -0.301 A  
HETATM   10  C   UNL     1     -13.054  12.184  71.805  1.00  0.00    -0.457 A  
HETATM   11  C   UNL     1     -12.323  14.326  70.168  1.00  0.00    -0.413 A  
HETATM   12  C   UNL     1     -13.249  13.489  72.247  1.00  0.00    -0.571 A  
HETATM   13  C   UNL     1     -12.879  14.560  71.432  1.00  0.00    -0.406 A  
ENDBRANCH   7   8
ENDBRANCH   3   7
ENDBRANCH   2   3
BRANCH   2  14
HETATM   14  C   UNL     1     -10.259  10.522  67.697  1.00  0.00    -0.197 C  
BRANCH  14  15
HETATM   15  O   UNL     1      -9.502   9.576  68.465  1.00  0.00    -0.140 OA 
BRANCH  15  16
HETATM   16  C   UNL     1     -10.224   8.636  69.149  1.00  0.00    -0.208 A  
HETATM   17  C   UNL     1     -11.147   6.395  69.062  1.00  0.00    -0.424 A  
HETATM   18  C   UNL     1     -10.408   7.425  68.476  1.00  0.00    -0.221 A  
HETATM   19  C   UNL     1     -11.478   7.755  71.024  1.00  0.00    -0.298 A  
HETATM   20  C   UNL     1     -11.688   6.563  70.333  1.00  0.00    -0.439 A  
HETATM   21  C   UNL     1     -10.745   8.789  70.435  1.00  0.00    -0.254 A  
ENDBRANCH  15  16
ENDBRANCH  14  15
ENDBRANCH   2  14
TORSDOF 7
ENDMDL
MODEL      113
REMARK 921   NORMALIZED FREE ENERGY PREDICTED BY IDOCK:   -4.57 KCAL/MOL
REMARK 922        TOTAL FREE ENERGY PREDICTED BY IDOCK:   -7.53 KCAL/MOL
REMARK 923 INTER-LIGAND FREE ENERGY PREDICTED BY IDOCK:   -7.02 KCAL/MOL
REMARK 924 INTRA-LIGAND FREE ENERGY PREDICTED BY IDOCK:   -0.51 KCAL/MOL
REMARK 927      BINDING AFFINITY PREDICTED BY RF-SCORE:    0.00 PKD
ROOT
HETATM    1  C   UNL     1     -14.136   8.744  71.625  1.00  0.00    -0.437 C  
HETATM    2  C   UNL     1     -12.856   9.589  71.786  1.00  0.00    -0.406 C  
ENDROOT
BRANCH   2   3
HETATM    3  N   UNL     1     -12.863  10.887  71.032  1.00  0.00    -0.380 NA 
BRANCH   3   4
HETATM    4  C   UNL     1     -13.325  12.021  71.876  1.00  0.00    -0.304 C  
HETATM    5 CL   UNL     1     -13.568  14.648  72.557  1.00  0.00    -0.531 Cl 
HETATM    6  C   UNL     1     -12.873  13.427  71.451  1.00  0.00    -0.333 C  
ENDBRANCH   3   4
BRANCH   3   7
HETATM    7  C   UNL     1     -11.550  11.192  70.424  1.00  0.00    -0.259 C  
BRANCH   7   8
HETATM    8  C   UNL     1     -11.538  11.399  68.923  1.00  0.00    -0.388 A  
HETATM    9  C   UNL     1     -10.998  10.417  68.081  1.00  0.00    -0.334 A  
HETATM   10  C   UNL     1     -10.894  10.628  66.703  1.00  0.00    -0.197 A  
HETATM   11  C   UNL     1     -11.992  12.596  68.354  1.00  0.00    -0.268 A  
HETATM   12  C   UNL     1     -11.333  11.828  66.151  1.00  0.00    -0.342 A  
HETATM   13  C   UNL     1     -11.887  12.810  66.973  1.00  0.00    -0.428 A  
ENDBRANCH   7   8
ENDBRANCH   3   7
ENDBRANCH   2   3
BRANCH   2  14
HETATM   14  C   UNL     1     -11.612   8.713  71.467  1.00  0.00    -0.302 C  
BRANCH  14  15
HETATM   15  O   UNL     1     -12.036   7.466  70.901  1.00  0.00    -0.307 OA 
BRANCH  15  16
HETATM   16  C   UNL     1     -11.280   6.369  71.214  1.00  0.00    -0.292 A  
HETATM   17  C   UNL     1     -10.669   4.819  72.977  1.00  0.00    -0.302 A  
HETATM   18  C   UNL     1     -11.407   5.917  72.530  1.00  0.00    -0.352 A  
HETATM   19  C   UNL     1      -9.709   4.578  70.779  1.00  0.00    -0.267 A  
HETATM   20  C   UNL     1      -9.814   4.154  72.102  1.00  0.00    -0.235 A  
HETATM   21  C   UNL     1     -10.442   5.682  70.334  1.00  0.00    -0.355 A  
ENDBRANCH  15  16
ENDBRANCH  14  15
ENDBRANCH   2  14
TORSDOF 7
ENDMDL
MODEL      114
REMARK 921   NORMALIZED FREE ENERGY PREDICTED BY IDOCK:   -4.55 KCAL/MOL
REMARK 922        TOTAL FREE ENERGY PREDICTED BY IDOCK:   -7.51 KCAL/MOL
REMARK 923 INTER-LIGAND FREE ENERGY PREDICTED BY IDOCK:   -6.79 KCAL/MOL
REMARK 924 INTRA-LIGAND FREE ENERGY PREDICTED BY IDOCK:   -0.72 KCAL/MOL
REMARK 927      BINDING AFFINITY PREDICTED BY RF-SCORE:    0.00 PKD
ROOT
HETATM    1  C   UNL     1     -11.939  13.929  68.631  1.00  0.00    -0.401 C  
HETATM    2  C   UNL     1     -11.071  12.803  68.033  1.00  0.00    -0.250 C  
ENDROOT
BRANCH   2   3
HETATM    3  N   UNL     1     -10.929  12.847  66.539  1.00  0.00    -0.270 NA 
BRANCH   3   4
HETATM    4  C   UNL     1     -11.441  14.119  65.965  1.00  0.00    -0.342 C  
HETATM    5 CL   UNL     1     -11.221  16.498  64.655  1.00  0.00    -0.306 Cl 
HETATM    6  C   UNL     1     -10.404  15.054  65.325  1.00  0.00    -0.395 C  
ENDBRANCH   3   4
BRANCH   3   7
HETATM    7  C   UNL     1      -9.538  12.600  66.099  1.00  0.00    -0.222 C  
BRANCH   7   8
HETATM    8  C   UNL     1      -9.328  11.415  65.177  1.00  0.00    -0.172 A  
HETATM    9  C   UNL     1      -8.590  10.305  65.613  1.00  0.00    -0.170 A  
HETATM   10  C   UNL     1      -8.307   9.244  64.749  1.00  0.00    -0.167 A  
HETATM   11  C   UNL     1      -9.795  11.433  63.857  1.00  0.00    -0.335 A  
HETATM   12  C   UNL     1      -8.762   9.281  63.434  1.00  0.00    -0.193 A  
HETATM   13  C   UNL     1      -9.511  10.371  62.989  1.00  0.00    -0.362 A  
ENDBRANCH   7   8
ENDBRANCH   3   7
ENDBRANCH   2   3
BRANCH   2  14
HETATM   14  C   UNL     1     -11.576  11.426  68.551  1.00  0.00    -0.318 C  
BRANCH  14  15
HETATM   15  O   UNL     1     -12.149  11.587  69.856  1.00  0.00    -0.309 OA 
BRANCH  15  16
HETATM   16  C   UNL     1     -12.017  10.526  70.710  1.00  0.00    -0.370 A  
HETATM   17  C   UNL     1     -10.545   8.746  71.449  1.00  0.00    -0.349 A  
HETATM   18  C   UNL     1     -10.792   9.859  70.642  1.00  0.00    -0.400 A  
HETATM   19  C   UNL     1     -12.728   8.989  72.441  1.00  0.00    -0.433 A  
HETATM   20  C   UNL     1     -11.517   8.307  72.344  1.00  0.00    -0.463 A  
HETATM   21  C   UNL     1     -12.978  10.098  71.629  1.00  0.00    -0.561 A  
ENDBRANCH  15  16
ENDBRANCH  14  15
ENDBRANCH   2  14
TORSDOF 7
ENDMDL
MODEL      115
REMARK 921   NORMALIZED FREE ENERGY PREDICTED BY IDOCK:   -4.52 KCAL/MOL
REMARK 922        TOTAL FREE ENERGY PREDICTED BY IDOCK:   -7.47 KCAL/MOL
REMARK 923 INTER-LIGAND FREE ENERGY PREDICTED BY IDOCK:   -6.57 KCAL/MOL
REMARK 924 INTRA-LIGAND FREE ENERGY PREDICTED BY IDOCK:   -0.89 KCAL/MOL
REMARK 927      BINDING AFFINITY PREDICTED BY RF-SCORE:    0.00 PKD
ROOT
HETATM    1  C   UNL     1      -7.603   9.981  69.972  1.00  0.00    -0.182 C  
HETATM    2  C   UNL     1      -8.959  10.414  69.379  1.00  0.00    -0.151 C  
ENDROOT
BRANCH   2   3
HETATM    3  N   UNL     1     -10.114   9.523  69.737  1.00  0.00    -0.201 NA 
BRANCH   3   4
HETATM    4  C   UNL     1     -10.175   9.247  71.197  1.00  0.00    -0.317 C  
HETATM    5 CL   UNL     1     -10.553   7.684  73.396  1.00  0.00    -0.408 Cl 
HETATM    6  C   UNL     1     -10.586   7.827  71.614  1.00  0.00    -0.214 C  
ENDBRANCH   3   4
BRANCH   3   7
HETATM    7  C   UNL     1     -11.406  10.054  69.252  1.00  0.00    -0.117 C  
BRANCH   7   8
HETATM    8  C   UNL     1     -12.043  11.141  70.095  1.00  0.00    -0.443 A  
HETATM    9  C   UNL     1     -11.741  12.489  69.853  1.00  0.00    -0.327 A  
HETATM   10  C   UNL     1     -12.246  13.498  70.676  1.00  0.00    -0.434 A  
HETATM   11  C   UNL     1     -12.879  10.824  71.173  1.00  0.00    -0.513 A  
HETATM   12  C   UNL     1     -13.062  13.170  71.755  1.00  0.00    -0.478 A  
HETATM   13  C   UNL     1     -13.384  11.835  72.001  1.00  0.00    -0.417 A  
ENDBRANCH   7   8
ENDBRANCH   3   7
ENDBRANCH   2   3
BRANCH   2  14
HETATM   14  C   UNL     1      -8.813  10.625  67.845  1.00  0.00    -0.131 C  
BRANCH  14  15
HETATM   15  O   UNL     1      -8.706  12.027  67.563  1.00  0.00    -0.153 OA 
BRANCH  15  16
HETATM   16  C   UNL     1      -9.829  12.632  67.065  1.00  0.00    -0.225 A  
HETATM   17  C   UNL     1     -11.035  14.728  66.877  1.00  0.00    -0.328 A  
HETATM   18  C   UNL     1      -9.924  14.003  67.316  1.00  0.00    -0.242 A  
HETATM   19  C   UNL     1     -11.940  12.727  65.883  1.00  0.00    -0.506 A  
HETATM   20  C   UNL     1     -12.046  14.087  66.167  1.00  0.00    -0.471 A  
HETATM   21  C   UNL     1     -10.833  12.001  66.328  1.00  0.00    -0.316 A  
ENDBRANCH  15  16
ENDBRANCH  14  15
ENDBRANCH   2  14
TORSDOF 7
ENDMDL
MODEL      116
REMARK 921   NORMALIZED FREE ENERGY PREDICTED BY IDOCK:   -4.50 KCAL/MOL
REMARK 922        TOTAL FREE ENERGY PREDICTED BY IDOCK:   -7.44 KCAL/MOL
REMARK 923 INTER-LIGAND FREE ENERGY PREDICTED BY IDOCK:   -6.73 KCAL/MOL
REMARK 924 INTRA-LIGAND FREE ENERGY PREDICTED BY IDOCK:   -0.71 KCAL/MOL
REMARK 927      BINDING AFFINITY PREDICTED BY RF-SCORE:    0.00 PKD
ROOT
HETATM    1  C   UNL     1     -13.578   8.961  72.455  1.00  0.00    -0.500 C  
HETATM    2  C   UNL     1     -12.648   9.135  71.237  1.00  0.00    -0.288 C  
ENDROOT
BRANCH   2   3
HETATM    3  N   UNL     1     -11.462   8.214  71.216  1.00  0.00    -0.261 NA 
BRANCH   3   4
HETATM    4  C   UNL     1     -11.791   6.867  71.751  1.00  0.00    -0.316 C  
HETATM    5 CL   UNL     1     -11.426   4.696  73.356  1.00  0.00    -0.399 Cl 
HETATM    6  C   UNL     1     -10.834   6.291  72.806  1.00  0.00    -0.252 C  
ENDBRANCH   3   4
BRANCH   3   7
HETATM    7  C   UNL     1     -10.857   8.107  69.870  1.00  0.00    -0.215 C  
BRANCH   7   8
HETATM    8  C   UNL     1      -9.444   8.636  69.727  1.00  0.00    -0.166 A  
HETATM    9  C   UNL     1      -8.677   8.300  68.601  1.00  0.00    -0.133 A  
HETATM   10  C   UNL     1      -7.344   8.702  68.494  1.00  0.00    -0.085 A  
HETATM   11  C   UNL     1      -8.851   9.401  70.739  1.00  0.00    -0.233 A  
HETATM   12  C   UNL     1      -6.760   9.448  69.514  1.00  0.00    -0.048 A  
HETATM   13  C   UNL     1      -7.514   9.803  70.634  1.00  0.00    -0.050 A  
ENDBRANCH   7   8
ENDBRANCH   3   7
ENDBRANCH   2   3
BRANCH   2  14
HETATM   14  C   UNL     1     -12.252  10.632  71.095  1.00  0.00    -0.374 C  
BRANCH  14  15
HETATM   15  O   UNL     1     -13.210  11.448  71.783  1.00  0.00    -0.458 OA 
BRANCH  15  16
HETATM   16  C   UNL     1     -13.107  12.799  71.587  1.00  0.00    -0.331 A  
HETATM   17  C   UNL     1     -13.827  14.977  72.374  1.00  0.00    -0.596 A  
HETATM   18  C   UNL     1     -13.834  13.585  72.485  1.00  0.00    -0.624 A  
HETATM   19  C   UNL     1     -12.321  14.814  70.499  1.00  0.00    -0.398 A  
HETATM   20  C   UNL     1     -13.076  15.591  71.375  1.00  0.00    -0.580 A  
HETATM   21  C   UNL     1     -12.334  13.421  70.606  1.00  0.00    -0.423 A  
ENDBRANCH  15  16
ENDBRANCH  14  15
ENDBRANCH   2  14
TORSDOF 7
ENDMDL
MODEL      117
REMARK 921   NORMALIZED FREE ENERGY PREDICTED BY IDOCK:   -4.50 KCAL/MOL
REMARK 922        TOTAL FREE ENERGY PREDICTED BY IDOCK:   -7.43 KCAL/MOL
REMARK 923 INTER-LIGAND FREE ENERGY PREDICTED BY IDOCK:   -6.59 KCAL/MOL
REMARK 924 INTRA-LIGAND FREE ENERGY PREDICTED BY IDOCK:   -0.84 KCAL/MOL
REMARK 927      BINDING AFFINITY PREDICTED BY RF-SCORE:    0.00 PKD
ROOT
HETATM    1  C   UNL     1     -10.929  11.684  65.797  1.00  0.00    -0.329 C  
HETATM    2  C   UNL     1     -10.764  11.762  67.328  1.00  0.00    -0.237 C  
ENDROOT
BRANCH   2   3
HETATM    3  N   UNL     1     -10.826  10.438  68.034  1.00  0.00    -0.249 NA 
BRANCH   3   4
HETATM    4  C   UNL     1     -10.142   9.363  67.267  1.00  0.00    -0.226 C  
HETATM    5 CL   UNL     1      -9.724   6.794  66.461  1.00  0.00    -0.208 Cl 
HETATM    6  C   UNL     1     -10.632   7.927  67.505  1.00  0.00    -0.242 C  
ENDBRANCH   3   4
BRANCH   3   7
HETATM    7  C   UNL     1     -10.296  10.510  69.413  1.00  0.00    -0.234 C  
BRANCH   7   8
HETATM    8  C   UNL     1     -11.220  10.025  70.512  1.00  0.00    -0.408 A  
HETATM    9  C   UNL     1     -10.959   8.813  71.168  1.00  0.00    -0.334 A  
HETATM   10  C   UNL     1     -11.847   8.304  72.119  1.00  0.00    -0.431 A  
HETATM   11  C   UNL     1     -12.385  10.730  70.843  1.00  0.00    -0.497 A  
HETATM   12  C   UNL     1     -13.010   9.005  72.427  1.00  0.00    -0.471 A  
HETATM   13  C   UNL     1     -13.277  10.219  71.794  1.00  0.00    -0.534 A  
ENDBRANCH   7   8
ENDBRANCH   3   7
ENDBRANCH   2   3
BRANCH   2  14
HETATM   14  C   UNL     1     -11.767  12.801  67.907  1.00  0.00    -0.357 C  
BRANCH  14  15
HETATM   15  O   UNL     1     -11.046  13.817  68.617  1.00  0.00    -0.246 OA 
BRANCH  15  16
HETATM   16  C   UNL     1     -10.370  14.728  67.851  1.00  0.00    -0.240 A  
HETATM   17  C   UNL     1      -8.282  15.932  67.582  1.00  0.00    -0.164 A  
HETATM   18  C   UNL     1      -9.066  15.003  68.270  1.00  0.00    -0.182 A  
HETATM   19  C   UNL     1     -10.081  16.282  66.016  1.00  0.00    -0.377 A  
HETATM   20  C   UNL     1      -8.794  16.577  66.459  1.00  0.00    -0.317 A  
HETATM   21  C   UNL     1     -10.868  15.357  66.708  1.00  0.00    -0.306 A  
ENDBRANCH  15  16
ENDBRANCH  14  15
ENDBRANCH   2  14
TORSDOF 7
ENDMDL
MODEL      118
REMARK 921   NORMALIZED FREE ENERGY PREDICTED BY IDOCK:   -4.49 KCAL/MOL
REMARK 922        TOTAL FREE ENERGY PREDICTED BY IDOCK:   -7.42 KCAL/MOL
REMARK 923 INTER-LIGAND FREE ENERGY PREDICTED BY IDOCK:   -6.64 KCAL/MOL
REMARK 924 INTRA-LIGAND FREE ENERGY PREDICTED BY IDOCK:   -0.78 KCAL/MOL
REMARK 927      BINDING AFFINITY PREDICTED BY RF-SCORE:    0.00 PKD
ROOT
HETATM    1  C   UNL     1     -12.139  14.359  67.489  1.00  0.00    -0.327 C  
HETATM    2  C   UNL     1     -10.940  13.858  68.320  1.00  0.00    -0.255 C  
ENDROOT
BRANCH   2   3
HETATM    3  N   UNL     1      -9.762  14.790  68.345  1.00  0.00    -0.208 NA 
BRANCH   3   4
HETATM    4  C   UNL     1      -8.497  14.082  68.677  1.00  0.00    -0.103 C  
HETATM    5 CL   UNL     1      -5.832  13.922  69.218  1.00  0.00    -0.082 Cl 
HETATM    6  C   UNL     1      -7.228  14.944  68.765  1.00  0.00    -0.123 C  
ENDBRANCH   3   4
BRANCH   3   7
HETATM    7  C   UNL     1      -9.619  15.551  67.085  1.00  0.00    -0.222 C  
BRANCH   7   8
HETATM    8  C   UNL     1      -9.910  17.036  67.163  1.00  0.00    -0.269 A  
HETATM    9  C   UNL     1     -10.296  17.740  66.013  1.00  0.00    -0.304 A  
HETATM   10  C   UNL     1     -10.480  19.124  66.044  1.00  0.00    -0.546 A  
HETATM   11  C   UNL     1      -9.730  17.748  68.356  1.00  0.00    -0.333 A  
HETATM   12  C   UNL     1     -10.281  19.823  67.231  1.00  0.00    -0.570 A  
HETATM   13  C   UNL     1      -9.912  19.136  68.388  1.00  0.00    -0.493 A  
ENDBRANCH   7   8
ENDBRANCH   3   7
ENDBRANCH   2   3
BRANCH   2  14
HETATM   14  C   UNL     1     -10.561  12.419  67.870  1.00  0.00    -0.213 C  
BRANCH  14  15
HETATM   15  O   UNL     1     -11.640  11.523  68.171  1.00  0.00    -0.319 OA 
BRANCH  15  16
HETATM   16  C   UNL     1     -11.538  10.824  69.343  1.00  0.00    -0.308 A  
HETATM   17  C   UNL     1     -10.141   9.330  70.646  1.00  0.00    -0.339 A  
HETATM   18  C   UNL     1     -10.353  10.102  69.502  1.00  0.00    -0.263 A  
HETATM   19  C   UNL     1     -12.276  10.040  71.512  1.00  0.00    -0.496 A  
HETATM   20  C   UNL     1     -11.107   9.294  71.649  1.00  0.00    -0.438 A  
HETATM   21  C   UNL     1     -12.491  10.806  70.364  1.00  0.00    -0.430 A  
ENDBRANCH  15  16
ENDBRANCH  14  15
ENDBRANCH   2  14
TORSDOF 7
ENDMDL
MODEL      119
REMARK 921   NORMALIZED FREE ENERGY PREDICTED BY IDOCK:   -4.49 KCAL/MOL
REMARK 922        TOTAL FREE ENERGY PREDICTED BY IDOCK:   -7.42 KCAL/MOL
REMARK 923 INTER-LIGAND FREE ENERGY PREDICTED BY IDOCK:   -6.07 KCAL/MOL
REMARK 924 INTRA-LIGAND FREE ENERGY PREDICTED BY IDOCK:   -1.35 KCAL/MOL
REMARK 927      BINDING AFFINITY PREDICTED BY RF-SCORE:    0.00 PKD
ROOT
HETATM    1  C   UNL     1     -11.120   5.142  73.352  1.00  0.00    -0.385 C  
HETATM    2  C   UNL     1     -11.070   5.738  71.931  1.00  0.00    -0.248 C  
ENDROOT
BRANCH   2   3
HETATM    3  N   UNL     1      -9.744   6.330  71.545  1.00  0.00    -0.162 NA 
BRANCH   3   4
HETATM    4  C   UNL     1      -8.757   6.259  72.654  1.00  0.00    -0.123 C  
HETATM    5 CL   UNL     1      -7.117   7.301  74.564  1.00  0.00    -0.111 Cl 
HETATM    6  C   UNL     1      -8.252   7.598  73.215  1.00  0.00    -0.138 C  
ENDBRANCH   3   4
BRANCH   3   7
HETATM    7  C   UNL     1      -9.192   5.719  70.316  1.00  0.00    -0.152 C  
BRANCH   7   8
HETATM    8  C   UNL     1      -9.495   6.437  69.016  1.00  0.00    -0.131 A  
HETATM    9  C   UNL     1      -8.704   7.521  68.609  1.00  0.00    -0.128 A  
HETATM   10  C   UNL     1      -9.022   8.253  67.462  1.00  0.00    -0.141 A  
HETATM   11  C   UNL     1     -10.606   6.087  68.238  1.00  0.00    -0.325 A  
HETATM   12  C   UNL     1     -10.138   7.907  66.706  1.00  0.00    -0.352 A  
HETATM   13  C   UNL     1     -10.927   6.822  67.089  1.00  0.00    -0.458 A  
ENDBRANCH   7   8
ENDBRANCH   3   7
ENDBRANCH   2   3
BRANCH   2  14
HETATM   14  C   UNL     1     -12.251   6.731  71.741  1.00  0.00    -0.358 C  
BRANCH  14  15
HETATM   15  O   UNL     1     -11.995   7.928  72.487  1.00  0.00    -0.340 OA 
BRANCH  15  16
HETATM   16  C   UNL     1     -11.941   9.091  71.768  1.00  0.00    -0.368 A  
HETATM   17  C   UNL     1     -12.916  11.293  71.482  1.00  0.00    -0.520 A  
HETATM   18  C   UNL     1     -12.859  10.071  72.155  1.00  0.00    -0.414 A  
HETATM   19  C   UNL     1     -11.101  10.590  70.062  1.00  0.00    -0.376 A  
HETATM   20  C   UNL     1     -12.041  11.549  70.429  1.00  0.00    -0.471 A  
HETATM   21  C   UNL     1     -11.048   9.364  70.730  1.00  0.00    -0.365 A  
ENDBRANCH  15  16
ENDBRANCH  14  15
ENDBRANCH   2  14
TORSDOF 7
ENDMDL
MODEL      120
REMARK 921   NORMALIZED FREE ENERGY PREDICTED BY IDOCK:   -4.49 KCAL/MOL
REMARK 922        TOTAL FREE ENERGY PREDICTED BY IDOCK:   -7.42 KCAL/MOL
REMARK 923 INTER-LIGAND FREE ENERGY PREDICTED BY IDOCK:   -6.53 KCAL/MOL
REMARK 924 INTRA-LIGAND FREE ENERGY PREDICTED BY IDOCK:   -0.89 KCAL/MOL
REMARK 927      BINDING AFFINITY PREDICTED BY RF-SCORE:    0.00 PKD
ROOT
HETATM    1  C   UNL     1      -7.426  14.855  67.978  1.00  0.00    -0.133 C  
HETATM    2  C   UNL     1      -8.740  15.241  67.269  1.00  0.00    -0.197 C  
ENDROOT
BRANCH   2   3
HETATM    3  N   UNL     1      -9.718  15.992  68.125  1.00  0.00    -0.216 NA 
BRANCH   3   4
HETATM    4  C   UNL     1      -9.911  17.391  67.657  1.00  0.00    -0.300 C  
HETATM    5 CL   UNL     1     -10.207  20.080  67.982  1.00  0.00    -0.552 Cl 
HETATM    6  C   UNL     1     -10.030  18.471  68.743  1.00  0.00    -0.380 C  
ENDBRANCH   3   4
BRANCH   3   7
HETATM    7  C   UNL     1     -11.019  15.297  68.237  1.00  0.00    -0.276 C  
BRANCH   7   8
HETATM    8  C   UNL     1     -11.537  15.067  69.643  1.00  0.00    -0.333 A  
HETATM    9  C   UNL     1     -12.134  13.844  69.982  1.00  0.00    -0.411 A  
HETATM   10  C   UNL     1     -12.699  13.646  71.245  1.00  0.00    -0.443 A  
HETATM   11  C   UNL     1     -11.500  16.085  70.604  1.00  0.00    -0.427 A  
HETATM   12  C   UNL     1     -12.672  14.671  72.185  1.00  0.00    -0.408 A  
HETATM   13  C   UNL     1     -12.068  15.888  71.868  1.00  0.00    -0.578 A  
ENDBRANCH   7   8
ENDBRANCH   3   7
ENDBRANCH   2   3
BRANCH   2  14
HETATM   14  C   UNL     1      -9.363  13.979  66.606  1.00  0.00    -0.277 C  
BRANCH  14  15
HETATM   15  O   UNL     1      -8.572  12.828  66.931  1.00  0.00    -0.197 OA 
BRANCH  15  16
HETATM   16  C   UNL     1      -9.258  11.665  67.154  1.00  0.00    -0.176 A  
HETATM   17  C   UNL     1     -10.595  10.427  68.754  1.00  0.00    -0.232 A  
HETATM   18  C   UNL     1      -9.883  11.575  68.400  1.00  0.00    -0.204 A  
HETATM   19  C   UNL     1     -10.110   9.468  66.597  1.00  0.00    -0.321 A  
HETATM   20  C   UNL     1     -10.702   9.370  67.854  1.00  0.00    -0.269 A  
HETATM   21  C   UNL     1      -9.392  10.614  66.245  1.00  0.00    -0.199 A  
ENDBRANCH  15  16
ENDBRANCH  14  15
ENDBRANCH   2  14
TORSDOF 7
ENDMDL
MODEL      121
REMARK 921   NORMALIZED FREE ENERGY PREDICTED BY IDOCK:   -4.48 KCAL/MOL
REMARK 922        TOTAL FREE ENERGY PREDICTED BY IDOCK:   -7.42 KCAL/MOL
REMARK 923 INTER-LIGAND FREE ENERGY PREDICTED BY IDOCK:   -6.89 KCAL/MOL
REMARK 924 INTRA-LIGAND FREE ENERGY PREDICTED BY IDOCK:   -0.53 KCAL/MOL
REMARK 927      BINDING AFFINITY PREDICTED BY RF-SCORE:    0.00 PKD
ROOT
HETATM    1  C   UNL     1     -12.994  10.234  70.669  1.00  0.00    -0.338 C  
HETATM    2  C   UNL     1     -11.747  11.126  70.506  1.00  0.00    -0.293 C  
ENDROOT
BRANCH   2   3
HETATM    3  N   UNL     1     -11.989  12.413  69.770  1.00  0.00    -0.310 NA 
BRANCH   3   4
HETATM    4  C   UNL     1     -12.177  13.560  70.697  1.00  0.00    -0.358 C  
HETATM    5 CL   UNL     1     -13.106  14.784  72.948  1.00  0.00    -0.547 Cl 
HETATM    6  C   UNL     1     -13.041  13.306  71.943  1.00  0.00    -0.388 C  
ENDBRANCH   3   4
BRANCH   3   7
HETATM    7  C   UNL     1     -10.924  12.708  68.787  1.00  0.00    -0.249 C  
BRANCH   7   8
HETATM    8  C   UNL     1     -11.366  12.853  67.344  1.00  0.00    -0.355 A  
HETATM    9  C   UNL     1     -12.151  13.947  66.955  1.00  0.00    -0.467 A  
HETATM   10  C   UNL     1     -12.644  14.051  65.651  1.00  0.00    -0.542 A  
HETATM   11  C   UNL     1     -11.066  11.869  66.393  1.00  0.00    -0.359 A  
HETATM   12  C   UNL     1     -12.354  13.058  64.719  1.00  0.00    -0.490 A  
HETATM   13  C   UNL     1     -11.562  11.970  65.087  1.00  0.00    -0.330 A  
ENDBRANCH   7   8
ENDBRANCH   3   7
ENDBRANCH   2   3
BRANCH   2  14
HETATM   14  C   UNL     1     -10.586  10.291  69.896  1.00  0.00    -0.276 C  
BRANCH  14  15
HETATM   15  O   UNL     1     -11.083   9.010  69.485  1.00  0.00    -0.160 OA 
BRANCH  15  16
HETATM   16  C   UNL     1     -10.344   7.923  69.867  1.00  0.00    -0.224 A  
HETATM   17  C   UNL     1     -10.402   5.537  70.296  1.00  0.00    -0.349 A  
HETATM   18  C   UNL     1     -11.042   6.714  69.900  1.00  0.00    -0.403 A  
HETATM   19  C   UNL     1      -8.343   6.758  70.577  1.00  0.00    -0.129 A  
HETATM   20  C   UNL     1      -9.054   5.561  70.642  1.00  0.00    -0.168 A  
HETATM   21  C   UNL     1      -8.985   7.937  70.188  1.00  0.00    -0.151 A  
ENDBRANCH  15  16
ENDBRANCH  14  15
ENDBRANCH   2  14
TORSDOF 7
ENDMDL
MODEL      122
REMARK 921   NORMALIZED FREE ENERGY PREDICTED BY IDOCK:   -4.48 KCAL/MOL
REMARK 922        TOTAL FREE ENERGY PREDICTED BY IDOCK:   -7.41 KCAL/MOL
REMARK 923 INTER-LIGAND FREE ENERGY PREDICTED BY IDOCK:   -6.44 KCAL/MOL
REMARK 924 INTRA-LIGAND FREE ENERGY PREDICTED BY IDOCK:   -0.97 KCAL/MOL
REMARK 927      BINDING AFFINITY PREDICTED BY RF-SCORE:    0.00 PKD
ROOT
HETATM    1  C   UNL     1     -10.221  16.822  69.476  1.00  0.00    -0.166 C  
HETATM    2  C   UNL     1     -10.262  15.604  68.530  1.00  0.00    -0.211 C  
ENDROOT
BRANCH   2   3
HETATM    3  N   UNL     1      -9.792  15.881  67.131  1.00  0.00    -0.229 NA 
BRANCH   3   4
HETATM    4  C   UNL     1      -9.467  17.317  66.924  1.00  0.00    -0.257 C  
HETATM    5 CL   UNL     1      -9.952  19.854  66.054  1.00  0.00    -0.558 Cl 
HETATM    6  C   UNL     1     -10.500  18.155  66.154  1.00  0.00    -0.364 C  
ENDBRANCH   3   4
BRANCH   3   7
HETATM    7  C   UNL     1      -8.649  15.027  66.742  1.00  0.00    -0.244 C  
BRANCH   7   8
HETATM    8  C   UNL     1      -8.785  13.548  67.040  1.00  0.00    -0.197 A  
HETATM    9  C   UNL     1      -9.787  12.792  66.414  1.00  0.00    -0.269 A  
HETATM   10  C   UNL     1      -9.988  11.449  66.744  1.00  0.00    -0.238 A  
HETATM   11  C   UNL     1      -7.972  12.924  67.995  1.00  0.00    -0.158 A  
HETATM   12  C   UNL     1      -9.184  10.844  67.707  1.00  0.00    -0.155 A  
HETATM   13  C   UNL     1      -8.173  11.578  68.328  1.00  0.00    -0.152 A  
ENDBRANCH   7   8
ENDBRANCH   3   7
ENDBRANCH   2   3
BRANCH   2  14
HETATM   14  C   UNL     1     -11.675  14.958  68.576  1.00  0.00    -0.310 C  
BRANCH  14  15
HETATM   15  O   UNL     1     -12.252  15.158  69.873  1.00  0.00    -0.319 OA 
BRANCH  15  16
HETATM   16  C   UNL     1     -12.548  14.028  70.585  1.00  0.00    -0.344 A  
HETATM   17  C   UNL     1     -12.263  11.622  70.696  1.00  0.00    -0.461 A  
HETATM   18  C   UNL     1     -12.012  12.845  70.070  1.00  0.00    -0.380 A  
HETATM   19  C   UNL     1     -13.542  12.759  72.392  1.00  0.00    -0.507 A  
HETATM   20  C   UNL     1     -13.034  11.578  71.854  1.00  0.00    -0.453 A  
HETATM   21  C   UNL     1     -13.297  13.982  71.762  1.00  0.00    -0.465 A  
ENDBRANCH  15  16
ENDBRANCH  14  15
ENDBRANCH   2  14
TORSDOF 7
ENDMDL
MODEL      123
REMARK 921   NORMALIZED FREE ENERGY PREDICTED BY IDOCK:   -4.48 KCAL/MOL
REMARK 922        TOTAL FREE ENERGY PREDICTED BY IDOCK:   -7.40 KCAL/MOL
REMARK 923 INTER-LIGAND FREE ENERGY PREDICTED BY IDOCK:   -6.12 KCAL/MOL
REMARK 924 INTRA-LIGAND FREE ENERGY PREDICTED BY IDOCK:   -1.28 KCAL/MOL
REMARK 927      BINDING AFFINITY PREDICTED BY RF-SCORE:    0.00 PKD
ROOT
HETATM    1  C   UNL     1     -11.838  13.480  69.234  1.00  0.00    -0.392 C  
HETATM    2  C   UNL     1     -10.577  14.079  68.579  1.00  0.00    -0.254 C  
ENDROOT
BRANCH   2   3
HETATM    3  N   UNL     1     -10.840  14.913  67.359  1.00  0.00    -0.296 NA 
BRANCH   3   4
HETATM    4  C   UNL     1     -10.648  16.364  67.622  1.00  0.00    -0.313 C  
HETATM    5 CL   UNL     1     -10.056  18.533  69.161  1.00  0.00    -0.298 Cl 
HETATM    6  C   UNL     1     -10.292  16.763  69.062  1.00  0.00    -0.326 C  
ENDBRANCH   3   4
BRANCH   3   7
HETATM    7  C   UNL     1     -10.031  14.483  66.198  1.00  0.00    -0.311 C  
BRANCH   7   8
HETATM    8  C   UNL     1     -10.712  13.553  65.214  1.00  0.00    -0.328 A  
HETATM    9  C   UNL     1     -12.027  13.808  64.798  1.00  0.00    -0.429 A  
HETATM   10  C   UNL     1     -12.704  12.915  63.964  1.00  0.00    -0.233 A  
HETATM   11  C   UNL     1     -10.079  12.389  64.760  1.00  0.00    -0.260 A  
HETATM   12  C   UNL     1     -12.071  11.753  63.533  1.00  0.00    -0.485 A  
HETATM   13  C   UNL     1     -10.758  11.491  63.926  1.00  0.00    -0.458 A  
ENDBRANCH   7   8
ENDBRANCH   3   7
ENDBRANCH   2   3
BRANCH   2  14
HETATM   14  C   UNL     1      -9.536  12.951  68.326  1.00  0.00    -0.212 C  
BRANCH  14  15
HETATM   15  O   UNL     1     -10.141  11.676  68.581  1.00  0.00    -0.211 OA 
BRANCH  15  16
HETATM   16  C   UNL     1      -9.672  10.625  67.842  1.00  0.00    -0.161 A  
HETATM   17  C   UNL     1     -10.221   8.454  66.909  1.00  0.00    -0.383 A  
HETATM   18  C   UNL     1     -10.589   9.592  67.631  1.00  0.00    -0.334 A  
HETATM   19  C   UNL     1      -8.031   9.394  66.554  1.00  0.00    -0.108 A  
HETATM   20  C   UNL     1      -8.939   8.352  66.378  1.00  0.00    -0.207 A  
HETATM   21  C   UNL     1      -8.396  10.530  67.282  1.00  0.00    -0.122 A  
ENDBRANCH  15  16
ENDBRANCH  14  15
ENDBRANCH   2  14
TORSDOF 7
ENDMDL
MODEL      124
REMARK 921   NORMALIZED FREE ENERGY PREDICTED BY IDOCK:   -4.47 KCAL/MOL
REMARK 922        TOTAL FREE ENERGY PREDICTED BY IDOCK:   -7.39 KCAL/MOL
REMARK 923 INTER-LIGAND FREE ENERGY PREDICTED BY IDOCK:   -6.58 KCAL/MOL
REMARK 924 INTRA-LIGAND FREE ENERGY PREDICTED BY IDOCK:   -0.81 KCAL/MOL
REMARK 927      BINDING AFFINITY PREDICTED BY RF-SCORE:    0.00 PKD
ROOT
HETATM    1  C   UNL     1     -13.753   9.411  71.672  1.00  0.00    -0.393 C  
HETATM    2  C   UNL     1     -12.624   9.450  70.623  1.00  0.00     0.052 C  
ENDROOT
BRANCH   2   3
HETATM    3  N   UNL     1     -11.509   8.474  70.865  1.00  0.00    -0.268 NA 
BRANCH   3   4
HETATM    4  C   UNL     1     -10.408   8.626  69.878  1.00  0.00    -0.209 C  
HETATM    5 CL   UNL     1      -8.525   7.725  68.126  1.00  0.00    -0.124 Cl 
HETATM    6  C   UNL     1      -9.790   7.332  69.327  1.00  0.00    -0.166 C  
ENDBRANCH   3   4
BRANCH   3   7
HETATM    7  C   UNL     1     -10.984   8.550  72.246  1.00  0.00    -0.355 C  
BRANCH   7   8
HETATM    8  C   UNL     1     -10.806   7.231  72.970  1.00  0.00    -0.399 A  
HETATM    9  C   UNL     1      -9.786   7.080  73.920  1.00  0.00    -0.331 A  
HETATM   10  C   UNL     1      -9.548   5.846  74.530  1.00  0.00    -0.210 A  
HETATM   11  C   UNL     1     -11.599   6.120  72.655  1.00  0.00    -0.239 A  
HETATM   12  C   UNL     1     -10.331   4.745  74.197  1.00  0.00    -0.306 A  
HETATM   13  C   UNL     1     -11.360   4.882  73.264  1.00  0.00    -0.408 A  
ENDBRANCH   7   8
ENDBRANCH   3   7
ENDBRANCH   2   3
BRANCH   2  14
HETATM   14  C   UNL     1     -12.121  10.911  70.454  1.00  0.00    -0.363 C  
BRANCH  14  15
HETATM   15  O   UNL     1     -12.725  11.744  71.452  1.00  0.00    -0.372 OA 
BRANCH  15  16
HETATM   16  C   UNL     1     -12.645  13.094  71.245  1.00  0.00    -0.290 A  
HETATM   17  C   UNL     1     -11.786  14.829  69.783  1.00  0.00    -0.362 A  
HETATM   18  C   UNL     1     -11.955  13.477  70.092  1.00  0.00    -0.399 A  
HETATM   19  C   UNL     1     -13.045  15.429  71.749  1.00  0.00    -0.529 A  
HETATM   20  C   UNL     1     -12.325  15.805  70.616  1.00  0.00    -0.412 A  
HETATM   21  C   UNL     1     -13.207  14.077  72.062  1.00  0.00    -0.499 A  
ENDBRANCH  15  16
ENDBRANCH  14  15
ENDBRANCH   2  14
TORSDOF 7
ENDMDL
MODEL      125
REMARK 921   NORMALIZED FREE ENERGY PREDICTED BY IDOCK:   -4.46 KCAL/MOL
REMARK 922        TOTAL FREE ENERGY PREDICTED BY IDOCK:   -7.38 KCAL/MOL
REMARK 923 INTER-LIGAND FREE ENERGY PREDICTED BY IDOCK:   -6.67 KCAL/MOL
REMARK 924 INTRA-LIGAND FREE ENERGY PREDICTED BY IDOCK:   -0.71 KCAL/MOL
REMARK 927      BINDING AFFINITY PREDICTED BY RF-SCORE:    0.00 PKD
ROOT
HETATM    1  C   UNL     1     -12.483  13.980  66.159  1.00  0.00    -0.467 C  
HETATM    2  C   UNL     1     -11.349  14.497  67.067  1.00  0.00    -0.349 C  
ENDROOT
BRANCH   2   3
HETATM    3  N   UNL     1      -9.963  14.245  66.544  1.00  0.00    -0.272 NA 
BRANCH   3   4
HETATM    4  C   UNL     1      -9.191  15.505  66.380  1.00  0.00    -0.305 C  
HETATM    5 CL   UNL     1      -7.263  17.318  67.029  1.00  0.00    -0.200 Cl 
HETATM    6  C   UNL     1      -8.105  15.791  67.428  1.00  0.00    -0.169 C  
ENDBRANCH   3   4
BRANCH   3   7
HETATM    7  C   UNL     1      -9.214  13.280  67.378  1.00  0.00    -0.216 C  
BRANCH   7   8
HETATM    8  C   UNL     1      -9.083  11.876  66.823  1.00  0.00    -0.197 A  
HETATM    9  C   UNL     1      -7.817  11.294  66.668  1.00  0.00    -0.152 A  
HETATM   10  C   UNL     1      -7.670  10.038  66.075  1.00  0.00    -0.110 A  
HETATM   11  C   UNL     1     -10.207  11.162  66.387  1.00  0.00    -0.279 A  
HETATM   12  C   UNL     1      -8.792   9.346  65.629  1.00  0.00    -0.208 A  
HETATM   13  C   UNL     1     -10.061   9.904  65.789  1.00  0.00    -0.317 A  
ENDBRANCH   7   8
ENDBRANCH   3   7
ENDBRANCH   2   3
BRANCH   2  14
HETATM   14  C   UNL     1     -11.554  13.961  68.513  1.00  0.00    -0.332 C  
BRANCH  14  15
HETATM   15  O   UNL     1     -11.099  14.941  69.455  1.00  0.00    -0.260 OA 
BRANCH  15  16
HETATM   16  C   UNL     1     -11.895  15.145  70.550  1.00  0.00    -0.318 A  
HETATM   17  C   UNL     1     -13.959  14.502  71.648  1.00  0.00    -0.527 A  
HETATM   18  C   UNL     1     -13.055  14.369  70.592  1.00  0.00    -0.279 A  
HETATM   19  C   UNL     1     -12.523  16.152  72.660  1.00  0.00    -0.535 A  
HETATM   20  C   UNL     1     -13.696  15.401  72.679  1.00  0.00    -0.640 A  
HETATM   21  C   UNL     1     -11.622  16.024  71.600  1.00  0.00    -0.538 A  
ENDBRANCH  15  16
ENDBRANCH  14  15
ENDBRANCH   2  14
TORSDOF 7
ENDMDL
MODEL      126
REMARK 921   NORMALIZED FREE ENERGY PREDICTED BY IDOCK:   -4.46 KCAL/MOL
REMARK 922        TOTAL FREE ENERGY PREDICTED BY IDOCK:   -7.38 KCAL/MOL
REMARK 923 INTER-LIGAND FREE ENERGY PREDICTED BY IDOCK:   -6.74 KCAL/MOL
REMARK 924 INTRA-LIGAND FREE ENERGY PREDICTED BY IDOCK:   -0.64 KCAL/MOL
REMARK 927      BINDING AFFINITY PREDICTED BY RF-SCORE:    0.00 PKD
ROOT
HETATM    1  C   UNL     1     -12.981  10.698  71.698  1.00  0.00    -0.582 C  
HETATM    2  C   UNL     1     -12.331  10.018  70.476  1.00  0.00    -0.200 C  
ENDROOT
BRANCH   2   3
HETATM    3  N   UNL     1     -11.535   8.785  70.794  1.00  0.00    -0.277 NA 
BRANCH   3   4
HETATM    4  C   UNL     1     -10.604   8.422  69.693  1.00  0.00    -0.219 C  
HETATM    5 CL   UNL     1      -9.648   6.832  67.696  1.00  0.00    -0.132 Cl 
HETATM    6  C   UNL     1     -10.832   7.060  69.018  1.00  0.00    -0.182 C  
ENDBRANCH   3   4
BRANCH   3   7
HETATM    7  C   UNL     1     -10.806   8.900  72.075  1.00  0.00    -0.334 C  
BRANCH   7   8
HETATM    8  C   UNL     1     -10.599   7.612  72.847  1.00  0.00    -0.411 A  
HETATM    9  C   UNL     1      -9.503   7.476  73.710  1.00  0.00    -0.330 A  
HETATM   10  C   UNL     1      -9.244   6.266  74.359  1.00  0.00    -0.185 A  
HETATM   11  C   UNL     1     -11.447   6.512  72.660  1.00  0.00    -0.224 A  
HETATM   12  C   UNL     1     -10.083   5.175  74.153  1.00  0.00    -0.249 A  
HETATM   13  C   UNL     1     -11.187   5.298  73.309  1.00  0.00    -0.359 A  
ENDBRANCH   7   8
ENDBRANCH   3   7
ENDBRANCH   2   3
BRANCH   2  14
HETATM   14  C   UNL     1     -11.518  11.069  69.668  1.00  0.00    -0.303 C  
BRANCH  14  15
HETATM   15  O   UNL     1     -12.125  11.257  68.382  1.00  0.00    -0.598 OA 
BRANCH  15  16
HETATM   16  C   UNL     1     -11.770  12.392  67.705  1.00  0.00    -0.346 A  
HETATM   17  C   UNL     1     -11.009  13.277  65.578  1.00  0.00    -0.297 A  
HETATM   18  C   UNL     1     -11.412  12.198  66.368  1.00  0.00    -0.430 A  
HETATM   19  C   UNL     1     -11.370  14.765  67.439  1.00  0.00    -0.361 A  
HETATM   20  C   UNL     1     -10.981  14.560  66.117  1.00  0.00    -0.322 A  
HETATM   21  C   UNL     1     -11.766  13.685  68.231  1.00  0.00    -0.398 A  
ENDBRANCH  15  16
ENDBRANCH  14  15
ENDBRANCH   2  14
TORSDOF 7
ENDMDL
MODEL      127
REMARK 921   NORMALIZED FREE ENERGY PREDICTED BY IDOCK:   -4.46 KCAL/MOL
REMARK 922        TOTAL FREE ENERGY PREDICTED BY IDOCK:   -7.38 KCAL/MOL
REMARK 923 INTER-LIGAND FREE ENERGY PREDICTED BY IDOCK:   -6.39 KCAL/MOL
REMARK 924 INTRA-LIGAND FREE ENERGY PREDICTED BY IDOCK:   -0.98 KCAL/MOL
REMARK 927      BINDING AFFINITY PREDICTED BY RF-SCORE:    0.00 PKD
ROOT
HETATM    1  C   UNL     1     -11.157  10.196  69.285  1.00  0.00    -0.270 C  
HETATM    2  C   UNL     1      -9.961  11.115  68.966  1.00  0.00    -0.137 C  
ENDROOT
BRANCH   2   3
HETATM    3  N   UNL     1     -10.263  12.584  69.031  1.00  0.00     0.025 NA 
BRANCH   3   4
HETATM    4  C   UNL     1      -9.600  13.341  67.936  1.00  0.00    -0.217 C  
HETATM    5 CL   UNL     1      -9.431  15.285  66.034  1.00  0.00    -0.360 Cl 
HETATM    6  C   UNL     1     -10.414  14.471  67.287  1.00  0.00    -0.266 C  
ENDBRANCH   3   4
BRANCH   3   7
HETATM    7  C   UNL     1     -11.716  12.859  69.049  1.00  0.00    -0.327 C  
BRANCH   7   8
HETATM    8  C   UNL     1     -12.276  13.418  70.342  1.00  0.00    -0.415 A  
HETATM    9  C   UNL     1     -11.918  14.706  70.767  1.00  0.00    -0.380 A  
HETATM   10  C   UNL     1     -12.351  15.203  71.998  1.00  0.00    -0.429 A  
HETATM   11  C   UNL     1     -13.096  12.642  71.171  1.00  0.00    -0.144 A  
HETATM   12  C   UNL     1     -13.151  14.416  72.822  1.00  0.00    -0.595 A  
HETATM   13  C   UNL     1     -13.528  13.138  72.407  1.00  0.00    -0.643 A  
ENDBRANCH   7   8
ENDBRANCH   3   7
ENDBRANCH   2   3
BRANCH   2  14
HETATM   14  C   UNL     1      -9.325  10.689  67.612  1.00  0.00    -0.146 C  
BRANCH  14  15
HETATM   15  O   UNL     1     -10.350  10.207  66.732  1.00  0.00    -0.223 OA 
BRANCH  15  16
HETATM   16  C   UNL     1     -10.455  10.837  65.522  1.00  0.00    -0.194 A  
HETATM   17  C   UNL     1      -9.586  10.946  63.260  1.00  0.00    -0.377 A  
HETATM   18  C   UNL     1      -9.589  10.368  64.531  1.00  0.00    -0.369 A  
HETATM   19  C   UNL     1     -11.355  12.435  63.940  1.00  0.00    -0.502 A  
HETATM   20  C   UNL     1     -10.465  11.985  62.967  1.00  0.00    -0.092 A  
HETATM   21  C   UNL     1     -11.353  11.861  65.214  1.00  0.00    -0.333 A  
ENDBRANCH  15  16
ENDBRANCH  14  15
ENDBRANCH   2  14
TORSDOF 7
ENDMDL
MODEL      128
REMARK 921   NORMALIZED FREE ENERGY PREDICTED BY IDOCK:   -4.46 KCAL/MOL
REMARK 922        TOTAL FREE ENERGY PREDICTED BY IDOCK:   -7.38 KCAL/MOL
REMARK 923 INTER-LIGAND FREE ENERGY PREDICTED BY IDOCK:   -6.65 KCAL/MOL
REMARK 924 INTRA-LIGAND FREE ENERGY PREDICTED BY IDOCK:   -0.72 KCAL/MOL
REMARK 927      BINDING AFFINITY PREDICTED BY RF-SCORE:    0.00 PKD
ROOT
HETATM    1  C   UNL     1      -8.288  14.924  69.169  1.00  0.00    -0.150 C  
HETATM    2  C   UNL     1      -9.499  14.506  68.309  1.00  0.00    -0.207 C  
ENDROOT
BRANCH   2   3
HETATM    3  N   UNL     1     -10.705  15.389  68.455  1.00  0.00    -0.248 NA 
BRANCH   3   4
HETATM    4  C   UNL     1     -11.055  16.072  67.182  1.00  0.00    -0.104 C  
HETATM    5 CL   UNL     1     -11.235  16.293  64.472  1.00  0.00    -0.378 Cl 
HETATM    6  C   UNL     1     -10.692  15.337  65.882  1.00  0.00    -0.334 C  
ENDBRANCH   3   4
BRANCH   3   7
HETATM    7  C   UNL     1     -11.874  14.659  68.993  1.00  0.00    -0.310 C  
BRANCH   7   8
HETATM    8  C   UNL     1     -12.144  14.826  70.475  1.00  0.00    -0.378 A  
HETATM    9  C   UNL     1     -12.860  13.845  71.176  1.00  0.00    -0.423 A  
HETATM   10  C   UNL     1     -13.197  14.023  72.520  1.00  0.00    -0.602 A  
HETATM   11  C   UNL     1     -11.754  15.987  71.156  1.00  0.00    -0.487 A  
HETATM   12  C   UNL     1     -12.820  15.188  73.181  1.00  0.00    -0.606 A  
HETATM   13  C   UNL     1     -12.094  16.168  72.503  1.00  0.00    -0.644 A  
ENDBRANCH   7   8
ENDBRANCH   3   7
ENDBRANCH   2   3
BRANCH   2  14
HETATM   14  C   UNL     1      -9.817  13.004  68.553  1.00  0.00    -0.151 C  
BRANCH  14  15
HETATM   15  O   UNL     1      -8.953  12.194  67.745  1.00  0.00    -0.164 OA 
BRANCH  15  16
HETATM   16  C   UNL     1      -9.349  10.900  67.544  1.00  0.00    -0.154 A  
HETATM   17  C   UNL     1      -9.486   9.097  65.928  1.00  0.00    -0.326 A  
HETATM   18  C   UNL     1      -9.106  10.398  66.262  1.00  0.00    -0.180 A  
HETATM   19  C   UNL     1     -10.306   8.765  68.170  1.00  0.00    -0.266 A  
HETATM   20  C   UNL     1     -10.093   8.283  66.880  1.00  0.00    -0.366 A  
HETATM   21  C   UNL     1      -9.933  10.070  68.503  1.00  0.00    -0.177 A  
ENDBRANCH  15  16
ENDBRANCH  14  15
ENDBRANCH   2  14
TORSDOF 7
ENDMDL
MODEL      129
REMARK 921   NORMALIZED FREE ENERGY PREDICTED BY IDOCK:   -4.46 KCAL/MOL
REMARK 922        TOTAL FREE ENERGY PREDICTED BY IDOCK:   -7.38 KCAL/MOL
REMARK 923 INTER-LIGAND FREE ENERGY PREDICTED BY IDOCK:   -6.60 KCAL/MOL
REMARK 924 INTRA-LIGAND FREE ENERGY PREDICTED BY IDOCK:   -0.77 KCAL/MOL
REMARK 927      BINDING AFFINITY PREDICTED BY RF-SCORE:    0.00 PKD
ROOT
HETATM    1  C   UNL     1     -10.512  18.538  65.966  1.00  0.00    -0.433 C  
HETATM    2  C   UNL     1     -10.882  17.118  66.442  1.00  0.00     0.058 C  
ENDROOT
BRANCH   2   3
HETATM    3  N   UNL     1     -10.383  16.766  67.813  1.00  0.00    -0.307 NA 
BRANCH   3   4
HETATM    4  C   UNL     1     -11.336  15.893  68.548  1.00  0.00    -0.374 C  
HETATM    5 CL   UNL     1     -12.224  14.474  70.698  1.00  0.00    -0.374 Cl 
HETATM    6  C   UNL     1     -10.933  15.475  69.971  1.00  0.00    -0.319 C  
ENDBRANCH   3   4
BRANCH   3   7
HETATM    7  C   UNL     1      -9.036  16.157  67.782  1.00  0.00    -0.192 C  
BRANCH   7   8
HETATM    8  C   UNL     1      -7.875  17.107  67.566  1.00  0.00    -0.190 A  
HETATM    9  C   UNL     1      -7.563  18.070  68.537  1.00  0.00    -0.296 A  
HETATM   10  C   UNL     1      -6.556  19.013  68.317  1.00  0.00    -0.265 A  
HETATM   11  C   UNL     1      -7.143  17.096  66.372  1.00  0.00    -0.310 A  
HETATM   12  C   UNL     1      -5.847  19.004  67.120  1.00  0.00    -0.156 A  
HETATM   13  C   UNL     1      -6.135  18.043  66.150  1.00  0.00    -0.250 A  
ENDBRANCH   7   8
ENDBRANCH   3   7
ENDBRANCH   2   3
BRANCH   2  14
HETATM   14  C   UNL     1     -10.462  16.082  65.362  1.00  0.00    -0.392 C  
BRANCH  14  15
HETATM   15  O   UNL     1     -11.633  15.494  64.780  1.00  0.00    -0.346 OA 
BRANCH  15  16
HETATM   16  C   UNL     1     -11.526  14.186  64.392  1.00  0.00    -0.332 A  
HETATM   17  C   UNL     1     -10.081  12.239  64.361  1.00  0.00    -0.296 A  
HETATM   18  C   UNL     1     -10.318  13.567  64.722  1.00  0.00    -0.405 A  
HETATM   19  C   UNL     1     -12.280  12.119  63.382  1.00  0.00    -0.635 A  
HETATM   20  C   UNL     1     -11.060  11.517  63.683  1.00  0.00    -0.469 A  
HETATM   21  C   UNL     1     -12.515  13.449  63.738  1.00  0.00    -0.318 A  
ENDBRANCH  15  16
ENDBRANCH  14  15
ENDBRANCH   2  14
TORSDOF 7
ENDMDL
MODEL      130
REMARK 921   NORMALIZED FREE ENERGY PREDICTED BY IDOCK:   -4.45 KCAL/MOL
REMARK 922        TOTAL FREE ENERGY PREDICTED BY IDOCK:   -7.36 KCAL/MOL
REMARK 923 INTER-LIGAND FREE ENERGY PREDICTED BY IDOCK:   -6.35 KCAL/MOL
REMARK 924 INTRA-LIGAND FREE ENERGY PREDICTED BY IDOCK:   -1.01 KCAL/MOL
REMARK 927      BINDING AFFINITY PREDICTED BY RF-SCORE:    0.00 PKD
ROOT
HETATM    1  C   UNL     1      -8.213  12.690  68.493  1.00  0.00    -0.074 C  
HETATM    2  C   UNL     1      -8.851  14.087  68.352  1.00  0.00    -0.180 C  
ENDROOT
BRANCH   2   3
HETATM    3  N   UNL     1     -10.236  14.088  67.771  1.00  0.00    -0.237 NA 
BRANCH   3   4
HETATM    4  C   UNL     1     -11.183  14.893  68.587  1.00  0.00    -0.275 C  
HETATM    5 CL   UNL     1     -12.890  15.332  70.665  1.00  0.00    -0.458 Cl 
HETATM    6  C   UNL     1     -11.828  14.189  69.791  1.00  0.00    -0.322 C  
ENDBRANCH   3   4
BRANCH   3   7
HETATM    7  C   UNL     1     -10.255  14.533  66.361  1.00  0.00    -0.287 C  
BRANCH   7   8
HETATM    8  C   UNL     1     -10.728  13.514  65.343  1.00  0.00    -0.308 A  
HETATM    9  C   UNL     1      -9.955  12.375  65.074  1.00  0.00    -0.219 A  
HETATM   10  C   UNL     1     -10.327  11.472  64.075  1.00  0.00    -0.406 A  
HETATM   11  C   UNL     1     -11.898  13.722  64.601  1.00  0.00    -0.427 A  
HETATM   12  C   UNL     1     -11.483  11.698  63.333  1.00  0.00    -0.360 A  
HETATM   13  C   UNL     1     -12.271  12.818  63.598  1.00  0.00    -0.597 A  
ENDBRANCH   7   8
ENDBRANCH   3   7
ENDBRANCH   2   3
BRANCH   2  14
HETATM   14  C   UNL     1      -7.877  15.029  67.590  1.00  0.00    -0.168 C  
BRANCH  14  15
HETATM   15  O   UNL     1      -7.650  16.213  68.367  1.00  0.00    -0.147 OA 
BRANCH  15  16
HETATM   16  C   UNL     1      -8.261  17.355  67.923  1.00  0.00    -0.225 A  
HETATM   17  C   UNL     1      -9.538  19.307  68.586  1.00  0.00    -0.479 A  
HETATM   18  C   UNL     1      -8.864  18.130  68.917  1.00  0.00    -0.131 A  
HETATM   19  C   UNL     1      -8.966  18.976  66.268  1.00  0.00    -0.289 A  
HETATM   20  C   UNL     1      -9.595  19.726  67.259  1.00  0.00    -0.480 A  
HETATM   21  C   UNL     1      -8.298  17.794  66.598  1.00  0.00    -0.285 A  
ENDBRANCH  15  16
ENDBRANCH  14  15
ENDBRANCH   2  14
TORSDOF 7
ENDMDL
MODEL      131
REMARK 921   NORMALIZED FREE ENERGY PREDICTED BY IDOCK:   -4.45 KCAL/MOL
REMARK 922        TOTAL FREE ENERGY PREDICTED BY IDOCK:   -7.36 KCAL/MOL
REMARK 923 INTER-LIGAND FREE ENERGY PREDICTED BY IDOCK:   -6.42 KCAL/MOL
REMARK 924 INTRA-LIGAND FREE ENERGY PREDICTED BY IDOCK:   -0.94 KCAL/MOL
REMARK 927      BINDING AFFINITY PREDICTED BY RF-SCORE:    0.00 PKD
ROOT
HETATM    1  C   UNL     1      -7.737  10.154  68.930  1.00  0.00    -0.093 C  
HETATM    2  C   UNL     1      -9.113  10.817  68.720  1.00  0.00    -0.178 C  
ENDROOT
BRANCH   2   3
HETATM    3  N   UNL     1     -10.282   9.879  68.813  1.00  0.00    -0.181 NA 
BRANCH   3   4
HETATM    4  C   UNL     1     -11.422  10.477  69.558  1.00  0.00    -0.272 C  
HETATM    5 CL   UNL     1     -13.057  10.806  71.712  1.00  0.00    -0.583 Cl 
HETATM    6  C   UNL     1     -11.687   9.930  70.969  1.00  0.00    -0.382 C  
ENDBRANCH   3   4
BRANCH   3   7
HETATM    7  C   UNL     1     -10.724   9.396  67.486  1.00  0.00    -0.222 C  
BRANCH   7   8
HETATM    8  C   UNL     1     -10.305   7.989  67.112  1.00  0.00    -0.395 A  
HETATM    9  C   UNL     1      -9.105   7.771  66.419  1.00  0.00    -0.216 A  
HETATM   10  C   UNL     1      -8.747   6.492  65.985  1.00  0.00    -0.155 A  
HETATM   11  C   UNL     1     -11.134   6.891  67.379  1.00  0.00    -0.322 A  
HETATM   12  C   UNL     1      -9.587   5.412  66.242  1.00  0.00    -0.175 A  
HETATM   13  C   UNL     1     -10.777   5.609  66.943  1.00  0.00    -0.350 A  
ENDBRANCH   7   8
ENDBRANCH   3   7
ENDBRANCH   2   3
BRANCH   2  14
HETATM   14  C   UNL     1      -9.101  11.636  67.398  1.00  0.00    -0.169 C  
BRANCH  14  15
HETATM   15  O   UNL     1      -9.797  12.873  67.595  1.00  0.00    -0.203 OA 
BRANCH  15  16
HETATM   16  C   UNL     1     -10.597  13.289  66.565  1.00  0.00    -0.286 A  
HETATM   17  C   UNL     1     -10.922  14.994  64.870  1.00  0.00    -0.427 A  
HETATM   18  C   UNL     1     -10.177  14.457  65.923  1.00  0.00    -0.341 A  
HETATM   19  C   UNL     1     -12.486  13.169  65.054  1.00  0.00    -0.516 A  
HETATM   20  C   UNL     1     -12.081  14.353  64.442  1.00  0.00    -0.491 A  
HETATM   21  C   UNL     1     -11.744  12.635  66.112  1.00  0.00    -0.461 A  
ENDBRANCH  15  16
ENDBRANCH  14  15
ENDBRANCH   2  14
TORSDOF 7
ENDMDL
MODEL      132
REMARK 921   NORMALIZED FREE ENERGY PREDICTED BY IDOCK:   -4.43 KCAL/MOL
REMARK 922        TOTAL FREE ENERGY PREDICTED BY IDOCK:   -7.33 KCAL/MOL
REMARK 923 INTER-LIGAND FREE ENERGY PREDICTED BY IDOCK:   -6.56 KCAL/MOL
REMARK 924 INTRA-LIGAND FREE ENERGY PREDICTED BY IDOCK:   -0.77 KCAL/MOL
REMARK 927      BINDING AFFINITY PREDICTED BY RF-SCORE:    0.00 PKD
ROOT
HETATM    1  C   UNL     1     -12.492  10.501  70.608  1.00  0.00    -0.456 C  
HETATM    2  C   UNL     1     -10.967  10.428  70.389  1.00  0.00    -0.248 C  
ENDROOT
BRANCH   2   3
HETATM    3  N   UNL     1     -10.534  10.529  68.954  1.00  0.00    -0.193 NA 
BRANCH   3   4
HETATM    4  C   UNL     1      -9.824   9.305  68.498  1.00  0.00    -0.158 C  
HETATM    5 CL   UNL     1      -9.395   7.170  66.859  1.00  0.00    -0.175 Cl 
HETATM    6  C   UNL     1     -10.413   8.579  67.278  1.00  0.00    -0.296 C  
ENDBRANCH   3   4
BRANCH   3   7
HETATM    7  C   UNL     1     -11.659  10.847  68.048  1.00  0.00    -0.215 C  
BRANCH   7   8
HETATM    8  C   UNL     1     -11.680  12.249  67.474  1.00  0.00    -0.402 A  
HETATM    9  C   UNL     1     -11.421  12.457  66.111  1.00  0.00    -0.430 A  
HETATM   10  C   UNL     1     -11.346  13.748  65.582  1.00  0.00    -0.311 A  
HETATM   11  C   UNL     1     -11.883  13.365  68.296  1.00  0.00    -0.393 A  
HETATM   12  C   UNL     1     -11.533  14.850  66.412  1.00  0.00    -0.280 A  
HETATM   13  C   UNL     1     -11.806  14.660  67.767  1.00  0.00    -0.359 A  
ENDBRANCH   7   8
ENDBRANCH   3   7
ENDBRANCH   2   3
BRANCH   2  14
HETATM   14  C   UNL     1     -10.398   9.170  71.104  1.00  0.00    -0.317 C  
BRANCH  14  15
HETATM   15  O   UNL     1     -11.480   8.374  71.605  1.00  0.00    -0.258 OA 
BRANCH  15  16
HETATM   16  C   UNL     1     -11.142   7.362  72.461  1.00  0.00    -0.304 A  
HETATM   17  C   UNL     1     -11.532   5.038  73.038  1.00  0.00    -0.344 A  
HETATM   18  C   UNL     1     -11.778   6.142  72.218  1.00  0.00    -0.352 A  
HETATM   19  C   UNL     1      -9.968   6.349  74.321  1.00  0.00    -0.346 A  
HETATM   20  C   UNL     1     -10.632   5.145  74.095  1.00  0.00    -0.322 A  
HETATM   21  C   UNL     1     -10.219   7.455  73.505  1.00  0.00    -0.400 A  
ENDBRANCH  15  16
ENDBRANCH  14  15
ENDBRANCH   2  14
TORSDOF 7
ENDMDL
MODEL      133
REMARK 921   NORMALIZED FREE ENERGY PREDICTED BY IDOCK:   -4.42 KCAL/MOL
REMARK 922        TOTAL FREE ENERGY PREDICTED BY IDOCK:   -7.32 KCAL/MOL
REMARK 923 INTER-LIGAND FREE ENERGY PREDICTED BY IDOCK:   -6.84 KCAL/MOL
REMARK 924 INTRA-LIGAND FREE ENERGY PREDICTED BY IDOCK:   -0.48 KCAL/MOL
REMARK 927      BINDING AFFINITY PREDICTED BY RF-SCORE:    0.00 PKD
ROOT
HETATM    1  C   UNL     1     -10.463  13.924  65.444  1.00  0.00    -0.357 C  
HETATM    2  C   UNL     1     -11.276  14.350  66.684  1.00  0.00    -0.339 C  
ENDROOT
BRANCH   2   3
HETATM    3  N   UNL     1     -10.486  15.080  67.731  1.00  0.00    -0.246 NA 
BRANCH   3   4
HETATM    4  C   UNL     1      -9.095  15.361  67.288  1.00  0.00    -0.206 C  
HETATM    5 CL   UNL     1      -6.380  15.335  67.521  1.00  0.00    -0.170 Cl 
HETATM    6  C   UNL     1      -7.969  14.961  68.253  1.00  0.00    -0.130 C  
ENDBRANCH   3   4
BRANCH   3   7
HETATM    7  C   UNL     1     -11.153  16.324  68.174  1.00  0.00    -0.329 C  
BRANCH   7   8
HETATM    8  C   UNL     1     -10.489  17.623  67.764  1.00  0.00    -0.379 A  
HETATM    9  C   UNL     1      -9.762  18.369  68.703  1.00  0.00    -0.387 A  
HETATM   10  C   UNL     1      -9.220  19.613  68.369  1.00  0.00    -0.404 A  
HETATM   11  C   UNL     1     -10.647  18.141  66.472  1.00  0.00    -0.290 A  
HETATM   12  C   UNL     1      -9.398  20.125  67.087  1.00  0.00    -0.521 A  
HETATM   13  C   UNL     1     -10.106  19.388  66.137  1.00  0.00    -0.533 A  
ENDBRANCH   7   8
ENDBRANCH   3   7
ENDBRANCH   2   3
BRANCH   2  14
HETATM   14  C   UNL     1     -12.040  13.121  67.252  1.00  0.00    -0.274 C  
BRANCH  14  15
HETATM   15  O   UNL     1     -11.244  11.941  67.080  1.00  0.00    -0.285 OA 
BRANCH  15  16
HETATM   16  C   UNL     1     -11.211  11.072  68.137  1.00  0.00    -0.302 A  
HETATM   17  C   UNL     1     -11.898  10.721  70.436  1.00  0.00    -0.450 A  
HETATM   18  C   UNL     1     -11.880  11.509  69.284  1.00  0.00    -0.414 A  
HETATM   19  C   UNL     1     -10.626   9.025  69.290  1.00  0.00    -0.226 A  
HETATM   20  C   UNL     1     -11.264   9.481  70.441  1.00  0.00    -0.323 A  
HETATM   21  C   UNL     1     -10.601   9.817  68.139  1.00  0.00    -0.276 A  
ENDBRANCH  15  16
ENDBRANCH  14  15
ENDBRANCH   2  14
TORSDOF 7
ENDMDL
MODEL      134
REMARK 921   NORMALIZED FREE ENERGY PREDICTED BY IDOCK:   -4.40 KCAL/MOL
REMARK 922        TOTAL FREE ENERGY PREDICTED BY IDOCK:   -7.30 KCAL/MOL
REMARK 923 INTER-LIGAND FREE ENERGY PREDICTED BY IDOCK:   -5.90 KCAL/MOL
REMARK 924 INTRA-LIGAND FREE ENERGY PREDICTED BY IDOCK:   -1.40 KCAL/MOL
REMARK 927      BINDING AFFINITY PREDICTED BY RF-SCORE:    0.00 PKD
ROOT
HETATM    1  C   UNL     1     -11.989  13.931  66.823  1.00  0.00    -0.472 C  
HETATM    2  C   UNL     1     -10.996  13.146  67.705  1.00  0.00    -0.262 C  
ENDROOT
BRANCH   2   3
HETATM    3  N   UNL     1     -11.477  12.875  69.101  1.00  0.00    -0.291 NA 
BRANCH   3   4
HETATM    4  C   UNL     1     -12.299  13.992  69.636  1.00  0.00    -0.260 C  
HETATM    5 CL   UNL     1     -13.466  15.472  71.605  1.00  0.00    -0.569 Cl 
HETATM    6  C   UNL     1     -12.496  14.037  71.159  1.00  0.00    -0.371 C  
ENDBRANCH   3   4
BRANCH   3   7
HETATM    7  C   UNL     1     -12.207  11.594  69.207  1.00  0.00    -0.164 C  
BRANCH   7   8
HETATM    8  C   UNL     1     -11.687  10.608  70.234  1.00  0.00    -0.433 A  
HETATM    9  C   UNL     1     -10.376  10.118  70.140  1.00  0.00    -0.280 A  
HETATM   10  C   UNL     1      -9.908   9.141  71.022  1.00  0.00    -0.366 A  
HETATM   11  C   UNL     1     -12.518  10.111  71.247  1.00  0.00    -0.510 A  
HETATM   12  C   UNL     1     -10.749   8.643  72.014  1.00  0.00    -0.427 A  
HETATM   13  C   UNL     1     -12.051   9.130  72.130  1.00  0.00    -0.389 A  
ENDBRANCH   7   8
ENDBRANCH   3   7
ENDBRANCH   2   3
BRANCH   2  14
HETATM   14  C   UNL     1      -9.606  13.842  67.669  1.00  0.00    -0.219 C  
BRANCH  14  15
HETATM   15  O   UNL     1      -8.698  13.057  66.884  1.00  0.00    -0.207 OA 
BRANCH  15  16
HETATM   16  C   UNL     1      -8.125  11.985  67.513  1.00  0.00    -0.159 A  
HETATM   17  C   UNL     1      -7.793   9.584  67.432  1.00  0.00    -0.102 A  
HETATM   18  C   UNL     1      -8.312  10.755  66.876  1.00  0.00    -0.132 A  
HETATM   19  C   UNL     1      -6.848  10.867  69.240  1.00  0.00    -0.105 A  
HETATM   20  C   UNL     1      -7.068   9.639  68.619  1.00  0.00    -0.072 A  
HETATM   21  C   UNL     1      -7.373  12.038  68.688  1.00  0.00    -0.111 A  
ENDBRANCH  15  16
ENDBRANCH  14  15
ENDBRANCH   2  14
TORSDOF 7
ENDMDL
MODEL      135
REMARK 921   NORMALIZED FREE ENERGY PREDICTED BY IDOCK:   -4.36 KCAL/MOL
REMARK 922        TOTAL FREE ENERGY PREDICTED BY IDOCK:   -7.25 KCAL/MOL
REMARK 923 INTER-LIGAND FREE ENERGY PREDICTED BY IDOCK:   -5.26 KCAL/MOL
REMARK 924 INTRA-LIGAND FREE ENERGY PREDICTED BY IDOCK:   -1.98 KCAL/MOL
REMARK 927      BINDING AFFINITY PREDICTED BY RF-SCORE:    0.00 PKD
ROOT
HETATM    1  C   UNL     1      -6.884   9.784  67.290  1.00  0.00    -0.083 C  
HETATM    2  C   UNL     1      -8.139   9.297  68.043  1.00  0.00    -0.104 C  
ENDROOT
BRANCH   2   3
HETATM    3  N   UNL     1      -9.316   8.983  67.164  1.00  0.00    -0.143 NA 
BRANCH   3   4
HETATM    4  C   UNL     1      -9.218   9.650  65.839  1.00  0.00    -0.194 C  
HETATM    5 CL   UNL     1      -9.809  11.568  63.996  1.00  0.00    -0.293 Cl 
HETATM    6  C   UNL     1     -10.106  10.885  65.622  1.00  0.00    -0.261 C  
ENDBRANCH   3   4
BRANCH   3   7
HETATM    7  C   UNL     1      -9.523   7.528  67.000  1.00  0.00    -0.162 C  
BRANCH   7   8
HETATM    8  C   UNL     1      -9.694   6.727  68.276  1.00  0.00    -0.126 A  
HETATM    9  C   UNL     1      -8.589   6.096  68.866  1.00  0.00    -0.121 A  
HETATM   10  C   UNL     1      -8.742   5.280  69.989  1.00  0.00    -0.128 A  
HETATM   11  C   UNL     1     -10.959   6.538  68.848  1.00  0.00    -0.376 A  
HETATM   12  C   UNL     1     -10.006   5.085  70.538  1.00  0.00    -0.312 A  
HETATM   13  C   UNL     1     -11.114   5.718  69.972  1.00  0.00    -0.329 A  
ENDBRANCH   7   8
ENDBRANCH   3   7
ENDBRANCH   2   3
BRANCH   2  14
HETATM   14  C   UNL     1      -8.485  10.299  69.180  1.00  0.00    -0.162 C  
BRANCH  14  15
HETATM   15  O   UNL     1      -9.902  10.303  69.399  1.00  0.00    -0.212 OA 
BRANCH  15  16
HETATM   16  C   UNL     1     -10.350   9.588  70.477  1.00  0.00    -0.288 A  
HETATM   17  C   UNL     1      -9.683   8.236  72.376  1.00  0.00    -0.373 A  
HETATM   18  C   UNL     1      -9.350   9.009  71.262  1.00  0.00    -0.324 A  
HETATM   19  C   UNL     1     -12.020   8.659  71.965  1.00  0.00    -0.442 A  
HETATM   20  C   UNL     1     -11.019   8.055  72.723  1.00  0.00    -0.449 A  
HETATM   21  C   UNL     1     -11.687   9.427  70.845  1.00  0.00    -0.378 A  
ENDBRANCH  15  16
ENDBRANCH  14  15
ENDBRANCH   2  14
TORSDOF 7
ENDMDL
MODEL      136
REMARK 921   NORMALIZED FREE ENERGY PREDICTED BY IDOCK:   -4.33 KCAL/MOL
REMARK 922        TOTAL FREE ENERGY PREDICTED BY IDOCK:   -7.19 KCAL/MOL
REMARK 923 INTER-LIGAND FREE ENERGY PREDICTED BY IDOCK:   -6.61 KCAL/MOL
REMARK 924 INTRA-LIGAND FREE ENERGY PREDICTED BY IDOCK:   -0.59 KCAL/MOL
REMARK 927      BINDING AFFINITY PREDICTED BY RF-SCORE:    0.00 PKD
ROOT
HETATM    1  C   UNL     1      -8.687  12.107  68.088  1.00  0.00    -0.185 C  
HETATM    2  C   UNL     1     -10.219  11.936  68.055  1.00  0.00    -0.192 C  
ENDROOT
BRANCH   2   3
HETATM    3  N   UNL     1     -10.991  13.094  68.620  1.00  0.00    -0.257 NA 
BRANCH   3   4
HETATM    4  C   UNL     1     -11.660  13.890  67.558  1.00  0.00    -0.360 C  
HETATM    5 CL   UNL     1     -12.628  14.333  65.049  1.00  0.00    -0.414 Cl 
HETATM    6  C   UNL     1     -11.752  13.245  66.166  1.00  0.00    -0.374 C  
ENDBRANCH   3   4
BRANCH   3   7
HETATM    7  C   UNL     1     -11.967  12.672  69.648  1.00  0.00    -0.286 C  
BRANCH   7   8
HETATM    8  C   UNL     1     -12.216  13.651  70.778  1.00  0.00    -0.424 A  
HETATM    9  C   UNL     1     -13.182  13.368  71.755  1.00  0.00    -0.495 A  
HETATM   10  C   UNL     1     -13.490  14.298  72.751  1.00  0.00    -0.590 A  
HETATM   11  C   UNL     1     -11.548  14.881  70.830  1.00  0.00    -0.344 A  
HETATM   12  C   UNL     1     -12.832  15.524  72.783  1.00  0.00    -0.539 A  
HETATM   13  C   UNL     1     -11.858  15.814  71.827  1.00  0.00    -0.549 A  
ENDBRANCH   7   8
ENDBRANCH   3   7
ENDBRANCH   2   3
BRANCH   2  14
HETATM   14  C   UNL     1     -10.605  10.578  68.708  1.00  0.00    -0.207 C  
BRANCH  14  15
HETATM   15  O   UNL     1      -9.420   9.802  68.934  1.00  0.00    -0.151 OA 
BRANCH  15  16
HETATM   16  C   UNL     1      -9.329   8.621  68.249  1.00  0.00    -0.137 A  
HETATM   17  C   UNL     1     -10.568   6.955  66.996  1.00  0.00    -0.403 A  
HETATM   18  C   UNL     1     -10.528   8.161  67.700  1.00  0.00    -0.300 A  
HETATM   19  C   UNL     1      -8.198   6.685  67.336  1.00  0.00    -0.121 A  
HETATM   20  C   UNL     1      -9.403   6.213  66.821  1.00  0.00    -0.152 A  
HETATM   21  C   UNL     1      -8.159   7.887  68.047  1.00  0.00    -0.126 A  
ENDBRANCH  15  16
ENDBRANCH  14  15
ENDBRANCH   2  14
TORSDOF 7
ENDMDL
MODEL      137
REMARK 921   NORMALIZED FREE ENERGY PREDICTED BY IDOCK:   -4.32 KCAL/MOL
REMARK 922        TOTAL FREE ENERGY PREDICTED BY IDOCK:   -7.19 KCAL/MOL
REMARK 923 INTER-LIGAND FREE ENERGY PREDICTED BY IDOCK:   -6.34 KCAL/MOL
REMARK 924 INTRA-LIGAND FREE ENERGY PREDICTED BY IDOCK:   -0.85 KCAL/MOL
REMARK 927      BINDING AFFINITY PREDICTED BY RF-SCORE:    0.00 PKD
ROOT
HETATM    1  C   UNL     1      -7.656  12.525  67.882  1.00  0.00    -0.133 C  
HETATM    2  C   UNL     1      -9.082  12.234  67.372  1.00  0.00    -0.184 C  
ENDROOT
BRANCH   2   3
HETATM    3  N   UNL     1      -9.569  13.169  66.302  1.00  0.00    -0.261 NA 
BRANCH   3   4
HETATM    4  C   UNL     1     -10.390  12.469  65.280  1.00  0.00    -0.287 C  
HETATM    5 CL   UNL     1     -12.374  12.275  63.421  1.00  0.00    -0.651 Cl 
HETATM    6  C   UNL     1     -11.543  13.270  64.654  1.00  0.00    -0.350 C  
ENDBRANCH   3   4
BRANCH   3   7
HETATM    7  C   UNL     1     -10.303  14.326  66.857  1.00  0.00    -0.268 C  
BRANCH   7   8
HETATM    8  C   UNL     1      -9.483  15.571  67.133  1.00  0.00    -0.223 A  
HETATM    9  C   UNL     1      -8.895  16.276  66.073  1.00  0.00    -0.308 A  
HETATM   10  C   UNL     1      -8.061  17.371  66.313  1.00  0.00    -0.298 A  
HETATM   11  C   UNL     1      -9.234  15.998  68.443  1.00  0.00    -0.196 A  
HETATM   12  C   UNL     1      -7.807  17.776  67.620  1.00  0.00    -0.212 A  
HETATM   13  C   UNL     1      -8.397  17.094  68.685  1.00  0.00    -0.257 A  
ENDBRANCH   7   8
ENDBRANCH   3   7
ENDBRANCH   2   3
BRANCH   2  14
HETATM   14  C   UNL     1     -10.057  12.140  68.580  1.00  0.00    -0.187 C  
BRANCH  14  15
HETATM   15  O   UNL     1     -10.783  10.905  68.514  1.00  0.00    -0.178 OA 
BRANCH  15  16
HETATM   16  C   UNL     1     -11.406  10.507  69.666  1.00  0.00    -0.281 A  
HETATM   17  C   UNL     1     -12.925  11.177  71.433  1.00  0.00    -0.506 A  
HETATM   18  C   UNL     1     -12.250  11.458  70.243  1.00  0.00    -0.433 A  
HETATM   19  C   UNL     1     -11.960   8.969  71.452  1.00  0.00    -0.400 A  
HETATM   20  C   UNL     1     -12.773   9.934  72.042  1.00  0.00    -0.456 A  
HETATM   21  C   UNL     1     -11.279   9.252  70.266  1.00  0.00    -0.267 A  
ENDBRANCH  15  16
ENDBRANCH  14  15
ENDBRANCH   2  14
TORSDOF 7
ENDMDL
MODEL      138
REMARK 921   NORMALIZED FREE ENERGY PREDICTED BY IDOCK:   -4.32 KCAL/MOL
REMARK 922        TOTAL FREE ENERGY PREDICTED BY IDOCK:   -7.18 KCAL/MOL
REMARK 923 INTER-LIGAND FREE ENERGY PREDICTED BY IDOCK:   -6.29 KCAL/MOL
REMARK 924 INTRA-LIGAND FREE ENERGY PREDICTED BY IDOCK:   -0.89 KCAL/MOL
REMARK 927      BINDING AFFINITY PREDICTED BY RF-SCORE:    0.00 PKD
ROOT
HETATM    1  C   UNL     1      -8.575   9.132  70.660  1.00  0.00    -0.266 C  
HETATM    2  C   UNL     1      -8.948   8.539  69.286  1.00  0.00    -0.146 C  
ENDROOT
BRANCH   2   3
HETATM    3  N   UNL     1      -8.936   9.524  68.153  1.00  0.00    -0.124 NA 
BRANCH   3   4
HETATM    4  C   UNL     1      -7.915   9.183  67.127  1.00  0.00    -0.106 C  
HETATM    5 CL   UNL     1      -6.857   7.699  65.101  1.00  0.00    -0.047 Cl 
HETATM    6  C   UNL     1      -8.162   7.907  66.306  1.00  0.00    -0.117 C  
ENDBRANCH   3   4
BRANCH   3   7
HETATM    7  C   UNL     1     -10.268   9.682  67.530  1.00  0.00    -0.220 C  
BRANCH   7   8
HETATM    8  C   UNL     1     -10.808  11.096  67.453  1.00  0.00    -0.317 A  
HETATM    9  C   UNL     1     -11.188  11.770  68.623  1.00  0.00    -0.312 A  
HETATM   10  C   UNL     1     -11.772  13.038  68.565  1.00  0.00    -0.377 A  
HETATM   11  C   UNL     1     -11.009  11.729  66.219  1.00  0.00    -0.346 A  
HETATM   12  C   UNL     1     -11.982  13.649  67.332  1.00  0.00    -0.413 A  
HETATM   13  C   UNL     1     -11.597  12.998  66.160  1.00  0.00    -0.412 A  
ENDBRANCH   7   8
ENDBRANCH   3   7
ENDBRANCH   2   3
BRANCH   2  14
HETATM   14  C   UNL     1     -10.294   7.768  69.401  1.00  0.00    -0.219 C  
BRANCH  14  15
HETATM   15  O   UNL     1     -10.566   7.482  70.779  1.00  0.00    -0.216 OA 
BRANCH  15  16
HETATM   16  C   UNL     1     -11.796   7.861  71.245  1.00  0.00    -0.296 A  
HETATM   17  C   UNL     1     -14.075   7.134  71.646  1.00  0.00    -0.477 A  
HETATM   18  C   UNL     1     -12.774   6.864  71.217  1.00  0.00    -0.368 A  
HETATM   19  C   UNL     1     -13.420   9.390  72.188  1.00  0.00    -0.543 A  
HETATM   20  C   UNL     1     -14.399   8.401  72.124  1.00  0.00    -0.520 A  
HETATM   21  C   UNL     1     -12.120   9.121  71.753  1.00  0.00    -0.446 A  
ENDBRANCH  15  16
ENDBRANCH  14  15
ENDBRANCH   2  14
TORSDOF 7
ENDMDL
MODEL      139
REMARK 921   NORMALIZED FREE ENERGY PREDICTED BY IDOCK:   -4.30 KCAL/MOL
REMARK 922        TOTAL FREE ENERGY PREDICTED BY IDOCK:   -7.16 KCAL/MOL
REMARK 923 INTER-LIGAND FREE ENERGY PREDICTED BY IDOCK:   -5.95 KCAL/MOL
REMARK 924 INTRA-LIGAND FREE ENERGY PREDICTED BY IDOCK:   -1.21 KCAL/MOL
REMARK 927      BINDING AFFINITY PREDICTED BY RF-SCORE:    0.00 PKD
ROOT
HETATM    1  C   UNL     1      -9.657   3.877  69.483  1.00  0.00    -0.248 C  
HETATM    2  C   UNL     1      -9.977   5.297  69.992  1.00  0.00    -0.245 C  
ENDROOT
BRANCH   2   3
HETATM    3  N   UNL     1     -10.736   5.343  71.287  1.00  0.00    -0.216 NA 
BRANCH   3   4
HETATM    4  C   UNL     1     -10.279   4.297  72.240  1.00  0.00    -0.175 C  
HETATM    5 CL   UNL     1     -10.525   2.650  74.397  1.00  0.00    -0.206 Cl 
HETATM    6  C   UNL     1     -11.229   3.956  73.399  1.00  0.00    -0.199 C  
ENDBRANCH   3   4
BRANCH   3   7
HETATM    7  C   UNL     1     -10.690   6.679  71.920  1.00  0.00    -0.223 C  
BRANCH   7   8
HETATM    8  C   UNL     1     -11.989   7.459  71.933  1.00  0.00    -0.337 A  
HETATM    9  C   UNL     1     -13.175   6.861  71.484  1.00  0.00    -0.322 A  
HETATM   10  C   UNL     1     -14.364   7.591  71.403  1.00  0.00    -0.540 A  
HETATM   11  C   UNL     1     -12.022   8.806  72.319  1.00  0.00    -0.415 A  
HETATM   12  C   UNL     1     -14.380   8.933  71.773  1.00  0.00    -0.351 A  
HETATM   13  C   UNL     1     -13.212   9.539  72.236  1.00  0.00    -0.507 A  
ENDBRANCH   7   8
ENDBRANCH   3   7
ENDBRANCH   2   3
BRANCH   2  14
HETATM   14  C   UNL     1     -10.666   6.112  68.861  1.00  0.00    -0.312 C  
BRANCH  14  15
HETATM   15  O   UNL     1      -9.687   6.914  68.186  1.00  0.00    -0.130 OA 
BRANCH  15  16
HETATM   16  C   UNL     1     -10.050   8.204  67.906  1.00  0.00    -0.196 A  
HETATM   17  C   UNL     1     -11.112  10.200  68.783  1.00  0.00    -0.250 A  
HETATM   18  C   UNL     1     -10.676   8.884  68.953  1.00  0.00    -0.132 A  
HETATM   19  C   UNL     1     -10.250  10.188  66.532  1.00  0.00    -0.288 A  
HETATM   20  C   UNL     1     -10.906  10.849  67.569  1.00  0.00    -0.324 A  
HETATM   21  C   UNL     1      -9.820   8.869  66.700  1.00  0.00    -0.332 A  
ENDBRANCH  15  16
ENDBRANCH  14  15
ENDBRANCH   2  14
TORSDOF 7
ENDMDL
MODEL      140
REMARK 921   NORMALIZED FREE ENERGY PREDICTED BY IDOCK:   -4.30 KCAL/MOL
REMARK 922        TOTAL FREE ENERGY PREDICTED BY IDOCK:   -7.16 KCAL/MOL
REMARK 923 INTER-LIGAND FREE ENERGY PREDICTED BY IDOCK:   -5.65 KCAL/MOL
REMARK 924 INTRA-LIGAND FREE ENERGY PREDICTED BY IDOCK:   -1.51 KCAL/MOL
REMARK 927      BINDING AFFINITY PREDICTED BY RF-SCORE:    0.00 PKD
ROOT
HETATM    1  C   UNL     1      -9.074   5.767  70.347  1.00  0.00    -0.160 C  
HETATM    2  C   UNL     1      -9.906   5.697  69.051  1.00  0.00    -0.158 C  
ENDROOT
BRANCH   2   3
HETATM    3  N   UNL     1      -9.300   6.411  67.877  1.00  0.00    -0.116 NA 
BRANCH   3   4
HETATM    4  C   UNL     1      -8.857   5.468  66.817  1.00  0.00    -0.114 C  
HETATM    5 CL   UNL     1      -9.187   3.445  65.020  1.00  0.00    -0.142 Cl 
HETATM    6  C   UNL     1      -9.895   4.450  66.320  1.00  0.00    -0.231 C  
ENDBRANCH   3   4
BRANCH   3   7
HETATM    7  C   UNL     1     -10.204   7.438  67.315  1.00  0.00    -0.260 C  
BRANCH   7   8
HETATM    8  C   UNL     1      -9.885   8.877  67.667  1.00  0.00    -0.229 A  
HETATM    9  C   UNL     1      -8.745   9.180  68.426  1.00  0.00    -0.129 A  
HETATM   10  C   UNL     1      -8.482  10.489  68.837  1.00  0.00    -0.152 A  
HETATM   11  C   UNL     1     -10.750   9.919  67.310  1.00  0.00    -0.304 A  
HETATM   12  C   UNL     1      -9.359  11.514  68.492  1.00  0.00    -0.171 A  
HETATM   13  C   UNL     1     -10.489  11.231  67.724  1.00  0.00    -0.218 A  
ENDBRANCH   7   8
ENDBRANCH   3   7
ENDBRANCH   2   3
BRANCH   2  14
HETATM   14  C   UNL     1     -11.365   6.147  69.344  1.00  0.00    -0.331 C  
BRANCH  14  15
HETATM   15  O   UNL     1     -11.529   6.349  70.754  1.00  0.00    -0.327 OA 
BRANCH  15  16
HETATM   16  C   UNL     1     -12.167   7.500  71.131  1.00  0.00    -0.301 A  
HETATM   17  C   UNL     1     -11.950   9.905  71.354  1.00  0.00    -0.489 A  
HETATM   18  C   UNL     1     -11.417   8.669  70.982  1.00  0.00    -0.324 A  
HETATM   19  C   UNL     1     -14.011   8.822  71.977  1.00  0.00    -0.511 A  
HETATM   20  C   UNL     1     -13.245   9.980  71.859  1.00  0.00    -0.557 A  
HETATM   21  C   UNL     1     -13.475   7.584  71.612  1.00  0.00    -0.429 A  
ENDBRANCH  15  16
ENDBRANCH  14  15
ENDBRANCH   2  14
TORSDOF 7
ENDMDL
MODEL      141
REMARK 921   NORMALIZED FREE ENERGY PREDICTED BY IDOCK:   -4.28 KCAL/MOL
REMARK 922        TOTAL FREE ENERGY PREDICTED BY IDOCK:   -7.13 KCAL/MOL
REMARK 923 INTER-LIGAND FREE ENERGY PREDICTED BY IDOCK:   -5.18 KCAL/MOL
REMARK 924 INTRA-LIGAND FREE ENERGY PREDICTED BY IDOCK:   -1.95 KCAL/MOL
REMARK 927      BINDING AFFINITY PREDICTED BY RF-SCORE:    0.00 PKD
ROOT
HETATM    1  C   UNL     1     -13.257  10.355  71.621  1.00  0.00    -0.502 C  
HETATM    2  C   UNL     1     -12.118   9.368  71.294  1.00  0.00    -0.345 C  
ENDROOT
BRANCH   2   3
HETATM    3  N   UNL     1     -11.375   9.667  70.024  1.00  0.00    -0.226 NA 
BRANCH   3   4
HETATM    4  C   UNL     1     -12.006  10.770  69.252  1.00  0.00    -0.263 C  
HETATM    5 CL   UNL     1     -12.029  13.145  67.917  1.00  0.00    -0.379 Cl 
HETATM    6  C   UNL     1     -11.102  11.955  68.877  1.00  0.00    -0.247 C  
ENDBRANCH   3   4
BRANCH   3   7
HETATM    7  C   UNL     1      -9.943   9.951  70.263  1.00  0.00    -0.203 C  
BRANCH   7   8
HETATM    8  C   UNL     1      -8.999   8.770  70.162  1.00  0.00    -0.173 A  
HETATM    9  C   UNL     1      -8.339   8.296  71.305  1.00  0.00    -0.156 A  
HETATM   10  C   UNL     1      -7.397   7.268  71.217  1.00  0.00    -0.077 A  
HETATM   11  C   UNL     1      -8.708   8.179  68.926  1.00  0.00    -0.137 A  
HETATM   12  C   UNL     1      -7.103   6.700  69.981  1.00  0.00    -0.071 A  
HETATM   13  C   UNL     1      -7.761   7.151  68.836  1.00  0.00    -0.113 A  
ENDBRANCH   7   8
ENDBRANCH   3   7
ENDBRANCH   2   3
BRANCH   2  14
HETATM   14  C   UNL     1     -12.661   7.912  71.347  1.00  0.00    -0.292 C  
BRANCH  14  15
HETATM   15  O   UNL     1     -11.898   7.084  70.459  1.00  0.00    -0.326 OA 
BRANCH  15  16
HETATM   16  C   UNL     1     -11.217   6.045  71.035  1.00  0.00    -0.263 A  
HETATM   17  C   UNL     1      -9.807   4.119  70.608  1.00  0.00    -0.249 A  
HETATM   18  C   UNL     1     -10.522   5.225  70.143  1.00  0.00    -0.338 A  
HETATM   19  C   UNL     1     -10.429   4.674  72.869  1.00  0.00    -0.254 A  
HETATM   20  C   UNL     1      -9.767   3.840  71.971  1.00  0.00    -0.236 A  
HETATM   21  C   UNL     1     -11.151   5.776  72.404  1.00  0.00    -0.332 A  
ENDBRANCH  15  16
ENDBRANCH  14  15
ENDBRANCH   2  14
TORSDOF 7
ENDMDL
MODEL      142
REMARK 921   NORMALIZED FREE ENERGY PREDICTED BY IDOCK:   -4.28 KCAL/MOL
REMARK 922        TOTAL FREE ENERGY PREDICTED BY IDOCK:   -7.13 KCAL/MOL
REMARK 923 INTER-LIGAND FREE ENERGY PREDICTED BY IDOCK:   -6.36 KCAL/MOL
REMARK 924 INTRA-LIGAND FREE ENERGY PREDICTED BY IDOCK:   -0.77 KCAL/MOL
REMARK 927      BINDING AFFINITY PREDICTED BY RF-SCORE:    0.00 PKD
ROOT
HETATM    1  C   UNL     1      -7.874  13.294  68.271  1.00  0.00    -0.143 C  
HETATM    2  C   UNL     1      -9.351  13.699  68.095  1.00  0.00    -0.212 C  
ENDROOT
BRANCH   2   3
HETATM    3  N   UNL     1     -10.200  12.684  67.385  1.00  0.00    -0.216 NA 
BRANCH   3   4
HETATM    4  C   UNL     1     -11.011  13.294  66.299  1.00  0.00    -0.284 C  
HETATM    5 CL   UNL     1     -12.008  13.470  63.769  1.00  0.00    -0.500 Cl 
HETATM    6  C   UNL     1     -10.932  12.622  64.919  1.00  0.00    -0.293 C  
ENDBRANCH   3   4
BRANCH   3   7
HETATM    7  C   UNL     1      -9.406  11.549  66.868  1.00  0.00    -0.181 C  
BRANCH   7   8
HETATM    8  C   UNL     1      -9.722  10.187  67.454  1.00  0.00    -0.192 A  
HETATM    9  C   UNL     1     -10.095   9.128  66.613  1.00  0.00    -0.343 A  
HETATM   10  C   UNL     1     -10.479   7.892  67.140  1.00  0.00    -0.414 A  
HETATM   11  C   UNL     1      -9.723   9.977  68.839  1.00  0.00    -0.181 A  
HETATM   12  C   UNL     1     -10.492   7.700  68.519  1.00  0.00    -0.206 A  
HETATM   13  C   UNL     1     -10.109   8.739  69.368  1.00  0.00    -0.203 A  
ENDBRANCH   7   8
ENDBRANCH   3   7
ENDBRANCH   2   3
BRANCH   2  14
HETATM   14  C   UNL     1      -9.430  15.110  67.446  1.00  0.00    -0.204 C  
BRANCH  14  15
HETATM   15  O   UNL     1      -9.830  16.070  68.434  1.00  0.00    -0.207 OA 
BRANCH  15  16
HETATM   16  C   UNL     1     -10.080  17.337  67.981  1.00  0.00    -0.324 A  
HETATM   17  C   UNL     1     -10.547  18.687  66.022  1.00  0.00    -0.410 A  
HETATM   18  C   UNL     1     -10.304  17.442  66.606  1.00  0.00    -0.306 A  
HETATM   19  C   UNL     1     -10.401  19.728  68.190  1.00  0.00    -0.561 A  
HETATM   20  C   UNL     1     -10.588  19.831  66.814  1.00  0.00    -0.586 A  
HETATM   21  C   UNL     1     -10.150  18.484  68.775  1.00  0.00    -0.394 A  
ENDBRANCH  15  16
ENDBRANCH  14  15
ENDBRANCH   2  14
TORSDOF 7
ENDMDL
MODEL      143
REMARK 921   NORMALIZED FREE ENERGY PREDICTED BY IDOCK:   -4.26 KCAL/MOL
REMARK 922        TOTAL FREE ENERGY PREDICTED BY IDOCK:   -7.10 KCAL/MOL
REMARK 923 INTER-LIGAND FREE ENERGY PREDICTED BY IDOCK:   -5.83 KCAL/MOL
REMARK 924 INTRA-LIGAND FREE ENERGY PREDICTED BY IDOCK:   -1.28 KCAL/MOL
REMARK 927      BINDING AFFINITY PREDICTED BY RF-SCORE:    0.00 PKD
ROOT
HETATM    1  C   UNL     1     -12.136  11.923  69.906  1.00  0.00    -0.344 C  
HETATM    2  C   UNL     1     -11.317  11.594  68.641  1.00  0.00    -0.267 C  
ENDROOT
BRANCH   2   3
HETATM    3  N   UNL     1     -10.504  10.334  68.732  1.00  0.00    -0.191 NA 
BRANCH   3   4
HETATM    4  C   UNL     1     -10.589   9.710  70.078  1.00  0.00    -0.260 C  
HETATM    5 CL   UNL     1      -9.598   8.417  72.262  1.00  0.00    -0.348 Cl 
HETATM    6  C   UNL     1      -9.304   9.065  70.622  1.00  0.00    -0.234 C  
ENDBRANCH   3   4
BRANCH   3   7
HETATM    7  C   UNL     1     -10.861   9.357  67.680  1.00  0.00    -0.154 C  
BRANCH   7   8
HETATM    8  C   UNL     1      -9.810   9.101  66.619  1.00  0.00    -0.307 A  
HETATM    9  C   UNL     1      -9.791   9.869  65.446  1.00  0.00    -0.384 A  
HETATM   10  C   UNL     1      -8.889   9.589  64.416  1.00  0.00    -0.251 A  
HETATM   11  C   UNL     1      -8.889   8.053  66.749  1.00  0.00    -0.157 A  
HETATM   12  C   UNL     1      -7.991   8.534  64.550  1.00  0.00    -0.145 A  
HETATM   13  C   UNL     1      -7.986   7.769  65.717  1.00  0.00    -0.114 A  
ENDBRANCH   7   8
ENDBRANCH   3   7
ENDBRANCH   2   3
BRANCH   2  14
HETATM   14  C   UNL     1     -10.470  12.831  68.233  1.00  0.00    -0.241 C  
BRANCH  14  15
HETATM   15  O   UNL     1     -11.244  13.679  67.374  1.00  0.00    -0.284 OA 
BRANCH  15  16
HETATM   16  C   UNL     1     -11.283  13.328  66.052  1.00  0.00    -0.297 A  
HETATM   17  C   UNL     1     -12.693  12.502  64.260  1.00  0.00    -0.432 A  
HETATM   18  C   UNL     1     -12.531  12.907  65.586  1.00  0.00    -0.400 A  
HETATM   19  C   UNL     1     -10.371  12.987  63.834  1.00  0.00    -0.153 A  
HETATM   20  C   UNL     1     -11.610  12.535  63.386  1.00  0.00    -0.547 A  
HETATM   21  C   UNL     1     -10.207  13.386  65.163  1.00  0.00    -0.316 A  
ENDBRANCH  15  16
ENDBRANCH  14  15
ENDBRANCH   2  14
TORSDOF 7
ENDMDL
MODEL      144
REMARK 921   NORMALIZED FREE ENERGY PREDICTED BY IDOCK:   -4.26 KCAL/MOL
REMARK 922        TOTAL FREE ENERGY PREDICTED BY IDOCK:   -7.10 KCAL/MOL
REMARK 923 INTER-LIGAND FREE ENERGY PREDICTED BY IDOCK:   -5.99 KCAL/MOL
REMARK 924 INTRA-LIGAND FREE ENERGY PREDICTED BY IDOCK:   -1.11 KCAL/MOL
REMARK 927      BINDING AFFINITY PREDICTED BY RF-SCORE:    0.00 PKD
ROOT
HETATM    1  C   UNL     1      -9.619   7.349  66.507  1.00  0.00    -0.228 C  
HETATM    2  C   UNL     1     -10.003   8.461  67.504  1.00  0.00    -0.200 C  
ENDROOT
BRANCH   2   3
HETATM    3  N   UNL     1      -9.288   9.765  67.294  1.00  0.00    -0.137 NA 
BRANCH   3   4
HETATM    4  C   UNL     1      -7.848   9.570  66.980  1.00  0.00    -0.098 C  
HETATM    5 CL   UNL     1      -5.197  10.193  67.076  1.00  0.00    -0.040 Cl 
HETATM    6  C   UNL     1      -6.875  10.632  67.514  1.00  0.00    -0.078 C  
ENDBRANCH   3   4
BRANCH   3   7
HETATM    7  C   UNL     1      -9.937  10.602  66.261  1.00  0.00    -0.222 C  
BRANCH   7   8
HETATM    8  C   UNL     1     -10.595  11.878  66.749  1.00  0.00    -0.264 A  
HETATM    9  C   UNL     1     -11.704  12.403  66.070  1.00  0.00    -0.469 A  
HETATM   10  C   UNL     1     -12.268  13.624  66.448  1.00  0.00    -0.472 A  
HETATM   11  C   UNL     1     -10.070  12.595  67.832  1.00  0.00    -0.222 A  
HETATM   12  C   UNL     1     -11.727  14.336  67.515  1.00  0.00    -0.415 A  
HETATM   13  C   UNL     1     -10.633  13.820  68.211  1.00  0.00    -0.262 A  
ENDBRANCH   7   8
ENDBRANCH   3   7
ENDBRANCH   2   3
BRANCH   2  14
HETATM   14  C   UNL     1      -9.867   7.926  68.958  1.00  0.00    -0.171 C  
BRANCH  14  15
HETATM   15  O   UNL     1      -9.811   9.031  69.870  1.00  0.00    -0.171 OA 
BRANCH  15  16
HETATM   16  C   UNL     1     -10.960   9.306  70.561  1.00  0.00    -0.265 A  
HETATM   17  C   UNL     1     -12.535   8.468  72.203  1.00  0.00    -0.437 A  
HETATM   18  C   UNL     1     -11.366   8.313  71.456  1.00  0.00    -0.320 A  
HETATM   19  C   UNL     1     -12.878  10.636  71.207  1.00  0.00    -0.535 A  
HETATM   20  C   UNL     1     -13.296   9.627  72.072  1.00  0.00    -0.547 A  
HETATM   21  C   UNL     1     -11.711  10.478  70.454  1.00  0.00    -0.434 A  
ENDBRANCH  15  16
ENDBRANCH  14  15
ENDBRANCH   2  14
TORSDOF 7
ENDMDL
MODEL      145
REMARK 921   NORMALIZED FREE ENERGY PREDICTED BY IDOCK:   -4.25 KCAL/MOL
REMARK 922        TOTAL FREE ENERGY PREDICTED BY IDOCK:   -7.08 KCAL/MOL
REMARK 923 INTER-LIGAND FREE ENERGY PREDICTED BY IDOCK:   -6.36 KCAL/MOL
REMARK 924 INTRA-LIGAND FREE ENERGY PREDICTED BY IDOCK:   -0.72 KCAL/MOL
REMARK 927      BINDING AFFINITY PREDICTED BY RF-SCORE:    0.00 PKD
ROOT
HETATM    1  C   UNL     1      -8.481  10.501  68.664  1.00  0.00    -0.138 C  
HETATM    2  C   UNL     1      -9.965  10.469  69.084  1.00  0.00    -0.220 C  
ENDROOT
BRANCH   2   3
HETATM    3  N   UNL     1     -10.316   9.385  70.063  1.00  0.00    -0.216 NA 
BRANCH   3   4
HETATM    4  C   UNL     1     -11.401   9.800  70.990  1.00  0.00    -0.387 C  
HETATM    5 CL   UNL     1     -13.641   9.414  72.493  1.00  0.00    -0.493 Cl 
HETATM    6  C   UNL     1     -12.459   8.740  71.334  1.00  0.00    -0.303 C  
ENDBRANCH   3   4
BRANCH   3   7
HETATM    7  C   UNL     1     -10.661   8.113  69.393  1.00  0.00    -0.156 C  
BRANCH   7   8
HETATM    8  C   UNL     1      -9.862   6.896  69.813  1.00  0.00    -0.177 A  
HETATM    9  C   UNL     1     -10.516   5.689  70.101  1.00  0.00    -0.366 A  
HETATM   10  C   UNL     1      -9.808   4.583  70.578  1.00  0.00    -0.297 A  
HETATM   11  C   UNL     1      -8.475   6.967  69.995  1.00  0.00    -0.140 A  
HETATM   12  C   UNL     1      -8.432   4.671  70.771  1.00  0.00    -0.109 A  
HETATM   13  C   UNL     1      -7.765   5.860  70.475  1.00  0.00    -0.100 A  
ENDBRANCH   7   8
ENDBRANCH   3   7
ENDBRANCH   2   3
BRANCH   2  14
HETATM   14  C   UNL     1     -10.864  10.452  67.816  1.00  0.00    -0.297 C  
BRANCH  14  15
HETATM   15  O   UNL     1     -11.236  11.794  67.475  1.00  0.00    -0.252 OA 
BRANCH  15  16
HETATM   16  C   UNL     1     -11.363  12.067  66.139  1.00  0.00    -0.351 A  
HETATM   17  C   UNL     1     -12.378  13.542  64.504  1.00  0.00    -0.406 A  
HETATM   18  C   UNL     1     -12.155  13.176  65.833  1.00  0.00    -0.501 A  
HETATM   19  C   UNL     1     -10.974  11.725  63.774  1.00  0.00    -0.500 A  
HETATM   20  C   UNL     1     -11.793  12.811  63.474  1.00  0.00    -0.618 A  
HETATM   21  C   UNL     1     -10.756  11.354  65.103  1.00  0.00    -0.332 A  
ENDBRANCH  15  16
ENDBRANCH  14  15
ENDBRANCH   2  14
TORSDOF 7
ENDMDL
MODEL      146
REMARK 921   NORMALIZED FREE ENERGY PREDICTED BY IDOCK:   -4.25 KCAL/MOL
REMARK 922        TOTAL FREE ENERGY PREDICTED BY IDOCK:   -7.08 KCAL/MOL
REMARK 923 INTER-LIGAND FREE ENERGY PREDICTED BY IDOCK:   -6.43 KCAL/MOL
REMARK 924 INTRA-LIGAND FREE ENERGY PREDICTED BY IDOCK:   -0.65 KCAL/MOL
REMARK 927      BINDING AFFINITY PREDICTED BY RF-SCORE:    0.00 PKD
ROOT
HETATM    1  C   UNL     1     -10.591  18.066  67.219  1.00  0.00    -0.358 C  
HETATM    2  C   UNL     1      -9.463  17.400  68.032  1.00  0.00    -0.281 C  
ENDROOT
BRANCH   2   3
HETATM    3  N   UNL     1      -8.675  16.365  67.281  1.00  0.00    -0.177 NA 
BRANCH   3   4
HETATM    4  C   UNL     1      -8.324  15.201  68.137  1.00  0.00    -0.147 C  
HETATM    5 CL   UNL     1      -6.628  13.602  69.548  1.00  0.00    -0.099 Cl 
HETATM    6  C   UNL     1      -6.837  15.020  68.478  1.00  0.00    -0.102 C  
ENDBRANCH   3   4
BRANCH   3   7
HETATM    7  C   UNL     1      -9.363  15.918  66.051  1.00  0.00    -0.349 C  
BRANCH   7   8
HETATM    8  C   UNL     1     -10.128  14.613  66.147  1.00  0.00    -0.316 A  
HETATM    9  C   UNL     1     -11.522  14.623  66.300  1.00  0.00    -0.351 A  
HETATM   10  C   UNL     1     -12.235  13.435  66.482  1.00  0.00    -0.414 A  
HETATM   11  C   UNL     1      -9.461  13.382  66.161  1.00  0.00    -0.156 A  
HETATM   12  C   UNL     1     -11.559  12.219  66.512  1.00  0.00    -0.440 A  
HETATM   13  C   UNL     1     -10.174  12.190  66.346  1.00  0.00    -0.245 A  
ENDBRANCH   7   8
ENDBRANCH   3   7
ENDBRANCH   2   3
BRANCH   2  14
HETATM   14  C   UNL     1     -10.036  16.865  69.375  1.00  0.00    -0.162 C  
BRANCH  14  15
HETATM   15  O   UNL     1     -11.309  16.248  69.140  1.00  0.00    -0.325 OA 
BRANCH  15  16
HETATM   16  C   UNL     1     -11.793  15.457  70.146  1.00  0.00    -0.335 A  
HETATM   17  C   UNL     1     -12.292  15.347  72.517  1.00  0.00    -0.475 A  
HETATM   18  C   UNL     1     -11.837  16.060  71.406  1.00  0.00    -0.531 A  
HETATM   19  C   UNL     1     -12.716  13.436  71.111  1.00  0.00    -0.411 A  
HETATM   20  C   UNL     1     -12.724  14.032  72.370  1.00  0.00    -0.336 A  
HETATM   21  C   UNL     1     -12.254  14.147  70.000  1.00  0.00    -0.418 A  
ENDBRANCH  15  16
ENDBRANCH  14  15
ENDBRANCH   2  14
TORSDOF 7
ENDMDL
MODEL      147
REMARK 921   NORMALIZED FREE ENERGY PREDICTED BY IDOCK:   -4.23 KCAL/MOL
REMARK 922        TOTAL FREE ENERGY PREDICTED BY IDOCK:   -7.06 KCAL/MOL
REMARK 923 INTER-LIGAND FREE ENERGY PREDICTED BY IDOCK:   -5.61 KCAL/MOL
REMARK 924 INTRA-LIGAND FREE ENERGY PREDICTED BY IDOCK:   -1.45 KCAL/MOL
REMARK 927      BINDING AFFINITY PREDICTED BY RF-SCORE:    0.00 PKD
ROOT
HETATM    1  C   UNL     1     -10.956  15.514  69.904  1.00  0.00    -0.315 C  
HETATM    2  C   UNL     1     -10.682  14.279  69.023  1.00  0.00    -0.245 C  
ENDROOT
BRANCH   2   3
HETATM    3  N   UNL     1      -9.548  14.440  68.052  1.00  0.00    -0.210 NA 
BRANCH   3   4
HETATM    4  C   UNL     1      -9.240  15.869  67.784  1.00  0.00    -0.201 C  
HETATM    5 CL   UNL     1      -9.339  18.186  66.352  1.00  0.00    -0.295 Cl 
HETATM    6  C   UNL     1      -9.769  16.453  66.465  1.00  0.00    -0.269 C  
ENDBRANCH   3   4
BRANCH   3   7
HETATM    7  C   UNL     1      -8.332  13.717  68.484  1.00  0.00    -0.110 C  
BRANCH   7   8
HETATM    8  C   UNL     1      -8.184  12.294  67.982  1.00  0.00    -0.163 A  
HETATM    9  C   UNL     1      -7.513  12.039  66.777  1.00  0.00     0.023 A  
HETATM   10  C   UNL     1      -7.446  10.746  66.251  1.00  0.00    -0.138 A  
HETATM   11  C   UNL     1      -8.772  11.221  68.663  1.00  0.00    -0.136 A  
HETATM   12  C   UNL     1      -8.049   9.690  66.929  1.00  0.00    -0.113 A  
HETATM   13  C   UNL     1      -8.707   9.925  68.136  1.00  0.00    -0.122 A  
ENDBRANCH   7   8
ENDBRANCH   3   7
ENDBRANCH   2   3
BRANCH   2  14
HETATM   14  C   UNL     1     -12.003  13.827  68.337  1.00  0.00    -0.360 C  
BRANCH  14  15
HETATM   15  O   UNL     1     -11.794  12.571  67.678  1.00  0.00    -0.362 OA 
BRANCH  15  16
HETATM   16  C   UNL     1     -11.762  12.602  66.310  1.00  0.00    -0.402 A  
HETATM   17  C   UNL     1     -12.506  13.799  64.336  1.00  0.00    -0.317 A  
HETATM   18  C   UNL     1     -12.447  13.670  65.726  1.00  0.00    -0.524 A  
HETATM   19  C   UNL     1     -11.148  11.822  64.102  1.00  0.00    -0.442 A  
HETATM   20  C   UNL     1     -11.862  12.869  63.524  1.00  0.00    -0.605 A  
HETATM   21  C   UNL     1     -11.095  11.689  65.491  1.00  0.00    -0.297 A  
ENDBRANCH  15  16
ENDBRANCH  14  15
ENDBRANCH   2  14
TORSDOF 7
ENDMDL
MODEL      148
REMARK 921   NORMALIZED FREE ENERGY PREDICTED BY IDOCK:   -4.21 KCAL/MOL
REMARK 922        TOTAL FREE ENERGY PREDICTED BY IDOCK:   -7.03 KCAL/MOL
REMARK 923 INTER-LIGAND FREE ENERGY PREDICTED BY IDOCK:   -6.34 KCAL/MOL
REMARK 924 INTRA-LIGAND FREE ENERGY PREDICTED BY IDOCK:   -0.68 KCAL/MOL
REMARK 927      BINDING AFFINITY PREDICTED BY RF-SCORE:    0.00 PKD
ROOT
HETATM    1  C   UNL     1     -10.407   8.675  67.456  1.00  0.00    -0.336 C  
HETATM    2  C   UNL     1      -9.968   9.504  68.680  1.00  0.00    -0.167 C  
ENDROOT
BRANCH   2   3
HETATM    3  N   UNL     1     -10.409   8.949  70.004  1.00  0.00    -0.197 NA 
BRANCH   3   4
HETATM    4  C   UNL     1     -11.070   9.978  70.849  1.00  0.00    -0.314 C  
HETATM    5 CL   UNL     1     -13.197  11.188  72.048  1.00  0.00    -0.552 Cl 
HETATM    6  C   UNL     1     -12.601   9.903  70.956  1.00  0.00    -0.336 C  
ENDBRANCH   3   4
BRANCH   3   7
HETATM    7  C   UNL     1     -11.277   7.761  69.855  1.00  0.00    -0.062 C  
BRANCH   7   8
HETATM    8  C   UNL     1     -10.976   6.592  70.772  1.00  0.00    -0.318 A  
HETATM    9  C   UNL     1     -11.660   6.458  71.989  1.00  0.00    -0.368 A  
HETATM   10  C   UNL     1     -11.333   5.440  72.889  1.00  0.00    -0.365 A  
HETATM   11  C   UNL     1      -9.967   5.671  70.464  1.00  0.00    -0.265 A  
HETATM   12  C   UNL     1     -10.317   4.541  72.580  1.00  0.00    -0.257 A  
HETATM   13  C   UNL     1      -9.637   4.652  71.366  1.00  0.00    -0.230 A  
ENDBRANCH   7   8
ENDBRANCH   3   7
ENDBRANCH   2   3
BRANCH   2  14
HETATM   14  C   UNL     1     -10.384  10.989  68.479  1.00  0.00    -0.190 C  
BRANCH  14  15
HETATM   15  O   UNL     1      -9.754  11.508  67.300  1.00  0.00    -0.181 OA 
BRANCH  15  16
HETATM   16  C   UNL     1     -10.476  12.420  66.579  1.00  0.00    -0.230 A  
HETATM   17  C   UNL     1     -10.339  14.389  65.170  1.00  0.00    -0.447 A  
HETATM   18  C   UNL     1      -9.716  13.390  65.920  1.00  0.00    -0.197 A  
HETATM   19  C   UNL     1     -12.488  13.425  65.683  1.00  0.00    -0.519 A  
HETATM   20  C   UNL     1     -11.727  14.410  65.058  1.00  0.00    -0.389 A  
HETATM   21  C   UNL     1     -11.865  12.430  66.440  1.00  0.00    -0.421 A  
ENDBRANCH  15  16
ENDBRANCH  14  15
ENDBRANCH   2  14
TORSDOF 7
ENDMDL
MODEL      149
REMARK 921   NORMALIZED FREE ENERGY PREDICTED BY IDOCK:   -4.21 KCAL/MOL
REMARK 922        TOTAL FREE ENERGY PREDICTED BY IDOCK:   -7.02 KCAL/MOL
REMARK 923 INTER-LIGAND FREE ENERGY PREDICTED BY IDOCK:   -6.42 KCAL/MOL
REMARK 924 INTRA-LIGAND FREE ENERGY PREDICTED BY IDOCK:   -0.61 KCAL/MOL
REMARK 927      BINDING AFFINITY PREDICTED BY RF-SCORE:    0.00 PKD
ROOT
HETATM    1  C   UNL     1     -10.014   7.609  66.668  1.00  0.00    -0.284 C  
HETATM    2  C   UNL     1     -10.425   9.002  67.187  1.00  0.00    -0.263 C  
ENDROOT
BRANCH   2   3
HETATM    3  N   UNL     1      -9.643  10.144  66.604  1.00  0.00    -0.176 NA 
BRANCH   3   4
HETATM    4  C   UNL     1      -8.176   9.947  66.745  1.00  0.00    -0.124 C  
HETATM    5 CL   UNL     1      -5.598  10.768  67.065  1.00  0.00    -0.044 Cl 
HETATM    6  C   UNL     1      -7.317  11.216  66.855  1.00  0.00    -0.138 C  
ENDBRANCH   3   4
BRANCH   3   7
HETATM    7  C   UNL     1     -10.000  10.408  65.193  1.00  0.00    -0.322 C  
BRANCH   7   8
HETATM    8  C   UNL     1     -10.938  11.573  64.947  1.00  0.00    -0.319 A  
HETATM    9  C   UNL     1     -11.234  11.974  63.636  1.00  0.00    -0.528 A  
HETATM   10  C   UNL     1     -12.022  13.101  63.388  1.00  0.00    -0.552 A  
HETATM   11  C   UNL     1     -11.465  12.317  66.011  1.00  0.00    -0.434 A  
HETATM   12  C   UNL     1     -12.526  13.842  64.454  1.00  0.00    -0.317 A  
HETATM   13  C   UNL     1     -12.253  13.448  65.764  1.00  0.00    -0.507 A  
ENDBRANCH   7   8
ENDBRANCH   3   7
ENDBRANCH   2   3
BRANCH   2  14
HETATM   14  C   UNL     1     -10.422   8.999  68.742  1.00  0.00    -0.206 C  
BRANCH  14  15
HETATM   15  O   UNL     1     -10.750   7.688  69.219  1.00  0.00    -0.221 OA 
BRANCH  15  16
HETATM   16  C   UNL     1     -10.705   7.508  70.575  1.00  0.00    -0.235 A  
HETATM   17  C   UNL     1     -11.322   6.037  72.402  1.00  0.00    -0.349 A  
HETATM   18  C   UNL     1     -11.287   6.324  71.036  1.00  0.00    -0.378 A  
HETATM   19  C   UNL     1     -10.144   8.090  72.858  1.00  0.00    -0.376 A  
HETATM   20  C   UNL     1     -10.757   6.925  73.314  1.00  0.00    -0.349 A  
HETATM   21  C   UNL     1     -10.115   8.381  71.491  1.00  0.00    -0.293 A  
ENDBRANCH  15  16
ENDBRANCH  14  15
ENDBRANCH   2  14
TORSDOF 7
ENDMDL
MODEL      150
REMARK 921   NORMALIZED FREE ENERGY PREDICTED BY IDOCK:   -4.20 KCAL/MOL
REMARK 922        TOTAL FREE ENERGY PREDICTED BY IDOCK:   -7.02 KCAL/MOL
REMARK 923 INTER-LIGAND FREE ENERGY PREDICTED BY IDOCK:   -6.26 KCAL/MOL
REMARK 924 INTRA-LIGAND FREE ENERGY PREDICTED BY IDOCK:   -0.76 KCAL/MOL
REMARK 927      BINDING AFFINITY PREDICTED BY RF-SCORE:    0.00 PKD
ROOT
HETATM    1  C   UNL     1     -10.371  16.215  69.665  1.00  0.00    -0.271 C  
HETATM    2  C   UNL     1      -9.575  16.767  68.465  1.00  0.00    -0.245 C  
ENDROOT
BRANCH   2   3
HETATM    3  N   UNL     1     -10.113  16.370  67.120  1.00  0.00    -0.265 NA 
BRANCH   3   4
HETATM    4  C   UNL     1     -10.257  17.537  66.209  1.00  0.00    -0.355 C  
HETATM    5 CL   UNL     1     -10.641  20.168  65.616  1.00  0.00    -0.435 Cl 
HETATM    6  C   UNL     1     -10.554  18.893  66.867  1.00  0.00    -0.421 C  
ENDBRANCH   3   4
BRANCH   3   7
HETATM    7  C   UNL     1      -9.305  15.308  66.482  1.00  0.00    -0.281 C  
BRANCH   7   8
HETATM    8  C   UNL     1      -9.874  13.904  66.546  1.00  0.00    -0.296 A  
HETATM    9  C   UNL     1     -11.233  13.682  66.284  1.00  0.00    -0.313 A  
HETATM   10  C   UNL     1     -11.795  12.411  66.427  1.00  0.00    -0.421 A  
HETATM   11  C   UNL     1      -9.080  12.819  66.937  1.00  0.00    -0.221 A  
HETATM   12  C   UNL     1     -11.000  11.343  66.833  1.00  0.00    -0.355 A  
HETATM   13  C   UNL     1      -9.642  11.544  67.083  1.00  0.00    -0.189 A  
ENDBRANCH   7   8
ENDBRANCH   3   7
ENDBRANCH   2   3
BRANCH   2  14
HETATM   14  C   UNL     1      -8.069  16.423  68.638  1.00  0.00    -0.218 C  
BRANCH  14  15
HETATM   15  O   UNL     1      -7.288  17.228  67.744  1.00  0.00    -0.166 OA 
BRANCH  15  16
HETATM   16  C   UNL     1      -6.803  18.402  68.252  1.00  0.00    -0.238 A  
HETATM   17  C   UNL     1      -5.745  19.445  70.169  1.00  0.00    -0.279 A  
HETATM   18  C   UNL     1      -6.253  18.310  69.534  1.00  0.00    -0.252 A  
HETATM   19  C   UNL     1      -6.279  20.766  68.225  1.00  0.00    -0.373 A  
HETATM   20  C   UNL     1      -5.765  20.675  69.517  1.00  0.00    -0.399 A  
HETATM   21  C   UNL     1      -6.795  19.632  67.592  1.00  0.00    -0.270 A  
ENDBRANCH  15  16
ENDBRANCH  14  15
ENDBRANCH   2  14
TORSDOF 7
ENDMDL
MODEL      151
REMARK 921   NORMALIZED FREE ENERGY PREDICTED BY IDOCK:   -4.20 KCAL/MOL
REMARK 922        TOTAL FREE ENERGY PREDICTED BY IDOCK:   -7.02 KCAL/MOL
REMARK 923 INTER-LIGAND FREE ENERGY PREDICTED BY IDOCK:   -6.09 KCAL/MOL
REMARK 924 INTRA-LIGAND FREE ENERGY PREDICTED BY IDOCK:   -0.93 KCAL/MOL
REMARK 927      BINDING AFFINITY PREDICTED BY RF-SCORE:    0.00 PKD
ROOT
HETATM    1  C   UNL     1     -11.514  16.061  69.617  1.00  0.00    -0.326 C  
HETATM    2  C   UNL     1     -10.587  15.352  68.608  1.00  0.00    -0.239 C  
ENDROOT
BRANCH   2   3
HETATM    3  N   UNL     1      -9.466  16.202  68.083  1.00  0.00    -0.207 NA 
BRANCH   3   4
HETATM    4  C   UNL     1      -9.872  17.623  67.915  1.00  0.00    -0.300 C  
HETATM    5 CL   UNL     1     -10.762  19.783  66.513  1.00  0.00    -0.565 Cl 
HETATM    6  C   UNL     1     -10.261  18.066  66.496  1.00  0.00    -0.382 C  
ENDBRANCH   3   4
BRANCH   3   7
HETATM    7  C   UNL     1      -8.248  16.104  68.916  1.00  0.00    -0.229 C  
BRANCH   7   8
HETATM    8  C   UNL     1      -7.464  14.811  68.807  1.00  0.00    -0.133 A  
HETATM    9  C   UNL     1      -6.710  14.350  69.896  1.00  0.00    -0.101 A  
HETATM   10  C   UNL     1      -5.909  13.210  69.786  1.00  0.00    -0.124 A  
HETATM   11  C   UNL     1      -7.415  14.093  67.605  1.00  0.00    -0.192 A  
HETATM   12  C   UNL     1      -5.855  12.515  68.581  1.00  0.00    -0.059 A  
HETATM   13  C   UNL     1      -6.611  12.952  67.492  1.00  0.00    -0.160 A  
ENDBRANCH   7   8
ENDBRANCH   3   7
ENDBRANCH   2   3
BRANCH   2  14
HETATM   14  C   UNL     1     -11.442  14.715  67.476  1.00  0.00    -0.361 C  
BRANCH  14  15
HETATM   15  O   UNL     1     -11.123  13.321  67.363  1.00  0.00    -0.265 OA 
BRANCH  15  16
HETATM   16  C   UNL     1     -11.050  12.818  66.092  1.00  0.00    -0.290 A  
HETATM   17  C   UNL     1     -12.229  12.563  63.989  1.00  0.00    -0.566 A  
HETATM   18  C   UNL     1     -12.175  13.047  65.297  1.00  0.00    -0.513 A  
HETATM   19  C   UNL     1     -10.008  11.661  64.237  1.00  0.00    -0.303 A  
HETATM   20  C   UNL     1     -11.147  11.863  63.461  1.00  0.00    -0.506 A  
HETATM   21  C   UNL     1      -9.956  12.140  65.549  1.00  0.00    -0.269 A  
ENDBRANCH  15  16
ENDBRANCH  14  15
ENDBRANCH   2  14
TORSDOF 7
ENDMDL
MODEL      152
REMARK 921   NORMALIZED FREE ENERGY PREDICTED BY IDOCK:   -4.20 KCAL/MOL
REMARK 922        TOTAL FREE ENERGY PREDICTED BY IDOCK:   -7.02 KCAL/MOL
REMARK 923 INTER-LIGAND FREE ENERGY PREDICTED BY IDOCK:   -4.76 KCAL/MOL
REMARK 924 INTRA-LIGAND FREE ENERGY PREDICTED BY IDOCK:   -2.26 KCAL/MOL
REMARK 927      BINDING AFFINITY PREDICTED BY RF-SCORE:    0.00 PKD
ROOT
HETATM    1  C   UNL     1     -10.727   7.371  73.381  1.00  0.00    -0.407 C  
HETATM    2  C   UNL     1     -10.495   6.995  71.904  1.00  0.00    -0.200 C  
ENDROOT
BRANCH   2   3
HETATM    3  N   UNL     1     -11.326   7.770  70.922  1.00  0.00    -0.273 NA 
BRANCH   3   4
HETATM    4  C   UNL     1     -12.205   8.763  71.594  1.00  0.00    -0.339 C  
HETATM    5 CL   UNL     1     -13.240  11.247  72.025  1.00  0.00    -0.564 Cl 
HETATM    6  C   UNL     1     -12.072  10.224  71.137  1.00  0.00    -0.395 C  
ENDBRANCH   3   4
BRANCH   3   7
HETATM    7  C   UNL     1     -10.504   8.424  69.881  1.00  0.00    -0.222 C  
BRANCH   7   8
HETATM    8  C   UNL     1     -10.208   7.598  68.645  1.00  0.00    -0.214 A  
HETATM    9  C   UNL     1      -9.129   7.935  67.814  1.00  0.00    -0.138 A  
HETATM   10  C   UNL     1      -8.895   7.244  66.622  1.00  0.00    -0.151 A  
HETATM   11  C   UNL     1     -11.040   6.537  68.266  1.00  0.00    -0.332 A  
HETATM   12  C   UNL     1      -9.740   6.202  66.248  1.00  0.00    -0.106 A  
HETATM   13  C   UNL     1     -10.808   5.845  67.071  1.00  0.00    -0.379 A  
ENDBRANCH   7   8
ENDBRANCH   3   7
ENDBRANCH   2   3
BRANCH   2  14
HETATM   14  C   UNL     1     -10.635   5.456  71.730  1.00  0.00    -0.222 C  
BRANCH  14  15
HETATM   15  O   UNL     1      -9.334   4.853  71.739  1.00  0.00    -0.138 OA 
BRANCH  15  16
HETATM   16  C   UNL     1      -8.828   4.487  70.521  1.00  0.00    -0.099 A  
HETATM   17  C   UNL     1      -7.092   4.918  68.884  1.00  0.00    -0.053 A  
HETATM   18  C   UNL     1      -7.689   5.186  70.118  1.00  0.00    -0.071 A  
HETATM   19  C   UNL     1      -8.738   3.207  68.467  1.00  0.00    -0.143 A  
HETATM   20  C   UNL     1      -7.623   3.933  68.055  1.00  0.00    -0.066 A  
HETATM   21  C   UNL     1      -9.339   3.481  69.699  1.00  0.00    -0.244 A  
ENDBRANCH  15  16
ENDBRANCH  14  15
ENDBRANCH   2  14
TORSDOF 7
ENDMDL
MODEL      153
REMARK 921   NORMALIZED FREE ENERGY PREDICTED BY IDOCK:   -4.20 KCAL/MOL
REMARK 922        TOTAL FREE ENERGY PREDICTED BY IDOCK:   -7.01 KCAL/MOL
REMARK 923 INTER-LIGAND FREE ENERGY PREDICTED BY IDOCK:   -4.88 KCAL/MOL
REMARK 924 INTRA-LIGAND FREE ENERGY PREDICTED BY IDOCK:   -2.13 KCAL/MOL
REMARK 927      BINDING AFFINITY PREDICTED BY RF-SCORE:    0.00 PKD
ROOT
HETATM    1  C   UNL     1     -10.904  15.042  69.760  1.00  0.00    -0.277 C  
HETATM    2  C   UNL     1     -10.703  14.139  68.527  1.00  0.00    -0.254 C  
ENDROOT
BRANCH   2   3
HETATM    3  N   UNL     1     -11.158  12.719  68.708  1.00  0.00    -0.249 NA 
BRANCH   3   4
HETATM    4  C   UNL     1     -11.997  12.552  69.924  1.00  0.00    -0.301 C  
HETATM    5 CL   UNL     1     -13.052  11.167  72.020  1.00  0.00    -0.554 Cl 
HETATM    6  C   UNL     1     -12.035  11.149  70.549  1.00  0.00    -0.380 C  
ENDBRANCH   3   4
BRANCH   3   7
HETATM    7  C   UNL     1     -11.860  12.197  67.515  1.00  0.00    -0.237 C  
BRANCH   7   8
HETATM    8  C   UNL     1     -11.099  11.188  66.679  1.00  0.00    -0.255 A  
HETATM    9  C   UNL     1     -10.823   9.912  67.191  1.00  0.00    -0.227 A  
HETATM   10  C   UNL     1     -10.045   9.000  66.473  1.00  0.00    -0.354 A  
HETATM   11  C   UNL     1     -10.593  11.528  65.417  1.00  0.00    -0.336 A  
HETATM   12  C   UNL     1      -9.533   9.356  65.228  1.00  0.00    -0.296 A  
HETATM   13  C   UNL     1      -9.811  10.616  64.697  1.00  0.00    -0.382 A  
ENDBRANCH   7   8
ENDBRANCH   3   7
ENDBRANCH   2   3
BRANCH   2  14
HETATM   14  C   UNL     1      -9.229  14.242  68.041  1.00  0.00    -0.192 C  
BRANCH  14  15
HETATM   15  O   UNL     1      -8.378  13.516  68.937  1.00  0.00     0.006 OA 
BRANCH  15  16
HETATM   16  C   UNL     1      -7.779  12.395  68.429  1.00  0.00    -0.144 A  
HETATM   17  C   UNL     1      -6.425  11.517  66.619  1.00  0.00    -0.090 A  
HETATM   18  C   UNL     1      -7.062  12.590  67.246  1.00  0.00    -0.114 A  
HETATM   19  C   UNL     1      -7.170  10.052  68.382  1.00  0.00    -0.073 A  
HETATM   20  C   UNL     1      -6.486  10.246  67.184  1.00  0.00    -0.068 A  
HETATM   21  C   UNL     1      -7.813  11.124  69.006  1.00  0.00    -0.103 A  
ENDBRANCH  15  16
ENDBRANCH  14  15
ENDBRANCH   2  14
TORSDOF 7
ENDMDL
MODEL      154
REMARK 921   NORMALIZED FREE ENERGY PREDICTED BY IDOCK:   -4.18 KCAL/MOL
REMARK 922        TOTAL FREE ENERGY PREDICTED BY IDOCK:   -6.98 KCAL/MOL
REMARK 923 INTER-LIGAND FREE ENERGY PREDICTED BY IDOCK:   -5.88 KCAL/MOL
REMARK 924 INTRA-LIGAND FREE ENERGY PREDICTED BY IDOCK:   -1.11 KCAL/MOL
REMARK 927      BINDING AFFINITY PREDICTED BY RF-SCORE:    0.00 PKD
ROOT
HETATM    1  C   UNL     1     -11.933  11.050  70.464  1.00  0.00    -0.474 C  
HETATM    2  C   UNL     1     -11.021  10.542  69.329  1.00  0.00    -0.244 C  
ENDROOT
BRANCH   2   3
HETATM    3  N   UNL     1     -10.090   9.431  69.722  1.00  0.00    -0.198 NA 
BRANCH   3   4
HETATM    4  C   UNL     1     -10.179   9.113  71.171  1.00  0.00    -0.314 C  
HETATM    5 CL   UNL     1     -10.749   7.535  73.319  1.00  0.00    -0.444 Cl 
HETATM    6  C   UNL     1     -10.773   7.745  71.543  1.00  0.00    -0.222 C  
ENDBRANCH   3   4
BRANCH   3   7
HETATM    7  C   UNL     1     -10.293   8.213  68.908  1.00  0.00    -0.211 C  
BRANCH   7   8
HETATM    8  C   UNL     1      -9.232   7.919  67.866  1.00  0.00    -0.139 A  
HETATM    9  C   UNL     1      -7.874   8.074  68.179  1.00  0.00    -0.126 A  
HETATM   10  C   UNL     1      -6.886   7.897  67.207  1.00  0.00    -0.070 A  
HETATM   11  C   UNL     1      -9.582   7.562  66.557  1.00  0.00    -0.239 A  
HETATM   12  C   UNL     1      -7.248   7.560  65.905  1.00  0.00    -0.066 A  
HETATM   13  C   UNL     1      -8.593   7.387  65.581  1.00  0.00    -0.128 A  
ENDBRANCH   7   8
ENDBRANCH   3   7
ENDBRANCH   2   3
BRANCH   2  14
HETATM   14  C   UNL     1     -10.283  11.745  68.677  1.00  0.00    -0.201 C  
BRANCH  14  15
HETATM   15  O   UNL     1      -9.763  11.353  67.400  1.00  0.00    -0.179 OA 
BRANCH  15  16
HETATM   16  C   UNL     1     -10.543  11.642  66.313  1.00  0.00    -0.258 A  
HETATM   17  C   UNL     1     -10.797  11.345  63.920  1.00  0.00    -0.463 A  
HETATM   18  C   UNL     1     -10.098  11.102  65.104  1.00  0.00    -0.335 A  
HETATM   19  C   UNL     1     -12.425  12.626  65.151  1.00  0.00    -0.531 A  
HETATM   20  C   UNL     1     -11.957  12.115  63.943  1.00  0.00    -0.581 A  
HETATM   21  C   UNL     1     -11.722  12.389  66.335  1.00  0.00    -0.453 A  
ENDBRANCH  15  16
ENDBRANCH  14  15
ENDBRANCH   2  14
TORSDOF 7
ENDMDL
MODEL      155
REMARK 921   NORMALIZED FREE ENERGY PREDICTED BY IDOCK:   -4.18 KCAL/MOL
REMARK 922        TOTAL FREE ENERGY PREDICTED BY IDOCK:   -6.98 KCAL/MOL
REMARK 923 INTER-LIGAND FREE ENERGY PREDICTED BY IDOCK:   -6.38 KCAL/MOL
REMARK 924 INTRA-LIGAND FREE ENERGY PREDICTED BY IDOCK:   -0.60 KCAL/MOL
REMARK 927      BINDING AFFINITY PREDICTED BY RF-SCORE:    0.00 PKD
ROOT
HETATM    1  C   UNL     1      -8.642   9.052  69.620  1.00  0.00    -0.137 C  
HETATM    2  C   UNL     1     -10.101   8.601  69.409  1.00  0.00    -0.204 C  
ENDROOT
BRANCH   2   3
HETATM    3  N   UNL     1     -10.306   7.658  68.258  1.00  0.00    -0.199 NA 
BRANCH   3   4
HETATM    4  C   UNL     1      -9.021   7.268  67.620  1.00  0.00    -0.126 C  
HETATM    5 CL   UNL     1      -7.412   5.708  66.069  1.00  0.00    -0.081 Cl 
HETATM    6  C   UNL     1      -9.028   5.976  66.788  1.00  0.00    -0.122 C  
ENDBRANCH   3   4
BRANCH   3   7
HETATM    7  C   UNL     1     -11.081   6.459  68.644  1.00  0.00    -0.311 C  
BRANCH   7   8
HETATM    8  C   UNL     1     -11.008   6.055  70.104  1.00  0.00    -0.429 A  
HETATM    9  C   UNL     1     -10.072   5.099  70.524  1.00  0.00    -0.326 A  
HETATM   10  C   UNL     1     -10.050   4.647  71.846  1.00  0.00    -0.266 A  
HETATM   11  C   UNL     1     -11.913   6.567  71.043  1.00  0.00    -0.358 A  
HETATM   12  C   UNL     1     -10.966   5.150  72.766  1.00  0.00    -0.327 A  
HETATM   13  C   UNL     1     -11.893   6.113  72.367  1.00  0.00    -0.287 A  
ENDBRANCH   7   8
ENDBRANCH   3   7
ENDBRANCH   2   3
BRANCH   2  14
HETATM   14  C   UNL     1     -11.026   9.849  69.337  1.00  0.00    -0.230 C  
BRANCH  14  15
HETATM   15  O   UNL     1     -11.823   9.923  70.527  1.00  0.00    -0.270 OA 
BRANCH  15  16
HETATM   16  C   UNL     1     -12.287  11.165  70.869  1.00  0.00    -0.399 A  
HETATM   17  C   UNL     1     -12.278  13.517  70.280  1.00  0.00    -0.417 A  
HETATM   18  C   UNL     1     -11.887  12.201  70.022  1.00  0.00    -0.383 A  
HETATM   19  C   UNL     1     -13.518  12.766  72.205  1.00  0.00    -0.591 A  
HETATM   20  C   UNL     1     -13.088  13.800  71.376  1.00  0.00    -0.413 A  
HETATM   21  C   UNL     1     -13.122  11.450  71.951  1.00  0.00    -0.505 A  
ENDBRANCH  15  16
ENDBRANCH  14  15
ENDBRANCH   2  14
TORSDOF 7
ENDMDL
MODEL      156
REMARK 921   NORMALIZED FREE ENERGY PREDICTED BY IDOCK:   -4.17 KCAL/MOL
REMARK 922        TOTAL FREE ENERGY PREDICTED BY IDOCK:   -6.98 KCAL/MOL
REMARK 923 INTER-LIGAND FREE ENERGY PREDICTED BY IDOCK:   -6.34 KCAL/MOL
REMARK 924 INTRA-LIGAND FREE ENERGY PREDICTED BY IDOCK:   -0.64 KCAL/MOL
REMARK 927      BINDING AFFINITY PREDICTED BY RF-SCORE:    0.00 PKD
ROOT
HETATM    1  C   UNL     1     -10.100   9.209  67.506  1.00  0.00    -0.284 C  
HETATM    2  C   UNL     1     -10.359  10.674  67.913  1.00  0.00    -0.199 C  
ENDROOT
BRANCH   2   3
HETATM    3  N   UNL     1      -9.147  11.560  67.868  1.00  0.00    -0.162 NA 
BRANCH   3   4
HETATM    4  C   UNL     1      -7.887  10.779  67.750  1.00  0.00    -0.109 C  
HETATM    5 CL   UNL     1      -5.357  10.303  66.858  1.00  0.00    -0.040 Cl 
HETATM    6  C   UNL     1      -6.803  11.355  66.826  1.00  0.00    -0.132 C  
ENDBRANCH   3   4
BRANCH   3   7
HETATM    7  C   UNL     1      -9.233  12.576  66.797  1.00  0.00    -0.217 C  
BRANCH   7   8
HETATM    8  C   UNL     1     -10.289  12.344  65.736  1.00  0.00    -0.289 A  
HETATM    9  C   UNL     1      -9.986  11.591  64.592  1.00  0.00    -0.305 A  
HETATM   10  C   UNL     1     -10.916  11.442  63.560  1.00  0.00    -0.406 A  
HETATM   11  C   UNL     1     -11.557  12.932  65.835  1.00  0.00    -0.423 A  
HETATM   12  C   UNL     1     -12.167  12.046  63.662  1.00  0.00    -0.642 A  
HETATM   13  C   UNL     1     -12.490  12.785  64.800  1.00  0.00    -0.539 A  
ENDBRANCH   7   8
ENDBRANCH   3   7
ENDBRANCH   2   3
BRANCH   2  14
HETATM   14  C   UNL     1     -11.083  10.711  69.288  1.00  0.00    -0.252 C  
BRANCH  14  15
HETATM   15  O   UNL     1     -10.718   9.555  70.053  1.00  0.00    -0.214 OA 
BRANCH  15  16
HETATM   16  C   UNL     1     -11.739   8.905  70.692  1.00  0.00    -0.179 A  
HETATM   17  C   UNL     1     -13.823   9.188  71.899  1.00  0.00    -0.455 A  
HETATM   18  C   UNL     1     -12.740   9.732  71.206  1.00  0.00    -0.464 A  
HETATM   19  C   UNL     1     -12.943   6.976  71.524  1.00  0.00    -0.411 A  
HETATM   20  C   UNL     1     -13.921   7.809  72.064  1.00  0.00    -0.329 A  
HETATM   21  C   UNL     1     -11.856   7.521  70.837  1.00  0.00    -0.293 A  
ENDBRANCH  15  16
ENDBRANCH  14  15
ENDBRANCH   2  14
TORSDOF 7
ENDMDL
MODEL      157
REMARK 921   NORMALIZED FREE ENERGY PREDICTED BY IDOCK:   -4.17 KCAL/MOL
REMARK 922        TOTAL FREE ENERGY PREDICTED BY IDOCK:   -6.98 KCAL/MOL
REMARK 923 INTER-LIGAND FREE ENERGY PREDICTED BY IDOCK:   -6.61 KCAL/MOL
REMARK 924 INTRA-LIGAND FREE ENERGY PREDICTED BY IDOCK:   -0.36 KCAL/MOL
REMARK 927      BINDING AFFINITY PREDICTED BY RF-SCORE:    0.00 PKD
ROOT
HETATM    1  C   UNL     1      -9.119  11.622  68.561  1.00  0.00    -0.157 C  
HETATM    2  C   UNL     1     -10.500  11.410  69.212  1.00  0.00    -0.067 C  
ENDROOT
BRANCH   2   3
HETATM    3  N   UNL     1     -10.539  10.339  70.264  1.00  0.00    -0.261 NA 
BRANCH   3   4
HETATM    4  C   UNL     1     -11.881   9.707  70.369  1.00  0.00    -0.155 C  
HETATM    5 CL   UNL     1     -14.021   8.670  71.701  1.00  0.00    -0.451 Cl 
HETATM    6  C   UNL     1     -12.378   9.374  71.784  1.00  0.00    -0.394 C  
ENDBRANCH   3   4
BRANCH   3   7
HETATM    7  C   UNL     1      -9.494   9.312  70.061  1.00  0.00    -0.211 C  
BRANCH   7   8
HETATM    8  C   UNL     1      -9.816   8.216  69.064  1.00  0.00    -0.176 A  
HETATM    9  C   UNL     1      -9.454   8.361  67.717  1.00  0.00    -0.171 A  
HETATM   10  C   UNL     1      -9.822   7.405  66.767  1.00  0.00    -0.290 A  
HETATM   11  C   UNL     1     -10.542   7.080  69.446  1.00  0.00    -0.248 A  
HETATM   12  C   UNL     1     -10.558   6.289  67.155  1.00  0.00    -0.380 A  
HETATM   13  C   UNL     1     -10.913   6.123  68.494  1.00  0.00    -0.404 A  
ENDBRANCH   7   8
ENDBRANCH   3   7
ENDBRANCH   2   3
BRANCH   2  14
HETATM   14  C   UNL     1     -11.572  11.207  68.105  1.00  0.00    -0.280 C  
BRANCH  14  15
HETATM   15  O   UNL     1     -11.691  12.406  67.328  1.00  0.00    -0.356 OA 
BRANCH  15  16
HETATM   16  C   UNL     1     -11.642  12.255  65.968  1.00  0.00    -0.393 A  
HETATM   17  C   UNL     1     -10.561  11.082  64.141  1.00  0.00    -0.412 A  
HETATM   18  C   UNL     1     -10.720  11.310  65.510  1.00  0.00    -0.283 A  
HETATM   19  C   UNL     1     -12.285  12.701  63.677  1.00  0.00    -0.624 A  
HETATM   20  C   UNL     1     -11.339  11.783  63.224  1.00  0.00    -0.347 A  
HETATM   21  C   UNL     1     -12.439  12.935  65.046  1.00  0.00    -0.553 A  
ENDBRANCH  15  16
ENDBRANCH  14  15
ENDBRANCH   2  14
TORSDOF 7
ENDMDL
MODEL      158
REMARK 921   NORMALIZED FREE ENERGY PREDICTED BY IDOCK:   -4.17 KCAL/MOL
REMARK 922        TOTAL FREE ENERGY PREDICTED BY IDOCK:   -6.97 KCAL/MOL
REMARK 923 INTER-LIGAND FREE ENERGY PREDICTED BY IDOCK:   -6.18 KCAL/MOL
REMARK 924 INTRA-LIGAND FREE ENERGY PREDICTED BY IDOCK:   -0.79 KCAL/MOL
REMARK 927      BINDING AFFINITY PREDICTED BY RF-SCORE:    0.00 PKD
ROOT
HETATM    1  C   UNL     1      -9.911  14.952  65.400  1.00  0.00    -0.367 C  
HETATM    2  C   UNL     1      -9.709  14.562  66.878  1.00  0.00    -0.252 C  
ENDROOT
BRANCH   2   3
HETATM    3  N   UNL     1     -10.547  15.339  67.852  1.00  0.00    -0.254 NA 
BRANCH   3   4
HETATM    4  C   UNL     1     -10.665  16.771  67.470  1.00  0.00    -0.275 C  
HETATM    5 CL   UNL     1     -10.549  19.457  67.911  1.00  0.00    -0.521 Cl 
HETATM    6  C   UNL     1     -10.407  17.804  68.578  1.00  0.00    -0.364 C  
ENDBRANCH   3   4
BRANCH   3   7
HETATM    7  C   UNL     1     -11.885  14.739  68.047  1.00  0.00    -0.294 C  
BRANCH   7   8
HETATM    8  C   UNL     1     -11.970  13.597  69.039  1.00  0.00    -0.392 A  
HETATM    9  C   UNL     1     -11.686  12.286  68.630  1.00  0.00    -0.377 A  
HETATM   10  C   UNL     1     -11.846  11.208  69.505  1.00  0.00    -0.423 A  
HETATM   11  C   UNL     1     -12.403  13.810  70.354  1.00  0.00    -0.423 A  
HETATM   12  C   UNL     1     -12.293  11.431  70.804  1.00  0.00    -0.483 A  
HETATM   13  C   UNL     1     -12.566  12.731  71.231  1.00  0.00    -0.347 A  
ENDBRANCH   7   8
ENDBRANCH   3   7
ENDBRANCH   2   3
BRANCH   2  14
HETATM   14  C   UNL     1      -8.193  14.598  67.223  1.00  0.00    -0.212 C  
BRANCH  14  15
HETATM   15  O   UNL     1      -8.027  14.856  68.623  1.00  0.00    -0.129 OA 
BRANCH  15  16
HETATM   16  C   UNL     1      -7.107  15.813  68.958  1.00  0.00    -0.159 A  
HETATM   17  C   UNL     1      -5.212  16.330  70.381  1.00  0.00    -0.188 A  
HETATM   18  C   UNL     1      -6.187  15.433  69.938  1.00  0.00    -0.160 A  
HETATM   19  C   UNL     1      -6.033  17.979  68.827  1.00  0.00    -0.197 A  
HETATM   20  C   UNL     1      -5.141  17.607  69.829  1.00  0.00    -0.185 A  
HETATM   21  C   UNL     1      -7.013  17.084  68.389  1.00  0.00    -0.180 A  
ENDBRANCH  15  16
ENDBRANCH  14  15
ENDBRANCH   2  14
TORSDOF 7
ENDMDL
MODEL      159
REMARK 921   NORMALIZED FREE ENERGY PREDICTED BY IDOCK:   -4.16 KCAL/MOL
REMARK 922        TOTAL FREE ENERGY PREDICTED BY IDOCK:   -6.96 KCAL/MOL
REMARK 923 INTER-LIGAND FREE ENERGY PREDICTED BY IDOCK:   -6.16 KCAL/MOL
REMARK 924 INTRA-LIGAND FREE ENERGY PREDICTED BY IDOCK:   -0.80 KCAL/MOL
REMARK 927      BINDING AFFINITY PREDICTED BY RF-SCORE:    0.00 PKD
ROOT
HETATM    1  C   UNL     1     -11.943  14.378  71.257  1.00  0.00    -0.359 C  
HETATM    2  C   UNL     1     -12.416  13.485  70.092  1.00  0.00    -0.209 C  
ENDROOT
BRANCH   2   3
HETATM    3  N   UNL     1     -11.870  12.086  70.113  1.00  0.00    -0.330 NA 
BRANCH   3   4
HETATM    4  C   UNL     1     -12.494  11.258  71.179  1.00  0.00    -0.373 C  
HETATM    5 CL   UNL     1     -13.021   8.938  72.507  1.00  0.00    -0.462 Cl 
HETATM    6  C   UNL     1     -12.230   9.745  71.122  1.00  0.00    -0.362 C  
ENDBRANCH   3   4
BRANCH   3   7
HETATM    7  C   UNL     1     -11.985  11.417  68.799  1.00  0.00    -0.287 C  
BRANCH   7   8
HETATM    8  C   UNL     1     -10.753  11.454  67.917  1.00  0.00    -0.242 A  
HETATM    9  C   UNL     1      -9.475  11.374  68.489  1.00  0.00    -0.183 A  
HETATM   10  C   UNL     1      -8.326  11.498  67.703  1.00  0.00    -0.135 A  
HETATM   11  C   UNL     1     -10.858  11.644  66.533  1.00  0.00    -0.328 A  
HETATM   12  C   UNL     1      -8.444  11.703  66.332  1.00  0.00    -0.114 A  
HETATM   13  C   UNL     1      -9.708  11.771  65.745  1.00  0.00    -0.260 A  
ENDBRANCH   7   8
ENDBRANCH   3   7
ENDBRANCH   2   3
BRANCH   2  14
HETATM   14  C   UNL     1     -12.160  14.212  68.742  1.00  0.00    -0.291 C  
BRANCH  14  15
HETATM   15  O   UNL     1     -11.008  15.056  68.863  1.00  0.00    -0.232 OA 
BRANCH  15  16
HETATM   16  C   UNL     1     -10.771  15.912  67.822  1.00  0.00    -0.320 A  
HETATM   17  C   UNL     1     -10.329  18.216  67.209  1.00  0.00    -0.399 A  
HETATM   18  C   UNL     1     -10.559  17.244  68.185  1.00  0.00    -0.386 A  
HETATM   19  C   UNL     1     -10.467  16.524  65.499  1.00  0.00    -0.320 A  
HETATM   20  C   UNL     1     -10.291  17.857  65.865  1.00  0.00    -0.259 A  
HETATM   21  C   UNL     1     -10.704  15.552  66.474  1.00  0.00    -0.304 A  
ENDBRANCH  15  16
ENDBRANCH  14  15
ENDBRANCH   2  14
TORSDOF 7
ENDMDL
MODEL      160
REMARK 921   NORMALIZED FREE ENERGY PREDICTED BY IDOCK:   -4.15 KCAL/MOL
REMARK 922        TOTAL FREE ENERGY PREDICTED BY IDOCK:   -6.95 KCAL/MOL
REMARK 923 INTER-LIGAND FREE ENERGY PREDICTED BY IDOCK:   -6.19 KCAL/MOL
REMARK 924 INTRA-LIGAND FREE ENERGY PREDICTED BY IDOCK:   -0.76 KCAL/MOL
REMARK 927      BINDING AFFINITY PREDICTED BY RF-SCORE:    0.00 PKD
ROOT
HETATM    1  C   UNL     1      -8.380  10.507  69.107  1.00  0.00    -0.154 C  
HETATM    2  C   UNL     1      -9.811  10.006  69.388  1.00  0.00    -0.224 C  
ENDROOT
BRANCH   2   3
HETATM    3  N   UNL     1      -9.890   8.614  69.947  1.00  0.00    -0.180 NA 
BRANCH   3   4
HETATM    4  C   UNL     1      -9.924   8.610  71.434  1.00  0.00    -0.254 C  
HETATM    5 CL   UNL     1      -8.908   8.158  73.921  1.00  0.00    -0.285 Cl 
HETATM    6  C   UNL     1      -8.696   8.029  72.150  1.00  0.00    -0.157 C  
ENDBRANCH   3   4
BRANCH   3   7
HETATM    7  C   UNL     1     -11.032   7.851  69.398  1.00  0.00    -0.020 C  
BRANCH   7   8
HETATM    8  C   UNL     1     -10.687   6.605  68.607  1.00  0.00    -0.303 A  
HETATM    9  C   UNL     1      -9.978   5.559  69.214  1.00  0.00    -0.263 A  
HETATM   10  C   UNL     1      -9.571   4.443  68.478  1.00  0.00    -0.208 A  
HETATM   11  C   UNL     1     -11.000   6.503  67.245  1.00  0.00    -0.475 A  
HETATM   12  C   UNL     1      -9.872   4.361  67.121  1.00  0.00    -0.217 A  
HETATM   13  C   UNL     1     -10.591   5.386  66.506  1.00  0.00    -0.353 A  
ENDBRANCH   7   8
ENDBRANCH   3   7
ENDBRANCH   2   3
BRANCH   2  14
HETATM   14  C   UNL     1     -10.688  10.196  68.118  1.00  0.00    -0.244 C  
BRANCH  14  15
HETATM   15  O   UNL     1      -9.888  10.745  67.062  1.00  0.00    -0.179 OA 
BRANCH  15  16
HETATM   16  C   UNL     1     -10.568  11.270  65.997  1.00  0.00    -0.258 A  
HETATM   17  C   UNL     1     -12.398  12.715  65.330  1.00  0.00    -0.528 A  
HETATM   18  C   UNL     1     -11.615  12.133  66.329  1.00  0.00    -0.424 A  
HETATM   19  C   UNL     1     -11.059  11.620  63.651  1.00  0.00    -0.506 A  
HETATM   20  C   UNL     1     -12.124  12.452  63.990  1.00  0.00    -0.563 A  
HETATM   21  C   UNL     1     -10.280  11.032  64.651  1.00  0.00    -0.392 A  
ENDBRANCH  15  16
ENDBRANCH  14  15
ENDBRANCH   2  14
TORSDOF 7
ENDMDL
MODEL      161
REMARK 921   NORMALIZED FREE ENERGY PREDICTED BY IDOCK:   -4.14 KCAL/MOL
REMARK 922        TOTAL FREE ENERGY PREDICTED BY IDOCK:   -6.93 KCAL/MOL
REMARK 923 INTER-LIGAND FREE ENERGY PREDICTED BY IDOCK:   -6.15 KCAL/MOL
REMARK 924 INTRA-LIGAND FREE ENERGY PREDICTED BY IDOCK:   -0.77 KCAL/MOL
REMARK 927      BINDING AFFINITY PREDICTED BY RF-SCORE:    0.00 PKD
ROOT
HETATM    1  C   UNL     1      -8.105  11.049  67.058  1.00  0.00    -0.136 C  
HETATM    2  C   UNL     1      -9.446  10.310  67.240  1.00  0.00    -0.150 C  
ENDROOT
BRANCH   2   3
HETATM    3  N   UNL     1      -9.774   9.327  66.154  1.00  0.00    -0.260 NA 
BRANCH   3   4
HETATM    4  C   UNL     1      -9.236   9.751  64.834  1.00  0.00    -0.257 C  
HETATM    5 CL   UNL     1      -9.264  11.146  62.494  1.00  0.00    -0.357 Cl 
HETATM    6  C   UNL     1     -10.102  10.721  64.015  1.00  0.00    -0.345 C  
ENDBRANCH   3   4
BRANCH   3   7
HETATM    7  C   UNL     1      -9.327   7.956  66.482  1.00  0.00    -0.200 C  
BRANCH   7   8
HETATM    8  C   UNL     1      -9.737   7.425  67.841  1.00  0.00    -0.166 A  
HETATM    9  C   UNL     1     -10.999   6.839  68.017  1.00  0.00    -0.289 A  
HETATM   10  C   UNL     1     -11.431   6.426  69.280  1.00  0.00    -0.318 A  
HETATM   11  C   UNL     1      -8.904   7.573  68.958  1.00  0.00    -0.132 A  
HETATM   12  C   UNL     1     -10.602   6.594  70.385  1.00  0.00    -0.266 A  
HETATM   13  C   UNL     1      -9.337   7.162  70.225  1.00  0.00    -0.155 A  
ENDBRANCH   7   8
ENDBRANCH   3   7
ENDBRANCH   2   3
BRANCH   2  14
HETATM   14  C   UNL     1     -10.582  11.346  67.479  1.00  0.00    -0.213 C  
BRANCH  14  15
HETATM   15  O   UNL     1     -11.662  10.717  68.182  1.00  0.00    -0.501 OA 
BRANCH  15  16
HETATM   16  C   UNL     1     -12.057  11.316  69.348  1.00  0.00    -0.315 A  
HETATM   17  C   UNL     1     -12.935  10.934  71.575  1.00  0.00    -0.556 A  
HETATM   18  C   UNL     1     -12.487  10.441  70.348  1.00  0.00    -0.348 A  
HETATM   19  C   UNL     1     -12.475  13.181  70.835  1.00  0.00    -0.407 A  
HETATM   20  C   UNL     1     -12.936  12.305  71.816  1.00  0.00    -0.431 A  
HETATM   21  C   UNL     1     -12.033  12.689  69.604  1.00  0.00    -0.352 A  
ENDBRANCH  15  16
ENDBRANCH  14  15
ENDBRANCH   2  14
TORSDOF 7
ENDMDL
MODEL      162
REMARK 921   NORMALIZED FREE ENERGY PREDICTED BY IDOCK:   -4.13 KCAL/MOL
REMARK 922        TOTAL FREE ENERGY PREDICTED BY IDOCK:   -6.91 KCAL/MOL
REMARK 923 INTER-LIGAND FREE ENERGY PREDICTED BY IDOCK:   -5.70 KCAL/MOL
REMARK 924 INTRA-LIGAND FREE ENERGY PREDICTED BY IDOCK:   -1.21 KCAL/MOL
REMARK 927      BINDING AFFINITY PREDICTED BY RF-SCORE:    0.00 PKD
ROOT
HETATM    1  C   UNL     1      -7.279  15.349  67.422  1.00  0.00    -0.242 C  
HETATM    2  C   UNL     1      -8.653  14.649  67.430  1.00  0.00    -0.199 C  
ENDROOT
BRANCH   2   3
HETATM    3  N   UNL     1      -9.802  15.528  67.834  1.00  0.00    -0.216 NA 
BRANCH   3   4
HETATM    4  C   UNL     1      -9.345  16.770  68.511  1.00  0.00    -0.246 C  
HETATM    5 CL   UNL     1      -8.997  19.462  68.750  1.00  0.00    -0.415 Cl 
HETATM    6  C   UNL     1      -9.565  18.089  67.755  1.00  0.00    -0.278 C  
ENDBRANCH   3   4
BRANCH   3   7
HETATM    7  C   UNL     1     -10.689  15.851  66.696  1.00  0.00    -0.270 C  
BRANCH   7   8
HETATM    8  C   UNL     1     -11.057  14.698  65.784  1.00  0.00    -0.331 A  
HETATM    9  C   UNL     1     -12.332  14.118  65.860  1.00  0.00    -0.486 A  
HETATM   10  C   UNL     1     -12.659  12.997  65.094  1.00  0.00    -0.530 A  
HETATM   11  C   UNL     1     -10.118  14.141  64.906  1.00  0.00    -0.280 A  
HETATM   12  C   UNL     1     -11.712  12.442  64.238  1.00  0.00    -0.452 A  
HETATM   13  C   UNL     1     -10.445  13.015  64.139  1.00  0.00    -0.395 A  
ENDBRANCH   7   8
ENDBRANCH   3   7
ENDBRANCH   2   3
BRANCH   2  14
HETATM   14  C   UNL     1      -8.567  13.344  68.271  1.00  0.00    -0.169 C  
BRANCH  14  15
HETATM   15  O   UNL     1      -7.764  12.379  67.578  1.00  0.00    -0.140 OA 
BRANCH  15  16
HETATM   16  C   UNL     1      -8.439  11.480  66.797  1.00  0.00    -0.168 A  
HETATM   17  C   UNL     1     -10.487  10.202  66.561  1.00  0.00    -0.236 A  
HETATM   18  C   UNL     1      -9.709  11.129  67.259  1.00  0.00    -0.186 A  
HETATM   19  C   UNL     1      -8.752  10.009  64.899  1.00  0.00    -0.201 A  
HETATM   20  C   UNL     1     -10.003   9.636  65.384  1.00  0.00    -0.230 A  
HETATM   21  C   UNL     1      -7.971  10.930  65.602  1.00  0.00    -0.037 A  
ENDBRANCH  15  16
ENDBRANCH  14  15
ENDBRANCH   2  14
TORSDOF 7
ENDMDL
MODEL      163
REMARK 921   NORMALIZED FREE ENERGY PREDICTED BY IDOCK:   -4.12 KCAL/MOL
REMARK 922        TOTAL FREE ENERGY PREDICTED BY IDOCK:   -6.91 KCAL/MOL
REMARK 923 INTER-LIGAND FREE ENERGY PREDICTED BY IDOCK:   -6.33 KCAL/MOL
REMARK 924 INTRA-LIGAND FREE ENERGY PREDICTED BY IDOCK:   -0.58 KCAL/MOL
REMARK 927      BINDING AFFINITY PREDICTED BY RF-SCORE:    0.00 PKD
ROOT
HETATM    1  C   UNL     1      -8.568   9.325  68.478  1.00  0.00    -0.128 C  
HETATM    2  C   UNL     1      -9.992   8.872  68.098  1.00  0.00    -0.176 C  
ENDROOT
BRANCH   2   3
HETATM    3  N   UNL     1     -10.054   7.861  66.989  1.00  0.00    -0.248 NA 
BRANCH   3   4
HETATM    4  C   UNL     1      -8.702   7.406  66.571  1.00  0.00    -0.140 C  
HETATM    5 CL   UNL     1      -6.941   5.825  65.219  1.00  0.00    -0.062 Cl 
HETATM    6  C   UNL     1      -8.642   6.183  65.643  1.00  0.00    -0.145 C  
ENDBRANCH   3   4
BRANCH   3   7
HETATM    7  C   UNL     1     -10.911   6.705  67.329  1.00  0.00    -0.385 C  
BRANCH   7   8
HETATM    8  C   UNL     1     -10.775   6.160  68.736  1.00  0.00    -0.370 A  
HETATM    9  C   UNL     1     -11.597   6.647  69.763  1.00  0.00    -0.354 A  
HETATM   10  C   UNL     1     -11.425   6.224  71.084  1.00  0.00    -0.362 A  
HETATM   11  C   UNL     1      -9.785   5.222  69.057  1.00  0.00    -0.217 A  
HETATM   12  C   UNL     1     -10.427   5.305  71.393  1.00  0.00    -0.273 A  
HETATM   13  C   UNL     1      -9.610   4.800  70.381  1.00  0.00    -0.267 A  
ENDBRANCH   7   8
ENDBRANCH   3   7
ENDBRANCH   2   3
BRANCH   2  14
HETATM   14  C   UNL     1     -10.880  10.119  67.828  1.00  0.00    -0.292 C  
BRANCH  14  15
HETATM   15  O   UNL     1     -10.139  11.077  67.061  1.00  0.00    -0.186 OA 
BRANCH  15  16
HETATM   16  C   UNL     1     -10.755  11.561  65.939  1.00  0.00    -0.272 A  
HETATM   17  C   UNL     1     -12.384  13.150  65.100  1.00  0.00    -0.525 A  
HETATM   18  C   UNL     1     -11.675  12.589  66.164  1.00  0.00    -0.466 A  
HETATM   19  C   UNL     1     -11.221  11.700  63.566  1.00  0.00    -0.462 A  
HETATM   20  C   UNL     1     -12.162  12.699  63.801  1.00  0.00    -0.600 A  
HETATM   21  C   UNL     1     -10.516  11.133  64.631  1.00  0.00    -0.400 A  
ENDBRANCH  15  16
ENDBRANCH  14  15
ENDBRANCH   2  14
TORSDOF 7
ENDMDL
MODEL      164
REMARK 921   NORMALIZED FREE ENERGY PREDICTED BY IDOCK:   -4.10 KCAL/MOL
REMARK 922        TOTAL FREE ENERGY PREDICTED BY IDOCK:   -6.87 KCAL/MOL
REMARK 923 INTER-LIGAND FREE ENERGY PREDICTED BY IDOCK:   -6.13 KCAL/MOL
REMARK 924 INTRA-LIGAND FREE ENERGY PREDICTED BY IDOCK:   -0.74 KCAL/MOL
REMARK 927      BINDING AFFINITY PREDICTED BY RF-SCORE:    0.00 PKD
ROOT
HETATM    1  C   UNL     1     -12.650  13.756  65.907  1.00  0.00    -0.494 C  
HETATM    2  C   UNL     1     -11.906  13.439  67.220  1.00  0.00    -0.376 C  
ENDROOT
BRANCH   2   3
HETATM    3  N   UNL     1     -11.248  14.622  67.869  1.00  0.00    -0.291 NA 
BRANCH   3   4
HETATM    4  C   UNL     1     -11.857  14.949  69.185  1.00  0.00    -0.307 C  
HETATM    5 CL   UNL     1     -11.819  15.761  71.786  1.00  0.00    -0.492 Cl 
HETATM    6  C   UNL     1     -10.894  15.365  70.308  1.00  0.00    -0.311 C  
ENDBRANCH   3   4
BRANCH   3   7
HETATM    7  C   UNL     1      -9.785  14.450  68.001  1.00  0.00    -0.221 C  
BRANCH   7   8
HETATM    8  C   UNL     1      -8.924  15.531  67.379  1.00  0.00    -0.203 A  
HETATM    9  C   UNL     1      -7.529  15.490  67.521  1.00  0.00    -0.209 A  
HETATM   10  C   UNL     1      -6.725  16.524  67.035  1.00  0.00    -0.240 A  
HETATM   11  C   UNL     1      -9.499  16.625  66.720  1.00  0.00    -0.260 A  
HETATM   12  C   UNL     1      -7.310  17.615  66.397  1.00  0.00    -0.323 A  
HETATM   13  C   UNL     1      -8.695  17.664  66.234  1.00  0.00    -0.212 A  
ENDBRANCH   7   8
ENDBRANCH   3   7
ENDBRANCH   2   3
BRANCH   2  14
HETATM   14  C   UNL     1     -10.926  12.254  66.990  1.00  0.00    -0.268 C  
BRANCH  14  15
HETATM   15  O   UNL     1     -11.576  11.022  67.333  1.00  0.00    -0.525 OA 
BRANCH  15  16
HETATM   16  C   UNL     1     -10.804  10.087  67.967  1.00  0.00    -0.260 A  
HETATM   17  C   UNL     1      -9.345   9.673  69.860  1.00  0.00    -0.256 A  
HETATM   18  C   UNL     1     -10.177  10.529  69.135  1.00  0.00    -0.241 A  
HETATM   19  C   UNL     1      -9.802   7.906  68.286  1.00  0.00    -0.187 A  
HETATM   20  C   UNL     1      -9.152   8.363  69.430  1.00  0.00    -0.154 A  
HETATM   21  C   UNL     1     -10.628   8.764  67.556  1.00  0.00    -0.298 A  
ENDBRANCH  15  16
ENDBRANCH  14  15
ENDBRANCH   2  14
TORSDOF 7
ENDMDL
MODEL      165
REMARK 921   NORMALIZED FREE ENERGY PREDICTED BY IDOCK:   -4.09 KCAL/MOL
REMARK 922        TOTAL FREE ENERGY PREDICTED BY IDOCK:   -6.86 KCAL/MOL
REMARK 923 INTER-LIGAND FREE ENERGY PREDICTED BY IDOCK:   -6.03 KCAL/MOL
REMARK 924 INTRA-LIGAND FREE ENERGY PREDICTED BY IDOCK:   -0.83 KCAL/MOL
REMARK 927      BINDING AFFINITY PREDICTED BY RF-SCORE:    0.00 PKD
ROOT
HETATM    1  C   UNL     1     -12.106  13.247  64.227  1.00  0.00    -0.475 C  
HETATM    2  C   UNL     1     -11.154  13.936  65.226  1.00  0.00    -0.318 C  
ENDROOT
BRANCH   2   3
HETATM    3  N   UNL     1     -11.117  13.310  66.590  1.00  0.00    -0.287 NA 
BRANCH   3   4
HETATM    4  C   UNL     1     -11.986  14.028  67.559  1.00  0.00    -0.395 C  
HETATM    5 CL   UNL     1     -12.488  15.537  69.772  1.00  0.00    -0.274 Cl 
HETATM    6  C   UNL     1     -11.285  14.688  68.757  1.00  0.00    -0.267 C  
ENDBRANCH   3   4
BRANCH   3   7
HETATM    7  C   UNL     1     -11.453  11.870  66.558  1.00  0.00    -0.314 C  
BRANCH   7   8
HETATM    8  C   UNL     1     -10.400  10.923  67.097  1.00  0.00    -0.262 A  
HETATM    9  C   UNL     1      -9.067  11.344  67.212  1.00  0.00    -0.162 A  
HETATM   10  C   UNL     1      -8.066  10.459  67.620  1.00  0.00    -0.107 A  
HETATM   11  C   UNL     1     -10.715   9.597  67.420  1.00  0.00    -0.308 A  
HETATM   12  C   UNL     1      -8.388   9.139  67.921  1.00  0.00    -0.117 A  
HETATM   13  C   UNL     1      -9.712   8.708  67.827  1.00  0.00    -0.202 A  
ENDBRANCH   7   8
ENDBRANCH   3   7
ENDBRANCH   2   3
BRANCH   2  14
HETATM   14  C   UNL     1     -11.460  15.460  65.270  1.00  0.00    -0.158 C  
BRANCH  14  15
HETATM   15  O   UNL     1     -10.260  16.197  65.004  1.00  0.00    -0.535 OA 
BRANCH  15  16
HETATM   16  C   UNL     1      -9.891  17.116  65.949  1.00  0.00    -0.155 A  
HETATM   17  C   UNL     1      -8.320  17.607  67.729  1.00  0.00    -0.226 A  
HETATM   18  C   UNL     1      -8.780  16.762  66.718  1.00  0.00    -0.260 A  
HETATM   19  C   UNL     1     -10.045  19.197  67.177  1.00  0.00    -0.457 A  
HETATM   20  C   UNL     1      -8.958  18.822  67.964  1.00  0.00    -0.326 A  
HETATM   21  C   UNL     1     -10.510  18.348  66.169  1.00  0.00    -0.422 A  
ENDBRANCH  15  16
ENDBRANCH  14  15
ENDBRANCH   2  14
TORSDOF 7
ENDMDL
MODEL      166
REMARK 921   NORMALIZED FREE ENERGY PREDICTED BY IDOCK:   -4.08 KCAL/MOL
REMARK 922        TOTAL FREE ENERGY PREDICTED BY IDOCK:   -6.84 KCAL/MOL
REMARK 923 INTER-LIGAND FREE ENERGY PREDICTED BY IDOCK:   -6.30 KCAL/MOL
REMARK 924 INTRA-LIGAND FREE ENERGY PREDICTED BY IDOCK:   -0.55 KCAL/MOL
REMARK 927      BINDING AFFINITY PREDICTED BY RF-SCORE:    0.00 PKD
ROOT
HETATM    1  C   UNL     1     -12.030  12.123  70.210  1.00  0.00    -0.389 C  
HETATM    2  C   UNL     1     -11.903  11.585  68.770  1.00  0.00    -0.330 C  
ENDROOT
BRANCH   2   3
HETATM    3  N   UNL     1     -10.924  10.457  68.606  1.00  0.00    -0.229 NA 
BRANCH   3   4
HETATM    4  C   UNL     1      -9.897  10.755  67.574  1.00  0.00    -0.172 C  
HETATM    5 CL   UNL     1      -8.824  10.680  65.070  1.00  0.00    -0.208 Cl 
HETATM    6  C   UNL     1     -10.137  10.172  66.173  1.00  0.00    -0.246 C  
ENDBRANCH   3   4
BRANCH   3   7
HETATM    7  C   UNL     1     -10.284  10.078  69.884  1.00  0.00    -0.260 C  
BRANCH   7   8
HETATM    8  C   UNL     1     -10.819   8.829  70.557  1.00  0.00    -0.268 A  
HETATM    9  C   UNL     1     -10.884   7.620  69.850  1.00  0.00    -0.241 A  
HETATM   10  C   UNL     1     -11.458   6.482  70.422  1.00  0.00    -0.465 A  
HETATM   11  C   UNL     1     -11.327   8.871  71.862  1.00  0.00    -0.446 A  
HETATM   12  C   UNL     1     -11.974   6.540  71.713  1.00  0.00    -0.394 A  
HETATM   13  C   UNL     1     -11.905   7.732  72.435  1.00  0.00    -0.371 A  
ENDBRANCH   7   8
ENDBRANCH   3   7
ENDBRANCH   2   3
BRANCH   2  14
HETATM   14  C   UNL     1     -11.633  12.765  67.795  1.00  0.00    -0.353 C  
BRANCH  14  15
HETATM   15  O   UNL     1     -10.890  13.786  68.474  1.00  0.00    -0.248 OA 
BRANCH  15  16
HETATM   16  C   UNL     1     -10.221  14.678  67.680  1.00  0.00    -0.232 A  
HETATM   17  C   UNL     1      -8.035  15.506  67.032  1.00  0.00    -0.268 A  
HETATM   18  C   UNL     1      -8.828  14.630  67.777  1.00  0.00    -0.177 A  
HETATM   19  C   UNL     1     -10.019  16.451  66.043  1.00  0.00    -0.369 A  
HETATM   20  C   UNL     1      -8.632  16.422  66.171  1.00  0.00    -0.343 A  
HETATM   21  C   UNL     1     -10.813  15.580  66.793  1.00  0.00    -0.291 A  
ENDBRANCH  15  16
ENDBRANCH  14  15
ENDBRANCH   2  14
TORSDOF 7
ENDMDL
MODEL      167
REMARK 921   NORMALIZED FREE ENERGY PREDICTED BY IDOCK:   -4.07 KCAL/MOL
REMARK 922        TOTAL FREE ENERGY PREDICTED BY IDOCK:   -6.83 KCAL/MOL
REMARK 923 INTER-LIGAND FREE ENERGY PREDICTED BY IDOCK:   -6.10 KCAL/MOL
REMARK 924 INTRA-LIGAND FREE ENERGY PREDICTED BY IDOCK:   -0.73 KCAL/MOL
REMARK 927      BINDING AFFINITY PREDICTED BY RF-SCORE:    0.00 PKD
ROOT
HETATM    1  C   UNL     1      -7.468  14.561  67.354  1.00  0.00    -0.194 C  
HETATM    2  C   UNL     1      -8.974  14.876  67.245  1.00  0.00    -0.199 C  
ENDROOT
BRANCH   2   3
HETATM    3  N   UNL     1      -9.293  16.212  66.637  1.00  0.00    -0.225 NA 
BRANCH   3   4
HETATM    4  C   UNL     1     -10.520  16.165  65.799  1.00  0.00    -0.367 C  
HETATM    5 CL   UNL     1     -12.293  15.005  64.085  1.00  0.00    -0.362 Cl 
HETATM    6  C   UNL     1     -10.750  14.884  64.982  1.00  0.00    -0.431 C  
ENDBRANCH   3   4
BRANCH   3   7
HETATM    7  C   UNL     1      -9.396  17.282  67.652  1.00  0.00    -0.237 C  
BRANCH   7   8
HETATM    8  C   UNL     1      -8.382  18.404  67.548  1.00  0.00    -0.259 A  
HETATM    9  C   UNL     1      -7.616  18.768  68.664  1.00  0.00    -0.357 A  
HETATM   10  C   UNL     1      -6.743  19.858  68.614  1.00  0.00    -0.348 A  
HETATM   11  C   UNL     1      -8.243  19.147  66.368  1.00  0.00    -0.323 A  
HETATM   12  C   UNL     1      -6.626  20.599  67.441  1.00  0.00    -0.346 A  
HETATM   13  C   UNL     1      -7.371  20.241  66.317  1.00  0.00    -0.286 A  
ENDBRANCH   7   8
ENDBRANCH   3   7
ENDBRANCH   2   3
BRANCH   2  14
HETATM   14  C   UNL     1      -9.651  14.666  68.629  1.00  0.00    -0.219 C  
BRANCH  14  15
HETATM   15  O   UNL     1     -10.938  14.061  68.446  1.00  0.00    -0.237 OA 
BRANCH  15  16
HETATM   16  C   UNL     1     -10.959  12.695  68.368  1.00  0.00    -0.257 A  
HETATM   17  C   UNL     1     -11.544  10.651  69.536  1.00  0.00    -0.360 A  
HETATM   18  C   UNL     1     -11.488  12.046  69.486  1.00  0.00    -0.351 A  
HETATM   19  C   UNL     1     -10.592  10.541  67.324  1.00  0.00    -0.317 A  
HETATM   20  C   UNL     1     -11.088   9.899  68.456  1.00  0.00    -0.181 A  
HETATM   21  C   UNL     1     -10.530  11.936  67.278  1.00  0.00    -0.248 A  
ENDBRANCH  15  16
ENDBRANCH  14  15
ENDBRANCH   2  14
TORSDOF 7
ENDMDL
MODEL      168
REMARK 921   NORMALIZED FREE ENERGY PREDICTED BY IDOCK:   -4.06 KCAL/MOL
REMARK 922        TOTAL FREE ENERGY PREDICTED BY IDOCK:   -6.82 KCAL/MOL
REMARK 923 INTER-LIGAND FREE ENERGY PREDICTED BY IDOCK:   -6.05 KCAL/MOL
REMARK 924 INTRA-LIGAND FREE ENERGY PREDICTED BY IDOCK:   -0.76 KCAL/MOL
REMARK 927      BINDING AFFINITY PREDICTED BY RF-SCORE:    0.00 PKD
ROOT
HETATM    1  C   UNL     1      -9.005  12.246  67.999  1.00  0.00    -0.190 C  
HETATM    2  C   UNL     1     -10.503  12.347  67.648  1.00  0.00    -0.216 C  
ENDROOT
BRANCH   2   3
HETATM    3  N   UNL     1     -11.143  13.658  68.006  1.00  0.00    -0.253 NA 
BRANCH   3   4
HETATM    4  C   UNL     1     -12.274  13.486  68.957  1.00  0.00    -0.186 C  
HETATM    5 CL   UNL     1     -13.540  13.752  71.355  1.00  0.00    -0.304 Cl 
HETATM    6  C   UNL     1     -12.058  14.006  70.387  1.00  0.00    -0.356 C  
ENDBRANCH   3   4
BRANCH   3   7
HETATM    7  C   UNL     1     -10.166  14.637  68.530  1.00  0.00    -0.240 C  
BRANCH   7   8
HETATM    8  C   UNL     1     -10.273  16.047  67.985  1.00  0.00    -0.245 A  
HETATM    9  C   UNL     1     -10.324  16.265  66.600  1.00  0.00    -0.302 A  
HETATM   10  C   UNL     1     -10.330  17.560  66.076  1.00  0.00    -0.309 A  
HETATM   11  C   UNL     1     -10.247  17.157  68.839  1.00  0.00    -0.332 A  
HETATM   12  C   UNL     1     -10.286  18.656  66.934  1.00  0.00    -0.444 A  
HETATM   13  C   UNL     1     -10.250  18.456  68.314  1.00  0.00    -0.412 A  
ENDBRANCH   7   8
ENDBRANCH   3   7
ENDBRANCH   2   3
BRANCH   2  14
HETATM   14  C   UNL     1     -11.259  11.124  68.239  1.00  0.00    -0.279 C  
BRANCH  14  15
HETATM   15  O   UNL     1     -10.476  10.537  69.287  1.00  0.00    -0.210 OA 
BRANCH  15  16
HETATM   16  C   UNL     1     -10.939   9.356  69.800  1.00  0.00    -0.215 A  
HETATM   17  C   UNL     1     -11.079   6.961  69.449  1.00  0.00    -0.249 A  
HETATM   18  C   UNL     1     -10.641   8.222  69.040  1.00  0.00    -0.167 A  
HETATM   19  C   UNL     1     -12.070   7.947  71.412  1.00  0.00    -0.333 A  
HETATM   20  C   UNL     1     -11.800   6.824  70.632  1.00  0.00    -0.442 A  
HETATM   21  C   UNL     1     -11.638   9.210  71.000  1.00  0.00    -0.370 A  
ENDBRANCH  15  16
ENDBRANCH  14  15
ENDBRANCH   2  14
TORSDOF 7
ENDMDL
MODEL      169
REMARK 921   NORMALIZED FREE ENERGY PREDICTED BY IDOCK:   -4.04 KCAL/MOL
REMARK 922        TOTAL FREE ENERGY PREDICTED BY IDOCK:   -6.79 KCAL/MOL
REMARK 923 INTER-LIGAND FREE ENERGY PREDICTED BY IDOCK:   -6.14 KCAL/MOL
REMARK 924 INTRA-LIGAND FREE ENERGY PREDICTED BY IDOCK:   -0.65 KCAL/MOL
REMARK 927      BINDING AFFINITY PREDICTED BY RF-SCORE:    0.00 PKD
ROOT
HETATM    1  C   UNL     1     -10.547  14.712  64.859  1.00  0.00    -0.446 C  
HETATM    2  C   UNL     1     -10.161  14.233  66.272  1.00  0.00    -0.298 C  
ENDROOT
BRANCH   2   3
HETATM    3  N   UNL     1      -9.205  15.134  67.000  1.00  0.00    -0.211 NA 
BRANCH   3   4
HETATM    4  C   UNL     1      -8.133  14.370  67.692  1.00  0.00    -0.177 C  
HETATM    5 CL   UNL     1      -6.201  13.989  69.575  1.00  0.00    -0.110 Cl 
HETATM    6  C   UNL     1      -7.412  15.084  68.846  1.00  0.00    -0.143 C  
ENDBRANCH   3   4
BRANCH   3   7
HETATM    7  C   UNL     1      -8.621  16.167  66.117  1.00  0.00    -0.296 C  
BRANCH   7   8
HETATM    8  C   UNL     1      -8.966  17.605  66.448  1.00  0.00    -0.255 A  
HETATM    9  C   UNL     1     -10.307  18.012  66.512  1.00  0.00    -0.376 A  
HETATM   10  C   UNL     1     -10.643  19.351  66.725  1.00  0.00    -0.574 A  
HETATM   11  C   UNL     1      -7.964  18.568  66.623  1.00  0.00    -0.278 A  
HETATM   12  C   UNL     1      -9.638  20.302  66.880  1.00  0.00    -0.564 A  
HETATM   13  C   UNL     1      -8.299  19.911  66.834  1.00  0.00    -0.366 A  
ENDBRANCH   7   8
ENDBRANCH   3   7
ENDBRANCH   2   3
BRANCH   2  14
HETATM   14  C   UNL     1      -9.668  12.759  66.206  1.00  0.00    -0.262 C  
BRANCH  14  15
HETATM   15  O   UNL     1     -10.364  11.977  67.186  1.00  0.00    -0.210 OA 
BRANCH  15  16
HETATM   16  C   UNL     1     -10.202  10.621  67.105  1.00  0.00    -0.216 A  
HETATM   17  C   UNL     1      -9.151   8.820  65.867  1.00  0.00    -0.271 A  
HETATM   18  C   UNL     1      -9.376  10.183  66.067  1.00  0.00    -0.216 A  
HETATM   19  C   UNL     1     -10.533   8.318  67.776  1.00  0.00    -0.280 A  
HETATM   20  C   UNL     1      -9.737   7.886  66.718  1.00  0.00    -0.303 A  
HETATM   21  C   UNL     1     -10.764   9.682  67.972  1.00  0.00    -0.284 A  
ENDBRANCH  15  16
ENDBRANCH  14  15
ENDBRANCH   2  14
TORSDOF 7
ENDMDL
MODEL      170
REMARK 921   NORMALIZED FREE ENERGY PREDICTED BY IDOCK:   -4.04 KCAL/MOL
REMARK 922        TOTAL FREE ENERGY PREDICTED BY IDOCK:   -6.78 KCAL/MOL
REMARK 923 INTER-LIGAND FREE ENERGY PREDICTED BY IDOCK:   -5.83 KCAL/MOL
REMARK 924 INTRA-LIGAND FREE ENERGY PREDICTED BY IDOCK:   -0.95 KCAL/MOL
REMARK 927      BINDING AFFINITY PREDICTED BY RF-SCORE:    0.00 PKD
ROOT
HETATM    1  C   UNL     1     -12.402  14.581  69.635  1.00  0.00    -0.284 C  
HETATM    2  C   UNL     1     -12.318  13.876  68.266  1.00  0.00     0.038 C  
ENDROOT
BRANCH   2   3
HETATM    3  N   UNL     1     -11.836  12.455  68.320  1.00  0.00    -0.335 NA 
BRANCH   3   4
HETATM    4  C   UNL     1     -11.014  12.098  67.134  1.00  0.00    -0.268 C  
HETATM    5 CL   UNL     1      -8.790  11.165  65.865  1.00  0.00    -0.196 Cl 
HETATM    6  C   UNL     1      -9.593  11.583  67.408  1.00  0.00    -0.168 C  
ENDBRANCH   3   4
BRANCH   3   7
HETATM    7  C   UNL     1     -11.103  12.157  69.570  1.00  0.00    -0.050 C  
BRANCH   7   8
HETATM    8  C   UNL     1     -11.608  10.979  70.378  1.00  0.00    -0.389 A  
HETATM    9  C   UNL     1     -12.839  11.058  71.046  1.00  0.00    -0.442 A  
HETATM   10  C   UNL     1     -13.279  10.019  71.870  1.00  0.00    -0.557 A  
HETATM   11  C   UNL     1     -10.831   9.824  70.538  1.00  0.00    -0.387 A  
HETATM   12  C   UNL     1     -12.490   8.883  72.034  1.00  0.00    -0.461 A  
HETATM   13  C   UNL     1     -11.270   8.782  71.365  1.00  0.00    -0.362 A  
ENDBRANCH   7   8
ENDBRANCH   3   7
ENDBRANCH   2   3
BRANCH   2  14
HETATM   14  C   UNL     1     -11.499  14.754  67.279  1.00  0.00    -0.366 C  
BRANCH  14  15
HETATM   15  O   UNL     1     -11.140  15.986  67.918  1.00  0.00    -0.338 OA 
BRANCH  15  16
HETATM   16  C   UNL     1      -9.802  16.263  67.992  1.00  0.00    -0.236 A  
HETATM   17  C   UNL     1      -7.571  15.329  67.811  1.00  0.00    -0.171 A  
HETATM   18  C   UNL     1      -8.957  15.178  67.743  1.00  0.00    -0.178 A  
HETATM   19  C   UNL     1      -7.857  17.666  68.325  1.00  0.00    -0.256 A  
HETATM   20  C   UNL     1      -7.021  16.573  68.110  1.00  0.00    -0.149 A  
HETATM   21  C   UNL     1      -9.244  17.514  68.264  1.00  0.00    -0.277 A  
ENDBRANCH  15  16
ENDBRANCH  14  15
ENDBRANCH   2  14
TORSDOF 7
ENDMDL
MODEL      171
REMARK 921   NORMALIZED FREE ENERGY PREDICTED BY IDOCK:   -4.03 KCAL/MOL
REMARK 922        TOTAL FREE ENERGY PREDICTED BY IDOCK:   -6.78 KCAL/MOL
REMARK 923 INTER-LIGAND FREE ENERGY PREDICTED BY IDOCK:   -6.02 KCAL/MOL
REMARK 924 INTRA-LIGAND FREE ENERGY PREDICTED BY IDOCK:   -0.76 KCAL/MOL
REMARK 927      BINDING AFFINITY PREDICTED BY RF-SCORE:    0.00 PKD
ROOT
HETATM    1  C   UNL     1      -8.011  10.044  66.776  1.00  0.00    -0.114 C  
HETATM    2  C   UNL     1      -9.535   9.963  66.553  1.00  0.00    -0.181 C  
ENDROOT
BRANCH   2   3
HETATM    3  N   UNL     1     -10.307  11.146  67.062  1.00  0.00    -0.214 NA 
BRANCH   3   4
HETATM    4  C   UNL     1     -10.641  12.105  65.976  1.00  0.00    -0.257 C  
HETATM    5 CL   UNL     1     -11.450  12.808  63.471  1.00  0.00    -0.540 Cl 
HETATM    6  C   UNL     1     -11.042  11.501  64.621  1.00  0.00    -0.250 C  
ENDBRANCH   3   4
BRANCH   3   7
HETATM    7  C   UNL     1     -11.526  10.748  67.798  1.00  0.00    -0.202 C  
BRANCH   7   8
HETATM    8  C   UNL     1     -11.846  11.545  69.047  1.00  0.00    -0.408 A  
HETATM    9  C   UNL     1     -12.329  10.896  70.193  1.00  0.00    -0.399 A  
HETATM   10  C   UNL     1     -12.715  11.623  71.322  1.00  0.00    -0.444 A  
HETATM   11  C   UNL     1     -11.739  12.942  69.062  1.00  0.00    -0.375 A  
HETATM   12  C   UNL     1     -12.620  13.011  71.319  1.00  0.00    -0.373 A  
HETATM   13  C   UNL     1     -12.128  13.671  70.192  1.00  0.00    -0.431 A  
ENDBRANCH   7   8
ENDBRANCH   3   7
ENDBRANCH   2   3
BRANCH   2  14
HETATM   14  C   UNL     1     -10.070   8.611  67.104  1.00  0.00    -0.261 C  
BRANCH  14  15
HETATM   15  O   UNL     1      -9.163   8.104  68.091  1.00  0.00    -0.134 OA 
BRANCH  15  16
HETATM   16  C   UNL     1      -9.709   7.315  69.067  1.00  0.00    -0.152 A  
HETATM   17  C   UNL     1     -11.458   7.154  70.739  1.00  0.00    -0.342 A  
HETATM   18  C   UNL     1     -10.826   7.855  69.710  1.00  0.00    -0.202 A  
HETATM   19  C   UNL     1      -9.896   5.340  70.457  1.00  0.00    -0.274 A  
HETATM   20  C   UNL     1     -10.988   5.899  71.117  1.00  0.00    -0.327 A  
HETATM   21  C   UNL     1      -9.259   6.044  69.432  1.00  0.00    -0.140 A  
ENDBRANCH  15  16
ENDBRANCH  14  15
ENDBRANCH   2  14
TORSDOF 7
ENDMDL
MODEL      172
REMARK 921   NORMALIZED FREE ENERGY PREDICTED BY IDOCK:   -4.00 KCAL/MOL
REMARK 922        TOTAL FREE ENERGY PREDICTED BY IDOCK:   -6.73 KCAL/MOL
REMARK 923 INTER-LIGAND FREE ENERGY PREDICTED BY IDOCK:   -5.99 KCAL/MOL
REMARK 924 INTRA-LIGAND FREE ENERGY PREDICTED BY IDOCK:   -0.74 KCAL/MOL
REMARK 927      BINDING AFFINITY PREDICTED BY RF-SCORE:    0.00 PKD
ROOT
HETATM    1  C   UNL     1      -8.040   8.993  67.765  1.00  0.00    -0.109 C  
HETATM    2  C   UNL     1      -9.574   8.924  67.900  1.00  0.00    -0.148 C  
ENDROOT
BRANCH   2   3
HETATM    3  N   UNL     1     -10.081   7.769  68.716  1.00  0.00    -0.191 NA 
BRANCH   3   4
HETATM    4  C   UNL     1     -10.832   8.220  69.917  1.00  0.00    -0.213 C  
HETATM    5 CL   UNL     1     -11.598   8.111  72.530  1.00  0.00    -0.460 Cl 
HETATM    6  C   UNL     1     -10.659   7.382  71.194  1.00  0.00    -0.222 C  
ENDBRANCH   3   4
BRANCH   3   7
HETATM    7  C   UNL     1     -10.894   6.829  67.915  1.00  0.00    -0.247 C  
BRANCH   7   8
HETATM    8  C   UNL     1     -10.310   5.446  67.707  1.00  0.00    -0.226 A  
HETATM    9  C   UNL     1      -9.865   4.697  68.806  1.00  0.00    -0.201 A  
HETATM   10  C   UNL     1      -9.240   3.460  68.627  1.00  0.00    -0.229 A  
HETATM   11  C   UNL     1     -10.133   4.921  66.420  1.00  0.00    -0.286 A  
HETATM   12  C   UNL     1      -9.054   2.956  67.342  1.00  0.00    -0.209 A  
HETATM   13  C   UNL     1      -9.505   3.682  66.240  1.00  0.00    -0.177 A  
ENDBRANCH   7   8
ENDBRANCH   3   7
ENDBRANCH   2   3
BRANCH   2  14
HETATM   14  C   UNL     1     -10.225   8.998  66.490  1.00  0.00    -0.248 C  
BRANCH  14  15
HETATM   15  O   UNL     1      -9.672  10.105  65.765  1.00  0.00    -0.209 OA 
BRANCH  15  16
HETATM   16  C   UNL     1     -10.549  11.092  65.407  1.00  0.00    -0.227 A  
HETATM   17  C   UNL     1     -11.551  12.274  63.541  1.00  0.00    -0.570 A  
HETATM   18  C   UNL     1     -10.701  11.281  64.031  1.00  0.00    -0.444 A  
HETATM   19  C   UNL     1     -12.151  12.866  65.798  1.00  0.00    -0.513 A  
HETATM   20  C   UNL     1     -12.271  13.072  64.426  1.00  0.00    -0.471 A  
HETATM   21  C   UNL     1     -11.295  11.877  66.289  1.00  0.00    -0.394 A  
ENDBRANCH  15  16
ENDBRANCH  14  15
ENDBRANCH   2  14
TORSDOF 7
ENDMDL
MODEL      173
REMARK 921   NORMALIZED FREE ENERGY PREDICTED BY IDOCK:   -4.00 KCAL/MOL
REMARK 922        TOTAL FREE ENERGY PREDICTED BY IDOCK:   -6.73 KCAL/MOL
REMARK 923 INTER-LIGAND FREE ENERGY PREDICTED BY IDOCK:   -4.46 KCAL/MOL
REMARK 924 INTRA-LIGAND FREE ENERGY PREDICTED BY IDOCK:   -2.27 KCAL/MOL
REMARK 927      BINDING AFFINITY PREDICTED BY RF-SCORE:    0.00 PKD
ROOT
HETATM    1  C   UNL     1     -10.308   6.639  73.633  1.00  0.00    -0.343 C  
HETATM    2  C   UNL     1      -9.844   6.934  72.192  1.00  0.00    -0.147 C  
ENDROOT
BRANCH   2   3
HETATM    3  N   UNL     1     -10.632   7.998  71.484  1.00  0.00    -0.221 NA 
BRANCH   3   4
HETATM    4  C   UNL     1     -11.841   8.401  72.251  1.00  0.00    -0.389 C  
HETATM    5 CL   UNL     1     -14.411   9.263  72.527  1.00  0.00    -0.240 Cl 
HETATM    6  C   UNL     1     -13.052   8.872  71.432  1.00  0.00    -0.269 C  
ENDBRANCH   3   4
BRANCH   3   7
HETATM    7  C   UNL     1      -9.809   9.180  71.150  1.00  0.00    -0.301 C  
BRANCH   7   8
HETATM    8  C   UNL     1      -9.594   9.451  69.674  1.00  0.00    -0.199 A  
HETATM    9  C   UNL     1      -8.376   9.982  69.225  1.00  0.00    -0.154 A  
HETATM   10  C   UNL     1      -8.191  10.324  67.883  1.00  0.00    -0.109 A  
HETATM   11  C   UNL     1     -10.622   9.251  68.744  1.00  0.00    -0.220 A  
HETATM   12  C   UNL     1      -9.226  10.137  66.971  1.00  0.00    -0.166 A  
HETATM   13  C   UNL     1     -10.439   9.596  67.399  1.00  0.00    -0.319 A  
ENDBRANCH   7   8
ENDBRANCH   3   7
ENDBRANCH   2   3
BRANCH   2  14
HETATM   14  C   UNL     1      -9.767   5.605  71.389  1.00  0.00    -0.162 C  
BRANCH  14  15
HETATM   15  O   UNL     1      -8.612   5.625  70.539  1.00  0.00    -0.125 OA 
BRANCH  15  16
HETATM   16  C   UNL     1      -8.842   5.858  69.210  1.00  0.00    -0.118 A  
HETATM   17  C   UNL     1     -10.487   5.740  67.432  1.00  0.00    -0.318 A  
HETATM   18  C   UNL     1     -10.136   5.565  68.772  1.00  0.00    -0.256 A  
HETATM   19  C   UNL     1      -8.268   6.555  66.963  1.00  0.00    -0.113 A  
HETATM   20  C   UNL     1      -9.549   6.228  66.525  1.00  0.00    -0.183 A  
HETATM   21  C   UNL     1      -7.914   6.373  68.303  1.00  0.00    -0.106 A  
ENDBRANCH  15  16
ENDBRANCH  14  15
ENDBRANCH   2  14
TORSDOF 7
ENDMDL
MODEL      174
REMARK 921   NORMALIZED FREE ENERGY PREDICTED BY IDOCK:   -3.97 KCAL/MOL
REMARK 922        TOTAL FREE ENERGY PREDICTED BY IDOCK:   -6.70 KCAL/MOL
REMARK 923 INTER-LIGAND FREE ENERGY PREDICTED BY IDOCK:   -5.67 KCAL/MOL
REMARK 924 INTRA-LIGAND FREE ENERGY PREDICTED BY IDOCK:   -1.02 KCAL/MOL
REMARK 927      BINDING AFFINITY PREDICTED BY RF-SCORE:    0.00 PKD
ROOT
HETATM    1  C   UNL     1      -9.180   4.512  69.603  1.00  0.00    -0.195 C  
HETATM    2  C   UNL     1      -9.972   5.832  69.689  1.00  0.00    -0.189 C  
ENDROOT
BRANCH   2   3
HETATM    3  N   UNL     1     -10.558   6.125  71.041  1.00  0.00    -0.235 NA 
BRANCH   3   4
HETATM    4  C   UNL     1     -10.261   5.049  72.023  1.00  0.00    -0.201 C  
HETATM    5 CL   UNL     1     -10.681   3.596  74.290  1.00  0.00    -0.253 Cl 
HETATM    6  C   UNL     1     -11.167   4.977  73.262  1.00  0.00    -0.338 C  
ENDBRANCH   3   4
BRANCH   3   7
HETATM    7  C   UNL     1     -10.134   7.441  71.565  1.00  0.00    -0.185 C  
BRANCH   7   8
HETATM    8  C   UNL     1     -11.130   8.574  71.417  1.00  0.00    -0.328 A  
HETATM    9  C   UNL     1     -10.846   9.655  70.570  1.00  0.00    -0.371 A  
HETATM   10  C   UNL     1     -11.708  10.752  70.490  1.00  0.00    -0.449 A  
HETATM   11  C   UNL     1     -12.310   8.604  72.171  1.00  0.00    -0.452 A  
HETATM   12  C   UNL     1     -12.869  10.778  71.257  1.00  0.00    -0.540 A  
HETATM   13  C   UNL     1     -13.173   9.704  72.093  1.00  0.00    -0.535 A  
ENDBRANCH   7   8
ENDBRANCH   3   7
ENDBRANCH   2   3
BRANCH   2  14
HETATM   14  C   UNL     1     -11.029   5.881  68.550  1.00  0.00    -0.197 C  
BRANCH  14  15
HETATM   15  O   UNL     1     -11.075   7.202  67.995  1.00  0.00    -0.101 OA 
BRANCH  15  16
HETATM   16  C   UNL     1     -10.073   7.527  67.121  1.00  0.00    -0.247 A  
HETATM   17  C   UNL     1      -8.770   9.347  66.187  1.00  0.00    -0.165 A  
HETATM   18  C   UNL     1      -9.760   8.887  67.058  1.00  0.00    -0.249 A  
HETATM   19  C   UNL     1      -8.357   7.083  65.472  1.00  0.00    -0.135 A  
HETATM   20  C   UNL     1      -8.074   8.444  65.388  1.00  0.00    -0.133 A  
HETATM   21  C   UNL     1      -9.353   6.624  66.338  1.00  0.00    -0.175 A  
ENDBRANCH  15  16
ENDBRANCH  14  15
ENDBRANCH   2  14
TORSDOF 7
ENDMDL
MODEL      175
REMARK 921   NORMALIZED FREE ENERGY PREDICTED BY IDOCK:   -3.96 KCAL/MOL
REMARK 922        TOTAL FREE ENERGY PREDICTED BY IDOCK:   -6.67 KCAL/MOL
REMARK 923 INTER-LIGAND FREE ENERGY PREDICTED BY IDOCK:   -6.05 KCAL/MOL
REMARK 924 INTRA-LIGAND FREE ENERGY PREDICTED BY IDOCK:   -0.62 KCAL/MOL
REMARK 927      BINDING AFFINITY PREDICTED BY RF-SCORE:    0.00 PKD
ROOT
HETATM    1  C   UNL     1      -8.112  13.232  68.262  1.00  0.00    -0.156 C  
HETATM    2  C   UNL     1      -9.438  13.589  67.560  1.00  0.00    -0.222 C  
ENDROOT
BRANCH   2   3
HETATM    3  N   UNL     1      -9.892  15.006  67.761  1.00  0.00    -0.219 NA 
BRANCH   3   4
HETATM    4  C   UNL     1     -10.336  15.257  69.158  1.00  0.00    -0.248 C  
HETATM    5 CL   UNL     1     -12.134  15.945  71.087  1.00  0.00    -0.457 Cl 
HETATM    6  C   UNL     1     -11.780  15.750  69.345  1.00  0.00    -0.370 C  
ENDBRANCH   3   4
BRANCH   3   7
HETATM    7  C   UNL     1      -8.865  15.989  67.357  1.00  0.00    -0.184 C  
BRANCH   7   8
HETATM    8  C   UNL     1      -9.244  17.450  67.493  1.00  0.00    -0.233 A  
HETATM    9  C   UNL     1      -8.638  18.246  68.476  1.00  0.00    -0.323 A  
HETATM   10  C   UNL     1      -9.040  19.569  68.678  1.00  0.00    -0.396 A  
HETATM   11  C   UNL     1     -10.252  18.014  66.700  1.00  0.00    -0.375 A  
HETATM   12  C   UNL     1     -10.055  20.113  67.896  1.00  0.00    -0.533 A  
HETATM   13  C   UNL     1     -10.657  19.339  66.904  1.00  0.00    -0.557 A  
ENDBRANCH   7   8
ENDBRANCH   3   7
ENDBRANCH   2   3
BRANCH   2  14
HETATM   14  C   UNL     1     -10.526  12.546  67.942  1.00  0.00    -0.217 C  
BRANCH  14  15
HETATM   15  O   UNL     1     -10.736  11.649  66.844  1.00  0.00    -0.233 OA 
BRANCH  15  16
HETATM   16  C   UNL     1     -10.335  10.354  67.034  1.00  0.00    -0.240 A  
HETATM   17  C   UNL     1      -8.816   8.619  66.284  1.00  0.00    -0.187 A  
HETATM   18  C   UNL     1      -9.298   9.927  66.201  1.00  0.00    -0.232 A  
HETATM   19  C   UNL     1     -10.367   8.167  68.073  1.00  0.00    -0.267 A  
HETATM   20  C   UNL     1      -9.357   7.736  67.216  1.00  0.00    -0.175 A  
HETATM   21  C   UNL     1     -10.854   9.474  67.985  1.00  0.00    -0.225 A  
ENDBRANCH  15  16
ENDBRANCH  14  15
ENDBRANCH   2  14
TORSDOF 7
ENDMDL
MODEL      176
REMARK 921   NORMALIZED FREE ENERGY PREDICTED BY IDOCK:   -3.93 KCAL/MOL
REMARK 922        TOTAL FREE ENERGY PREDICTED BY IDOCK:   -6.63 KCAL/MOL
REMARK 923 INTER-LIGAND FREE ENERGY PREDICTED BY IDOCK:   -5.86 KCAL/MOL
REMARK 924 INTRA-LIGAND FREE ENERGY PREDICTED BY IDOCK:   -0.77 KCAL/MOL
REMARK 927      BINDING AFFINITY PREDICTED BY RF-SCORE:    0.00 PKD
ROOT
HETATM    1  C   UNL     1      -9.424   9.567  66.202  1.00  0.00    -0.281 C  
HETATM    2  C   UNL     1      -9.210  10.168  67.605  1.00  0.00    -0.141 C  
ENDROOT
BRANCH   2   3
HETATM    3  N   UNL     1      -9.274   9.175  68.730  1.00  0.00    -0.136 NA 
BRANCH   3   4
HETATM    4  C   UNL     1      -8.200   8.152  68.633  1.00  0.00    -0.125 C  
HETATM    5 CL   UNL     1      -7.221   5.621  68.375  1.00  0.00    -0.073 Cl 
HETATM    6  C   UNL     1      -8.650   6.686  68.531  1.00  0.00    -0.124 C  
ENDBRANCH   3   4
BRANCH   3   7
HETATM    7  C   UNL     1      -9.255   9.826  70.058  1.00  0.00    -0.229 C  
BRANCH   7   8
HETATM    8  C   UNL     1     -10.363   9.430  71.013  1.00  0.00    -0.382 A  
HETATM    9  C   UNL     1     -10.144   8.431  71.972  1.00  0.00    -0.364 A  
HETATM   10  C   UNL     1     -11.178   7.989  72.800  1.00  0.00    -0.448 A  
HETATM   11  C   UNL     1     -11.642   9.995  70.913  1.00  0.00    -0.463 A  
HETATM   12  C   UNL     1     -12.449   8.545  72.680  1.00  0.00    -0.276 A  
HETATM   13  C   UNL     1     -12.680   9.551  71.741  1.00  0.00    -0.492 A  
ENDBRANCH   7   8
ENDBRANCH   3   7
ENDBRANCH   2   3
BRANCH   2  14
HETATM   14  C   UNL     1     -10.174  11.372  67.808  1.00  0.00    -0.181 C  
BRANCH  14  15
HETATM   15  O   UNL     1      -9.445  12.598  67.666  1.00  0.00    -0.179 OA 
BRANCH  15  16
HETATM   16  C   UNL     1      -9.879  13.450  66.687  1.00  0.00    -0.278 A  
HETATM   17  C   UNL     1     -10.059  15.775  66.018  1.00  0.00    -0.359 A  
HETATM   18  C   UNL     1      -9.642  14.805  66.932  1.00  0.00    -0.251 A  
HETATM   19  C   UNL     1     -10.906  14.040  64.575  1.00  0.00    -0.362 A  
HETATM   20  C   UNL     1     -10.698  15.391  64.842  1.00  0.00    -0.416 A  
HETATM   21  C   UNL     1     -10.495  13.070  65.493  1.00  0.00    -0.297 A  
ENDBRANCH  15  16
ENDBRANCH  14  15
ENDBRANCH   2  14
TORSDOF 7
ENDMDL
MODEL      177
REMARK 921   NORMALIZED FREE ENERGY PREDICTED BY IDOCK:   -3.91 KCAL/MOL
REMARK 922        TOTAL FREE ENERGY PREDICTED BY IDOCK:   -6.61 KCAL/MOL
REMARK 923 INTER-LIGAND FREE ENERGY PREDICTED BY IDOCK:   -6.00 KCAL/MOL
REMARK 924 INTRA-LIGAND FREE ENERGY PREDICTED BY IDOCK:   -0.61 KCAL/MOL
REMARK 927      BINDING AFFINITY PREDICTED BY RF-SCORE:    0.00 PKD
ROOT
HETATM    1  C   UNL     1     -11.596   7.928  70.636  1.00  0.00    -0.215 C  
HETATM    2  C   UNL     1     -10.946   9.235  71.131  1.00  0.00    -0.339 C  
ENDROOT
BRANCH   2   3
HETATM    3  N   UNL     1     -11.334  10.462  70.356  1.00  0.00    -0.319 NA 
BRANCH   3   4
HETATM    4  C   UNL     1     -11.251  10.245  68.887  1.00  0.00    -0.207 C  
HETATM    5 CL   UNL     1     -10.214  10.618  66.395  1.00  0.00    -0.282 Cl 
HETATM    6  C   UNL     1     -10.187  11.054  68.130  1.00  0.00    -0.182 C  
ENDBRANCH   3   4
BRANCH   3   7
HETATM    7  C   UNL     1     -12.673  10.965  70.733  1.00  0.00    -0.340 C  
BRANCH   7   8
HETATM    8  C   UNL     1     -12.769  12.445  71.044  1.00  0.00    -0.315 A  
HETATM    9  C   UNL     1     -13.491  12.884  72.164  1.00  0.00    -0.619 A  
HETATM   10  C   UNL     1     -13.668  14.247  72.416  1.00  0.00    -0.616 A  
HETATM   11  C   UNL     1     -12.210  13.403  70.189  1.00  0.00    -0.385 A  
HETATM   12  C   UNL     1     -13.122  15.189  71.550  1.00  0.00    -0.483 A  
HETATM   13  C   UNL     1     -12.389  14.769  70.439  1.00  0.00    -0.402 A  
ENDBRANCH   7   8
ENDBRANCH   3   7
ENDBRANCH   2   3
BRANCH   2  14
HETATM   14  C   UNL     1      -9.405   9.046  71.227  1.00  0.00    -0.254 C  
BRANCH  14  15
HETATM   15  O   UNL     1      -9.028   8.885  72.601  1.00  0.00    -0.337 OA 
BRANCH  15  16
HETATM   16  C   UNL     1      -8.315   7.757  72.906  1.00  0.00    -0.140 A  
HETATM   17  C   UNL     1      -6.714   6.778  74.442  1.00  0.00    -0.083 A  
HETATM   18  C   UNL     1      -7.507   7.855  74.041  1.00  0.00    -0.198 A  
HETATM   19  C   UNL     1      -7.573   5.472  72.607  1.00  0.00    -0.098 A  
HETATM   20  C   UNL     1      -6.742   5.588  73.719  1.00  0.00    -0.079 A  
HETATM   21  C   UNL     1      -8.361   6.553  72.202  1.00  0.00    -0.107 A  
ENDBRANCH  15  16
ENDBRANCH  14  15
ENDBRANCH   2  14
TORSDOF 7
ENDMDL
MODEL      178
REMARK 921   NORMALIZED FREE ENERGY PREDICTED BY IDOCK:   -3.89 KCAL/MOL
REMARK 922        TOTAL FREE ENERGY PREDICTED BY IDOCK:   -6.58 KCAL/MOL
REMARK 923 INTER-LIGAND FREE ENERGY PREDICTED BY IDOCK:   -5.66 KCAL/MOL
REMARK 924 INTRA-LIGAND FREE ENERGY PREDICTED BY IDOCK:   -0.92 KCAL/MOL
REMARK 927      BINDING AFFINITY PREDICTED BY RF-SCORE:    0.00 PKD
ROOT
HETATM    1  C   UNL     1     -10.643   5.985  72.911  1.00  0.00    -0.262 C  
HETATM    2  C   UNL     1     -10.956   5.867  71.406  1.00  0.00    -0.263 C  
ENDROOT
BRANCH   2   3
HETATM    3  N   UNL     1      -9.779   6.094  70.501  1.00  0.00    -0.171 NA 
BRANCH   3   4
HETATM    4  C   UNL     1      -8.672   6.806  71.192  1.00  0.00    -0.136 C  
HETATM    5 CL   UNL     1      -6.072   7.235  71.889  1.00  0.00    -0.037 Cl 
HETATM    6  C   UNL     1      -7.263   6.215  71.029  1.00  0.00    -0.075 C  
ENDBRANCH   3   4
BRANCH   3   7
HETATM    7  C   UNL     1      -9.290   4.839  69.889  1.00  0.00    -0.140 C  
BRANCH   7   8
HETATM    8  C   UNL     1      -9.629   4.630  68.427  1.00  0.00    -0.212 A  
HETATM    9  C   UNL     1      -9.095   3.537  67.729  1.00  0.00    -0.197 A  
HETATM   10  C   UNL     1      -9.322   3.377  66.360  1.00  0.00    -0.164 A  
HETATM   11  C   UNL     1     -10.415   5.554  67.727  1.00  0.00    -0.245 A  
HETATM   12  C   UNL     1     -10.090   4.311  65.671  1.00  0.00    -0.233 A  
HETATM   13  C   UNL     1     -10.641   5.396  66.353  1.00  0.00    -0.322 A  
ENDBRANCH   7   8
ENDBRANCH   3   7
ENDBRANCH   2   3
BRANCH   2  14
HETATM   14  C   UNL     1     -12.170   6.773  71.055  1.00  0.00    -0.352 C  
BRANCH  14  15
HETATM   15  O   UNL     1     -12.349   7.755  72.084  1.00  0.00    -0.301 OA 
BRANCH  15  16
HETATM   16  C   UNL     1     -12.382   9.061  71.677  1.00  0.00    -0.347 A  
HETATM   17  C   UNL     1     -11.437  10.685  70.144  1.00  0.00    -0.411 A  
HETATM   18  C   UNL     1     -11.510   9.378  70.632  1.00  0.00    -0.344 A  
HETATM   19  C   UNL     1     -13.146  11.358  71.703  1.00  0.00    -0.498 A  
HETATM   20  C   UNL     1     -12.250  11.676  70.685  1.00  0.00    -0.461 A  
HETATM   21  C   UNL     1     -13.215  10.053  72.197  1.00  0.00    -0.489 A  
ENDBRANCH  15  16
ENDBRANCH  14  15
ENDBRANCH   2  14
TORSDOF 7
ENDMDL
MODEL      179
REMARK 921   NORMALIZED FREE ENERGY PREDICTED BY IDOCK:   -3.87 KCAL/MOL
REMARK 922        TOTAL FREE ENERGY PREDICTED BY IDOCK:   -6.55 KCAL/MOL
REMARK 923 INTER-LIGAND FREE ENERGY PREDICTED BY IDOCK:   -5.92 KCAL/MOL
REMARK 924 INTRA-LIGAND FREE ENERGY PREDICTED BY IDOCK:   -0.62 KCAL/MOL
REMARK 927      BINDING AFFINITY PREDICTED BY RF-SCORE:    0.00 PKD
ROOT
HETATM    1  C   UNL     1      -7.693  15.236  66.994  1.00  0.00    -0.192 C  
HETATM    2  C   UNL     1      -8.856  14.444  67.624  1.00  0.00    -0.193 C  
ENDROOT
BRANCH   2   3
HETATM    3  N   UNL     1      -9.781  15.262  68.480  1.00  0.00    -0.205 NA 
BRANCH   3   4
HETATM    4  C   UNL     1      -9.343  16.679  68.580  1.00  0.00    -0.236 C  
HETATM    5 CL   UNL     1      -9.676  19.379  68.425  1.00  0.00    -0.450 Cl 
HETATM    6  C   UNL     1     -10.375  17.750  68.192  1.00  0.00    -0.391 C  
ENDBRANCH   3   4
BRANCH   3   7
HETATM    7  C   UNL     1     -11.186  15.182  68.025  1.00  0.00    -0.323 C  
BRANCH   7   8
HETATM    8  C   UNL     1     -11.429  14.443  66.724  1.00  0.00    -0.381 A  
HETATM    9  C   UNL     1     -11.880  13.115  66.742  1.00  0.00    -0.444 A  
HETATM   10  C   UNL     1     -12.022  12.388  65.558  1.00  0.00    -0.453 A  
HETATM   11  C   UNL     1     -11.139  15.037  65.489  1.00  0.00    -0.358 A  
HETATM   12  C   UNL     1     -11.714  12.983  64.337  1.00  0.00    -0.426 A  
HETATM   13  C   UNL     1     -11.278  14.308  64.301  1.00  0.00    -0.149 A  
ENDBRANCH   7   8
ENDBRANCH   3   7
ENDBRANCH   2   3
BRANCH   2  14
HETATM   14  C   UNL     1      -8.296  13.196  68.364  1.00  0.00    -0.122 C  
BRANCH  14  15
HETATM   15  O   UNL     1      -8.890  12.010  67.820  1.00  0.00    -0.152 OA 
BRANCH  15  16
HETATM   16  C   UNL     1      -9.267  11.053  68.722  1.00  0.00    -0.162 A  
HETATM   17  C   UNL     1     -11.154   9.977  69.800  1.00  0.00    -0.319 A  
HETATM   18  C   UNL     1     -10.646  10.906  68.890  1.00  0.00    -0.241 A  
HETATM   19  C   UNL     1      -8.909   9.290  70.344  1.00  0.00    -0.271 A  
HETATM   20  C   UNL     1     -10.284   9.174  70.532  1.00  0.00    -0.288 A  
HETATM   21  C   UNL     1      -8.400  10.225  69.439  1.00  0.00    -0.169 A  
ENDBRANCH  15  16
ENDBRANCH  14  15
ENDBRANCH   2  14
TORSDOF 7
ENDMDL
MODEL      180
REMARK 921   NORMALIZED FREE ENERGY PREDICTED BY IDOCK:   -3.85 KCAL/MOL
REMARK 922        TOTAL FREE ENERGY PREDICTED BY IDOCK:   -6.52 KCAL/MOL
REMARK 923 INTER-LIGAND FREE ENERGY PREDICTED BY IDOCK:   -5.85 KCAL/MOL
REMARK 924 INTRA-LIGAND FREE ENERGY PREDICTED BY IDOCK:   -0.67 KCAL/MOL
REMARK 927      BINDING AFFINITY PREDICTED BY RF-SCORE:    0.00 PKD
ROOT
HETATM    1  C   UNL     1      -9.809  10.993  64.055  1.00  0.00    -0.365 C  
HETATM    2  C   UNL     1     -10.160  10.317  65.395  1.00  0.00    -0.284 C  
ENDROOT
BRANCH   2   3
HETATM    3  N   UNL     1     -10.183  11.242  66.578  1.00  0.00    -0.220 NA 
BRANCH   3   4
HETATM    4  C   UNL     1      -9.165  12.320  66.464  1.00  0.00    -0.219 C  
HETATM    5 CL   UNL     1      -7.149  13.912  67.373  1.00  0.00    -0.162 Cl 
HETATM    6  C   UNL     1      -8.344  12.629  67.726  1.00  0.00    -0.172 C  
ENDBRANCH   3   4
BRANCH   3   7
HETATM    7  C   UNL     1     -11.525  11.816  66.817  1.00  0.00    -0.281 C  
BRANCH   7   8
HETATM    8  C   UNL     1     -11.733  12.500  68.154  1.00  0.00    -0.400 A  
HETATM    9  C   UNL     1     -11.748  11.746  69.336  1.00  0.00    -0.405 A  
HETATM   10  C   UNL     1     -12.029  12.344  70.567  1.00  0.00    -0.284 A  
HETATM   11  C   UNL     1     -11.988  13.875  68.231  1.00  0.00    -0.392 A  
HETATM   12  C   UNL     1     -12.297  13.708  70.630  1.00  0.00    -0.440 A  
HETATM   13  C   UNL     1     -12.271  14.475  69.465  1.00  0.00    -0.306 A  
ENDBRANCH   7   8
ENDBRANCH   3   7
ENDBRANCH   2   3
BRANCH   2  14
HETATM   14  C   UNL     1      -9.239   9.083  65.612  1.00  0.00    -0.225 C  
BRANCH  14  15
HETATM   15  O   UNL     1      -8.894   8.981  67.000  1.00  0.00    -0.118 OA 
BRANCH  15  16
HETATM   16  C   UNL     1      -9.565   8.031  67.722  1.00  0.00    -0.151 A  
HETATM   17  C   UNL     1     -11.091   6.151  67.591  1.00  0.00    -0.311 A  
HETATM   18  C   UNL     1     -10.342   7.151  66.966  1.00  0.00    -0.368 A  
HETATM   19  C   UNL     1     -10.248   6.867  69.733  1.00  0.00    -0.210 A  
HETATM   20  C   UNL     1     -11.049   6.015  68.976  1.00  0.00    -0.377 A  
HETATM   21  C   UNL     1      -9.505   7.872  69.108  1.00  0.00    -0.155 A  
ENDBRANCH  15  16
ENDBRANCH  14  15
ENDBRANCH   2  14
TORSDOF 7
ENDMDL
MODEL      181
REMARK 921   NORMALIZED FREE ENERGY PREDICTED BY IDOCK:   -3.84 KCAL/MOL
REMARK 922        TOTAL FREE ENERGY PREDICTED BY IDOCK:   -6.51 KCAL/MOL
REMARK 923 INTER-LIGAND FREE ENERGY PREDICTED BY IDOCK:   -5.05 KCAL/MOL
REMARK 924 INTRA-LIGAND FREE ENERGY PREDICTED BY IDOCK:   -1.47 KCAL/MOL
REMARK 927      BINDING AFFINITY PREDICTED BY RF-SCORE:    0.00 PKD
ROOT
HETATM    1  C   UNL     1     -10.507   5.548  66.360  1.00  0.00    -0.294 C  
HETATM    2  C   UNL     1     -10.746   6.645  67.418  1.00  0.00    -0.339 C  
ENDROOT
BRANCH   2   3
HETATM    3  N   UNL     1      -9.753   7.772  67.387  1.00  0.00    -0.153 NA 
BRANCH   3   4
HETATM    4  C   UNL     1      -8.441   7.346  66.834  1.00  0.00    -0.123 C  
HETATM    5 CL   UNL     1      -6.317   7.495  65.133  1.00  0.00    -0.038 Cl 
HETATM    6  C   UNL     1      -7.921   8.122  65.614  1.00  0.00    -0.108 C  
ENDBRANCH   3   4
BRANCH   3   7
HETATM    7  C   UNL     1     -10.266   8.954  66.661  1.00  0.00    -0.268 C  
BRANCH   7   8
HETATM    8  C   UNL     1     -10.449  10.216  67.479  1.00  0.00    -0.304 A  
HETATM    9  C   UNL     1     -11.735  10.721  67.717  1.00  0.00     0.021 A  
HETATM   10  C   UNL     1     -11.920  11.931  68.391  1.00  0.00    -0.246 A  
HETATM   11  C   UNL     1      -9.346  10.942  67.948  1.00  0.00    -0.159 A  
HETATM   12  C   UNL     1     -10.816  12.652  68.837  1.00  0.00    -0.238 A  
HETATM   13  C   UNL     1      -9.530  12.156  68.621  1.00  0.00    -0.052 A  
ENDBRANCH   7   8
ENDBRANCH   3   7
ENDBRANCH   2   3
BRANCH   2  14
HETATM   14  C   UNL     1     -10.875   5.993  68.823  1.00  0.00    -0.322 C  
BRANCH  14  15
HETATM   15  O   UNL     1     -10.230   6.824  69.798  1.00  0.00    -0.180 OA 
BRANCH  15  16
HETATM   16  C   UNL     1     -11.048   7.613  70.559  1.00  0.00    -0.255 A  
HETATM   17  C   UNL     1     -13.038   7.650  71.945  1.00  0.00    -0.292 A  
HETATM   18  C   UNL     1     -12.120   6.948  71.161  1.00  0.00    -0.428 A  
HETATM   19  C   UNL     1     -11.791   9.679  71.580  1.00  0.00    -0.483 A  
HETATM   20  C   UNL     1     -12.877   9.018  72.148  1.00  0.00    -0.478 A  
HETATM   21  C   UNL     1     -10.876   8.979  70.789  1.00  0.00    -0.310 A  
ENDBRANCH  15  16
ENDBRANCH  14  15
ENDBRANCH   2  14
TORSDOF 7
ENDMDL
MODEL      182
REMARK 921   NORMALIZED FREE ENERGY PREDICTED BY IDOCK:   -3.84 KCAL/MOL
REMARK 922        TOTAL FREE ENERGY PREDICTED BY IDOCK:   -6.50 KCAL/MOL
REMARK 923 INTER-LIGAND FREE ENERGY PREDICTED BY IDOCK:   -5.97 KCAL/MOL
REMARK 924 INTRA-LIGAND FREE ENERGY PREDICTED BY IDOCK:   -0.54 KCAL/MOL
REMARK 927      BINDING AFFINITY PREDICTED BY RF-SCORE:    0.00 PKD
ROOT
HETATM    1  C   UNL     1      -9.234   9.564  70.239  1.00  0.00    -0.303 C  
HETATM    2  C   UNL     1      -9.739   8.302  69.511  1.00  0.00    -0.174 C  
ENDROOT
BRANCH   2   3
HETATM    3  N   UNL     1      -9.897   8.456  68.025  1.00  0.00    -0.163 NA 
BRANCH   3   4
HETATM    4  C   UNL     1     -10.579   7.286  67.411  1.00  0.00    -0.300 C  
HETATM    5 CL   UNL     1     -10.678   4.843  66.207  1.00  0.00    -0.312 Cl 
HETATM    6  C   UNL     1      -9.675   6.175  66.854  1.00  0.00    -0.149 C  
ENDBRANCH   3   4
BRANCH   3   7
HETATM    7  C   UNL     1     -10.588   9.712  67.660  1.00  0.00    -0.275 C  
BRANCH   7   8
HETATM    8  C   UNL     1     -10.289  10.264  66.281  1.00  0.00    -0.256 A  
HETATM    9  C   UNL     1     -11.032  11.342  65.777  1.00  0.00    -0.211 A  
HETATM   10  C   UNL     1     -10.834  11.806  64.474  1.00  0.00    -0.377 A  
HETATM   11  C   UNL     1      -9.325   9.670  65.456  1.00  0.00    -0.309 A  
HETATM   12  C   UNL     1      -9.885  11.197  63.658  1.00  0.00    -0.387 A  
HETATM   13  C   UNL     1      -9.126  10.134  64.149  1.00  0.00    -0.287 A  
ENDBRANCH   7   8
ENDBRANCH   3   7
ENDBRANCH   2   3
BRANCH   2  14
HETATM   14  C   UNL     1     -11.030   7.783  70.204  1.00  0.00    -0.241 C  
BRANCH  14  15
HETATM   15  O   UNL     1     -11.043   8.209  71.573  1.00  0.00    -0.240 OA 
BRANCH  15  16
HETATM   16  C   UNL     1     -10.738   7.256  72.507  1.00  0.00    -0.262 A  
HETATM   17  C   UNL     1     -11.221   5.008  73.277  1.00  0.00    -0.411 A  
HETATM   18  C   UNL     1     -11.430   6.050  72.371  1.00  0.00    -0.357 A  
HETATM   19  C   UNL     1      -9.586   6.348  74.434  1.00  0.00    -0.279 A  
HETATM   20  C   UNL     1     -10.305   5.161  74.314  1.00  0.00    -0.314 A  
HETATM   21  C   UNL     1      -9.800   7.394  73.532  1.00  0.00    -0.363 A  
ENDBRANCH  15  16
ENDBRANCH  14  15
ENDBRANCH   2  14
TORSDOF 7
ENDMDL
MODEL      183
REMARK 921   NORMALIZED FREE ENERGY PREDICTED BY IDOCK:   -3.83 KCAL/MOL
REMARK 922        TOTAL FREE ENERGY PREDICTED BY IDOCK:   -6.49 KCAL/MOL
REMARK 923 INTER-LIGAND FREE ENERGY PREDICTED BY IDOCK:   -5.24 KCAL/MOL
REMARK 924 INTRA-LIGAND FREE ENERGY PREDICTED BY IDOCK:   -1.24 KCAL/MOL
REMARK 927      BINDING AFFINITY PREDICTED BY RF-SCORE:    0.00 PKD
ROOT
HETATM    1  C   UNL     1     -11.038   6.523  73.029  1.00  0.00    -0.230 C  
HETATM    2  C   UNL     1     -11.341   6.243  71.543  1.00  0.00    -0.296 C  
ENDROOT
BRANCH   2   3
HETATM    3  N   UNL     1     -10.131   5.973  70.696  1.00  0.00    -0.187 NA 
BRANCH   3   4
HETATM    4  C   UNL     1      -9.957   4.524  70.416  1.00  0.00    -0.213 C  
HETATM    5 CL   UNL     1      -9.420   2.363  68.844  1.00  0.00    -0.209 Cl 
HETATM    6  C   UNL     1      -9.640   4.134  68.964  1.00  0.00    -0.162 C  
ENDBRANCH   3   4
BRANCH   3   7
HETATM    7  C   UNL     1     -10.141   6.749  69.437  1.00  0.00    -0.171 C  
BRANCH   7   8
HETATM    8  C   UNL     1      -9.234   7.963  69.390  1.00  0.00    -0.145 A  
HETATM    9  C   UNL     1      -9.134   8.723  68.216  1.00  0.00    -0.141 A  
HETATM   10  C   UNL     1      -8.236   9.789  68.123  1.00  0.00    -0.109 A  
HETATM   11  C   UNL     1      -8.426   8.305  70.482  1.00  0.00    -0.129 A  
HETATM   12  C   UNL     1      -7.425  10.109  69.209  1.00  0.00    -0.111 A  
HETATM   13  C   UNL     1      -7.523   9.372  70.389  1.00  0.00    -0.141 A  
ENDBRANCH   7   8
ENDBRANCH   3   7
ENDBRANCH   2   3
BRANCH   2  14
HETATM   14  C   UNL     1     -12.236   7.380  70.972  1.00  0.00    -0.282 C  
BRANCH  14  15
HETATM   15  O   UNL     1     -12.492   8.349  71.998  1.00  0.00    -0.321 OA 
BRANCH  15  16
HETATM   16  C   UNL     1     -12.500   9.660  71.604  1.00  0.00    -0.407 A  
HETATM   17  C   UNL     1     -11.604  11.259  70.017  1.00  0.00    -0.404 A  
HETATM   18  C   UNL     1     -11.697   9.952  70.499  1.00  0.00    -0.373 A  
HETATM   19  C   UNL     1     -13.160  11.987  71.707  1.00  0.00    -0.460 A  
HETATM   20  C   UNL     1     -12.331  12.278  70.626  1.00  0.00    -0.375 A  
HETATM   21  C   UNL     1     -13.248  10.680  72.194  1.00  0.00    -0.379 A  
ENDBRANCH  15  16
ENDBRANCH  14  15
ENDBRANCH   2  14
TORSDOF 7
ENDMDL
MODEL      184
REMARK 921   NORMALIZED FREE ENERGY PREDICTED BY IDOCK:   -3.80 KCAL/MOL
REMARK 922        TOTAL FREE ENERGY PREDICTED BY IDOCK:   -6.45 KCAL/MOL
REMARK 923 INTER-LIGAND FREE ENERGY PREDICTED BY IDOCK:   -5.59 KCAL/MOL
REMARK 924 INTRA-LIGAND FREE ENERGY PREDICTED BY IDOCK:   -0.86 KCAL/MOL
REMARK 927      BINDING AFFINITY PREDICTED BY RF-SCORE:    0.00 PKD
ROOT
HETATM    1  C   UNL     1      -8.860  10.832  69.129  1.00  0.00    -0.098 C  
HETATM    2  C   UNL     1     -10.370  10.601  69.342  1.00  0.00    -0.208 C  
ENDROOT
BRANCH   2   3
HETATM    3  N   UNL     1     -10.707   9.446  70.240  1.00  0.00    -0.234 NA 
BRANCH   3   4
HETATM    4  C   UNL     1     -12.038   9.608  70.883  1.00  0.00    -0.300 C  
HETATM    5 CL   UNL     1     -14.219   8.764  72.282  1.00  0.00    -0.518 Cl 
HETATM    6  C   UNL     1     -12.651   8.354  71.526  1.00  0.00    -0.308 C  
ENDBRANCH   3   4
BRANCH   3   7
HETATM    7  C   UNL     1     -10.621   8.146  69.541  1.00  0.00    -0.213 C  
BRANCH   7   8
HETATM    8  C   UNL     1      -9.458   7.253  69.927  1.00  0.00    -0.157 A  
HETATM    9  C   UNL     1      -8.378   7.083  69.049  1.00  0.00    -0.126 A  
HETATM   10  C   UNL     1      -7.341   6.195  69.346  1.00  0.00    -0.091 A  
HETATM   11  C   UNL     1      -9.469   6.527  71.125  1.00  0.00    -0.173 A  
HETATM   12  C   UNL     1      -7.372   5.465  70.531  1.00  0.00    -0.071 A  
HETATM   13  C   UNL     1      -8.432   5.634  71.423  1.00  0.00    -0.128 A  
ENDBRANCH   7   8
ENDBRANCH   3   7
ENDBRANCH   2   3
BRANCH   2  14
HETATM   14  C   UNL     1     -11.084  10.521  67.963  1.00  0.00    -0.300 C  
BRANCH  14  15
HETATM   15  O   UNL     1     -12.184  11.440  67.939  1.00  0.00    -0.592 OA 
BRANCH  15  16
HETATM   16  C   UNL     1     -11.862  12.770  67.940  1.00  0.00    -0.339 A  
HETATM   17  C   UNL     1     -10.989  14.601  66.609  1.00  0.00    -0.323 A  
HETATM   18  C   UNL     1     -11.372  13.263  66.728  1.00  0.00    -0.359 A  
HETATM   19  C   UNL     1     -11.631  14.981  68.901  1.00  0.00    -0.349 A  
HETATM   20  C   UNL     1     -11.111  15.458  67.700  1.00  0.00    -0.316 A  
HETATM   21  C   UNL     1     -12.009  13.641  69.021  1.00  0.00    -0.392 A  
ENDBRANCH  15  16
ENDBRANCH  14  15
ENDBRANCH   2  14
TORSDOF 7
ENDMDL
MODEL      185
REMARK 921   NORMALIZED FREE ENERGY PREDICTED BY IDOCK:   -3.78 KCAL/MOL
REMARK 922        TOTAL FREE ENERGY PREDICTED BY IDOCK:   -6.42 KCAL/MOL
REMARK 923 INTER-LIGAND FREE ENERGY PREDICTED BY IDOCK:   -5.66 KCAL/MOL
REMARK 924 INTRA-LIGAND FREE ENERGY PREDICTED BY IDOCK:   -0.76 KCAL/MOL
REMARK 927      BINDING AFFINITY PREDICTED BY RF-SCORE:    0.00 PKD
ROOT
HETATM    1  C   UNL     1     -11.383  10.974  70.344  1.00  0.00    -0.222 C  
HETATM    2  C   UNL     1     -11.013   9.733  69.506  1.00  0.00    -0.227 C  
ENDROOT
BRANCH   2   3
HETATM    3  N   UNL     1      -9.840   8.952  70.026  1.00  0.00    -0.169 NA 
BRANCH   3   4
HETATM    4  C   UNL     1      -8.608   9.197  69.230  1.00  0.00    -0.137 C  
HETATM    5 CL   UNL     1      -6.170  10.312  68.742  1.00  0.00    -0.047 Cl 
HETATM    6  C   UNL     1      -7.595  10.193  69.816  1.00  0.00    -0.170 C  
ENDBRANCH   3   4
BRANCH   3   7
HETATM    7  C   UNL     1      -9.591   9.201  71.462  1.00  0.00    -0.208 C  
BRANCH   7   8
HETATM    8  C   UNL     1      -9.907   8.057  72.405  1.00  0.00    -0.313 A  
HETATM    9  C   UNL     1      -9.034   7.751  73.459  1.00  0.00    -0.327 A  
HETATM   10  C   UNL     1      -9.261   6.645  74.283  1.00  0.00    -0.228 A  
HETATM   11  C   UNL     1     -11.026   7.239  72.202  1.00  0.00    -0.274 A  
HETATM   12  C   UNL     1     -10.367   5.830  74.061  1.00  0.00    -0.295 A  
HETATM   13  C   UNL     1     -11.253   6.129  73.025  1.00  0.00    -0.206 A  
ENDBRANCH   7   8
ENDBRANCH   3   7
ENDBRANCH   2   3
BRANCH   2  14
HETATM   14  C   UNL     1     -10.851  10.142  68.014  1.00  0.00    -0.270 C  
BRANCH  14  15
HETATM   15  O   UNL     1     -11.592  11.344  67.764  1.00  0.00    -0.445 OA 
BRANCH  15  16
HETATM   16  C   UNL     1     -11.308  12.000  66.597  1.00  0.00    -0.340 A  
HETATM   17  C   UNL     1     -10.059  11.901  64.521  1.00  0.00    -0.302 A  
HETATM   18  C   UNL     1     -10.441  11.325  65.734  1.00  0.00    -0.310 A  
HETATM   19  C   UNL     1     -11.450  13.811  64.996  1.00  0.00    -0.340 A  
HETATM   20  C   UNL     1     -10.558  13.149  64.156  1.00  0.00    -0.384 A  
HETATM   21  C   UNL     1     -11.827  13.238  66.213  1.00  0.00    -0.444 A  
ENDBRANCH  15  16
ENDBRANCH  14  15
ENDBRANCH   2  14
TORSDOF 7
ENDMDL
MODEL      186
REMARK 921   NORMALIZED FREE ENERGY PREDICTED BY IDOCK:   -3.77 KCAL/MOL
REMARK 922        TOTAL FREE ENERGY PREDICTED BY IDOCK:   -6.41 KCAL/MOL
REMARK 923 INTER-LIGAND FREE ENERGY PREDICTED BY IDOCK:   -4.92 KCAL/MOL
REMARK 924 INTRA-LIGAND FREE ENERGY PREDICTED BY IDOCK:   -1.49 KCAL/MOL
REMARK 927      BINDING AFFINITY PREDICTED BY RF-SCORE:    0.00 PKD
ROOT
HETATM    1  C   UNL     1      -7.765  11.308  68.772  1.00  0.00    -0.138 C  
HETATM    2  C   UNL     1      -8.887  11.684  67.783  1.00  0.00    -0.159 C  
ENDROOT
BRANCH   2   3
HETATM    3  N   UNL     1      -9.671  10.519  67.251  1.00  0.00    -0.166 NA 
BRANCH   3   4
HETATM    4  C   UNL     1      -9.311   9.246  67.930  1.00  0.00    -0.129 C  
HETATM    5 CL   UNL     1      -9.836   6.837  69.091  1.00  0.00    -0.156 Cl 
HETATM    6  C   UNL     1     -10.474   8.329  68.338  1.00  0.00    -0.162 C  
ENDBRANCH   3   4
BRANCH   3   7
HETATM    7  C   UNL     1     -11.131  10.748  67.314  1.00  0.00    -0.270 C  
BRANCH   7   8
HETATM    8  C   UNL     1     -11.587  11.952  68.113  1.00  0.00    -0.400 A  
HETATM    9  C   UNL     1     -11.806  13.181  67.473  1.00  0.00    -0.409 A  
HETATM   10  C   UNL     1     -12.138  14.324  68.205  1.00  0.00    -0.275 A  
HETATM   11  C   UNL     1     -11.725  11.887  69.506  1.00  0.00    -0.410 A  
HETATM   12  C   UNL     1     -12.255  14.251  69.590  1.00  0.00    -0.371 A  
HETATM   13  C   UNL     1     -12.055  13.033  70.240  1.00  0.00    -0.388 A  
ENDBRANCH   7   8
ENDBRANCH   3   7
ENDBRANCH   2   3
BRANCH   2  14
HETATM   14  C   UNL     1      -8.306  12.585  66.656  1.00  0.00     0.047 C  
BRANCH  14  15
HETATM   15  O   UNL     1      -7.555  13.658  67.239  1.00  0.00    -0.152 OA 
BRANCH  15  16
HETATM   16  C   UNL     1      -8.259  14.789  67.554  1.00  0.00    -0.185 A  
HETATM   17  C   UNL     1      -9.192  16.105  69.364  1.00  0.00    -0.170 A  
HETATM   18  C   UNL     1      -8.468  14.996  68.919  1.00  0.00    -0.192 A  
HETATM   19  C   UNL     1      -9.457  16.840  67.085  1.00  0.00    -0.237 A  
HETATM   20  C   UNL     1      -9.693  17.023  68.445  1.00  0.00    -0.279 A  
HETATM   21  C   UNL     1      -8.739  15.727  66.638  1.00  0.00    -0.323 A  
ENDBRANCH  15  16
ENDBRANCH  14  15
ENDBRANCH   2  14
TORSDOF 7
ENDMDL
MODEL      187
REMARK 921   NORMALIZED FREE ENERGY PREDICTED BY IDOCK:   -3.77 KCAL/MOL
REMARK 922        TOTAL FREE ENERGY PREDICTED BY IDOCK:   -6.41 KCAL/MOL
REMARK 923 INTER-LIGAND FREE ENERGY PREDICTED BY IDOCK:   -5.52 KCAL/MOL
REMARK 924 INTRA-LIGAND FREE ENERGY PREDICTED BY IDOCK:   -0.89 KCAL/MOL
REMARK 927      BINDING AFFINITY PREDICTED BY RF-SCORE:    0.00 PKD
ROOT
HETATM    1  C   UNL     1     -11.875  11.806  68.629  1.00  0.00    -0.369 C  
HETATM    2  C   UNL     1     -10.334  11.795  68.568  1.00  0.00    -0.217 C  
ENDROOT
BRANCH   2   3
HETATM    3  N   UNL     1      -9.748  12.526  67.394  1.00  0.00    -0.192 NA 
BRANCH   3   4
HETATM    4  C   UNL     1      -9.278  11.595  66.334  1.00  0.00    -0.212 C  
HETATM    5 CL   UNL     1      -9.434  10.310  63.936  1.00  0.00    -0.336 Cl 
HETATM    6  C   UNL     1     -10.193  11.425  65.111  1.00  0.00    -0.277 C  
ENDBRANCH   3   4
BRANCH   3   7
HETATM    7  C   UNL     1     -10.679  13.528  66.833  1.00  0.00    -0.274 C  
BRANCH   7   8
HETATM    8  C   UNL     1     -10.277  14.980  66.992  1.00  0.00    -0.257 A  
HETATM    9  C   UNL     1     -10.912  15.786  67.948  1.00  0.00    -0.324 A  
HETATM   10  C   UNL     1     -10.621  17.149  68.048  1.00  0.00    -0.374 A  
HETATM   11  C   UNL     1      -9.325  15.565  66.148  1.00  0.00    -0.380 A  
HETATM   12  C   UNL     1      -9.685  17.723  67.192  1.00  0.00    -0.288 A  
HETATM   13  C   UNL     1      -9.033  16.931  66.246  1.00  0.00    -0.305 A  
ENDBRANCH   7   8
ENDBRANCH   3   7
ENDBRANCH   2   3
BRANCH   2  14
HETATM   14  C   UNL     1      -9.819  10.333  68.688  1.00  0.00    -0.173 C  
BRANCH  14  15
HETATM   15  O   UNL     1     -10.930   9.428  68.639  1.00  0.00    -0.150 OA 
BRANCH  15  16
HETATM   16  C   UNL     1     -10.633   8.117  68.387  1.00  0.00    -0.099 A  
HETATM   17  C   UNL     1     -10.334   6.449  66.651  1.00  0.00    -0.223 A  
HETATM   18  C   UNL     1     -10.604   7.765  67.035  1.00  0.00    -0.396 A  
HETATM   19  C   UNL     1     -10.064   5.835  68.965  1.00  0.00    -0.249 A  
HETATM   20  C   UNL     1     -10.072   5.483  67.618  1.00  0.00    -0.217 A  
HETATM   21  C   UNL     1     -10.341   7.149  69.350  1.00  0.00    -0.206 A  
ENDBRANCH  15  16
ENDBRANCH  14  15
ENDBRANCH   2  14
TORSDOF 7
ENDMDL
MODEL      188
REMARK 921   NORMALIZED FREE ENERGY PREDICTED BY IDOCK:   -3.77 KCAL/MOL
REMARK 922        TOTAL FREE ENERGY PREDICTED BY IDOCK:   -6.40 KCAL/MOL
REMARK 923 INTER-LIGAND FREE ENERGY PREDICTED BY IDOCK:   -5.75 KCAL/MOL
REMARK 924 INTRA-LIGAND FREE ENERGY PREDICTED BY IDOCK:   -0.66 KCAL/MOL
REMARK 927      BINDING AFFINITY PREDICTED BY RF-SCORE:    0.00 PKD
ROOT
HETATM    1  C   UNL     1      -8.036  12.970  68.366  1.00  0.00    -0.135 C  
HETATM    2  C   UNL     1      -9.206  13.759  67.744  1.00  0.00    -0.206 C  
ENDROOT
BRANCH   2   3
HETATM    3  N   UNL     1     -10.152  12.933  66.921  1.00  0.00    -0.237 NA 
BRANCH   3   4
HETATM    4  C   UNL     1     -11.180  13.768  66.246  1.00  0.00    -0.306 C  
HETATM    5 CL   UNL     1     -12.481  14.814  64.092  1.00  0.00    -0.345 Cl 
HETATM    6  C   UNL     1     -11.144  13.801  64.710  1.00  0.00    -0.377 C  
ENDBRANCH   3   4
BRANCH   3   7
HETATM    7  C   UNL     1      -9.447  12.081  65.939  1.00  0.00    -0.197 C  
BRANCH   7   8
HETATM    8  C   UNL     1      -9.576  10.584  66.137  1.00  0.00    -0.237 A  
HETATM    9  C   UNL     1     -10.437  10.075  67.120  1.00  0.00    -0.305 A  
HETATM   10  C   UNL     1     -10.502   8.703  67.379  1.00  0.00    -0.351 A  
HETATM   11  C   UNL     1      -8.790   9.686  65.403  1.00  0.00    -0.204 A  
HETATM   12  C   UNL     1      -9.704   7.822  66.655  1.00  0.00    -0.292 A  
HETATM   13  C   UNL     1      -8.852   8.311  65.664  1.00  0.00    -0.172 A  
ENDBRANCH   7   8
ENDBRANCH   3   7
ENDBRANCH   2   3
BRANCH   2  14
HETATM   14  C   UNL     1      -8.652  14.991  66.973  1.00  0.00    -0.239 C  
BRANCH  14  15
HETATM   15  O   UNL     1      -9.263  16.186  67.478  1.00  0.00    -0.206 OA 
BRANCH  15  16
HETATM   16  C   UNL     1      -8.788  17.367  66.976  1.00  0.00    -0.234 A  
HETATM   17  C   UNL     1      -6.892  18.457  65.928  1.00  0.00    -0.317 A  
HETATM   18  C   UNL     1      -7.495  17.311  66.449  1.00  0.00    -0.336 A  
HETATM   19  C   UNL     1      -8.889  19.718  66.406  1.00  0.00    -0.428 A  
HETATM   20  C   UNL     1      -7.587  19.663  65.914  1.00  0.00    -0.320 A  
HETATM   21  C   UNL     1      -9.490  18.573  66.934  1.00  0.00    -0.300 A  
ENDBRANCH  15  16
ENDBRANCH  14  15
ENDBRANCH   2  14
TORSDOF 7
ENDMDL
MODEL      189
REMARK 921   NORMALIZED FREE ENERGY PREDICTED BY IDOCK:   -3.74 KCAL/MOL
REMARK 922        TOTAL FREE ENERGY PREDICTED BY IDOCK:   -6.36 KCAL/MOL
REMARK 923 INTER-LIGAND FREE ENERGY PREDICTED BY IDOCK:   -5.62 KCAL/MOL
REMARK 924 INTRA-LIGAND FREE ENERGY PREDICTED BY IDOCK:   -0.74 KCAL/MOL
REMARK 927      BINDING AFFINITY PREDICTED BY RF-SCORE:    0.00 PKD
ROOT
HETATM    1  C   UNL     1     -11.087  10.681  69.944  1.00  0.00    -0.364 C  
HETATM    2  C   UNL     1     -10.025  10.659  68.826  1.00  0.00    -0.193 C  
ENDROOT
BRANCH   2   3
HETATM    3  N   UNL     1     -10.062  11.843  67.902  1.00  0.00    -0.187 NA 
BRANCH   3   4
HETATM    4  C   UNL     1      -9.281  12.991  68.433  1.00  0.00    -0.136 C  
HETATM    5 CL   UNL     1      -8.906  15.588  69.170  1.00  0.00    -0.236 Cl 
HETATM    6  C   UNL     1      -9.988  14.355  68.456  1.00  0.00    -0.237 C  
ENDBRANCH   3   4
BRANCH   3   7
HETATM    7  C   UNL     1      -9.621  11.501  66.533  1.00  0.00    -0.205 C  
BRANCH   7   8
HETATM    8  C   UNL     1     -10.537  11.935  65.406  1.00  0.00    -0.315 A  
HETATM    9  C   UNL     1     -11.626  12.779  65.668  1.00  0.00    -0.410 A  
HETATM   10  C   UNL     1     -12.534  13.116  64.661  1.00  0.00    -0.433 A  
HETATM   11  C   UNL     1     -10.364  11.448  64.104  1.00  0.00    -0.400 A  
HETATM   12  C   UNL     1     -12.362  12.612  63.375  1.00  0.00    -0.553 A  
HETATM   13  C   UNL     1     -11.275  11.783  63.094  1.00  0.00    -0.224 A  
ENDBRANCH   7   8
ENDBRANCH   3   7
ENDBRANCH   2   3
BRANCH   2  14
HETATM   14  C   UNL     1     -10.092   9.302  68.071  1.00  0.00    -0.193 C  
BRANCH  14  15
HETATM   15  O   UNL     1      -8.987   8.479  68.466  1.00  0.00    -0.139 OA 
BRANCH  15  16
HETATM   16  C   UNL     1      -9.294   7.358  69.189  1.00  0.00    -0.146 A  
HETATM   17  C   UNL     1     -11.096   5.946  69.989  1.00  0.00    -0.411 A  
HETATM   18  C   UNL     1     -10.655   7.053  69.260  1.00  0.00    -0.240 A  
HETATM   19  C   UNL     1      -8.812   5.406  70.538  1.00  0.00    -0.148 A  
HETATM   20  C   UNL     1     -10.173   5.126  70.634  1.00  0.00    -0.326 A  
HETATM   21  C   UNL     1      -8.371   6.517  69.815  1.00  0.00    -0.127 A  
ENDBRANCH  15  16
ENDBRANCH  14  15
ENDBRANCH   2  14
TORSDOF 7
ENDMDL
MODEL      190
REMARK 921   NORMALIZED FREE ENERGY PREDICTED BY IDOCK:   -3.72 KCAL/MOL
REMARK 922        TOTAL FREE ENERGY PREDICTED BY IDOCK:   -6.34 KCAL/MOL
REMARK 923 INTER-LIGAND FREE ENERGY PREDICTED BY IDOCK:   -5.84 KCAL/MOL
REMARK 924 INTRA-LIGAND FREE ENERGY PREDICTED BY IDOCK:   -0.50 KCAL/MOL
REMARK 927      BINDING AFFINITY PREDICTED BY RF-SCORE:    0.00 PKD
ROOT
HETATM    1  C   UNL     1     -11.117  15.704  65.175  1.00  0.00    -0.357 C  
HETATM    2  C   UNL     1     -10.447  14.666  66.098  1.00  0.00    -0.302 C  
ENDROOT
BRANCH   2   3
HETATM    3  N   UNL     1      -9.074  15.044  66.574  1.00  0.00    -0.279 NA 
BRANCH   3   4
HETATM    4  C   UNL     1      -8.752  16.465  66.281  1.00  0.00    -0.334 C  
HETATM    5 CL   UNL     1      -7.176  18.689  66.290  1.00  0.00    -0.264 Cl 
HETATM    6  C   UNL     1      -7.395  16.983  66.782  1.00  0.00    -0.230 C  
ENDBRANCH   3   4
BRANCH   3   7
HETATM    7  C   UNL     1      -8.876  14.751  68.010  1.00  0.00    -0.169 C  
BRANCH   7   8
HETATM    8  C   UNL     1     -10.111  14.821  68.885  1.00  0.00    -0.237 A  
HETATM    9  C   UNL     1     -10.953  13.706  69.006  1.00  0.00    -0.271 A  
HETATM   10  C   UNL     1     -12.144  13.779  69.733  1.00  0.00    -0.400 A  
HETATM   11  C   UNL     1     -10.478  16.011  69.527  1.00  0.00    -0.286 A  
HETATM   12  C   UNL     1     -12.507  14.972  70.352  1.00  0.00    -0.407 A  
HETATM   13  C   UNL     1     -11.673  16.086  70.254  1.00  0.00    -0.304 A  
ENDBRANCH   7   8
ENDBRANCH   3   7
ENDBRANCH   2   3
BRANCH   2  14
HETATM   14  C   UNL     1     -10.487  13.266  65.423  1.00  0.00    -0.297 C  
BRANCH  14  15
HETATM   15  O   UNL     1      -9.370  12.487  65.869  1.00  0.00    -0.164 OA 
BRANCH  15  16
HETATM   16  C   UNL     1      -9.592  11.146  66.030  1.00  0.00    -0.217 A  
HETATM   17  C   UNL     1     -10.694   9.468  67.390  1.00  0.00    -0.297 A  
HETATM   18  C   UNL     1     -10.411  10.806  67.109  1.00  0.00    -0.285 A  
HETATM   19  C   UNL     1      -9.384   8.796  65.482  1.00  0.00    -0.165 A  
HETATM   20  C   UNL     1     -10.173   8.462  66.580  1.00  0.00    -0.335 A  
HETATM   21  C   UNL     1      -9.095  10.135  65.204  1.00  0.00    -0.242 A  
ENDBRANCH  15  16
ENDBRANCH  14  15
ENDBRANCH   2  14
TORSDOF 7
ENDMDL
MODEL      191
REMARK 921   NORMALIZED FREE ENERGY PREDICTED BY IDOCK:   -3.67 KCAL/MOL
REMARK 922        TOTAL FREE ENERGY PREDICTED BY IDOCK:   -6.27 KCAL/MOL
REMARK 923 INTER-LIGAND FREE ENERGY PREDICTED BY IDOCK:   -5.60 KCAL/MOL
REMARK 924 INTRA-LIGAND FREE ENERGY PREDICTED BY IDOCK:   -0.67 KCAL/MOL
REMARK 927      BINDING AFFINITY PREDICTED BY RF-SCORE:    0.00 PKD
ROOT
HETATM    1  C   UNL     1     -10.356  17.002  69.409  1.00  0.00    -0.230 C  
HETATM    2  C   UNL     1     -11.028  15.950  68.503  1.00  0.00    -0.324 C  
ENDROOT
BRANCH   2   3
HETATM    3  N   UNL     1     -11.267  14.620  69.158  1.00  0.00    -0.257 NA 
BRANCH   3   4
HETATM    4  C   UNL     1     -11.817  14.764  70.532  1.00  0.00    -0.302 C  
HETATM    5 CL   UNL     1     -13.792  14.758  72.410  1.00  0.00    -0.547 Cl 
HETATM    6  C   UNL     1     -13.337  14.598  70.688  1.00  0.00    -0.134 C  
ENDBRANCH   3   4
BRANCH   3   7
HETATM    7  C   UNL     1     -12.130  13.739  68.341  1.00  0.00    -0.289 C  
BRANCH   7   8
HETATM    8  C   UNL     1     -11.429  12.623  67.592  1.00  0.00    -0.390 A  
HETATM    9  C   UNL     1     -11.416  12.616  66.189  1.00  0.00    -0.413 A  
HETATM   10  C   UNL     1     -10.856  11.551  65.480  1.00  0.00    -0.313 A  
HETATM   11  C   UNL     1     -10.849  11.545  68.273  1.00  0.00    -0.257 A  
HETATM   12  C   UNL     1     -10.298  10.477  66.169  1.00  0.00    -0.276 A  
HETATM   13  C   UNL     1     -10.289  10.476  67.564  1.00  0.00    -0.265 A  
ENDBRANCH   7   8
ENDBRANCH   3   7
ENDBRANCH   2   3
BRANCH   2  14
HETATM   14  C   UNL     1     -10.238  15.833  67.169  1.00  0.00    -0.279 C  
BRANCH  14  15
HETATM   15  O   UNL     1      -9.045  15.067  67.385  1.00  0.00    -0.177 OA 
BRANCH  15  16
HETATM   16  C   UNL     1      -7.880  15.777  67.495  1.00  0.00    -0.159 A  
HETATM   17  C   UNL     1      -6.473  17.453  66.450  1.00  0.00    -0.283 A  
HETATM   18  C   UNL     1      -7.640  16.685  66.461  1.00  0.00    -0.327 A  
HETATM   19  C   UNL     1      -5.801  16.452  68.536  1.00  0.00    -0.112 A  
HETATM   20  C   UNL     1      -5.550  17.330  67.485  1.00  0.00    -0.148 A  
HETATM   21  C   UNL     1      -6.964  15.678  68.545  1.00  0.00    -0.115 A  
ENDBRANCH  15  16
ENDBRANCH  14  15
ENDBRANCH   2  14
TORSDOF 7
ENDMDL
MODEL      192
REMARK 921   NORMALIZED FREE ENERGY PREDICTED BY IDOCK:   -3.67 KCAL/MOL
REMARK 922        TOTAL FREE ENERGY PREDICTED BY IDOCK:   -6.26 KCAL/MOL
REMARK 923 INTER-LIGAND FREE ENERGY PREDICTED BY IDOCK:   -5.59 KCAL/MOL
REMARK 924 INTRA-LIGAND FREE ENERGY PREDICTED BY IDOCK:   -0.67 KCAL/MOL
REMARK 927      BINDING AFFINITY PREDICTED BY RF-SCORE:    0.00 PKD
ROOT
HETATM    1  C   UNL     1      -8.329  12.769  67.751  1.00  0.00    -0.177 C  
HETATM    2  C   UNL     1      -9.700  12.839  67.047  1.00  0.00    -0.224 C  
ENDROOT
BRANCH   2   3
HETATM    3  N   UNL     1     -10.695  13.752  67.702  1.00  0.00    -0.248 NA 
BRANCH   3   4
HETATM    4  C   UNL     1     -11.671  14.307  66.727  1.00  0.00    -0.405 C  
HETATM    5 CL   UNL     1     -12.475  15.204  64.283  1.00  0.00    -0.290 Cl 
HETATM    6  C   UNL     1     -11.146  14.592  65.312  1.00  0.00    -0.353 C  
ENDBRANCH   3   4
BRANCH   3   7
HETATM    7  C   UNL     1     -11.398  13.103  68.830  1.00  0.00    -0.289 C  
BRANCH   7   8
HETATM    8  C   UNL     1     -11.672  13.974  70.040  1.00  0.00    -0.349 A  
HETATM    9  C   UNL     1     -12.669  13.612  70.957  1.00  0.00    -0.408 A  
HETATM   10  C   UNL     1     -12.998  14.447  72.028  1.00  0.00    -0.432 A  
HETATM   11  C   UNL     1     -10.994  15.185  70.228  1.00  0.00    -0.277 A  
HETATM   12  C   UNL     1     -12.330  15.657  72.195  1.00  0.00    -0.517 A  
HETATM   13  C   UNL     1     -11.325  16.024  71.300  1.00  0.00    -0.397 A  
ENDBRANCH   7   8
ENDBRANCH   3   7
ENDBRANCH   2   3
BRANCH   2  14
HETATM   14  C   UNL     1     -10.249  11.400  66.836  1.00  0.00    -0.219 C  
BRANCH  14  15
HETATM   15  O   UNL     1      -9.196  10.449  67.043  1.00  0.00    -0.146 OA 
BRANCH  15  16
HETATM   16  C   UNL     1      -8.657   9.888  65.917  1.00  0.00    -0.137 A  
HETATM   17  C   UNL     1      -6.665   8.893  64.956  1.00  0.00    -0.069 A  
HETATM   18  C   UNL     1      -7.332   9.462  66.043  1.00  0.00    -0.092 A  
HETATM   19  C   UNL     1      -8.658   9.119  63.621  1.00  0.00    -0.180 A  
HETATM   20  C   UNL     1      -7.326   8.728  63.742  1.00  0.00    -0.099 A  
HETATM   21  C   UNL     1      -9.324   9.695  64.706  1.00  0.00    -0.286 A  
ENDBRANCH  15  16
ENDBRANCH  14  15
ENDBRANCH   2  14
TORSDOF 7
ENDMDL
MODEL      193
REMARK 921   NORMALIZED FREE ENERGY PREDICTED BY IDOCK:   -3.66 KCAL/MOL
REMARK 922        TOTAL FREE ENERGY PREDICTED BY IDOCK:   -6.25 KCAL/MOL
REMARK 923 INTER-LIGAND FREE ENERGY PREDICTED BY IDOCK:   -5.94 KCAL/MOL
REMARK 924 INTRA-LIGAND FREE ENERGY PREDICTED BY IDOCK:   -0.31 KCAL/MOL
REMARK 927      BINDING AFFINITY PREDICTED BY RF-SCORE:    0.00 PKD
ROOT
HETATM    1  C   UNL     1     -11.335  10.443  69.242  1.00  0.00    -0.296 C  
HETATM    2  C   UNL     1     -10.691   9.632  68.099  1.00  0.00    -0.217 C  
ENDROOT
BRANCH   2   3
HETATM    3  N   UNL     1     -10.018   8.362  68.533  1.00  0.00    -0.182 NA 
BRANCH   3   4
HETATM    4  C   UNL     1      -9.238   8.543  69.786  1.00  0.00    -0.157 C  
HETATM    5 CL   UNL     1      -7.005   8.402  71.342  1.00  0.00    -0.065 Cl 
HETATM    6  C   UNL     1      -7.782   8.052  69.769  1.00  0.00    -0.101 C  
ENDBRANCH   3   4
BRANCH   3   7
HETATM    7  C   UNL     1     -10.970   7.238  68.671  1.00  0.00     0.014 C  
BRANCH   7   8
HETATM    8  C   UNL     1     -11.036   6.579  70.034  1.00  0.00    -0.422 A  
HETATM    9  C   UNL     1     -11.857   7.115  71.037  1.00  0.00    -0.373 A  
HETATM   10  C   UNL     1     -11.862   6.577  72.326  1.00  0.00    -0.299 A  
HETATM   11  C   UNL     1     -10.231   5.475  70.345  1.00  0.00    -0.321 A  
HETATM   12  C   UNL     1     -11.045   5.491  72.628  1.00  0.00    -0.334 A  
HETATM   13  C   UNL     1     -10.234   4.937  71.637  1.00  0.00    -0.267 A  
ENDBRANCH   7   8
ENDBRANCH   3   7
ENDBRANCH   2   3
BRANCH   2  14
HETATM   14  C   UNL     1      -9.758  10.556  67.267  1.00  0.00    -0.169 C  
BRANCH  14  15
HETATM   15  O   UNL     1     -10.186  10.562  65.899  1.00  0.00    -0.253 OA 
BRANCH  15  16
HETATM   16  C   UNL     1     -10.870  11.672  65.483  1.00  0.00    -0.279 A  
HETATM   17  C   UNL     1     -11.949  12.744  63.594  1.00  0.00    -0.616 A  
HETATM   18  C   UNL     1     -11.263  11.658  64.142  1.00  0.00    -0.421 A  
HETATM   19  C   UNL     1     -11.904  13.847  65.737  1.00  0.00    -0.393 A  
HETATM   20  C   UNL     1     -12.263  13.842  64.391  1.00  0.00    -0.449 A  
HETATM   21  C   UNL     1     -11.212  12.763  66.284  1.00  0.00    -0.339 A  
ENDBRANCH  15  16
ENDBRANCH  14  15
ENDBRANCH   2  14
TORSDOF 7
ENDMDL
MODEL      194
REMARK 921   NORMALIZED FREE ENERGY PREDICTED BY IDOCK:   -3.65 KCAL/MOL
REMARK 922        TOTAL FREE ENERGY PREDICTED BY IDOCK:   -6.25 KCAL/MOL
REMARK 923 INTER-LIGAND FREE ENERGY PREDICTED BY IDOCK:   -5.57 KCAL/MOL
REMARK 924 INTRA-LIGAND FREE ENERGY PREDICTED BY IDOCK:   -0.68 KCAL/MOL
REMARK 927      BINDING AFFINITY PREDICTED BY RF-SCORE:    0.00 PKD
ROOT
HETATM    1  C   UNL     1      -7.461  10.543  67.372  1.00  0.00    -0.094 C  
HETATM    2  C   UNL     1      -8.777  10.922  68.080  1.00  0.00    -0.132 C  
ENDROOT
BRANCH   2   3
HETATM    3  N   UNL     1      -9.398   9.816  68.885  1.00  0.00    -0.152 NA 
BRANCH   3   4
HETATM    4  C   UNL     1      -9.353   8.512  68.171  1.00  0.00    -0.137 C  
HETATM    5 CL   UNL     1     -10.359   6.528  66.596  1.00  0.00    -0.245 Cl 
HETATM    6  C   UNL     1     -10.629   8.090  67.425  1.00  0.00    -0.267 C  
ENDBRANCH   3   4
BRANCH   3   7
HETATM    7  C   UNL     1      -8.797   9.693  70.230  1.00  0.00    -0.211 C  
BRANCH   7   8
HETATM    8  C   UNL     1      -9.646   9.012  71.284  1.00  0.00    -0.361 A  
HETATM    9  C   UNL     1      -9.040   8.245  72.290  1.00  0.00    -0.289 A  
HETATM   10  C   UNL     1      -9.809   7.535  73.215  1.00  0.00    -0.343 A  
HETATM   11  C   UNL     1     -11.045   9.068  71.235  1.00  0.00    -0.382 A  
HETATM   12  C   UNL     1     -11.198   7.585  73.146  1.00  0.00    -0.318 A  
HETATM   13  C   UNL     1     -11.817   8.355  72.160  1.00  0.00    -0.441 A  
ENDBRANCH   7   8
ENDBRANCH   3   7
ENDBRANCH   2   3
BRANCH   2  14
HETATM   14  C   UNL     1      -9.762  11.543  67.049  1.00  0.00    -0.184 C  
BRANCH  14  15
HETATM   15  O   UNL     1      -9.525  12.954  66.952  1.00  0.00    -0.223 OA 
BRANCH  15  16
HETATM   16  C   UNL     1     -10.117  13.735  67.907  1.00  0.00    -0.246 A  
HETATM   17  C   UNL     1     -12.146  14.116  69.179  1.00  0.00    -0.362 A  
HETATM   18  C   UNL     1     -11.428  13.381  68.234  1.00  0.00    -0.350 A  
HETATM   19  C   UNL     1     -10.229  15.536  69.522  1.00  0.00    -0.279 A  
HETATM   20  C   UNL     1     -11.548  15.199  69.818  1.00  0.00    -0.338 A  
HETATM   21  C   UNL     1      -9.513  14.805  68.571  1.00  0.00    -0.214 A  
ENDBRANCH  15  16
ENDBRANCH  14  15
ENDBRANCH   2  14
TORSDOF 7
ENDMDL
MODEL      195
REMARK 921   NORMALIZED FREE ENERGY PREDICTED BY IDOCK:   -3.64 KCAL/MOL
REMARK 922        TOTAL FREE ENERGY PREDICTED BY IDOCK:   -6.23 KCAL/MOL
REMARK 923 INTER-LIGAND FREE ENERGY PREDICTED BY IDOCK:   -5.52 KCAL/MOL
REMARK 924 INTRA-LIGAND FREE ENERGY PREDICTED BY IDOCK:   -0.70 KCAL/MOL
REMARK 927      BINDING AFFINITY PREDICTED BY RF-SCORE:    0.00 PKD
ROOT
HETATM    1  C   UNL     1      -7.907  10.609  67.207  1.00  0.00    -0.112 C  
HETATM    2  C   UNL     1      -9.277   9.993  67.555  1.00  0.00    -0.137 C  
ENDROOT
BRANCH   2   3
HETATM    3  N   UNL     1      -9.765   8.958  66.582  1.00  0.00    -0.214 NA 
BRANCH   3   4
HETATM    4  C   UNL     1      -9.332   9.251  65.191  1.00  0.00    -0.171 C  
HETATM    5 CL   UNL     1      -9.437  10.550  62.797  1.00  0.00    -0.333 Cl 
HETATM    6  C   UNL     1     -10.141  10.308  64.423  1.00  0.00    -0.171 C  
ENDBRANCH   3   4
BRANCH   3   7
HETATM    7  C   UNL     1      -9.371   7.588  66.973  1.00  0.00    -0.150 C  
BRANCH   7   8
HETATM    8  C   UNL     1      -9.803   7.134  68.353  1.00  0.00    -0.157 A  
HETATM    9  C   UNL     1      -8.848   6.931  69.360  1.00  0.00    -0.136 A  
HETATM   10  C   UNL     1      -9.216   6.426  70.609  1.00  0.00    -0.162 A  
HETATM   11  C   UNL     1     -11.144   6.837  68.630  1.00  0.00    -0.224 A  
HETATM   12  C   UNL     1     -10.549   6.118  70.868  1.00  0.00    -0.298 A  
HETATM   13  C   UNL     1     -11.514   6.328  69.882  1.00  0.00    -0.459 A  
ENDBRANCH   7   8
ENDBRANCH   3   7
ENDBRANCH   2   3
BRANCH   2  14
HETATM   14  C   UNL     1     -10.312  11.128  67.798  1.00  0.00    -0.187 C  
BRANCH  14  15
HETATM   15  O   UNL     1      -9.796  12.364  67.283  1.00  0.00    -0.203 OA 
BRANCH  15  16
HETATM   16  C   UNL     1     -10.606  13.042  66.412  1.00  0.00    -0.284 A  
HETATM   17  C   UNL     1     -10.683  14.773  64.716  1.00  0.00    -0.380 A  
HETATM   18  C   UNL     1      -9.960  14.000  65.627  1.00  0.00    -0.309 A  
HETATM   19  C   UNL     1     -12.697  13.598  65.326  1.00  0.00    -0.478 A  
HETATM   20  C   UNL     1     -12.054  14.577  64.571  1.00  0.00    -0.501 A  
HETATM   21  C   UNL     1     -11.975  12.830  66.243  1.00  0.00    -0.460 A  
ENDBRANCH  15  16
ENDBRANCH  14  15
ENDBRANCH   2  14
TORSDOF 7
ENDMDL
MODEL      196
REMARK 921   NORMALIZED FREE ENERGY PREDICTED BY IDOCK:   -3.63 KCAL/MOL
REMARK 922        TOTAL FREE ENERGY PREDICTED BY IDOCK:   -6.22 KCAL/MOL
REMARK 923 INTER-LIGAND FREE ENERGY PREDICTED BY IDOCK:   -5.62 KCAL/MOL
REMARK 924 INTRA-LIGAND FREE ENERGY PREDICTED BY IDOCK:   -0.59 KCAL/MOL
REMARK 927      BINDING AFFINITY PREDICTED BY RF-SCORE:    0.00 PKD
ROOT
HETATM    1  C   UNL     1     -11.907  12.302  68.669  1.00  0.00    -0.354 C  
HETATM    2  C   UNL     1     -10.450  11.812  68.551  1.00  0.00    -0.215 C  
ENDROOT
BRANCH   2   3
HETATM    3  N   UNL     1      -9.951  11.660  67.142  1.00  0.00    -0.198 NA 
BRANCH   3   4
HETATM    4  C   UNL     1      -9.248  10.367  66.934  1.00  0.00    -0.150 C  
HETATM    5 CL   UNL     1      -8.882   7.913  65.807  1.00  0.00    -0.180 Cl 
HETATM    6  C   UNL     1      -9.899   9.377  65.956  1.00  0.00    -0.296 C  
ENDBRANCH   3   4
BRANCH   3   7
HETATM    7  C   UNL     1     -11.028  11.834  66.143  1.00  0.00    -0.307 C  
BRANCH   7   8
HETATM    8  C   UNL     1     -11.183  13.225  65.560  1.00  0.00    -0.307 A  
HETATM    9  C   UNL     1     -12.442  13.675  65.137  1.00  0.00    -0.488 A  
HETATM   10  C   UNL     1     -12.590  14.917  64.515  1.00  0.00    -0.065 A  
HETATM   11  C   UNL     1     -10.072  14.056  65.363  1.00  0.00    -0.343 A  
HETATM   12  C   UNL     1     -11.477  15.727  64.309  1.00  0.00    -0.203 A  
HETATM   13  C   UNL     1     -10.219  15.300  64.737  1.00  0.00    -0.041 A  
ENDBRANCH   7   8
ENDBRANCH   3   7
ENDBRANCH   2   3
BRANCH   2  14
HETATM   14  C   UNL     1     -10.265  10.521  69.398  1.00  0.00    -0.221 C  
BRANCH  14  15
HETATM   15  O   UNL     1     -11.213  10.515  70.474  1.00  0.00    -0.314 OA 
BRANCH  15  16
HETATM   16  C   UNL     1     -11.186   9.423  71.298  1.00  0.00    -0.367 A  
HETATM   17  C   UNL     1      -9.755   7.803  72.398  1.00  0.00    -0.249 A  
HETATM   18  C   UNL     1      -9.912   8.928  71.585  1.00  0.00    -0.397 A  
HETATM   19  C   UNL     1     -12.145   7.689  72.691  1.00  0.00    -0.137 A  
HETATM   20  C   UNL     1     -10.873   7.179  72.945  1.00  0.00    -0.362 A  
HETATM   21  C   UNL     1     -12.302   8.810  71.872  1.00  0.00    -0.429 A  
ENDBRANCH  15  16
ENDBRANCH  14  15
ENDBRANCH   2  14
TORSDOF 7
ENDMDL
MODEL      197
REMARK 921   NORMALIZED FREE ENERGY PREDICTED BY IDOCK:   -3.63 KCAL/MOL
REMARK 922        TOTAL FREE ENERGY PREDICTED BY IDOCK:   -6.21 KCAL/MOL
REMARK 923 INTER-LIGAND FREE ENERGY PREDICTED BY IDOCK:   -5.68 KCAL/MOL
REMARK 924 INTRA-LIGAND FREE ENERGY PREDICTED BY IDOCK:   -0.53 KCAL/MOL
REMARK 927      BINDING AFFINITY PREDICTED BY RF-SCORE:    0.00 PKD
ROOT
HETATM    1  C   UNL     1      -7.696  11.710  67.021  1.00  0.00    -0.159 C  
HETATM    2  C   UNL     1      -9.057  11.668  67.744  1.00  0.00    -0.175 C  
ENDROOT
BRANCH   2   3
HETATM    3  N   UNL     1     -10.159  11.004  66.969  1.00  0.00    -0.190 NA 
BRANCH   3   4
HETATM    4  C   UNL     1      -9.691  10.501  65.651  1.00  0.00    -0.234 C  
HETATM    5 CL   UNL     1      -9.664  10.373  62.929  1.00  0.00    -0.328 Cl 
HETATM    6  C   UNL     1     -10.399  11.060  64.408  1.00  0.00    -0.358 C  
ENDBRANCH   3   4
BRANCH   3   7
HETATM    7  C   UNL     1     -10.814   9.923  67.737  1.00  0.00    -0.264 C  
BRANCH   7   8
HETATM    8  C   UNL     1     -10.156   8.559  67.669  1.00  0.00    -0.271 A  
HETATM    9  C   UNL     1     -10.775   7.512  66.972  1.00  0.00    -0.367 A  
HETATM   10  C   UNL     1     -10.230   6.225  66.975  1.00  0.00    -0.256 A  
HETATM   11  C   UNL     1      -8.964   8.296  68.357  1.00  0.00    -0.136 A  
HETATM   12  C   UNL     1      -9.054   5.971  67.676  1.00  0.00    -0.109 A  
HETATM   13  C   UNL     1      -8.418   7.006  68.363  1.00  0.00    -0.123 A  
ENDBRANCH   7   8
ENDBRANCH   3   7
ENDBRANCH   2   3
BRANCH   2  14
HETATM   14  C   UNL     1      -9.435  13.097  68.226  1.00  0.00    -0.210 C  
BRANCH  14  15
HETATM   15  O   UNL     1     -10.835  13.322  68.008  1.00  0.00    -0.232 OA 
BRANCH  15  16
HETATM   16  C   UNL     1     -11.174  13.932  66.831  1.00  0.00    -0.312 A  
HETATM   17  C   UNL     1     -12.850  14.076  65.084  1.00  0.00    -0.368 A  
HETATM   18  C   UNL     1     -12.403  13.540  66.294  1.00  0.00    -0.440 A  
HETATM   19  C   UNL     1     -10.868  15.442  64.964  1.00  0.00    -0.462 A  
HETATM   20  C   UNL     1     -12.078  15.022  64.415  1.00  0.00    -0.373 A  
HETATM   21  C   UNL     1     -10.418  14.901  66.171  1.00  0.00    -0.313 A  
ENDBRANCH  15  16
ENDBRANCH  14  15
ENDBRANCH   2  14
TORSDOF 7
ENDMDL
MODEL      198
REMARK 921   NORMALIZED FREE ENERGY PREDICTED BY IDOCK:   -3.61 KCAL/MOL
REMARK 922        TOTAL FREE ENERGY PREDICTED BY IDOCK:   -6.19 KCAL/MOL
REMARK 923 INTER-LIGAND FREE ENERGY PREDICTED BY IDOCK:   -5.57 KCAL/MOL
REMARK 924 INTRA-LIGAND FREE ENERGY PREDICTED BY IDOCK:   -0.62 KCAL/MOL
REMARK 927      BINDING AFFINITY PREDICTED BY RF-SCORE:    0.00 PKD
ROOT
HETATM    1  C   UNL     1     -10.589  11.017  67.789  1.00  0.00    -0.250 C  
HETATM    2  C   UNL     1     -10.079  12.471  67.856  1.00  0.00    -0.214 C  
ENDROOT
BRANCH   2   3
HETATM    3  N   UNL     1     -10.762  13.419  66.913  1.00  0.00    -0.272 NA 
BRANCH   3   4
HETATM    4  C   UNL     1     -11.042  12.792  65.594  1.00  0.00    -0.279 C  
HETATM    5 CL   UNL     1     -12.620  12.065  63.495  1.00  0.00    -0.678 Cl 
HETATM    6  C   UNL     1     -12.501  12.820  65.112  1.00  0.00    -0.501 C  
ENDBRANCH   3   4
BRANCH   3   7
HETATM    7  C   UNL     1     -11.998  13.993  67.489  1.00  0.00    -0.395 C  
BRANCH   7   8
HETATM    8  C   UNL     1     -11.890  14.537  68.900  1.00  0.00    -0.359 A  
HETATM    9  C   UNL     1     -12.495  13.855  69.966  1.00  0.00    -0.325 A  
HETATM   10  C   UNL     1     -12.485  14.387  71.258  1.00  0.00    -0.423 A  
HETATM   11  C   UNL     1     -11.254  15.758  69.158  1.00  0.00    -0.322 A  
HETATM   12  C   UNL     1     -11.865  15.610  71.499  1.00  0.00    -0.493 A  
HETATM   13  C   UNL     1     -11.245  16.293  70.452  1.00  0.00    -0.336 A  
ENDBRANCH   7   8
ENDBRANCH   3   7
ENDBRANCH   2   3
BRANCH   2  14
HETATM   14  C   UNL     1      -8.531  12.486  67.709  1.00  0.00    -0.171 C  
BRANCH  14  15
HETATM   15  O   UNL     1      -8.149  11.686  66.583  1.00  0.00    -0.165 OA 
BRANCH  15  16
HETATM   16  C   UNL     1      -7.221  10.708  66.821  1.00  0.00    -0.119 A  
HETATM   17  C   UNL     1      -5.213  10.139  68.057  1.00  0.00    -0.035 A  
HETATM   18  C   UNL     1      -6.229  11.045  67.746  1.00  0.00    -0.051 A  
HETATM   19  C   UNL     1      -6.199   8.528  66.560  1.00  0.00    -0.057 A  
HETATM   20  C   UNL     1      -5.194   8.883  67.457  1.00  0.00    -0.034 A  
HETATM   21  C   UNL     1      -7.213   9.437  66.243  1.00  0.00    -0.092 A  
ENDBRANCH  15  16
ENDBRANCH  14  15
ENDBRANCH   2  14
TORSDOF 7
ENDMDL
MODEL      199
REMARK 921   NORMALIZED FREE ENERGY PREDICTED BY IDOCK:   -3.59 KCAL/MOL
REMARK 922        TOTAL FREE ENERGY PREDICTED BY IDOCK:   -6.16 KCAL/MOL
REMARK 923 INTER-LIGAND FREE ENERGY PREDICTED BY IDOCK:   -4.89 KCAL/MOL
REMARK 924 INTRA-LIGAND FREE ENERGY PREDICTED BY IDOCK:   -1.27 KCAL/MOL
REMARK 927      BINDING AFFINITY PREDICTED BY RF-SCORE:    0.00 PKD
ROOT
HETATM    1  C   UNL     1     -12.157  11.667  69.120  1.00  0.00    -0.315 C  
HETATM    2  C   UNL     1     -10.652  11.333  69.173  1.00  0.00    -0.187 C  
ENDROOT
BRANCH   2   3
HETATM    3  N   UNL     1      -9.748  12.434  68.697  1.00  0.00    -0.119 NA 
BRANCH   3   4
HETATM    4  C   UNL     1      -8.393  11.933  68.347  1.00  0.00    -0.157 C  
HETATM    5 CL   UNL     1      -6.191  11.682  66.761  1.00  0.00    -0.144 Cl 
HETATM    6  C   UNL     1      -7.841  12.340  66.972  1.00  0.00    -0.108 C  
ENDBRANCH   3   4
BRANCH   3   7
HETATM    7  C   UNL     1     -10.331  13.193  67.569  1.00  0.00    -0.225 C  
BRANCH   7   8
HETATM    8  C   UNL     1     -10.462  14.690  67.766  1.00  0.00    -0.246 A  
HETATM    9  C   UNL     1     -10.265  15.563  66.686  1.00  0.00    -0.280 A  
HETATM   10  C   UNL     1     -10.292  16.948  66.866  1.00  0.00    -0.304 A  
HETATM   11  C   UNL     1     -10.707  15.235  69.033  1.00  0.00    -0.244 A  
HETATM   12  C   UNL     1     -10.519  17.478  68.133  1.00  0.00    -0.386 A  
HETATM   13  C   UNL     1     -10.732  16.624  69.215  1.00  0.00    -0.337 A  
ENDBRANCH   7   8
ENDBRANCH   3   7
ENDBRANCH   2   3
BRANCH   2  14
HETATM   14  C   UNL     1     -10.394   9.984  68.445  1.00  0.00    -0.191 C  
BRANCH  14  15
HETATM   15  O   UNL     1     -11.147   9.946  67.225  1.00  0.00    -0.208 OA 
BRANCH  15  16
HETATM   16  C   UNL     1     -10.421   9.922  66.065  1.00  0.00    -0.042 A  
HETATM   17  C   UNL     1      -8.558   8.882  64.912  1.00  0.00    -0.198 A  
HETATM   18  C   UNL     1      -9.384   8.987  66.033  1.00  0.00    -0.305 A  
HETATM   19  C   UNL     1      -9.832  10.613  63.820  1.00  0.00    -0.394 A  
HETATM   20  C   UNL     1      -8.778   9.702  63.808  1.00  0.00    -0.241 A  
HETATM   21  C   UNL     1     -10.654  10.722  64.944  1.00  0.00    -0.258 A  
ENDBRANCH  15  16
ENDBRANCH  14  15
ENDBRANCH   2  14
TORSDOF 7
ENDMDL
MODEL      200
REMARK 921   NORMALIZED FREE ENERGY PREDICTED BY IDOCK:   -3.58 KCAL/MOL
REMARK 922        TOTAL FREE ENERGY PREDICTED BY IDOCK:   -6.15 KCAL/MOL
REMARK 923 INTER-LIGAND FREE ENERGY PREDICTED BY IDOCK:   -5.46 KCAL/MOL
REMARK 924 INTRA-LIGAND FREE ENERGY PREDICTED BY IDOCK:   -0.69 KCAL/MOL
REMARK 927      BINDING AFFINITY PREDICTED BY RF-SCORE:    0.00 PKD
ROOT
HETATM    1  C   UNL     1     -11.959  12.256  68.437  1.00  0.00    -0.266 C  
HETATM    2  C   UNL     1     -10.467  12.616  68.588  1.00  0.00    -0.205 C  
ENDROOT
BRANCH   2   3
HETATM    3  N   UNL     1     -10.056  13.887  67.901  1.00  0.00    -0.236 NA 
BRANCH   3   4
HETATM    4  C   UNL     1      -9.131  14.699  68.736  1.00  0.00    -0.178 C  
HETATM    5 CL   UNL     1      -7.204  16.576  69.166  1.00  0.00    -0.223 Cl 
HETATM    6  C   UNL     1      -8.194  15.662  67.991  1.00  0.00    -0.144 C  
ENDBRANCH   3   4
BRANCH   3   7
HETATM    7  C   UNL     1      -9.471  13.641  66.565  1.00  0.00    -0.259 C  
BRANCH   7   8
HETATM    8  C   UNL     1     -10.448  13.298  65.459  1.00  0.00    -0.295 A  
HETATM    9  C   UNL     1     -10.405  12.037  64.846  1.00  0.00    -0.316 A  
HETATM   10  C   UNL     1     -11.236  11.735  63.764  1.00  0.00    -0.518 A  
HETATM   11  C   UNL     1     -11.357  14.249  64.975  1.00  0.00    -0.365 A  
HETATM   12  C   UNL     1     -12.123  12.693  63.282  1.00  0.00    -0.524 A  
HETATM   13  C   UNL     1     -12.188  13.947  63.889  1.00  0.00    -0.375 A  
ENDBRANCH   7   8
ENDBRANCH   3   7
ENDBRANCH   2   3
BRANCH   2  14
HETATM   14  C   UNL     1      -9.594  11.397  68.175  1.00  0.00    -0.190 C  
BRANCH  14  15
HETATM   15  O   UNL     1     -10.431  10.375  67.617  1.00  0.00    -0.200 OA 
BRANCH  15  16
HETATM   16  C   UNL     1     -10.038   9.083  67.838  1.00  0.00    -0.197 A  
HETATM   17  C   UNL     1      -9.489   6.969  66.783  1.00  0.00    -0.205 A  
HETATM   18  C   UNL     1      -9.867   8.310  66.687  1.00  0.00    -0.337 A  
HETATM   19  C   UNL     1      -9.394   7.174  69.182  1.00  0.00    -0.141 A  
HETATM   20  C   UNL     1      -9.260   6.399  68.033  1.00  0.00    -0.110 A  
HETATM   21  C   UNL     1      -9.779   8.514  69.087  1.00  0.00    -0.170 A  
ENDBRANCH  15  16
ENDBRANCH  14  15
ENDBRANCH   2  14
TORSDOF 7
ENDMDL
MODEL      201
REMARK 921   NORMALIZED FREE ENERGY PREDICTED BY IDOCK:   -3.58 KCAL/MOL
REMARK 922        TOTAL FREE ENERGY PREDICTED BY IDOCK:   -6.14 KCAL/MOL
REMARK 923 INTER-LIGAND FREE ENERGY PREDICTED BY IDOCK:   -4.95 KCAL/MOL
REMARK 924 INTRA-LIGAND FREE ENERGY PREDICTED BY IDOCK:   -1.19 KCAL/MOL
REMARK 927      BINDING AFFINITY PREDICTED BY RF-SCORE:    0.00 PKD
ROOT
HETATM    1  C   UNL     1     -10.269   9.672  69.056  1.00  0.00    -0.209 C  
HETATM    2  C   UNL     1     -10.605  10.564  67.844  1.00  0.00    -0.232 C  
ENDROOT
BRANCH   2   3
HETATM    3  N   UNL     1      -9.410  11.138  67.138  1.00  0.00    -0.164 NA 
BRANCH   3   4
HETATM    4  C   UNL     1      -8.134  10.572  67.648  1.00  0.00    -0.107 C  
HETATM    5 CL   UNL     1      -5.699   9.373  67.407  1.00  0.00    -0.041 Cl 
HETATM    6  C   UNL     1      -7.190   9.950  66.607  1.00  0.00    -0.091 C  
ENDBRANCH   3   4
BRANCH   3   7
HETATM    7  C   UNL     1      -9.498  10.986  65.670  1.00  0.00    -0.217 C  
BRANCH   7   8
HETATM    8  C   UNL     1     -10.535  11.841  64.968  1.00  0.00    -0.332 A  
HETATM    9  C   UNL     1     -11.523  11.240  64.174  1.00  0.00    -0.029 A  
HETATM   10  C   UNL     1     -12.431  12.014  63.447  1.00  0.00    -0.625 A  
HETATM   11  C   UNL     1     -10.486  13.239  65.034  1.00  0.00    -0.367 A  
HETATM   12  C   UNL     1     -12.362  13.403  63.507  1.00  0.00    -0.398 A  
HETATM   13  C   UNL     1     -11.394  14.016  64.304  1.00  0.00    -0.277 A  
ENDBRANCH   7   8
ENDBRANCH   3   7
ENDBRANCH   2   3
BRANCH   2  14
HETATM   14  C   UNL     1     -11.636  11.649  68.266  1.00  0.00    -0.310 C  
BRANCH  14  15
HETATM   15  O   UNL     1     -11.027  12.548  69.203  1.00  0.00    -0.222 OA 
BRANCH  15  16
HETATM   16  C   UNL     1     -10.976  13.865  68.833  1.00  0.00    -0.263 A  
HETATM   17  C   UNL     1      -9.543  15.638  68.007  1.00  0.00    -0.203 A  
HETATM   18  C   UNL     1      -9.727  14.308  68.391  1.00  0.00    -0.225 A  
HETATM   19  C   UNL     1     -11.869  16.083  68.451  1.00  0.00    -0.068 A  
HETATM   20  C   UNL     1     -10.613  16.528  68.045  1.00  0.00    -0.328 A  
HETATM   21  C   UNL     1     -12.053  14.754  68.842  1.00  0.00    -0.240 A  
ENDBRANCH  15  16
ENDBRANCH  14  15
ENDBRANCH   2  14
TORSDOF 7
ENDMDL
MODEL      202
REMARK 921   NORMALIZED FREE ENERGY PREDICTED BY IDOCK:   -3.58 KCAL/MOL
REMARK 922        TOTAL FREE ENERGY PREDICTED BY IDOCK:   -6.13 KCAL/MOL
REMARK 923 INTER-LIGAND FREE ENERGY PREDICTED BY IDOCK:   -5.55 KCAL/MOL
REMARK 924 INTRA-LIGAND FREE ENERGY PREDICTED BY IDOCK:   -0.58 KCAL/MOL
REMARK 927      BINDING AFFINITY PREDICTED BY RF-SCORE:    0.00 PKD
ROOT
HETATM    1  C   UNL     1      -7.680  10.223  67.977  1.00  0.00    -0.089 C  
HETATM    2  C   UNL     1      -9.072  10.028  68.613  1.00  0.00    -0.139 C  
ENDROOT
BRANCH   2   3
HETATM    3  N   UNL     1      -9.260   8.717  69.320  1.00  0.00    -0.149 NA 
BRANCH   3   4
HETATM    4  C   UNL     1      -8.213   7.728  68.952  1.00  0.00    -0.127 C  
HETATM    5 CL   UNL     1      -7.204   5.603  67.576  1.00  0.00    -0.074 Cl 
HETATM    6  C   UNL     1      -8.605   6.660  67.918  1.00  0.00    -0.118 C  
ENDBRANCH   3   4
BRANCH   3   7
HETATM    7  C   UNL     1      -9.332   8.876  70.789  1.00  0.00    -0.230 C  
BRANCH   7   8
HETATM    8  C   UNL     1     -10.059   7.782  71.546  1.00  0.00    -0.212 A  
HETATM    9  C   UNL     1      -9.336   6.862  72.320  1.00  0.00    -0.148 A  
HETATM   10  C   UNL     1      -9.978   5.793  72.951  1.00  0.00    -0.194 A  
HETATM   11  C   UNL     1     -11.445   7.621  71.432  1.00  0.00    -0.290 A  
HETATM   12  C   UNL     1     -11.354   5.633  72.816  1.00  0.00    -0.350 A  
HETATM   13  C   UNL     1     -12.089   6.548  72.062  1.00  0.00    -0.358 A  
ENDBRANCH   7   8
ENDBRANCH   3   7
ENDBRANCH   2   3
BRANCH   2  14
HETATM   14  C   UNL     1     -10.172  10.303  67.549  1.00  0.00    -0.210 C  
BRANCH  14  15
HETATM   15  O   UNL     1      -9.704  11.289  66.619  1.00  0.00    -0.190 OA 
BRANCH  15  16
HETATM   16  C   UNL     1     -10.597  11.693  65.664  1.00  0.00    -0.275 A  
HETATM   17  C   UNL     1     -11.070  11.741  63.286  1.00  0.00    -0.370 A  
HETATM   18  C   UNL     1     -10.250  11.363  64.351  1.00  0.00    -0.361 A  
HETATM   19  C   UNL     1     -12.622  12.734  64.839  1.00  0.00    -0.541 A  
HETATM   20  C   UNL     1     -12.253  12.433  63.530  1.00  0.00    -0.661 A  
HETATM   21  C   UNL     1     -11.798  12.363  65.905  1.00  0.00    -0.467 A  
ENDBRANCH  15  16
ENDBRANCH  14  15
ENDBRANCH   2  14
TORSDOF 7
ENDMDL
MODEL      203
REMARK 921   NORMALIZED FREE ENERGY PREDICTED BY IDOCK:   -3.57 KCAL/MOL
REMARK 922        TOTAL FREE ENERGY PREDICTED BY IDOCK:   -6.13 KCAL/MOL
REMARK 923 INTER-LIGAND FREE ENERGY PREDICTED BY IDOCK:   -5.36 KCAL/MOL
REMARK 924 INTRA-LIGAND FREE ENERGY PREDICTED BY IDOCK:   -0.77 KCAL/MOL
REMARK 927      BINDING AFFINITY PREDICTED BY RF-SCORE:    0.00 PKD
ROOT
HETATM    1  C   UNL     1      -9.608   9.829  69.975  1.00  0.00    -0.282 C  
HETATM    2  C   UNL     1      -9.540   9.830  68.435  1.00  0.00    -0.148 C  
ENDROOT
BRANCH   2   3
HETATM    3  N   UNL     1      -9.564  11.194  67.807  1.00  0.00    -0.169 NA 
BRANCH   3   4
HETATM    4  C   UNL     1      -8.680  12.154  68.519  1.00  0.00    -0.079 C  
HETATM    5 CL   UNL     1      -6.290  13.295  69.161  1.00  0.00    -0.098 Cl 
HETATM    6  C   UNL     1      -7.171  12.029  68.255  1.00  0.00    -0.090 C  
ENDBRANCH   3   4
BRANCH   3   7
HETATM    7  C   UNL     1      -9.236  11.156  66.365  1.00  0.00    -0.183 C  
BRANCH   7   8
HETATM    8  C   UNL     1     -10.331  11.601  65.416  1.00  0.00    -0.313 A  
HETATM    9  C   UNL     1     -10.156  11.477  64.031  1.00  0.00    -0.366 A  
HETATM   10  C   UNL     1     -11.114  11.965  63.138  1.00  0.00    -0.267 A  
HETATM   11  C   UNL     1     -11.498  12.211  65.893  1.00  0.00    -0.418 A  
HETATM   12  C   UNL     1     -12.262  12.584  63.623  1.00  0.00    -0.642 A  
HETATM   13  C   UNL     1     -12.458  12.703  65.000  1.00  0.00    -0.556 A  
ENDBRANCH   7   8
ENDBRANCH   3   7
ENDBRANCH   2   3
BRANCH   2  14
HETATM   14  C   UNL     1     -10.634   8.884  67.865  1.00  0.00    -0.183 C  
BRANCH  14  15
HETATM   15  O   UNL     1     -10.023   7.679  67.385  1.00  0.00    -0.159 OA 
BRANCH  15  16
HETATM   16  C   UNL     1      -9.970   6.634  68.267  1.00  0.00    -0.144 A  
HETATM   17  C   UNL     1      -8.825   4.572  68.832  1.00  0.00    -0.133 A  
HETATM   18  C   UNL     1      -8.967   5.695  68.015  1.00  0.00    -0.108 A  
HETATM   19  C   UNL     1     -10.656   5.342  70.197  1.00  0.00    -0.344 A  
HETATM   20  C   UNL     1      -9.676   4.392  69.920  1.00  0.00    -0.291 A  
HETATM   21  C   UNL     1     -10.802   6.463  69.376  1.00  0.00    -0.381 A  
ENDBRANCH  15  16
ENDBRANCH  14  15
ENDBRANCH   2  14
TORSDOF 7
ENDMDL
MODEL      204
REMARK 921   NORMALIZED FREE ENERGY PREDICTED BY IDOCK:   -3.56 KCAL/MOL
REMARK 922        TOTAL FREE ENERGY PREDICTED BY IDOCK:   -6.12 KCAL/MOL
REMARK 923 INTER-LIGAND FREE ENERGY PREDICTED BY IDOCK:   -5.21 KCAL/MOL
REMARK 924 INTRA-LIGAND FREE ENERGY PREDICTED BY IDOCK:   -0.91 KCAL/MOL
REMARK 927      BINDING AFFINITY PREDICTED BY RF-SCORE:    0.00 PKD
ROOT
HETATM    1  C   UNL     1      -7.359  10.443  67.300  1.00  0.00    -0.090 C  
HETATM    2  C   UNL     1      -8.724  11.157  67.252  1.00  0.00    -0.139 C  
ENDROOT
BRANCH   2   3
HETATM    3  N   UNL     1      -9.720  10.545  66.309  1.00  0.00    -0.197 NA 
BRANCH   3   4
HETATM    4  C   UNL     1      -9.065   9.939  65.120  1.00  0.00    -0.211 C  
HETATM    5 CL   UNL     1      -8.609   9.617  62.453  1.00  0.00    -0.189 Cl 
HETATM    6  C   UNL     1      -9.548  10.423  63.744  1.00  0.00    -0.310 C  
ENDBRANCH   3   4
BRANCH   3   7
HETATM    7  C   UNL     1     -10.597   9.560  66.979  1.00  0.00    -0.201 C  
BRANCH   7   8
HETATM    8  C   UNL     1     -10.946   9.848  68.426  1.00  0.00    -0.235 A  
HETATM    9  C   UNL     1     -10.538   8.967  69.438  1.00  0.00    -0.231 A  
HETATM   10  C   UNL     1     -10.927   9.167  70.765  1.00  0.00    -0.332 A  
HETATM   11  C   UNL     1     -11.740  10.948  68.773  1.00  0.00    -0.355 A  
HETATM   12  C   UNL     1     -11.731  10.254  71.096  1.00  0.00    -0.430 A  
HETATM   13  C   UNL     1     -12.133  11.148  70.103  1.00  0.00    -0.443 A  
ENDBRANCH   7   8
ENDBRANCH   3   7
ENDBRANCH   2   3
BRANCH   2  14
HETATM   14  C   UNL     1      -8.508  12.676  66.998  1.00  0.00    -0.150 C  
BRANCH  14  15
HETATM   15  O   UNL     1      -8.499  13.374  68.250  1.00  0.00    -0.163 OA 
BRANCH  15  16
HETATM   16  C   UNL     1      -9.492  14.298  68.436  1.00  0.00    -0.213 A  
HETATM   17  C   UNL     1     -10.170  16.254  69.699  1.00  0.00    -0.216 A  
HETATM   18  C   UNL     1      -9.224  15.270  69.403  1.00  0.00    -0.233 A  
HETATM   19  C   UNL     1     -11.639  15.338  68.023  1.00  0.00    -0.325 A  
HETATM   20  C   UNL     1     -11.381  16.283  69.013  1.00  0.00    -0.301 A  
HETATM   21  C   UNL     1     -10.696  14.349  67.731  1.00  0.00    -0.248 A  
ENDBRANCH  15  16
ENDBRANCH  14  15
ENDBRANCH   2  14
TORSDOF 7
ENDMDL
MODEL      205
REMARK 921   NORMALIZED FREE ENERGY PREDICTED BY IDOCK:   -3.56 KCAL/MOL
REMARK 922        TOTAL FREE ENERGY PREDICTED BY IDOCK:   -6.12 KCAL/MOL
REMARK 923 INTER-LIGAND FREE ENERGY PREDICTED BY IDOCK:   -5.64 KCAL/MOL
REMARK 924 INTRA-LIGAND FREE ENERGY PREDICTED BY IDOCK:   -0.48 KCAL/MOL
REMARK 927      BINDING AFFINITY PREDICTED BY RF-SCORE:    0.00 PKD
ROOT
HETATM    1  C   UNL     1     -12.021  11.374  70.472  1.00  0.00    -0.451 C  
HETATM    2  C   UNL     1     -11.844  10.596  69.153  1.00  0.00    -0.215 C  
ENDROOT
BRANCH   2   3
HETATM    3  N   UNL     1     -11.263   9.219  69.310  1.00  0.00    -0.000 NA 
BRANCH   3   4
HETATM    4  C   UNL     1     -10.339   8.872  68.198  1.00  0.00    -0.212 C  
HETATM    5 CL   UNL     1      -9.408   7.322  66.160  1.00  0.00    -0.150 Cl 
HETATM    6  C   UNL     1     -10.585   7.531  67.490  1.00  0.00    -0.261 C  
ENDBRANCH   3   4
BRANCH   3   7
HETATM    7  C   UNL     1     -10.597   9.036  70.617  1.00  0.00    -0.236 C  
BRANCH   7   8
HETATM    8  C   UNL     1      -9.119   8.700  70.575  1.00  0.00    -0.188 A  
HETATM    9  C   UNL     1      -8.179   9.697  70.277  1.00  0.00    -0.217 A  
HETATM   10  C   UNL     1      -6.822   9.390  70.144  1.00  0.00    -0.071 A  
HETATM   11  C   UNL     1      -8.669   7.386  70.756  1.00  0.00    -0.145 A  
HETATM   12  C   UNL     1      -6.389   8.077  70.309  1.00  0.00    -0.036 A  
HETATM   13  C   UNL     1      -7.310   7.076  70.620  1.00  0.00    -0.076 A  
ENDBRANCH   7   8
ENDBRANCH   3   7
ENDBRANCH   2   3
BRANCH   2  14
HETATM   14  C   UNL     1     -11.057  11.470  68.135  1.00  0.00    -0.246 C  
BRANCH  14  15
HETATM   15  O   UNL     1     -11.981  12.159  67.282  1.00  0.00    -0.573 OA 
BRANCH  15  16
HETATM   16  C   UNL     1     -11.661  12.202  65.952  1.00  0.00    -0.364 A  
HETATM   17  C   UNL     1     -10.080  11.463  64.268  1.00  0.00    -0.347 A  
HETATM   18  C   UNL     1     -10.521  11.478  65.593  1.00  0.00    -0.317 A  
HETATM   19  C   UNL     1     -11.946  12.853  63.637  1.00  0.00    -0.613 A  
HETATM   20  C   UNL     1     -10.789  12.158  63.291  1.00  0.00    -0.381 A  
HETATM   21  C   UNL     1     -12.383  12.873  64.964  1.00  0.00    -0.541 A  
ENDBRANCH  15  16
ENDBRANCH  14  15
ENDBRANCH   2  14
TORSDOF 7
ENDMDL
MODEL      206
REMARK 921   NORMALIZED FREE ENERGY PREDICTED BY IDOCK:   -3.54 KCAL/MOL
REMARK 922        TOTAL FREE ENERGY PREDICTED BY IDOCK:   -6.09 KCAL/MOL
REMARK 923 INTER-LIGAND FREE ENERGY PREDICTED BY IDOCK:   -5.25 KCAL/MOL
REMARK 924 INTRA-LIGAND FREE ENERGY PREDICTED BY IDOCK:   -0.83 KCAL/MOL
REMARK 927      BINDING AFFINITY PREDICTED BY RF-SCORE:    0.00 PKD
ROOT
HETATM    1  C   UNL     1      -9.237   9.339  70.400  1.00  0.00    -0.291 C  
HETATM    2  C   UNL     1      -9.130   8.393  69.187  1.00  0.00    -0.147 C  
ENDROOT
BRANCH   2   3
HETATM    3  N   UNL     1      -9.123   9.082  67.852  1.00  0.00    -0.135 NA 
BRANCH   3   4
HETATM    4  C   UNL     1      -8.442   8.273  66.808  1.00  0.00    -0.122 C  
HETATM    5 CL   UNL     1      -7.909   7.490  64.253  1.00  0.00    -0.134 Cl 
HETATM    6  C   UNL     1      -8.873   8.519  65.354  1.00  0.00    -0.130 C  
ENDBRANCH   3   4
BRANCH   3   7
HETATM    7  C   UNL     1     -10.482   9.466  67.410  1.00  0.00    -0.278 C  
BRANCH   7   8
HETATM    8  C   UNL     1     -10.781  10.952  67.379  1.00  0.00    -0.305 A  
HETATM    9  C   UNL     1     -10.187  11.770  66.407  1.00  0.00    -0.248 A  
HETATM   10  C   UNL     1     -10.379  13.154  66.417  1.00  0.00    -0.289 A  
HETATM   11  C   UNL     1     -11.590  11.548  68.355  1.00  0.00    -0.375 A  
HETATM   12  C   UNL     1     -11.171  13.737  67.402  1.00  0.00    -0.330 A  
HETATM   13  C   UNL     1     -11.781  12.935  68.367  1.00  0.00    -0.382 A  
ENDBRANCH   7   8
ENDBRANCH   3   7
ENDBRANCH   2   3
BRANCH   2  14
HETATM   14  C   UNL     1     -10.221   7.290  69.290  1.00  0.00    -0.193 C  
BRANCH  14  15
HETATM   15  O   UNL     1     -10.848   7.355  70.578  1.00  0.00    -0.233 OA 
BRANCH  15  16
HETATM   16  C   UNL     1     -10.815   6.210  71.326  1.00  0.00    -0.266 A  
HETATM   17  C   UNL     1      -9.997   3.929  71.426  1.00  0.00    -0.198 A  
HETATM   18  C   UNL     1     -10.086   5.157  70.767  1.00  0.00    -0.303 A  
HETATM   19  C   UNL     1     -11.320   4.811  73.238  1.00  0.00    -0.408 A  
HETATM   20  C   UNL     1     -10.621   3.754  72.659  1.00  0.00    -0.152 A  
HETATM   21  C   UNL     1     -11.415   6.038  72.575  1.00  0.00    -0.336 A  
ENDBRANCH  15  16
ENDBRANCH  14  15
ENDBRANCH   2  14
TORSDOF 7
ENDMDL
MODEL      207
REMARK 921   NORMALIZED FREE ENERGY PREDICTED BY IDOCK:   -3.53 KCAL/MOL
REMARK 922        TOTAL FREE ENERGY PREDICTED BY IDOCK:   -6.07 KCAL/MOL
REMARK 923 INTER-LIGAND FREE ENERGY PREDICTED BY IDOCK:   -3.78 KCAL/MOL
REMARK 924 INTRA-LIGAND FREE ENERGY PREDICTED BY IDOCK:   -2.28 KCAL/MOL
REMARK 927      BINDING AFFINITY PREDICTED BY RF-SCORE:    0.00 PKD
ROOT
HETATM    1  C   UNL     1      -9.844  10.608  63.798  1.00  0.00    -0.394 C  
HETATM    2  C   UNL     1      -9.509   9.554  64.873  1.00  0.00    -0.160 C  
ENDROOT
BRANCH   2   3
HETATM    3  N   UNL     1      -9.530  10.068  66.284  1.00  0.00    -0.180 NA 
BRANCH   3   4
HETATM    4  C   UNL     1      -9.566  11.553  66.337  1.00  0.00    -0.209 C  
HETATM    5 CL   UNL     1      -9.221  13.987  67.513  1.00  0.00    -0.189 Cl 
HETATM    6  C   UNL     1      -9.159  12.206  67.667  1.00  0.00    -0.181 C  
ENDBRANCH   3   4
BRANCH   3   7
HETATM    7  C   UNL     1     -10.637   9.491  67.076  1.00  0.00    -0.201 C  
BRANCH   7   8
HETATM    8  C   UNL     1     -10.377   8.138  67.706  1.00  0.00    -0.295 A  
HETATM    9  C   UNL     1     -10.932   6.980  67.143  1.00  0.00    -0.393 A  
HETATM   10  C   UNL     1     -10.779   5.735  67.760  1.00  0.00    -0.306 A  
HETATM   11  C   UNL     1      -9.645   8.021  68.895  1.00  0.00    -0.152 A  
HETATM   12  C   UNL     1     -10.065   5.635  68.950  1.00  0.00    -0.254 A  
HETATM   13  C   UNL     1      -9.494   6.775  69.516  1.00  0.00    -0.148 A  
ENDBRANCH   7   8
ENDBRANCH   3   7
ENDBRANCH   2   3
BRANCH   2  14
HETATM   14  C   UNL     1      -8.173   8.847  64.508  1.00  0.00    -0.166 C  
BRANCH  14  15
HETATM   15  O   UNL     1      -7.423   8.593  65.704  1.00  0.00    -0.083 OA 
BRANCH  15  16
HETATM   16  C   UNL     1      -7.314   7.283  66.085  1.00  0.00    -0.075 A  
HETATM   17  C   UNL     1      -7.894   4.998  65.516  1.00  0.00    -0.092 A  
HETATM   18  C   UNL     1      -7.919   6.363  65.224  1.00  0.00    -0.114 A  
HETATM   19  C   UNL     1      -6.610   5.452  67.505  1.00  0.00    -0.053 A  
HETATM   20  C   UNL     1      -7.245   4.544  66.661  1.00  0.00    -0.080 A  
HETATM   21  C   UNL     1      -6.641   6.819  67.217  1.00  0.00    -0.054 A  
ENDBRANCH  15  16
ENDBRANCH  14  15
ENDBRANCH   2  14
TORSDOF 7
ENDMDL
MODEL      208
REMARK 921   NORMALIZED FREE ENERGY PREDICTED BY IDOCK:   -3.53 KCAL/MOL
REMARK 922        TOTAL FREE ENERGY PREDICTED BY IDOCK:   -6.06 KCAL/MOL
REMARK 923 INTER-LIGAND FREE ENERGY PREDICTED BY IDOCK:   -5.12 KCAL/MOL
REMARK 924 INTRA-LIGAND FREE ENERGY PREDICTED BY IDOCK:   -0.94 KCAL/MOL
REMARK 927      BINDING AFFINITY PREDICTED BY RF-SCORE:    0.00 PKD
ROOT
HETATM    1  C   UNL     1      -9.941  14.999  65.397  1.00  0.00    -0.365 C  
HETATM    2  C   UNL     1      -9.917  14.068  66.627  1.00  0.00    -0.278 C  
ENDROOT
BRANCH   2   3
HETATM    3  N   UNL     1     -10.647  14.598  67.828  1.00  0.00    -0.249 NA 
BRANCH   3   4
HETATM    4  C   UNL     1     -10.787  16.077  67.790  1.00  0.00    -0.324 C  
HETATM    5 CL   UNL     1     -10.144  18.634  68.480  1.00  0.00    -0.418 Cl 
HETATM    6  C   UNL     1      -9.855  16.883  68.707  1.00  0.00    -0.269 C  
ENDBRANCH   3   4
BRANCH   3   7
HETATM    7  C   UNL     1     -11.965  13.954  68.015  1.00  0.00    -0.355 C  
BRANCH   7   8
HETATM    8  C   UNL     1     -12.109  13.064  69.233  1.00  0.00    -0.251 A  
HETATM    9  C   UNL     1     -11.954  11.675  69.114  1.00  0.00    -0.378 A  
HETATM   10  C   UNL     1     -12.173  10.830  70.205  1.00  0.00    -0.425 A  
HETATM   11  C   UNL     1     -12.471  13.594  70.479  1.00  0.00    -0.394 A  
HETATM   12  C   UNL     1     -12.549  11.367  71.433  1.00  0.00    -0.439 A  
HETATM   13  C   UNL     1     -12.693  12.748  71.572  1.00  0.00    -0.330 A  
ENDBRANCH   7   8
ENDBRANCH   3   7
ENDBRANCH   2   3
BRANCH   2  14
HETATM   14  C   UNL     1      -8.450  13.661  66.943  1.00  0.00    -0.054 C  
BRANCH  14  15
HETATM   15  O   UNL     1      -8.251  13.654  68.363  1.00  0.00    -0.149 OA 
BRANCH  15  16
HETATM   16  C   UNL     1      -7.328  12.763  68.840  1.00  0.00    -0.008 A  
HETATM   17  C   UNL     1      -6.870  10.420  69.266  1.00  0.00    -0.073 A  
HETATM   18  C   UNL     1      -7.716  11.422  68.788  1.00  0.00    -0.135 A  
HETATM   19  C   UNL     1      -5.213  12.085  69.806  1.00  0.00    -0.076 A  
HETATM   20  C   UNL     1      -5.621  10.753  69.783  1.00  0.00    -0.044 A  
HETATM   21  C   UNL     1      -6.063  13.089  69.334  1.00  0.00    -0.108 A  
ENDBRANCH  15  16
ENDBRANCH  14  15
ENDBRANCH   2  14
TORSDOF 7
ENDMDL
MODEL      209
REMARK 921   NORMALIZED FREE ENERGY PREDICTED BY IDOCK:   -3.51 KCAL/MOL
REMARK 922        TOTAL FREE ENERGY PREDICTED BY IDOCK:   -6.04 KCAL/MOL
REMARK 923 INTER-LIGAND FREE ENERGY PREDICTED BY IDOCK:   -5.48 KCAL/MOL
REMARK 924 INTRA-LIGAND FREE ENERGY PREDICTED BY IDOCK:   -0.55 KCAL/MOL
REMARK 927      BINDING AFFINITY PREDICTED BY RF-SCORE:    0.00 PKD
ROOT
HETATM    1  C   UNL     1      -7.522  11.173  67.424  1.00  0.00    -0.109 C  
HETATM    2  C   UNL     1      -9.023  10.880  67.619  1.00  0.00    -0.140 C  
ENDROOT
BRANCH   2   3
HETATM    3  N   UNL     1      -9.780  10.614  66.350  1.00  0.00    -0.190 NA 
BRANCH   3   4
HETATM    4  C   UNL     1      -9.814  11.804  65.459  1.00  0.00    -0.234 C  
HETATM    5 CL   UNL     1     -10.990  13.941  64.244  1.00  0.00    -0.303 Cl 
HETATM    6  C   UNL     1     -11.168  12.516  65.310  1.00  0.00    -0.304 C  
ENDBRANCH   3   4
BRANCH   3   7
HETATM    7  C   UNL     1      -9.264   9.434  65.623  1.00  0.00    -0.226 C  
BRANCH   7   8
HETATM    8  C   UNL     1      -9.458   8.092  66.299  1.00  0.00    -0.241 A  
HETATM    9  C   UNL     1      -8.502   7.078  66.142  1.00  0.00    -0.136 A  
HETATM   10  C   UNL     1      -8.707   5.806  66.682  1.00  0.00    -0.119 A  
HETATM   11  C   UNL     1     -10.622   7.810  67.028  1.00  0.00    -0.396 A  
HETATM   12  C   UNL     1      -9.874   5.532  67.389  1.00  0.00    -0.167 A  
HETATM   13  C   UNL     1     -10.829   6.534  67.567  1.00  0.00    -0.433 A  
ENDBRANCH   7   8
ENDBRANCH   3   7
ENDBRANCH   2   3
BRANCH   2  14
HETATM   14  C   UNL     1      -9.665  12.004  68.480  1.00  0.00    -0.161 C  
BRANCH  14  15
HETATM   15  O   UNL     1     -11.076  11.774  68.593  1.00  0.00    -0.205 OA 
BRANCH  15  16
HETATM   16  C   UNL     1     -11.728  12.475  69.571  1.00  0.00    -0.309 A  
HETATM   17  C   UNL     1     -13.217  12.301  71.477  1.00  0.00    -0.268 A  
HETATM   18  C   UNL     1     -12.488  11.699  70.450  1.00  0.00    -0.304 A  
HETATM   19  C   UNL     1     -12.390  14.459  70.792  1.00  0.00    -0.417 A  
HETATM   20  C   UNL     1     -13.174  13.683  71.643  1.00  0.00    -0.447 A  
HETATM   21  C   UNL     1     -11.666  13.857  69.759  1.00  0.00    -0.372 A  
ENDBRANCH  15  16
ENDBRANCH  14  15
ENDBRANCH   2  14
TORSDOF 7
ENDMDL
MODEL      210
REMARK 921   NORMALIZED FREE ENERGY PREDICTED BY IDOCK:   -3.47 KCAL/MOL
REMARK 922        TOTAL FREE ENERGY PREDICTED BY IDOCK:   -5.99 KCAL/MOL
REMARK 923 INTER-LIGAND FREE ENERGY PREDICTED BY IDOCK:   -5.29 KCAL/MOL
REMARK 924 INTRA-LIGAND FREE ENERGY PREDICTED BY IDOCK:   -0.70 KCAL/MOL
REMARK 927      BINDING AFFINITY PREDICTED BY RF-SCORE:    0.00 PKD
ROOT
HETATM    1  C   UNL     1      -8.794   9.499  69.025  1.00  0.00    -0.143 C  
HETATM    2  C   UNL     1     -10.226   9.138  68.580  1.00  0.00    -0.204 C  
ENDROOT
BRANCH   2   3
HETATM    3  N   UNL     1     -10.331   8.592  67.185  1.00  0.00    -0.284 NA 
BRANCH   3   4
HETATM    4  C   UNL     1      -9.065   8.758  66.424  1.00  0.00    -0.177 C  
HETATM    5 CL   UNL     1      -7.521   9.690  64.380  1.00  0.00    -0.119 Cl 
HETATM    6  C   UNL     1      -9.146   9.563  65.117  1.00  0.00    -0.228 C  
ENDBRANCH   3   4
BRANCH   3   7
HETATM    7  C   UNL     1     -10.769   7.180  67.164  1.00  0.00    -0.352 C  
BRANCH   7   8
HETATM    8  C   UNL     1     -10.347   6.330  68.346  1.00  0.00    -0.237 A  
HETATM    9  C   UNL     1     -11.190   6.203  69.460  1.00  0.00    -0.482 A  
HETATM   10  C   UNL     1     -10.781   5.499  70.595  1.00  0.00    -0.303 A  
HETATM   11  C   UNL     1      -9.087   5.719  68.385  1.00  0.00    -0.118 A  
HETATM   12  C   UNL     1      -9.519   4.911  70.629  1.00  0.00    -0.237 A  
HETATM   13  C   UNL     1      -8.674   5.016  69.524  1.00  0.00    -0.109 A  
ENDBRANCH   7   8
ENDBRANCH   3   7
ENDBRANCH   2   3
BRANCH   2  14
HETATM   14  C   UNL     1     -11.169  10.350  68.826  1.00  0.00    -0.241 C  
BRANCH  14  15
HETATM   15  O   UNL     1     -10.384  11.532  69.034  1.00  0.00    -0.194 OA 
BRANCH  15  16
HETATM   16  C   UNL     1     -10.600  12.564  68.161  1.00  0.00    -0.226 A  
HETATM   17  C   UNL     1     -11.882  14.582  67.755  1.00  0.00    -0.390 A  
HETATM   18  C   UNL     1     -11.557  13.496  68.570  1.00  0.00    -0.368 A  
HETATM   19  C   UNL     1     -10.255  13.846  66.136  1.00  0.00    -0.307 A  
HETATM   20  C   UNL     1     -11.235  14.752  66.534  1.00  0.00    -0.342 A  
HETATM   21  C   UNL     1      -9.935  12.755  66.949  1.00  0.00    -0.232 A  
ENDBRANCH  15  16
ENDBRANCH  14  15
ENDBRANCH   2  14
TORSDOF 7
ENDMDL
MODEL      211
REMARK 921   NORMALIZED FREE ENERGY PREDICTED BY IDOCK:   -3.45 KCAL/MOL
REMARK 922        TOTAL FREE ENERGY PREDICTED BY IDOCK:   -5.96 KCAL/MOL
REMARK 923 INTER-LIGAND FREE ENERGY PREDICTED BY IDOCK:   -5.35 KCAL/MOL
REMARK 924 INTRA-LIGAND FREE ENERGY PREDICTED BY IDOCK:   -0.62 KCAL/MOL
REMARK 927      BINDING AFFINITY PREDICTED BY RF-SCORE:    0.00 PKD
ROOT
HETATM    1  C   UNL     1      -6.948  14.735  68.485  1.00  0.00    -0.108 C  
HETATM    2  C   UNL     1      -7.917  14.120  67.455  1.00  0.00    -0.184 C  
ENDROOT
BRANCH   2   3
HETATM    3  N   UNL     1      -8.965  15.064  66.938  1.00  0.00    -0.235 NA 
BRANCH   3   4
HETATM    4  C   UNL     1      -9.939  14.383  66.044  1.00  0.00    -0.317 C  
HETATM    5 CL   UNL     1     -12.423  13.595  65.251  1.00  0.00    -0.489 Cl 
HETATM    6  C   UNL     1     -11.413  14.421  66.474  1.00  0.00    -0.362 C  
ENDBRANCH   3   4
BRANCH   3   7
HETATM    7  C   UNL     1      -9.668  15.776  68.028  1.00  0.00    -0.212 C  
BRANCH   7   8
HETATM    8  C   UNL     1      -9.769  17.282  67.889  1.00  0.00    -0.273 A  
HETATM    9  C   UNL     1      -9.867  18.090  69.031  1.00  0.00    -0.249 A  
HETATM   10  C   UNL     1     -10.053  19.470  68.921  1.00  0.00    -0.486 A  
HETATM   11  C   UNL     1      -9.843  17.889  66.629  1.00  0.00    -0.342 A  
HETATM   12  C   UNL     1     -10.142  20.060  67.664  1.00  0.00    -0.562 A  
HETATM   13  C   UNL     1     -10.032  19.272  66.518  1.00  0.00    -0.470 A  
ENDBRANCH   7   8
ENDBRANCH   3   7
ENDBRANCH   2   3
BRANCH   2  14
HETATM   14  C   UNL     1      -8.519  12.806  68.027  1.00  0.00    -0.177 C  
BRANCH  14  15
HETATM   15  O   UNL     1      -7.465  11.982  68.544  1.00  0.00    -0.107 OA 
BRANCH  15  16
HETATM   16  C   UNL     1      -7.765  10.661  68.732  1.00  0.00    -0.117 A  
HETATM   17  C   UNL     1      -8.479   8.615  67.643  1.00  0.00    -0.125 A  
HETATM   18  C   UNL     1      -8.129   9.965  67.577  1.00  0.00    -0.110 A  
HETATM   19  C   UNL     1      -8.054   8.627  70.015  1.00  0.00    -0.112 A  
HETATM   20  C   UNL     1      -8.449   7.948  68.865  1.00  0.00    -0.128 A  
HETATM   21  C   UNL     1      -7.710   9.980  69.950  1.00  0.00    -0.183 A  
ENDBRANCH  15  16
ENDBRANCH  14  15
ENDBRANCH   2  14
TORSDOF 7
ENDMDL
MODEL      212
REMARK 921   NORMALIZED FREE ENERGY PREDICTED BY IDOCK:   -3.45 KCAL/MOL
REMARK 922        TOTAL FREE ENERGY PREDICTED BY IDOCK:   -5.95 KCAL/MOL
REMARK 923 INTER-LIGAND FREE ENERGY PREDICTED BY IDOCK:   -5.16 KCAL/MOL
REMARK 924 INTRA-LIGAND FREE ENERGY PREDICTED BY IDOCK:   -0.79 KCAL/MOL
REMARK 927      BINDING AFFINITY PREDICTED BY RF-SCORE:    0.00 PKD
ROOT
HETATM    1  C   UNL     1      -9.939   6.697  68.818  1.00  0.00    -0.150 C  
HETATM    2  C   UNL     1      -9.881   7.779  69.915  1.00  0.00    -0.177 C  
ENDROOT
BRANCH   2   3
HETATM    3  N   UNL     1     -10.694   7.474  71.140  1.00  0.00    -0.226 NA 
BRANCH   3   4
HETATM    4  C   UNL     1     -11.859   8.387  71.280  1.00  0.00    -0.289 C  
HETATM    5 CL   UNL     1     -14.386   9.059  72.046  1.00  0.00    -0.371 Cl 
HETATM    6  C   UNL     1     -13.123   7.798  71.925  1.00  0.00    -0.271 C  
ENDBRANCH   3   4
BRANCH   3   7
HETATM    7  C   UNL     1     -11.130   6.061  71.189  1.00  0.00    -0.271 C  
BRANCH   7   8
HETATM    8  C   UNL     1     -10.417   5.174  72.190  1.00  0.00    -0.281 A  
HETATM    9  C   UNL     1     -10.801   5.184  73.539  1.00  0.00    -0.360 A  
HETATM   10  C   UNL     1     -10.098   4.443  74.492  1.00  0.00    -0.258 A  
HETATM   11  C   UNL     1      -9.322   4.387  71.809  1.00  0.00    -0.195 A  
HETATM   12  C   UNL     1      -9.001   3.679  74.105  1.00  0.00    -0.091 A  
HETATM   13  C   UNL     1      -8.615   3.646  72.764  1.00  0.00    -0.093 A  
ENDBRANCH   7   8
ENDBRANCH   3   7
ENDBRANCH   2   3
BRANCH   2  14
HETATM   14  C   UNL     1     -10.219   9.166  69.297  1.00  0.00    -0.210 C  
BRANCH  14  15
HETATM   15  O   UNL     1     -10.218   9.065  67.867  1.00  0.00    -0.196 OA 
BRANCH  15  16
HETATM   16  C   UNL     1     -10.526  10.208  67.179  1.00  0.00    -0.246 A  
HETATM   17  C   UNL     1     -11.921  12.191  67.154  1.00  0.00    -0.149 A  
HETATM   18  C   UNL     1     -11.504  11.010  67.771  1.00  0.00    -0.339 A  
HETATM   19  C   UNL     1     -10.345  11.808  65.371  1.00  0.00    -0.311 A  
HETATM   20  C   UNL     1     -11.346  12.586  65.949  1.00  0.00    -0.380 A  
HETATM   21  C   UNL     1      -9.933  10.623  65.985  1.00  0.00    -0.295 A  
ENDBRANCH  15  16
ENDBRANCH  14  15
ENDBRANCH   2  14
TORSDOF 7
ENDMDL
MODEL      213
REMARK 921   NORMALIZED FREE ENERGY PREDICTED BY IDOCK:   -3.43 KCAL/MOL
REMARK 922        TOTAL FREE ENERGY PREDICTED BY IDOCK:   -5.93 KCAL/MOL
REMARK 923 INTER-LIGAND FREE ENERGY PREDICTED BY IDOCK:   -5.84 KCAL/MOL
REMARK 924 INTRA-LIGAND FREE ENERGY PREDICTED BY IDOCK:   -0.09 KCAL/MOL
REMARK 927      BINDING AFFINITY PREDICTED BY RF-SCORE:    0.00 PKD
ROOT
HETATM    1  C   UNL     1      -9.817  10.574  64.827  1.00  0.00    -0.387 C  
HETATM    2  C   UNL     1     -10.319  10.275  66.254  1.00  0.00    -0.186 C  
ENDROOT
BRANCH   2   3
HETATM    3  N   UNL     1     -10.070  11.372  67.249  1.00  0.00    -0.190 NA 
BRANCH   3   4
HETATM    4  C   UNL     1      -8.830  12.133  66.944  1.00  0.00    -0.202 C  
HETATM    5 CL   UNL     1      -6.474  13.355  67.559  1.00  0.00    -0.169 Cl 
HETATM    6  C   UNL     1      -7.929  12.490  68.136  1.00  0.00    -0.157 C  
ENDBRANCH   3   4
BRANCH   3   7
HETATM    7  C   UNL     1     -11.225  12.288  67.378  1.00  0.00    -0.301 C  
BRANCH   7   8
HETATM    8  C   UNL     1     -11.311  13.405  66.358  1.00  0.00    -0.338 A  
HETATM    9  C   UNL     1     -12.229  13.325  65.301  1.00  0.00    -0.492 A  
HETATM   10  C   UNL     1     -12.261  14.299  64.300  1.00  0.00    -0.451 A  
HETATM   11  C   UNL     1     -10.433  14.496  66.403  1.00  0.00    -0.295 A  
HETATM   12  C   UNL     1     -11.372  15.369  64.346  1.00  0.00    -0.246 A  
HETATM   13  C   UNL     1     -10.462  15.472  65.399  1.00  0.00    -0.429 A  
ENDBRANCH   7   8
ENDBRANCH   3   7
ENDBRANCH   2   3
BRANCH   2  14
HETATM   14  C   UNL     1      -9.767   8.899  66.722  1.00  0.00    -0.219 C  
BRANCH  14  15
HETATM   15  O   UNL     1     -10.861   8.011  66.992  1.00  0.00    -0.283 OA 
BRANCH  15  16
HETATM   16  C   UNL     1     -10.542   6.820  67.586  1.00  0.00    -0.259 A  
HETATM   17  C   UNL     1     -10.412   5.628  69.694  1.00  0.00    -0.374 A  
HETATM   18  C   UNL     1     -10.724   6.781  68.971  1.00  0.00    -0.280 A  
HETATM   19  C   UNL     1      -9.785   4.521  67.647  1.00  0.00    -0.206 A  
HETATM   20  C   UNL     1      -9.935   4.500  69.032  1.00  0.00    -0.151 A  
HETATM   21  C   UNL     1     -10.090   5.677  66.924  1.00  0.00    -0.230 A  
ENDBRANCH  15  16
ENDBRANCH  14  15
ENDBRANCH   2  14
TORSDOF 7
ENDMDL
MODEL      214
REMARK 921   NORMALIZED FREE ENERGY PREDICTED BY IDOCK:   -3.43 KCAL/MOL
REMARK 922        TOTAL FREE ENERGY PREDICTED BY IDOCK:   -5.93 KCAL/MOL
REMARK 923 INTER-LIGAND FREE ENERGY PREDICTED BY IDOCK:   -5.18 KCAL/MOL
REMARK 924 INTRA-LIGAND FREE ENERGY PREDICTED BY IDOCK:   -0.75 KCAL/MOL
REMARK 927      BINDING AFFINITY PREDICTED BY RF-SCORE:    0.00 PKD
ROOT
HETATM    1  C   UNL     1      -9.360   3.719  69.827  1.00  0.00    -0.245 C  
HETATM    2  C   UNL     1      -9.931   5.148  69.732  1.00  0.00    -0.243 C  
ENDROOT
BRANCH   2   3
HETATM    3  N   UNL     1     -10.659   5.615  70.960  1.00  0.00    -0.248 NA 
BRANCH   3   4
HETATM    4  C   UNL     1     -10.183   4.927  72.188  1.00  0.00    -0.196 C  
HETATM    5 CL   UNL     1     -10.492   3.563  74.527  1.00  0.00    -0.245 Cl 
HETATM    6  C   UNL     1     -11.262   4.396  73.145  1.00  0.00    -0.216 C  
ENDBRANCH   3   4
BRANCH   3   7
HETATM    7  C   UNL     1     -10.595   7.083  71.128  1.00  0.00    -0.217 C  
BRANCH   7   8
HETATM    8  C   UNL     1     -11.895   7.774  71.487  1.00  0.00    -0.324 A  
HETATM    9  C   UNL     1     -13.096   7.050  71.505  1.00  0.00    -0.395 A  
HETATM   10  C   UNL     1     -14.316   7.687  71.744  1.00  0.00    -0.586 A  
HETATM   11  C   UNL     1     -11.939   9.153  71.733  1.00  0.00    -0.449 A  
HETATM   12  C   UNL     1     -14.349   9.061  71.970  1.00  0.00    -0.327 A  
HETATM   13  C   UNL     1     -13.162   9.793  71.970  1.00  0.00    -0.557 A  
ENDBRANCH   7   8
ENDBRANCH   3   7
ENDBRANCH   2   3
BRANCH   2  14
HETATM   14  C   UNL     1     -10.782   5.284  68.438  1.00  0.00     0.100 C  
BRANCH  14  15
HETATM   15  O   UNL     1     -10.431   6.497  67.759  1.00  0.00    -0.174 OA 
BRANCH  15  16
HETATM   16  C   UNL     1      -9.550   6.376  66.719  1.00  0.00    -0.155 A  
HETATM   17  C   UNL     1      -8.780   4.931  64.930  1.00  0.00    -0.150 A  
HETATM   18  C   UNL     1      -9.641   5.182  66.000  1.00  0.00    -0.176 A  
HETATM   19  C   UNL     1      -7.762   7.091  65.251  1.00  0.00    -0.114 A  
HETATM   20  C   UNL     1      -7.835   5.884  64.560  1.00  0.00    -0.115 A  
HETATM   21  C   UNL     1      -8.618   7.339  66.327  1.00  0.00    -0.147 A  
ENDBRANCH  15  16
ENDBRANCH  14  15
ENDBRANCH   2  14
TORSDOF 7
ENDMDL
MODEL      215
REMARK 921   NORMALIZED FREE ENERGY PREDICTED BY IDOCK:   -3.40 KCAL/MOL
REMARK 922        TOTAL FREE ENERGY PREDICTED BY IDOCK:   -5.88 KCAL/MOL
REMARK 923 INTER-LIGAND FREE ENERGY PREDICTED BY IDOCK:   -5.05 KCAL/MOL
REMARK 924 INTRA-LIGAND FREE ENERGY PREDICTED BY IDOCK:   -0.83 KCAL/MOL
REMARK 927      BINDING AFFINITY PREDICTED BY RF-SCORE:    0.00 PKD
ROOT
HETATM    1  C   UNL     1      -8.778  11.116  68.610  1.00  0.00    -0.153 C  
HETATM    2  C   UNL     1      -9.566   9.879  68.135  1.00  0.00    -0.139 C  
ENDROOT
BRANCH   2   3
HETATM    3  N   UNL     1      -8.811   8.973  67.204  1.00  0.00    -0.119 NA 
BRANCH   3   4
HETATM    4  C   UNL     1      -9.686   7.928  66.610  1.00  0.00    -0.235 C  
HETATM    5 CL   UNL     1     -10.685   5.407  66.347  1.00  0.00    -0.340 Cl 
HETATM    6  C   UNL     1      -9.518   6.499  67.149  1.00  0.00    -0.131 C  
ENDBRANCH   3   4
BRANCH   3   7
HETATM    7  C   UNL     1      -8.100   9.721  66.145  1.00  0.00    -0.109 C  
BRANCH   7   8
HETATM    8  C   UNL     1      -7.799   8.957  64.872  1.00  0.00    -0.121 A  
HETATM    9  C   UNL     1      -6.700   8.088  64.814  1.00  0.00    -0.059 A  
HETATM   10  C   UNL     1      -6.353   7.445  63.623  1.00  0.00    -0.053 A  
HETATM   11  C   UNL     1      -8.559   9.156  63.711  1.00  0.00    -0.185 A  
HETATM   12  C   UNL     1      -7.105   7.664  62.473  1.00  0.00    -0.078 A  
HETATM   13  C   UNL     1      -8.210   8.514  62.517  1.00  0.00    -0.189 A  
ENDBRANCH   7   8
ENDBRANCH   3   7
ENDBRANCH   2   3
BRANCH   2  14
HETATM   14  C   UNL     1     -10.939  10.326  67.559  1.00  0.00    -0.280 C  
BRANCH  14  15
HETATM   15  O   UNL     1     -10.960  11.754  67.426  1.00  0.00    -0.233 OA 
BRANCH  15  16
HETATM   16  C   UNL     1     -11.293  12.242  66.192  1.00  0.00    -0.353 A  
HETATM   17  C   UNL     1     -12.591  13.911  65.003  1.00  0.00    -0.422 A  
HETATM   18  C   UNL     1     -12.161  13.337  66.201  1.00  0.00    -0.477 A  
HETATM   19  C   UNL     1     -11.246  12.335  63.772  1.00  0.00    -0.510 A  
HETATM   20  C   UNL     1     -12.139  13.404  63.788  1.00  0.00    -0.516 A  
HETATM   21  C   UNL     1     -10.820  11.756  64.971  1.00  0.00    -0.350 A  
ENDBRANCH  15  16
ENDBRANCH  14  15
ENDBRANCH   2  14
TORSDOF 7
ENDMDL
MODEL      216
REMARK 921   NORMALIZED FREE ENERGY PREDICTED BY IDOCK:   -3.39 KCAL/MOL
REMARK 922        TOTAL FREE ENERGY PREDICTED BY IDOCK:   -5.88 KCAL/MOL
REMARK 923 INTER-LIGAND FREE ENERGY PREDICTED BY IDOCK:   -5.33 KCAL/MOL
REMARK 924 INTRA-LIGAND FREE ENERGY PREDICTED BY IDOCK:   -0.55 KCAL/MOL
REMARK 927      BINDING AFFINITY PREDICTED BY RF-SCORE:    0.00 PKD
ROOT
HETATM    1  C   UNL     1     -11.575  11.863  69.916  1.00  0.00    -0.333 C  
HETATM    2  C   UNL     1     -11.644  10.935  68.687  1.00  0.00    -0.303 C  
ENDROOT
BRANCH   2   3
HETATM    3  N   UNL     1     -10.392  10.147  68.425  1.00  0.00    -0.174 NA 
BRANCH   3   4
HETATM    4  C   UNL     1      -9.200  10.762  69.067  1.00  0.00    -0.146 C  
HETATM    5 CL   UNL     1      -6.608  11.596  69.164  1.00  0.00    -0.092 Cl 
HETATM    6  C   UNL     1      -7.903  10.776  68.243  1.00  0.00    -0.115 C  
ENDBRANCH   3   4
BRANCH   3   7
HETATM    7  C   UNL     1     -10.525   8.729  68.825  1.00  0.00    -0.191 C  
BRANCH   7   8
HETATM    8  C   UNL     1     -10.214   8.409  70.273  1.00  0.00    -0.204 A  
HETATM    9  C   UNL     1      -8.979   7.843  70.620  1.00  0.00    -0.148 A  
HETATM   10  C   UNL     1      -8.708   7.457  71.935  1.00  0.00    -0.127 A  
HETATM   11  C   UNL     1     -11.171   8.599  71.278  1.00  0.00    -0.338 A  
HETATM   12  C   UNL     1      -9.673   7.635  72.922  1.00  0.00    -0.282 A  
HETATM   13  C   UNL     1     -10.902   8.211  72.597  1.00  0.00    -0.429 A  
ENDBRANCH   7   8
ENDBRANCH   3   7
ENDBRANCH   2   3
BRANCH   2  14
HETATM   14  C   UNL     1     -12.115  11.747  67.448  1.00  0.00     0.270 C  
BRANCH  14  15
HETATM   15  O   UNL     1     -12.128  13.145  67.768  1.00  0.00    -0.324 OA 
BRANCH  15  16
HETATM   16  C   UNL     1     -11.837  14.004  66.743  1.00  0.00    -0.424 A  
HETATM   17  C   UNL     1     -12.344  14.596  64.447  1.00  0.00    -0.420 A  
HETATM   18  C   UNL     1     -12.567  13.797  65.570  1.00  0.00    -0.551 A  
HETATM   19  C   UNL     1     -10.697  15.854  65.676  1.00  0.00    -0.350 A  
HETATM   20  C   UNL     1     -11.403  15.620  64.498  1.00  0.00    -0.327 A  
HETATM   21  C   UNL     1     -10.915  15.050  66.798  1.00  0.00    -0.323 A  
ENDBRANCH  15  16
ENDBRANCH  14  15
ENDBRANCH   2  14
TORSDOF 7
ENDMDL
MODEL      217
REMARK 921   NORMALIZED FREE ENERGY PREDICTED BY IDOCK:   -3.39 KCAL/MOL
REMARK 922        TOTAL FREE ENERGY PREDICTED BY IDOCK:   -5.87 KCAL/MOL
REMARK 923 INTER-LIGAND FREE ENERGY PREDICTED BY IDOCK:   -5.24 KCAL/MOL
REMARK 924 INTRA-LIGAND FREE ENERGY PREDICTED BY IDOCK:   -0.63 KCAL/MOL
REMARK 927      BINDING AFFINITY PREDICTED BY RF-SCORE:    0.00 PKD
ROOT
HETATM    1  C   UNL     1     -10.693   7.374  68.175  1.00  0.00    -0.169 C  
HETATM    2  C   UNL     1     -10.138   8.467  69.111  1.00  0.00    -0.203 C  
ENDROOT
BRANCH   2   3
HETATM    3  N   UNL     1     -10.645   8.401  70.523  1.00  0.00    -0.211 NA 
BRANCH   3   4
HETATM    4  C   UNL     1     -11.208   9.700  70.977  1.00  0.00    -0.375 C  
HETATM    5 CL   UNL     1     -13.160  11.340  71.938  1.00  0.00    -0.583 Cl 
HETATM    6  C   UNL     1     -12.690   9.707  71.380  1.00  0.00    -0.374 C  
ENDBRANCH   3   4
BRANCH   3   7
HETATM    7  C   UNL     1     -11.627   7.312  70.717  1.00  0.00    -0.302 C  
BRANCH   7   8
HETATM    8  C   UNL     1     -11.147   6.111  71.508  1.00  0.00    -0.342 A  
HETATM    9  C   UNL     1     -11.867   5.672  72.629  1.00  0.00    -0.192 A  
HETATM   10  C   UNL     1     -11.394   4.625  73.424  1.00  0.00    -0.394 A  
HETATM   11  C   UNL     1      -9.946   5.465  71.187  1.00  0.00    -0.257 A  
HETATM   12  C   UNL     1     -10.190   4.002  73.105  1.00  0.00    -0.220 A  
HETATM   13  C   UNL     1      -9.469   4.417  71.985  1.00  0.00    -0.196 A  
ENDBRANCH   7   8
ENDBRANCH   3   7
ENDBRANCH   2   3
BRANCH   2  14
HETATM   14  C   UNL     1     -10.346   9.864  68.460  1.00  0.00    -0.196 C  
BRANCH  14  15
HETATM   15  O   UNL     1     -10.465   9.717  67.039  1.00  0.00    -0.238 OA 
BRANCH  15  16
HETATM   16  C   UNL     1      -9.315   9.880  66.315  1.00  0.00    -0.176 A  
HETATM   17  C   UNL     1      -8.249   9.488  64.172  1.00  0.00    -0.159 A  
HETATM   18  C   UNL     1      -9.367   9.400  65.004  1.00  0.00    -0.258 A  
HETATM   19  C   UNL     1      -7.031  10.589  65.937  1.00  0.00    -0.131 A  
HETATM   20  C   UNL     1      -7.077  10.076  64.642  1.00  0.00    -0.140 A  
HETATM   21  C   UNL     1      -8.147  10.494  66.772  1.00  0.00    -0.123 A  
ENDBRANCH  15  16
ENDBRANCH  14  15
ENDBRANCH   2  14
TORSDOF 7
ENDMDL
MODEL      218
REMARK 921   NORMALIZED FREE ENERGY PREDICTED BY IDOCK:   -3.39 KCAL/MOL
REMARK 922        TOTAL FREE ENERGY PREDICTED BY IDOCK:   -5.87 KCAL/MOL
REMARK 923 INTER-LIGAND FREE ENERGY PREDICTED BY IDOCK:   -5.52 KCAL/MOL
REMARK 924 INTRA-LIGAND FREE ENERGY PREDICTED BY IDOCK:   -0.34 KCAL/MOL
REMARK 927      BINDING AFFINITY PREDICTED BY RF-SCORE:    0.00 PKD
ROOT
HETATM    1  C   UNL     1     -11.554  10.831  68.926  1.00  0.00    -0.361 C  
HETATM    2  C   UNL     1     -11.150  10.425  67.494  1.00  0.00    -0.267 C  
ENDROOT
BRANCH   2   3
HETATM    3  N   UNL     1     -10.033   9.425  67.417  1.00  0.00    -0.186 NA 
BRANCH   3   4
HETATM    4  C   UNL     1      -9.207   9.414  68.654  1.00  0.00    -0.131 C  
HETATM    5 CL   UNL     1      -7.077  10.115  70.202  1.00  0.00    -0.152 Cl 
HETATM    6  C   UNL     1      -7.895  10.214  68.615  1.00  0.00    -0.097 C  
ENDBRANCH   3   4
BRANCH   3   7
HETATM    7  C   UNL     1     -10.517   8.064  67.102  1.00  0.00    -0.338 C  
BRANCH   7   8
HETATM    8  C   UNL     1     -10.314   7.014  68.177  1.00  0.00    -0.226 A  
HETATM    9  C   UNL     1      -9.372   5.991  67.994  1.00  0.00    -0.114 A  
HETATM   10  C   UNL     1      -9.235   4.964  68.931  1.00  0.00    -0.164 A  
HETATM   11  C   UNL     1     -11.107   6.998  69.332  1.00  0.00    -0.194 A  
HETATM   12  C   UNL     1     -10.041   4.949  70.067  1.00  0.00    -0.337 A  
HETATM   13  C   UNL     1     -10.972   5.968  70.270  1.00  0.00    -0.412 A  
ENDBRANCH   7   8
ENDBRANCH   3   7
ENDBRANCH   2   3
BRANCH   2  14
HETATM   14  C   UNL     1     -10.877  11.702  66.649  1.00  0.00    -0.283 C  
BRANCH  14  15
HETATM   15  O   UNL     1     -11.215  12.865  67.416  1.00  0.00    -0.265 OA 
BRANCH  15  16
HETATM   16  C   UNL     1     -10.963  14.074  66.826  1.00  0.00    -0.297 A  
HETATM   17  C   UNL     1     -10.414  16.401  67.230  1.00  0.00    -0.303 A  
HETATM   18  C   UNL     1     -10.668  15.115  67.710  1.00  0.00    -0.279 A  
HETATM   19  C   UNL     1     -10.693  15.607  64.971  1.00  0.00    -0.458 A  
HETATM   20  C   UNL     1     -10.435  16.649  65.860  1.00  0.00    -0.324 A  
HETATM   21  C   UNL     1     -10.954  14.321  65.452  1.00  0.00    -0.335 A  
ENDBRANCH  15  16
ENDBRANCH  14  15
ENDBRANCH   2  14
TORSDOF 7
ENDMDL
MODEL      219
REMARK 921   NORMALIZED FREE ENERGY PREDICTED BY IDOCK:   -3.36 KCAL/MOL
REMARK 922        TOTAL FREE ENERGY PREDICTED BY IDOCK:   -5.82 KCAL/MOL
REMARK 923 INTER-LIGAND FREE ENERGY PREDICTED BY IDOCK:   -5.03 KCAL/MOL
REMARK 924 INTRA-LIGAND FREE ENERGY PREDICTED BY IDOCK:   -0.79 KCAL/MOL
REMARK 927      BINDING AFFINITY PREDICTED BY RF-SCORE:    0.00 PKD
ROOT
HETATM    1  C   UNL     1     -10.576   5.344  72.024  1.00  0.00    -0.284 C  
HETATM    2  C   UNL     1     -10.672   5.353  70.485  1.00  0.00    -0.196 C  
ENDROOT
BRANCH   2   3
HETATM    3  N   UNL     1      -9.376   5.086  69.775  1.00  0.00    -0.124 NA 
BRANCH   3   4
HETATM    4  C   UNL     1      -8.221   5.056  70.711  1.00  0.00    -0.100 C  
HETATM    5 CL   UNL     1      -6.032   3.941  71.891  1.00  0.00    -0.012 Cl 
HETATM    6  C   UNL     1      -7.395   3.761  70.747  1.00  0.00    -0.037 C  
ENDBRANCH   3   4
BRANCH   3   7
HETATM    7  C   UNL     1      -9.422   3.849  68.966  1.00  0.00    -0.170 C  
BRANCH   7   8
HETATM    8  C   UNL     1      -9.226   4.018  67.472  1.00  0.00    -0.194 A  
HETATM    9  C   UNL     1      -9.222   5.300  66.903  1.00  0.00    -0.121 A  
HETATM   10  C   UNL     1      -9.134   5.472  65.519  1.00  0.00    -0.101 A  
HETATM   11  C   UNL     1      -9.122   2.907  66.625  1.00  0.00    -0.161 A  
HETATM   12  C   UNL     1      -9.049   4.360  64.686  1.00  0.00    -0.152 A  
HETATM   13  C   UNL     1      -9.037   3.078  65.238  1.00  0.00    -0.149 A  
ENDBRANCH   7   8
ENDBRANCH   3   7
ENDBRANCH   2   3
BRANCH   2  14
HETATM   14  C   UNL     1     -11.358   6.666  70.014  1.00  0.00    -0.382 C  
BRANCH  14  15
HETATM   15  O   UNL     1     -10.654   7.794  70.551  1.00  0.00    -0.218 OA 
BRANCH  15  16
HETATM   16  C   UNL     1     -11.414   8.882  70.881  1.00  0.00    -0.288 A  
HETATM   17  C   UNL     1     -13.299   9.659  72.195  1.00  0.00    -0.545 A  
HETATM   18  C   UNL     1     -12.440   8.633  71.796  1.00  0.00    -0.397 A  
HETATM   19  C   UNL     1     -12.080  11.209  70.810  1.00  0.00    -0.458 A  
HETATM   20  C   UNL     1     -13.123  10.946  71.695  1.00  0.00    -0.538 A  
HETATM   21  C   UNL     1     -11.225  10.181  70.405  1.00  0.00    -0.402 A  
ENDBRANCH  15  16
ENDBRANCH  14  15
ENDBRANCH   2  14
TORSDOF 7
ENDMDL
MODEL      220
REMARK 921   NORMALIZED FREE ENERGY PREDICTED BY IDOCK:   -3.35 KCAL/MOL
REMARK 922        TOTAL FREE ENERGY PREDICTED BY IDOCK:   -5.82 KCAL/MOL
REMARK 923 INTER-LIGAND FREE ENERGY PREDICTED BY IDOCK:   -5.41 KCAL/MOL
REMARK 924 INTRA-LIGAND FREE ENERGY PREDICTED BY IDOCK:   -0.41 KCAL/MOL
REMARK 927      BINDING AFFINITY PREDICTED BY RF-SCORE:    0.00 PKD
ROOT
HETATM    1  C   UNL     1      -7.571  12.078  68.509  1.00  0.00    -0.126 C  
HETATM    2  C   UNL     1      -9.029  11.631  68.279  1.00  0.00    -0.185 C  
ENDROOT
BRANCH   2   3
HETATM    3  N   UNL     1     -10.067  12.579  68.807  1.00  0.00    -0.115 NA 
BRANCH   3   4
HETATM    4  C   UNL     1      -9.722  13.998  68.528  1.00  0.00    -0.215 C  
HETATM    5 CL   UNL     1      -9.916  16.694  68.868  1.00  0.00    -0.258 Cl 
HETATM    6  C   UNL     1     -10.508  15.065  69.306  1.00  0.00    -0.249 C  
ENDBRANCH   3   4
BRANCH   3   7
HETATM    7  C   UNL     1     -11.423  12.264  68.307  1.00  0.00    -0.315 C  
BRANCH   7   8
HETATM    8  C   UNL     1     -11.660  12.488  66.827  1.00  0.00    -0.446 A  
HETATM    9  C   UNL     1     -12.534  13.497  66.398  1.00  0.00    -0.349 A  
HETATM   10  C   UNL     1     -12.836  13.659  65.043  1.00  0.00    -0.325 A  
HETATM   11  C   UNL     1     -11.075  11.653  65.865  1.00  0.00    -0.320 A  
HETATM   12  C   UNL     1     -12.263  12.812  64.099  1.00  0.00    -0.506 A  
HETATM   13  C   UNL     1     -11.379  11.813  64.508  1.00  0.00    -0.349 A  
ENDBRANCH   7   8
ENDBRANCH   3   7
ENDBRANCH   2   3
BRANCH   2  14
HETATM   14  C   UNL     1      -9.216  10.178  68.802  1.00  0.00    -0.164 C  
BRANCH  14  15
HETATM   15  O   UNL     1      -9.077  10.162  70.229  1.00  0.00    -0.034 OA 
BRANCH  15  16
HETATM   16  C   UNL     1      -9.559   9.054  70.872  1.00  0.00    -0.262 A  
HETATM   17  C   UNL     1      -9.074   7.359  72.536  1.00  0.00    -0.175 A  
HETATM   18  C   UNL     1      -8.703   8.504  71.829  1.00  0.00    -0.266 A  
HETATM   19  C   UNL     1     -11.186   7.333  71.376  1.00  0.00    -0.274 A  
HETATM   20  C   UNL     1     -10.314   6.769  72.304  1.00  0.00    -0.219 A  
HETATM   21  C   UNL     1     -10.813   8.475  70.662  1.00  0.00    -0.255 A  
ENDBRANCH  15  16
ENDBRANCH  14  15
ENDBRANCH   2  14
TORSDOF 7
ENDMDL
MODEL      221
REMARK 921   NORMALIZED FREE ENERGY PREDICTED BY IDOCK:   -3.33 KCAL/MOL
REMARK 922        TOTAL FREE ENERGY PREDICTED BY IDOCK:   -5.79 KCAL/MOL
REMARK 923 INTER-LIGAND FREE ENERGY PREDICTED BY IDOCK:   -3.80 KCAL/MOL
REMARK 924 INTRA-LIGAND FREE ENERGY PREDICTED BY IDOCK:   -2.00 KCAL/MOL
REMARK 927      BINDING AFFINITY PREDICTED BY RF-SCORE:    0.00 PKD
ROOT
HETATM    1  C   UNL     1      -7.007   9.427  69.214  1.00  0.00    -0.053 C  
HETATM    2  C   UNL     1      -7.589  10.802  68.826  1.00  0.00    -0.113 C  
ENDROOT
BRANCH   2   3
HETATM    3  N   UNL     1      -8.541  10.775  67.664  1.00  0.00    -0.122 NA 
BRANCH   3   4
HETATM    4  C   UNL     1      -8.348   9.572  66.812  1.00  0.00    -0.116 C  
HETATM    5 CL   UNL     1      -8.469   8.151  64.490  1.00  0.00    -0.073 Cl 
HETATM    6  C   UNL     1      -8.831   9.673  65.357  1.00  0.00    -0.171 C  
ENDBRANCH   3   4
BRANCH   3   7
HETATM    7  C   UNL     1      -9.952  10.891  68.090  1.00  0.00    -0.174 C  
BRANCH   7   8
HETATM    8  C   UNL     1     -10.610  12.239  67.869  1.00  0.00    -0.232 A  
HETATM    9  C   UNL     1     -11.250  12.893  68.932  1.00  0.00    -0.327 A  
HETATM   10  C   UNL     1     -11.940  14.091  68.728  1.00  0.00    -0.382 A  
HETATM   11  C   UNL     1     -10.659  12.821  66.596  1.00  0.00    -0.272 A  
HETATM   12  C   UNL     1     -11.996  14.651  67.455  1.00  0.00    -0.309 A  
HETATM   13  C   UNL     1     -11.352  14.020  66.390  1.00  0.00    -0.338 A  
ENDBRANCH   7   8
ENDBRANCH   3   7
ENDBRANCH   2   3
BRANCH   2  14
HETATM   14  C   UNL     1      -6.432  11.822  68.634  1.00  0.00    -0.060 C  
BRANCH  14  15
HETATM   15  O   UNL     1      -6.653  12.961  69.476  1.00  0.00    -0.102 OA 
BRANCH  15  16
HETATM   16  C   UNL     1      -7.230  14.051  68.882  1.00  0.00    -0.108 A  
HETATM   17  C   UNL     1      -8.334  16.173  69.279  1.00  0.00    -0.178 A  
HETATM   18  C   UNL     1      -7.705  15.024  69.764  1.00  0.00    -0.038 A  
HETATM   19  C   UNL     1      -7.970  15.412  67.021  1.00  0.00    -0.259 A  
HETATM   20  C   UNL     1      -8.473  16.362  67.906  1.00  0.00    -0.171 A  
HETATM   21  C   UNL     1      -7.347  14.259  67.506  1.00  0.00    -0.199 A  
ENDBRANCH  15  16
ENDBRANCH  14  15
ENDBRANCH   2  14
TORSDOF 7
ENDMDL
MODEL      222
REMARK 921   NORMALIZED FREE ENERGY PREDICTED BY IDOCK:   -3.31 KCAL/MOL
REMARK 922        TOTAL FREE ENERGY PREDICTED BY IDOCK:   -5.76 KCAL/MOL
REMARK 923 INTER-LIGAND FREE ENERGY PREDICTED BY IDOCK:   -5.33 KCAL/MOL
REMARK 924 INTRA-LIGAND FREE ENERGY PREDICTED BY IDOCK:   -0.43 KCAL/MOL
REMARK 927      BINDING AFFINITY PREDICTED BY RF-SCORE:    0.00 PKD
ROOT
HETATM    1  C   UNL     1      -8.412  13.507  67.370  1.00  0.00    -0.203 C  
HETATM    2  C   UNL     1      -9.557  12.868  66.559  1.00  0.00    -0.259 C  
ENDROOT
BRANCH   2   3
HETATM    3  N   UNL     1     -10.294  13.817  65.659  1.00  0.00    -0.301 NA 
BRANCH   3   4
HETATM    4  C   UNL     1     -10.815  13.142  64.441  1.00  0.00    -0.397 C  
HETATM    5 CL   UNL     1     -12.694  11.841  62.956  1.00  0.00    -0.323 Cl 
HETATM    6  C   UNL     1     -12.236  12.563  64.527  1.00  0.00    -0.453 C  
ENDBRANCH   3   4
BRANCH   3   7
HETATM    7  C   UNL     1     -11.381  14.532  66.363  1.00  0.00    -0.349 C  
BRANCH   7   8
HETATM    8  C   UNL     1     -10.953  15.632  67.314  1.00  0.00    -0.275 A  
HETATM    9  C   UNL     1     -10.245  16.743  66.833  1.00  0.00    -0.290 A  
HETATM   10  C   UNL     1      -9.763  17.722  67.705  1.00  0.00    -0.285 A  
HETATM   11  C   UNL     1     -11.186  15.531  68.691  1.00  0.00    -0.326 A  
HETATM   12  C   UNL     1      -9.985  17.601  69.074  1.00  0.00    -0.264 A  
HETATM   13  C   UNL     1     -10.701  16.510  69.567  1.00  0.00    -0.321 A  
ENDBRANCH   7   8
ENDBRANCH   3   7
ENDBRANCH   2   3
BRANCH   2  14
HETATM   14  C   UNL     1     -10.502  12.090  67.518  1.00  0.00    -0.212 C  
BRANCH  14  15
HETATM   15  O   UNL     1     -10.714  10.765  67.011  1.00  0.00    -0.251 OA 
BRANCH  15  16
HETATM   16  C   UNL     1      -9.592  10.064  66.661  1.00  0.00    -0.186 A  
HETATM   17  C   UNL     1      -7.943   8.455  67.416  1.00  0.00    -0.106 A  
HETATM   18  C   UNL     1      -9.096   9.208  67.647  1.00  0.00    -0.133 A  
HETATM   19  C   UNL     1      -7.800   9.365  65.190  1.00  0.00    -0.110 A  
HETATM   20  C   UNL     1      -7.291   8.540  66.189  1.00  0.00    -0.081 A  
HETATM   21  C   UNL     1      -8.950  10.124  65.422  1.00  0.00    -0.208 A  
ENDBRANCH  15  16
ENDBRANCH  14  15
ENDBRANCH   2  14
TORSDOF 7
ENDMDL
MODEL      223
REMARK 921   NORMALIZED FREE ENERGY PREDICTED BY IDOCK:   -3.29 KCAL/MOL
REMARK 922        TOTAL FREE ENERGY PREDICTED BY IDOCK:   -5.73 KCAL/MOL
REMARK 923 INTER-LIGAND FREE ENERGY PREDICTED BY IDOCK:   -5.81 KCAL/MOL
REMARK 924 INTRA-LIGAND FREE ENERGY PREDICTED BY IDOCK:    0.07 KCAL/MOL
REMARK 927      BINDING AFFINITY PREDICTED BY RF-SCORE:    0.00 PKD
ROOT
HETATM    1  C   UNL     1     -11.896  14.541  66.558  1.00  0.00    -0.367 C  
HETATM    2  C   UNL     1     -11.174  13.960  67.791  1.00  0.00    -0.293 C  
ENDROOT
BRANCH   2   3
HETATM    3  N   UNL     1     -11.357  14.750  69.055  1.00  0.00    -0.260 NA 
BRANCH   3   4
HETATM    4  C   UNL     1     -11.467  16.209  68.791  1.00  0.00    -0.340 C  
HETATM    5 CL   UNL     1     -10.501  18.684  68.183  1.00  0.00    -0.387 Cl 
HETATM    6  C   UNL     1     -10.155  16.963  68.524  1.00  0.00    -0.297 C  
ENDBRANCH   3   4
BRANCH   3   7
HETATM    7  C   UNL     1     -12.509  14.277  69.853  1.00  0.00    -0.264 C  
BRANCH   7   8
HETATM    8  C   UNL     1     -12.393  12.883  70.436  1.00  0.00    -0.333 A  
HETATM    9  C   UNL     1     -11.596  11.918  69.802  1.00  0.00    -0.359 A  
HETATM   10  C   UNL     1     -11.548  10.603  70.272  1.00  0.00    -0.424 A  
HETATM   11  C   UNL     1     -13.130  12.507  71.566  1.00  0.00    -0.373 A  
HETATM   12  C   UNL     1     -12.299  10.237  71.385  1.00  0.00    -0.502 A  
HETATM   13  C   UNL     1     -13.085  11.188  72.036  1.00  0.00    -0.433 A  
ENDBRANCH   7   8
ENDBRANCH   3   7
ENDBRANCH   2   3
BRANCH   2  14
HETATM   14  C   UNL     1      -9.679  13.708  67.448  1.00  0.00    -0.228 C  
BRANCH  14  15
HETATM   15  O   UNL     1      -8.898  13.752  68.650  1.00  0.00    -0.146 OA 
BRANCH  15  16
HETATM   16  C   UNL     1      -7.656  14.318  68.546  1.00  0.00    -0.127 A  
HETATM   17  C   UNL     1      -6.273  15.842  67.263  1.00  0.00    -0.117 A  
HETATM   18  C   UNL     1      -7.501  15.216  67.487  1.00  0.00    -0.223 A  
HETATM   19  C   UNL     1      -5.356  14.719  69.188  1.00  0.00    -0.092 A  
HETATM   20  C   UNL     1      -5.198  15.587  68.110  1.00  0.00    -0.122 A  
HETATM   21  C   UNL     1      -6.583  14.087  69.409  1.00  0.00    -0.118 A  
ENDBRANCH  15  16
ENDBRANCH  14  15
ENDBRANCH   2  14
TORSDOF 7
ENDMDL
MODEL      224
REMARK 921   NORMALIZED FREE ENERGY PREDICTED BY IDOCK:   -3.28 KCAL/MOL
REMARK 922        TOTAL FREE ENERGY PREDICTED BY IDOCK:   -5.72 KCAL/MOL
REMARK 923 INTER-LIGAND FREE ENERGY PREDICTED BY IDOCK:   -5.95 KCAL/MOL
REMARK 924 INTRA-LIGAND FREE ENERGY PREDICTED BY IDOCK:    0.23 KCAL/MOL
REMARK 927      BINDING AFFINITY PREDICTED BY RF-SCORE:    0.00 PKD
ROOT
HETATM    1  C   UNL     1      -7.405  11.819  66.926  1.00  0.00    -0.104 C  
HETATM    2  C   UNL     1      -8.830  11.556  67.453  1.00  0.00    -0.157 C  
ENDROOT
BRANCH   2   3
HETATM    3  N   UNL     1      -9.689  10.719  66.549  1.00  0.00    -0.190 NA 
BRANCH   3   4
HETATM    4  C   UNL     1      -8.951  10.264  65.341  1.00  0.00    -0.178 C  
HETATM    5 CL   UNL     1      -8.415  10.166  62.671  1.00  0.00    -0.162 Cl 
HETATM    6  C   UNL     1      -9.457  10.784  63.987  1.00  0.00    -0.272 C  
ENDBRANCH   3   4
BRANCH   3   7
HETATM    7  C   UNL     1     -10.294   9.569  67.255  1.00  0.00    -0.255 C  
BRANCH   7   8
HETATM    8  C   UNL     1     -10.846   9.846  68.639  1.00  0.00    -0.244 A  
HETATM    9  C   UNL     1     -10.531   8.993  69.706  1.00  0.00    -0.227 A  
HETATM   10  C   UNL     1     -11.102   9.179  70.968  1.00  0.00    -0.374 A  
HETATM   11  C   UNL     1     -11.734  10.906  68.865  1.00  0.00    -0.376 A  
HETATM   12  C   UNL     1     -11.997  10.225  71.177  1.00  0.00    -0.472 A  
HETATM   13  C   UNL     1     -12.309  11.091  70.129  1.00  0.00    -0.389 A  
ENDBRANCH   7   8
ENDBRANCH   3   7
ENDBRANCH   2   3
BRANCH   2  14
HETATM   14  C   UNL     1      -9.498  12.906  67.841  1.00  0.00    -0.208 C  
BRANCH  14  15
HETATM   15  O   UNL     1     -10.807  12.976  67.260  1.00  0.00    -0.247 OA 
BRANCH  15  16
HETATM   16  C   UNL     1     -10.999  13.946  66.314  1.00  0.00    -0.298 A  
HETATM   17  C   UNL     1     -12.265  14.569  64.341  1.00  0.00    -0.480 A  
HETATM   18  C   UNL     1     -11.991  13.666  65.371  1.00  0.00    -0.400 A  
HETATM   19  C   UNL     1     -10.595  16.068  65.220  1.00  0.00    -0.424 A  
HETATM   20  C   UNL     1     -11.561  15.767  64.262  1.00  0.00    -0.192 A  
HETATM   21  C   UNL     1     -10.316  15.161  66.246  1.00  0.00    -0.303 A  
ENDBRANCH  15  16
ENDBRANCH  14  15
ENDBRANCH   2  14
TORSDOF 7
ENDMDL
MODEL      225
REMARK 921   NORMALIZED FREE ENERGY PREDICTED BY IDOCK:   -3.28 KCAL/MOL
REMARK 922        TOTAL FREE ENERGY PREDICTED BY IDOCK:   -5.72 KCAL/MOL
REMARK 923 INTER-LIGAND FREE ENERGY PREDICTED BY IDOCK:   -5.35 KCAL/MOL
REMARK 924 INTRA-LIGAND FREE ENERGY PREDICTED BY IDOCK:   -0.37 KCAL/MOL
REMARK 927      BINDING AFFINITY PREDICTED BY RF-SCORE:    0.00 PKD
ROOT
HETATM    1  C   UNL     1      -7.546  13.116  68.729  1.00  0.00    -0.033 C  
HETATM    2  C   UNL     1      -8.400  13.378  67.472  1.00  0.00    -0.190 C  
ENDROOT
BRANCH   2   3
HETATM    3  N   UNL     1      -9.185  14.658  67.504  1.00  0.00    -0.188 NA 
BRANCH   3   4
HETATM    4  C   UNL     1      -9.929  14.827  68.780  1.00  0.00    -0.234 C  
HETATM    5 CL   UNL     1     -12.095  14.603  70.419  1.00  0.00    -0.356 Cl 
HETATM    6  C   UNL     1     -11.394  14.363  68.791  1.00  0.00    -0.273 C  
ENDBRANCH   3   4
BRANCH   3   7
HETATM    7  C   UNL     1      -8.342  15.842  67.232  1.00  0.00    -0.186 C  
BRANCH   7   8
HETATM    8  C   UNL     1      -9.039  17.187  67.280  1.00  0.00    -0.227 A  
HETATM    9  C   UNL     1      -8.995  17.962  68.449  1.00  0.00    -0.285 A  
HETATM   10  C   UNL     1      -9.706  19.161  68.544  1.00  0.00    -0.467 A  
HETATM   11  C   UNL     1      -9.798  17.648  66.198  1.00  0.00    -0.253 A  
HETATM   12  C   UNL     1     -10.471  19.600  67.467  1.00  0.00    -0.589 A  
HETATM   13  C   UNL     1     -10.514  18.848  66.293  1.00  0.00    -0.510 A  
ENDBRANCH   7   8
ENDBRANCH   3   7
ENDBRANCH   2   3
BRANCH   2  14
HETATM   14  C   UNL     1      -9.286  12.135  67.177  1.00  0.00    -0.193 C  
BRANCH  14  15
HETATM   15  O   UNL     1      -9.684  12.148  65.799  1.00  0.00    -0.245 OA 
BRANCH  15  16
HETATM   16  C   UNL     1      -9.109  11.203  64.993  1.00  0.00    -0.121 A  
HETATM   17  C   UNL     1      -9.347   9.938  62.938  1.00  0.00    -0.232 A  
HETATM   18  C   UNL     1      -9.822  10.902  63.830  1.00  0.00    -0.385 A  
HETATM   19  C   UNL     1      -7.412   9.606  64.335  1.00  0.00    -0.125 A  
HETATM   20  C   UNL     1      -8.145   9.284  63.195  1.00  0.00    -0.158 A  
HETATM   21  C   UNL     1      -7.890  10.565  65.232  1.00  0.00    -0.100 A  
ENDBRANCH  15  16
ENDBRANCH  14  15
ENDBRANCH   2  14
TORSDOF 7
ENDMDL
MODEL      226
REMARK 921   NORMALIZED FREE ENERGY PREDICTED BY IDOCK:   -3.27 KCAL/MOL
REMARK 922        TOTAL FREE ENERGY PREDICTED BY IDOCK:   -5.71 KCAL/MOL
REMARK 923 INTER-LIGAND FREE ENERGY PREDICTED BY IDOCK:   -5.01 KCAL/MOL
REMARK 924 INTRA-LIGAND FREE ENERGY PREDICTED BY IDOCK:   -0.69 KCAL/MOL
REMARK 927      BINDING AFFINITY PREDICTED BY RF-SCORE:    0.00 PKD
ROOT
HETATM    1  C   UNL     1      -7.607  11.101  67.386  1.00  0.00    -0.113 C  
HETATM    2  C   UNL     1      -9.089  10.761  67.648  1.00  0.00    -0.147 C  
ENDROOT
BRANCH   2   3
HETATM    3  N   UNL     1      -9.844  10.280  66.442  1.00  0.00    -0.207 NA 
BRANCH   3   4
HETATM    4  C   UNL     1     -10.015  11.351  65.426  1.00  0.00    -0.245 C  
HETATM    5 CL   UNL     1     -11.429  13.191  63.998  1.00  0.00    -0.439 Cl 
HETATM    6  C   UNL     1     -11.441  11.884  65.218  1.00  0.00    -0.253 C  
ENDBRANCH   3   4
BRANCH   3   7
HETATM    7  C   UNL     1      -9.230   9.079  65.836  1.00  0.00    -0.230 C  
BRANCH   7   8
HETATM    8  C   UNL     1      -9.433   7.774  66.579  1.00  0.00    -0.262 A  
HETATM    9  C   UNL     1     -10.682   7.469  67.139  1.00  0.00    -0.379 A  
HETATM   10  C   UNL     1     -10.864   6.315  67.905  1.00  0.00    -0.417 A  
HETATM   11  C   UNL     1      -8.369   6.886  66.787  1.00  0.00    -0.116 A  
HETATM   12  C   UNL     1      -9.796   5.449  68.120  1.00  0.00    -0.188 A  
HETATM   13  C   UNL     1      -8.550   5.730  67.557  1.00  0.00    -0.105 A  
ENDBRANCH   7   8
ENDBRANCH   3   7
ENDBRANCH   2   3
BRANCH   2  14
HETATM   14  C   UNL     1      -9.781  11.960  68.355  1.00  0.00    -0.201 C  
BRANCH  14  15
HETATM   15  O   UNL     1      -9.096  13.174  68.018  1.00  0.00    -0.193 OA 
BRANCH  15  16
HETATM   16  C   UNL     1      -9.813  14.332  68.154  1.00  0.00    -0.226 A  
HETATM   17  C   UNL     1     -11.774  15.344  69.160  1.00  0.00    -0.364 A  
HETATM   18  C   UNL     1     -10.949  14.235  68.962  1.00  0.00    -0.282 A  
HETATM   19  C   UNL     1     -10.306  16.675  67.789  1.00  0.00    -0.306 A  
HETATM   20  C   UNL     1     -11.456  16.562  68.566  1.00  0.00    -0.133 A  
HETATM   21  C   UNL     1      -9.484  15.564  67.584  1.00  0.00    -0.208 A  
ENDBRANCH  15  16
ENDBRANCH  14  15
ENDBRANCH   2  14
TORSDOF 7
ENDMDL
MODEL      227
REMARK 921   NORMALIZED FREE ENERGY PREDICTED BY IDOCK:   -3.22 KCAL/MOL
REMARK 922        TOTAL FREE ENERGY PREDICTED BY IDOCK:   -5.63 KCAL/MOL
REMARK 923 INTER-LIGAND FREE ENERGY PREDICTED BY IDOCK:   -5.76 KCAL/MOL
REMARK 924 INTRA-LIGAND FREE ENERGY PREDICTED BY IDOCK:    0.13 KCAL/MOL
REMARK 927      BINDING AFFINITY PREDICTED BY RF-SCORE:    0.00 PKD
ROOT
HETATM    1  C   UNL     1     -11.850  12.024  70.052  1.00  0.00    -0.392 C  
HETATM    2  C   UNL     1     -11.627  11.004  68.917  1.00  0.00    -0.314 C  
ENDROOT
BRANCH   2   3
HETATM    3  N   UNL     1     -10.365  10.198  69.037  1.00  0.00    -0.199 NA 
BRANCH   3   4
HETATM    4  C   UNL     1     -10.549   8.997  69.893  1.00  0.00    -0.228 C  
HETATM    5 CL   UNL     1     -10.019   7.385  72.025  1.00  0.00    -0.188 Cl 
HETATM    6  C   UNL     1      -9.609   8.860  71.101  1.00  0.00    -0.272 C  
ENDBRANCH   3   4
BRANCH   3   7
HETATM    7  C   UNL     1      -9.812   9.819  67.719  1.00  0.00    -0.160 C  
BRANCH   7   8
HETATM    8  C   UNL     1      -9.909   8.353  67.348  1.00  0.00    -0.249 A  
HETATM    9  C   UNL     1      -8.832   7.712  66.719  1.00  0.00    -0.150 A  
HETATM   10  C   UNL     1      -8.935   6.388  66.287  1.00  0.00    -0.166 A  
HETATM   11  C   UNL     1     -11.092   7.631  67.553  1.00  0.00     0.092 A  
HETATM   12  C   UNL     1     -10.122   5.686  66.481  1.00  0.00    -0.225 A  
HETATM   13  C   UNL     1     -11.198   6.304  67.118  1.00  0.00    -0.260 A  
ENDBRANCH   7   8
ENDBRANCH   3   7
ENDBRANCH   2   3
BRANCH   2  14
HETATM   14  C   UNL     1     -11.758  11.719  67.542  1.00  0.00    -0.240 C  
BRANCH  14  15
HETATM   15  O   UNL     1     -12.109  13.094  67.749  1.00  0.00    -0.324 OA 
BRANCH  15  16
HETATM   16  C   UNL     1     -11.788  13.959  66.738  1.00  0.00    -0.424 A  
HETATM   17  C   UNL     1     -12.275  14.607  64.452  1.00  0.00    -0.473 A  
HETATM   18  C   UNL     1     -12.525  13.798  65.563  1.00  0.00    -0.548 A  
HETATM   19  C   UNL     1     -10.584  15.786  65.700  1.00  0.00    -0.393 A  
HETATM   20  C   UNL     1     -11.298  15.596  64.520  1.00  0.00    -0.327 A  
HETATM   21  C   UNL     1     -10.829  14.971  66.809  1.00  0.00    -0.318 A  
ENDBRANCH  15  16
ENDBRANCH  14  15
ENDBRANCH   2  14
TORSDOF 7
ENDMDL
MODEL      228
REMARK 921   NORMALIZED FREE ENERGY PREDICTED BY IDOCK:   -3.22 KCAL/MOL
REMARK 922        TOTAL FREE ENERGY PREDICTED BY IDOCK:   -5.63 KCAL/MOL
REMARK 923 INTER-LIGAND FREE ENERGY PREDICTED BY IDOCK:   -3.80 KCAL/MOL
REMARK 924 INTRA-LIGAND FREE ENERGY PREDICTED BY IDOCK:   -1.83 KCAL/MOL
REMARK 927      BINDING AFFINITY PREDICTED BY RF-SCORE:    0.00 PKD
ROOT
HETATM    1  C   UNL     1     -11.467  10.272  69.803  1.00  0.00    -0.320 C  
HETATM    2  C   UNL     1     -10.392  10.294  68.697  1.00  0.00    -0.184 C  
ENDROOT
BRANCH   2   3
HETATM    3  N   UNL     1     -10.096  11.655  68.137  1.00  0.00    -0.190 NA 
BRANCH   3   4
HETATM    4  C   UNL     1     -11.168  12.635  68.453  1.00  0.00    -0.279 C  
HETATM    5 CL   UNL     1     -12.142  15.043  69.277  1.00  0.00    -0.311 Cl 
HETATM    6  C   UNL     1     -10.718  13.995  69.010  1.00  0.00    -0.211 C  
ENDBRANCH   3   4
BRANCH   3   7
HETATM    7  C   UNL     1      -8.778  12.167  68.570  1.00  0.00    -0.079 C  
BRANCH   7   8
HETATM    8  C   UNL     1      -7.565  11.414  68.061  1.00  0.00    -0.110 A  
HETATM    9  C   UNL     1      -7.027  11.714  66.801  1.00  0.00    -0.080 A  
HETATM   10  C   UNL     1      -5.968  10.970  66.275  1.00  0.00    -0.143 A  
HETATM   11  C   UNL     1      -7.006  10.360  68.796  1.00  0.00    -0.068 A  
HETATM   12  C   UNL     1      -5.432   9.915  67.007  1.00  0.00    -0.045 A  
HETATM   13  C   UNL     1      -5.945   9.612  68.268  1.00  0.00    -0.047 A  
ENDBRANCH   7   8
ENDBRANCH   3   7
ENDBRANCH   2   3
BRANCH   2  14
HETATM   14  C   UNL     1     -10.756   9.255  67.598  1.00  0.00    -0.209 C  
BRANCH  14  15
HETATM   15  O   UNL     1      -9.556   8.665  67.081  1.00  0.00    -0.153 OA 
BRANCH  15  16
HETATM   16  C   UNL     1      -9.245   8.963  65.782  1.00  0.00    -0.221 A  
HETATM   17  C   UNL     1      -7.820   8.397  63.904  1.00  0.00    -0.151 A  
HETATM   18  C   UNL     1      -8.241   8.174  65.216  1.00  0.00    -0.150 A  
HETATM   19  C   UNL     1      -9.442  10.166  63.690  1.00  0.00    -0.320 A  
HETATM   20  C   UNL     1      -8.416   9.399  63.143  1.00  0.00    -0.205 A  
HETATM   21  C   UNL     1      -9.859   9.948  65.006  1.00  0.00    -0.323 A  
ENDBRANCH  15  16
ENDBRANCH  14  15
ENDBRANCH   2  14
TORSDOF 7
ENDMDL
MODEL      229
REMARK 921   NORMALIZED FREE ENERGY PREDICTED BY IDOCK:   -3.19 KCAL/MOL
REMARK 922        TOTAL FREE ENERGY PREDICTED BY IDOCK:   -5.59 KCAL/MOL
REMARK 923 INTER-LIGAND FREE ENERGY PREDICTED BY IDOCK:   -5.56 KCAL/MOL
REMARK 924 INTRA-LIGAND FREE ENERGY PREDICTED BY IDOCK:   -0.03 KCAL/MOL
REMARK 927      BINDING AFFINITY PREDICTED BY RF-SCORE:    0.00 PKD
ROOT
HETATM    1  C   UNL     1     -10.715  12.652  68.444  1.00  0.00    -0.260 C  
HETATM    2  C   UNL     1      -9.976  13.971  68.140  1.00  0.00    -0.242 C  
ENDROOT
BRANCH   2   3
HETATM    3  N   UNL     1     -10.807  15.210  68.309  1.00  0.00    -0.254 NA 
BRANCH   3   4
HETATM    4  C   UNL     1     -12.063  14.942  69.059  1.00  0.00    -0.212 C  
HETATM    5 CL   UNL     1     -13.726  15.082  71.213  1.00  0.00    -0.504 Cl 
HETATM    6  C   UNL     1     -12.127  15.458  70.504  1.00  0.00    -0.371 C  
ENDBRANCH   3   4
BRANCH   3   7
HETATM    7  C   UNL     1     -10.050  16.313  68.939  1.00  0.00    -0.251 C  
BRANCH   7   8
HETATM    8  C   UNL     1      -8.569  16.074  69.151  1.00  0.00    -0.247 A  
HETATM    9  C   UNL     1      -7.625  16.900  68.523  1.00  0.00    -0.221 A  
HETATM   10  C   UNL     1      -6.256  16.640  68.633  1.00  0.00    -0.142 A  
HETATM   11  C   UNL     1      -8.112  14.990  69.911  1.00  0.00     0.183 A  
HETATM   12  C   UNL     1      -5.815  15.549  69.376  1.00  0.00    -0.115 A  
HETATM   13  C   UNL     1      -6.741  14.727  70.019  1.00  0.00    -0.148 A  
ENDBRANCH   7   8
ENDBRANCH   3   7
ENDBRANCH   2   3
BRANCH   2  14
HETATM   14  C   UNL     1      -9.306  13.880  66.739  1.00  0.00    -0.275 C  
BRANCH  14  15
HETATM   15  O   UNL     1     -10.159  14.489  65.761  1.00  0.00    -0.308 OA 
BRANCH  15  16
HETATM   16  C   UNL     1     -10.771  13.639  64.879  1.00  0.00    -0.391 A  
HETATM   17  C   UNL     1     -10.583  11.525  63.706  1.00  0.00    -0.465 A  
HETATM   18  C   UNL     1     -10.071  12.461  64.607  1.00  0.00    -0.266 A  
HETATM   19  C   UNL     1     -12.528  12.909  63.381  1.00  0.00    -0.396 A  
HETATM   20  C   UNL     1     -11.809  11.754  63.087  1.00  0.00    -0.194 A  
HETATM   21  C   UNL     1     -12.013  13.850  64.277  1.00  0.00    -0.477 A  
ENDBRANCH  15  16
ENDBRANCH  14  15
ENDBRANCH   2  14
TORSDOF 7
ENDMDL
MODEL      230
REMARK 921   NORMALIZED FREE ENERGY PREDICTED BY IDOCK:   -3.14 KCAL/MOL
REMARK 922        TOTAL FREE ENERGY PREDICTED BY IDOCK:   -5.53 KCAL/MOL
REMARK 923 INTER-LIGAND FREE ENERGY PREDICTED BY IDOCK:   -4.93 KCAL/MOL
REMARK 924 INTRA-LIGAND FREE ENERGY PREDICTED BY IDOCK:   -0.59 KCAL/MOL
REMARK 927      BINDING AFFINITY PREDICTED BY RF-SCORE:    0.00 PKD
ROOT
HETATM    1  C   UNL     1      -8.831  13.008  66.747  1.00  0.00    -0.144 C  
HETATM    2  C   UNL     1     -10.186  13.367  66.105  1.00  0.00    -0.301 C  
ENDROOT
BRANCH   2   3
HETATM    3  N   UNL     1     -11.380  13.124  66.984  1.00  0.00    -0.298 NA 
BRANCH   3   4
HETATM    4  C   UNL     1     -11.065  12.214  68.116  1.00  0.00    -0.248 C  
HETATM    5 CL   UNL     1     -11.534  11.009  70.515  1.00  0.00    -0.335 Cl 
HETATM    6  C   UNL     1     -12.063  12.195  69.284  1.00  0.00    -0.178 C  
ENDBRANCH   3   4
BRANCH   3   7
HETATM    7  C   UNL     1     -11.980  14.382  67.478  1.00  0.00    -0.354 C  
BRANCH   7   8
HETATM    8  C   UNL     1     -11.015  15.509  67.787  1.00  0.00    -0.317 A  
HETATM    9  C   UNL     1     -10.268  15.492  68.973  1.00  0.00    -0.229 A  
HETATM   10  C   UNL     1      -9.442  16.565  69.319  1.00  0.00    -0.152 A  
HETATM   11  C   UNL     1     -10.904  16.620  66.940  1.00  0.00    -0.060 A  
HETATM   12  C   UNL     1      -9.353  17.670  68.478  1.00  0.00    -0.291 A  
HETATM   13  C   UNL     1     -10.078  17.697  67.287  1.00  0.00    -0.331 A  
ENDBRANCH   7   8
ENDBRANCH   3   7
ENDBRANCH   2   3
BRANCH   2  14
HETATM   14  C   UNL     1     -10.306  12.673  64.719  1.00  0.00    -0.312 C  
BRANCH  14  15
HETATM   15  O   UNL     1     -10.516  11.267  64.905  1.00  0.00    -0.288 OA 
BRANCH  15  16
HETATM   16  C   UNL     1      -9.470  10.449  64.575  1.00  0.00    -0.286 A  
HETATM   17  C   UNL     1      -8.046   8.642  65.344  1.00  0.00    -0.121 A  
HETATM   18  C   UNL     1      -9.113   9.518  65.554  1.00  0.00    -0.262 A  
HETATM   19  C   UNL     1      -7.715   9.581  63.150  1.00  0.00    -0.125 A  
HETATM   20  C   UNL     1      -7.342   8.680  64.144  1.00  0.00    -0.102 A  
HETATM   21  C   UNL     1      -8.778  10.463  63.362  1.00  0.00    -0.201 A  
ENDBRANCH  15  16
ENDBRANCH  14  15
ENDBRANCH   2  14
TORSDOF 7
ENDMDL
MODEL      231
REMARK 921   NORMALIZED FREE ENERGY PREDICTED BY IDOCK:   -3.12 KCAL/MOL
REMARK 922        TOTAL FREE ENERGY PREDICTED BY IDOCK:   -5.50 KCAL/MOL
REMARK 923 INTER-LIGAND FREE ENERGY PREDICTED BY IDOCK:   -4.70 KCAL/MOL
REMARK 924 INTRA-LIGAND FREE ENERGY PREDICTED BY IDOCK:   -0.79 KCAL/MOL
REMARK 927      BINDING AFFINITY PREDICTED BY RF-SCORE:    0.00 PKD
ROOT
HETATM    1  C   UNL     1     -10.800   8.856  67.962  1.00  0.00    -0.079 C  
HETATM    2  C   UNL     1     -10.341   7.780  66.958  1.00  0.00    -0.334 C  
ENDROOT
BRANCH   2   3
HETATM    3  N   UNL     1     -10.580   6.365  67.402  1.00  0.00    -0.251 NA 
BRANCH   3   4
HETATM    4  C   UNL     1     -10.654   5.424  66.253  1.00  0.00    -0.208 C  
HETATM    5 CL   UNL     1      -9.871   3.273  64.774  1.00  0.00    -0.132 Cl 
HETATM    6  C   UNL     1      -9.582   4.324  66.192  1.00  0.00    -0.194 C  
ENDBRANCH   3   4
BRANCH   3   7
HETATM    7  C   UNL     1      -9.576   5.908  68.386  1.00  0.00    -0.122 C  
BRANCH   7   8
HETATM    8  C   UNL     1      -9.867   6.228  69.839  1.00  0.00    -0.198 A  
HETATM    9  C   UNL     1      -8.837   6.666  70.684  1.00  0.00    -0.148 A  
HETATM   10  C   UNL     1      -9.066   6.878  72.046  1.00  0.00    -0.141 A  
HETATM   11  C   UNL     1     -11.141   6.024  70.384  1.00  0.00    -0.399 A  
HETATM   12  C   UNL     1     -10.332   6.656  72.580  1.00  0.00    -0.218 A  
HETATM   13  C   UNL     1     -11.371   6.234  71.749  1.00  0.00    -0.346 A  
ENDBRANCH   7   8
ENDBRANCH   3   7
ENDBRANCH   2   3
BRANCH   2  14
HETATM   14  C   UNL     1      -8.863   8.043  66.551  1.00  0.00    -0.151 C  
BRANCH  14  15
HETATM   15  O   UNL     1      -8.681   9.442  66.291  1.00  0.00    -0.134 OA 
BRANCH  15  16
HETATM   16  C   UNL     1      -8.990   9.869  65.028  1.00  0.00    -0.201 A  
HETATM   17  C   UNL     1      -8.654   9.466  62.661  1.00  0.00    -0.220 A  
HETATM   18  C   UNL     1      -8.429   9.116  63.994  1.00  0.00    -0.195 A  
HETATM   19  C   UNL     1     -10.050  11.294  63.382  1.00  0.00    -0.445 A  
HETATM   20  C   UNL     1      -9.459  10.561  62.355  1.00  0.00    -0.246 A  
HETATM   21  C   UNL     1      -9.819  10.948  64.716  1.00  0.00    -0.343 A  
ENDBRANCH  15  16
ENDBRANCH  14  15
ENDBRANCH   2  14
TORSDOF 7
ENDMDL
MODEL      232
REMARK 921   NORMALIZED FREE ENERGY PREDICTED BY IDOCK:   -3.11 KCAL/MOL
REMARK 922        TOTAL FREE ENERGY PREDICTED BY IDOCK:   -5.47 KCAL/MOL
REMARK 923 INTER-LIGAND FREE ENERGY PREDICTED BY IDOCK:   -4.73 KCAL/MOL
REMARK 924 INTRA-LIGAND FREE ENERGY PREDICTED BY IDOCK:   -0.74 KCAL/MOL
REMARK 927      BINDING AFFINITY PREDICTED BY RF-SCORE:    0.00 PKD
ROOT
HETATM    1  C   UNL     1     -10.775  11.829  69.212  1.00  0.00    -0.117 C  
HETATM    2  C   UNL     1      -9.823  11.564  68.028  1.00  0.00    -0.188 C  
ENDROOT
BRANCH   2   3
HETATM    3  N   UNL     1      -8.670  10.656  68.343  1.00  0.00    -0.134 NA 
BRANCH   3   4
HETATM    4  C   UNL     1      -7.403  11.126  67.722  1.00  0.00    -0.093 C  
HETATM    5 CL   UNL     1      -5.393  11.078  65.882  1.00  0.00    -0.141 Cl 
HETATM    6  C   UNL     1      -6.891  10.331  66.510  1.00  0.00    -0.101 C  
ENDBRANCH   3   4
BRANCH   3   7
HETATM    7  C   UNL     1      -8.493  10.453  69.797  1.00  0.00     0.028 C  
BRANCH   7   8
HETATM    8  C   UNL     1      -8.685   9.038  70.304  1.00  0.00    -0.202 A  
HETATM    9  C   UNL     1      -8.271   7.948  69.525  1.00  0.00    -0.130 A  
HETATM   10  C   UNL     1      -8.521   6.635  69.934  1.00  0.00    -0.139 A  
HETATM   11  C   UNL     1      -9.341   8.786  71.516  1.00  0.00    -0.337 A  
HETATM   12  C   UNL     1      -9.190   6.398  71.131  1.00  0.00    -0.159 A  
HETATM   13  C   UNL     1      -9.595   7.471  71.925  1.00  0.00    -0.178 A  
ENDBRANCH   7   8
ENDBRANCH   3   7
ENDBRANCH   2   3
BRANCH   2  14
HETATM   14  C   UNL     1      -9.374  12.918  67.409  1.00  0.00    -0.194 C  
BRANCH  14  15
HETATM   15  O   UNL     1     -10.513  13.593  66.857  1.00  0.00    -0.268 OA 
BRANCH  15  16
HETATM   16  C   UNL     1     -11.039  13.056  65.713  1.00  0.00    -0.278 A  
HETATM   17  C   UNL     1     -13.075  12.706  64.442  1.00  0.00    -0.071 A  
HETATM   18  C   UNL     1     -12.417  13.228  65.557  1.00  0.00    -0.531 A  
HETATM   19  C   UNL     1     -10.974  11.880  63.598  1.00  0.00    -0.511 A  
HETATM   20  C   UNL     1     -12.353  12.024  63.466  1.00  0.00    -0.661 A  
HETATM   21  C   UNL     1     -10.317  12.396  64.717  1.00  0.00    -0.324 A  
ENDBRANCH  15  16
ENDBRANCH  14  15
ENDBRANCH   2  14
TORSDOF 7
ENDMDL
MODEL      233
REMARK 921   NORMALIZED FREE ENERGY PREDICTED BY IDOCK:   -3.07 KCAL/MOL
REMARK 922        TOTAL FREE ENERGY PREDICTED BY IDOCK:   -5.43 KCAL/MOL
REMARK 923 INTER-LIGAND FREE ENERGY PREDICTED BY IDOCK:   -4.94 KCAL/MOL
REMARK 924 INTRA-LIGAND FREE ENERGY PREDICTED BY IDOCK:   -0.49 KCAL/MOL
REMARK 927      BINDING AFFINITY PREDICTED BY RF-SCORE:    0.00 PKD
ROOT
HETATM    1  C   UNL     1     -10.903   7.196  70.149  1.00  0.00    -0.279 C  
HETATM    2  C   UNL     1     -10.057   8.476  70.308  1.00  0.00    -0.186 C  
ENDROOT
BRANCH   2   3
HETATM    3  N   UNL     1     -10.716   9.730  69.808  1.00  0.00    -0.240 NA 
BRANCH   3   4
HETATM    4  C   UNL     1     -10.859   9.735  68.329  1.00  0.00    -0.210 C  
HETATM    5 CL   UNL     1     -10.222  10.504  65.793  1.00  0.00    -0.321 Cl 
HETATM    6  C   UNL     1      -9.931  10.679  67.549  1.00  0.00    -0.171 C  
ENDBRANCH   3   4
BRANCH   3   7
HETATM    7  C   UNL     1     -12.021   9.977  70.459  1.00  0.00    -0.272 C  
BRANCH   7   8
HETATM    8  C   UNL     1     -12.327  11.416  70.821  1.00  0.00    -0.483 A  
HETATM    9  C   UNL     1     -11.713  12.465  70.121  1.00  0.00    -0.266 A  
HETATM   10  C   UNL     1     -11.912  13.795  70.499  1.00  0.00    -0.367 A  
HETATM   11  C   UNL     1     -13.164  11.729  71.900  1.00  0.00    -0.468 A  
HETATM   12  C   UNL     1     -12.731  14.093  71.584  1.00  0.00    -0.430 A  
HETATM   13  C   UNL     1     -13.362  13.062  72.282  1.00  0.00    -0.606 A  
ENDBRANCH   7   8
ENDBRANCH   3   7
ENDBRANCH   2   3
BRANCH   2  14
HETATM   14  C   UNL     1      -8.648   8.248  69.690  1.00  0.00    -0.129 C  
BRANCH  14  15
HETATM   15  O   UNL     1      -7.674   8.156  70.739  1.00  0.00    -0.074 OA 
BRANCH  15  16
HETATM   16  C   UNL     1      -7.510   6.922  71.307  1.00  0.00    -0.082 A  
HETATM   17  C   UNL     1      -7.056   4.581  70.866  1.00  0.00    -0.037 A  
HETATM   18  C   UNL     1      -7.224   5.890  70.410  1.00  0.00    -0.072 A  
HETATM   19  C   UNL     1      -7.405   5.331  73.129  1.00  0.00    -0.091 A  
HETATM   20  C   UNL     1      -7.155   4.301  72.226  1.00  0.00    -0.060 A  
HETATM   21  C   UNL     1      -7.579   6.640  72.673  1.00  0.00    -0.093 A  
ENDBRANCH  15  16
ENDBRANCH  14  15
ENDBRANCH   2  14
TORSDOF 7
ENDMDL
MODEL      234
REMARK 921   NORMALIZED FREE ENERGY PREDICTED BY IDOCK:   -2.97 KCAL/MOL
REMARK 922        TOTAL FREE ENERGY PREDICTED BY IDOCK:   -5.28 KCAL/MOL
REMARK 923 INTER-LIGAND FREE ENERGY PREDICTED BY IDOCK:   -4.59 KCAL/MOL
REMARK 924 INTRA-LIGAND FREE ENERGY PREDICTED BY IDOCK:   -0.69 KCAL/MOL
REMARK 927      BINDING AFFINITY PREDICTED BY RF-SCORE:    0.00 PKD
ROOT
HETATM    1  C   UNL     1      -7.191  11.040  68.203  1.00  0.00    -0.083 C  
HETATM    2  C   UNL     1      -8.358  12.047  68.243  1.00  0.00    -0.163 C  
ENDROOT
BRANCH   2   3
HETATM    3  N   UNL     1      -9.718  11.440  68.051  1.00  0.00    -0.180 NA 
BRANCH   3   4
HETATM    4  C   UNL     1     -10.807  12.429  68.267  1.00  0.00    -0.237 C  
HETATM    5 CL   UNL     1     -12.474  13.971  69.774  1.00  0.00    -0.330 Cl 
HETATM    6  C   UNL     1     -11.187  12.730  69.725  1.00  0.00     0.080 C  
ENDBRANCH   3   4
BRANCH   3   7
HETATM    7  C   UNL     1      -9.862  10.787  66.732  1.00  0.00    -0.193 C  
BRANCH   7   8
HETATM    8  C   UNL     1      -9.756   9.275  66.719  1.00  0.00    -0.260 A  
HETATM    9  C   UNL     1      -8.804   8.642  65.906  1.00  0.00    -0.221 A  
HETATM   10  C   UNL     1      -8.752   7.249  65.810  1.00  0.00    -0.129 A  
HETATM   11  C   UNL     1     -10.647   8.480  67.452  1.00  0.00    -0.304 A  
HETATM   12  C   UNL     1      -9.654   6.471  66.529  1.00  0.00    -0.184 A  
HETATM   13  C   UNL     1     -10.597   7.084  67.354  1.00  0.00    -0.372 A  
ENDBRANCH   7   8
ENDBRANCH   3   7
ENDBRANCH   2   3
BRANCH   2  14
HETATM   14  C   UNL     1      -8.072  13.213  67.254  1.00  0.00    -0.146 C  
BRANCH  14  15
HETATM   15  O   UNL     1      -8.166  14.464  67.949  1.00  0.00    -0.136 OA 
BRANCH  15  16
HETATM   16  C   UNL     1      -8.885  15.449  67.328  1.00  0.00    -0.195 A  
HETATM   17  C   UNL     1      -9.466  17.804  67.366  1.00  0.00    -0.254 A  
HETATM   18  C   UNL     1      -8.763  16.720  67.896  1.00  0.00    -0.203 A  
HETATM   19  C   UNL     1     -10.378  16.368  65.658  1.00  0.00    -0.371 A  
HETATM   20  C   UNL     1     -10.280  17.625  66.250  1.00  0.00    -0.362 A  
HETATM   21  C   UNL     1      -9.681  15.282  66.193  1.00  0.00    -0.343 A  
ENDBRANCH  15  16
ENDBRANCH  14  15
ENDBRANCH   2  14
TORSDOF 7
ENDMDL
MODEL      235
REMARK 921   NORMALIZED FREE ENERGY PREDICTED BY IDOCK:   -2.96 KCAL/MOL
REMARK 922        TOTAL FREE ENERGY PREDICTED BY IDOCK:   -5.27 KCAL/MOL
REMARK 923 INTER-LIGAND FREE ENERGY PREDICTED BY IDOCK:   -4.21 KCAL/MOL
REMARK 924 INTRA-LIGAND FREE ENERGY PREDICTED BY IDOCK:   -1.06 KCAL/MOL
REMARK 927      BINDING AFFINITY PREDICTED BY RF-SCORE:    0.00 PKD
ROOT
HETATM    1  C   UNL     1      -5.529  14.787  68.970  1.00  0.00    -0.093 C  
HETATM    2  C   UNL     1      -6.697  15.274  68.088  1.00  0.00    -0.129 C  
ENDROOT
BRANCH   2   3
HETATM    3  N   UNL     1      -7.660  16.198  68.777  1.00  0.00    -0.180 NA 
BRANCH   3   4
HETATM    4  C   UNL     1      -7.101  17.566  68.944  1.00  0.00    -0.253 C  
HETATM    5 CL   UNL     1      -6.932  20.238  68.439  1.00  0.00    -0.304 Cl 
HETATM    6  C   UNL     1      -7.698  18.668  68.056  1.00  0.00    -0.262 C  
ENDBRANCH   3   4
BRANCH   3   7
HETATM    7  C   UNL     1      -8.972  16.251  68.098  1.00  0.00    -0.187 C  
BRANCH   7   8
HETATM    8  C   UNL     1     -10.176  15.864  68.934  1.00  0.00    -0.226 A  
HETATM    9  C   UNL     1     -11.464  15.917  68.382  1.00  0.00    -0.348 A  
HETATM   10  C   UNL     1     -12.593  15.653  69.162  1.00  0.00     0.325 A  
HETATM   11  C   UNL     1     -10.039  15.521  70.285  1.00  0.00    -0.056 A  
HETATM   12  C   UNL     1     -12.445  15.331  70.508  1.00  0.00    -0.454 A  
HETATM   13  C   UNL     1     -11.170  15.259  71.069  1.00  0.00    -0.378 A  
ENDBRANCH   7   8
ENDBRANCH   3   7
ENDBRANCH   2   3
BRANCH   2  14
HETATM   14  C   UNL     1      -7.398  14.052  67.431  1.00  0.00    -0.114 C  
BRANCH  14  15
HETATM   15  O   UNL     1      -7.993  13.237  68.449  1.00  0.00    -0.135 OA 
BRANCH  15  16
HETATM   16  C   UNL     1      -8.985  12.387  68.042  1.00  0.00    -0.194 A  
HETATM   17  C   UNL     1      -9.903  10.154  68.276  1.00  0.00    -0.162 A  
HETATM   18  C   UNL     1      -8.956  11.118  68.627  1.00  0.00    -0.162 A  
HETATM   19  C   UNL     1     -10.952  11.735  66.790  1.00  0.00    -0.336 A  
HETATM   20  C   UNL     1     -10.897  10.461  67.350  1.00  0.00    -0.344 A  
HETATM   21  C   UNL     1     -10.001  12.698  67.136  1.00  0.00    -0.217 A  
ENDBRANCH  15  16
ENDBRANCH  14  15
ENDBRANCH   2  14
TORSDOF 7
ENDMDL
MODEL      236
REMARK 921   NORMALIZED FREE ENERGY PREDICTED BY IDOCK:   -2.96 KCAL/MOL
REMARK 922        TOTAL FREE ENERGY PREDICTED BY IDOCK:   -5.27 KCAL/MOL
REMARK 923 INTER-LIGAND FREE ENERGY PREDICTED BY IDOCK:   -4.70 KCAL/MOL
REMARK 924 INTRA-LIGAND FREE ENERGY PREDICTED BY IDOCK:   -0.57 KCAL/MOL
REMARK 927      BINDING AFFINITY PREDICTED BY RF-SCORE:    0.00 PKD
ROOT
HETATM    1  C   UNL     1      -7.379  10.427  67.331  1.00  0.00    -0.093 C  
HETATM    2  C   UNL     1      -8.571  11.385  67.532  1.00  0.00    -0.137 C  
ENDROOT
BRANCH   2   3
HETATM    3  N   UNL     1      -9.904  10.819  67.135  1.00  0.00    -0.181 NA 
BRANCH   3   4
HETATM    4  C   UNL     1     -10.286  11.206  65.751  1.00  0.00    -0.257 C  
HETATM    5 CL   UNL     1     -11.722  12.571  63.880  1.00  0.00    -0.480 Cl 
HETATM    6  C   UNL     1     -11.452  12.197  65.608  1.00  0.00    -0.355 C  
ENDBRANCH   3   4
BRANCH   3   7
HETATM    7  C   UNL     1      -9.964   9.351  67.300  1.00  0.00    -0.196 C  
BRANCH   7   8
HETATM    8  C   UNL     1     -10.016   8.838  68.725  1.00  0.00    -0.197 A  
HETATM    9  C   UNL     1      -9.269   7.710  69.096  1.00  0.00    -0.141 A  
HETATM   10  C   UNL     1      -9.374   7.168  70.380  1.00  0.00    -0.159 A  
HETATM   11  C   UNL     1     -10.858   9.427  69.677  1.00  0.00    -0.245 A  
HETATM   12  C   UNL     1     -10.228   7.752  71.311  1.00  0.00    -0.218 A  
HETATM   13  C   UNL     1     -10.966   8.884  70.963  1.00  0.00    -0.341 A  
ENDBRANCH   7   8
ENDBRANCH   3   7
ENDBRANCH   2   3
BRANCH   2  14
HETATM   14  C   UNL     1      -8.266  12.747  66.847  1.00  0.00    -0.024 C  
BRANCH  14  15
HETATM   15  O   UNL     1      -8.227  13.783  67.837  1.00  0.00    -0.139 OA 
BRANCH  15  16
HETATM   16  C   UNL     1      -8.760  14.990  67.472  1.00  0.00    -0.184 A  
HETATM   17  C   UNL     1      -8.793  17.368  67.947  1.00  0.00    -0.237 A  
HETATM   18  C   UNL     1      -8.307  16.086  68.210  1.00  0.00    -0.164 A  
HETATM   19  C   UNL     1     -10.152  16.480  66.166  1.00  0.00    -0.365 A  
HETATM   20  C   UNL     1      -9.723  17.563  66.929  1.00  0.00    -0.291 A  
HETATM   21  C   UNL     1      -9.671  15.196  66.434  1.00  0.00    -0.300 A  
ENDBRANCH  15  16
ENDBRANCH  14  15
ENDBRANCH   2  14
TORSDOF 7
ENDMDL
MODEL      237
REMARK 921   NORMALIZED FREE ENERGY PREDICTED BY IDOCK:   -2.91 KCAL/MOL
REMARK 922        TOTAL FREE ENERGY PREDICTED BY IDOCK:   -5.19 KCAL/MOL
REMARK 923 INTER-LIGAND FREE ENERGY PREDICTED BY IDOCK:   -4.53 KCAL/MOL
REMARK 924 INTRA-LIGAND FREE ENERGY PREDICTED BY IDOCK:   -0.66 KCAL/MOL
REMARK 927      BINDING AFFINITY PREDICTED BY RF-SCORE:    0.00 PKD
ROOT
HETATM    1  C   UNL     1     -11.328   6.589  69.859  1.00  0.00    -0.469 C  
HETATM    2  C   UNL     1     -10.247   7.627  70.223  1.00  0.00    -0.205 C  
ENDROOT
BRANCH   2   3
HETATM    3  N   UNL     1     -10.612   9.049  69.911  1.00  0.00    -0.223 NA 
BRANCH   3   4
HETATM    4  C   UNL     1     -11.402   9.676  71.003  1.00  0.00    -0.374 C  
HETATM    5 CL   UNL     1     -13.365  11.266  72.026  1.00  0.00    -0.513 Cl 
HETATM    6  C   UNL     1     -12.502  10.662  70.580  1.00  0.00    -0.371 C  
ENDBRANCH   3   4
BRANCH   3   7
HETATM    7  C   UNL     1      -9.429   9.875  69.584  1.00  0.00    -0.231 C  
BRANCH   7   8
HETATM    8  C   UNL     1      -9.570  10.808  68.398  1.00  0.00    -0.177 A  
HETATM    9  C   UNL     1     -10.733  10.781  67.615  1.00  0.00    -0.305 A  
HETATM   10  C   UNL     1     -10.844  11.568  66.465  1.00  0.00    -0.335 A  
HETATM   11  C   UNL     1      -8.523  11.657  68.016  1.00  0.00    -0.151 A  
HETATM   12  C   UNL     1      -9.791  12.394  66.086  1.00  0.00    -0.263 A  
HETATM   13  C   UNL     1      -8.633  12.444  66.863  1.00  0.00    -0.171 A  
ENDBRANCH   7   8
ENDBRANCH   3   7
ENDBRANCH   2   3
BRANCH   2  14
HETATM   14  C   UNL     1      -8.887   7.202  69.599  1.00  0.00    -0.141 C  
BRANCH  14  15
HETATM   15  O   UNL     1      -8.027   6.692  70.627  1.00  0.00    -0.107 OA 
BRANCH  15  16
HETATM   16  C   UNL     1      -8.100   5.346  70.866  1.00  0.00    -0.112 A  
HETATM   17  C   UNL     1      -7.794   3.141  69.904  1.00  0.00    -0.048 A  
HETATM   18  C   UNL     1      -7.739   4.532  69.790  1.00  0.00    -0.054 A  
HETATM   19  C   UNL     1      -8.520   3.364  72.191  1.00  0.00    -0.087 A  
HETATM   20  C   UNL     1      -8.192   2.557  71.103  1.00  0.00    -0.072 A  
HETATM   21  C   UNL     1      -8.472   4.755  72.075  1.00  0.00    -0.119 A  
ENDBRANCH  15  16
ENDBRANCH  14  15
ENDBRANCH   2  14
TORSDOF 7
ENDMDL
MODEL      238
REMARK 921   NORMALIZED FREE ENERGY PREDICTED BY IDOCK:   -2.77 KCAL/MOL
REMARK 922        TOTAL FREE ENERGY PREDICTED BY IDOCK:   -5.00 KCAL/MOL
REMARK 923 INTER-LIGAND FREE ENERGY PREDICTED BY IDOCK:   -4.32 KCAL/MOL
REMARK 924 INTRA-LIGAND FREE ENERGY PREDICTED BY IDOCK:   -0.68 KCAL/MOL
REMARK 927      BINDING AFFINITY PREDICTED BY RF-SCORE:    0.00 PKD
ROOT
HETATM    1  C   UNL     1     -10.039   4.614  70.609  1.00  0.00    -0.261 C  
HETATM    2  C   UNL     1      -9.683   6.109  70.480  1.00  0.00    -0.173 C  
ENDROOT
BRANCH   2   3
HETATM    3  N   UNL     1     -10.763   6.962  69.879  1.00  0.00    -0.234 NA 
BRANCH   3   4
HETATM    4  C   UNL     1     -12.103   6.642  70.438  1.00  0.00    -0.188 C  
HETATM    5 CL   UNL     1     -14.374   7.167  71.851  1.00  0.00    -0.512 Cl 
HETATM    6  C   UNL     1     -12.757   7.718  71.320  1.00  0.00    -0.250 C  
ENDBRANCH   3   4
BRANCH   3   7
HETATM    7  C   UNL     1     -10.476   8.407  70.007  1.00  0.00    -0.224 C  
BRANCH   7   8
HETATM    8  C   UNL     1     -10.459   9.203  68.718  1.00  0.00    -0.236 A  
HETATM    9  C   UNL     1     -10.291   8.550  67.489  1.00  0.00    -0.334 A  
HETATM   10  C   UNL     1     -10.181   9.274  66.299  1.00  0.00    -0.273 A  
HETATM   11  C   UNL     1     -10.533  10.602  68.730  1.00  0.00    -0.215 A  
HETATM   12  C   UNL     1     -10.239  10.665  66.325  1.00  0.00    -0.304 A  
HETATM   13  C   UNL     1     -10.420  11.329  67.539  1.00  0.00    -0.234 A  
ENDBRANCH   7   8
ENDBRANCH   3   7
ENDBRANCH   2   3
BRANCH   2  14
HETATM   14  C   UNL     1      -8.319   6.258  69.748  1.00  0.00    -0.125 C  
BRANCH  14  15
HETATM   15  O   UNL     1      -7.500   7.203  70.450  1.00  0.00    -0.081 OA 
BRANCH  15  16
HETATM   16  C   UNL     1      -7.406   7.035  71.805  1.00  0.00    -0.086 A  
HETATM   17  C   UNL     1      -6.697   5.535  73.573  1.00  0.00    -0.078 A  
HETATM   18  C   UNL     1      -6.828   5.832  72.214  1.00  0.00    -0.073 A  
HETATM   19  C   UNL     1      -7.671   7.668  74.127  1.00  0.00    -0.191 A  
HETATM   20  C   UNL     1      -7.126   6.451  74.529  1.00  0.00    -0.089 A  
HETATM   21  C   UNL     1      -7.809   7.962  72.768  1.00  0.00    -0.157 A  
ENDBRANCH  15  16
ENDBRANCH  14  15
ENDBRANCH   2  14
TORSDOF 7
ENDMDL
MODEL      239
REMARK 921   NORMALIZED FREE ENERGY PREDICTED BY IDOCK:   -2.76 KCAL/MOL
REMARK 922        TOTAL FREE ENERGY PREDICTED BY IDOCK:   -4.98 KCAL/MOL
REMARK 923 INTER-LIGAND FREE ENERGY PREDICTED BY IDOCK:   -4.06 KCAL/MOL
REMARK 924 INTRA-LIGAND FREE ENERGY PREDICTED BY IDOCK:   -0.92 KCAL/MOL
REMARK 927      BINDING AFFINITY PREDICTED BY RF-SCORE:    0.00 PKD
ROOT
HETATM    1  C   UNL     1      -8.206  11.957  67.865  1.00  0.00    -0.150 C  
HETATM    2  C   UNL     1      -8.442  13.480  67.914  1.00  0.00    -0.179 C  
ENDROOT
BRANCH   2   3
HETATM    3  N   UNL     1      -7.305  14.273  68.494  1.00  0.00    -0.110 NA 
BRANCH   3   4
HETATM    4  C   UNL     1      -6.391  13.427  69.305  1.00  0.00    -0.110 C  
HETATM    5 CL   UNL     1      -5.134  12.647  71.594  1.00  0.00    -0.134 Cl 
HETATM    6  C   UNL     1      -6.230  13.807  70.785  1.00  0.00     0.001 C  
ENDBRANCH   3   4
BRANCH   3   7
HETATM    7  C   UNL     1      -6.550  15.013  67.460  1.00  0.00    -0.125 C  
BRANCH   7   8
HETATM    8  C   UNL     1      -6.885  16.484  67.310  1.00  0.00    -0.212 A  
HETATM    9  C   UNL     1      -6.314  17.233  66.271  1.00  0.00    -0.218 A  
HETATM   10  C   UNL     1      -6.537  18.609  66.170  1.00  0.00    -0.261 A  
HETATM   11  C   UNL     1      -7.702  17.139  68.240  1.00  0.00    -0.220 A  
HETATM   12  C   UNL     1      -7.338  19.252  67.110  1.00  0.00    -0.226 A  
HETATM   13  C   UNL     1      -7.925  18.518  68.141  1.00  0.00    -0.308 A  
ENDBRANCH   7   8
ENDBRANCH   3   7
ENDBRANCH   2   3
BRANCH   2  14
HETATM   14  C   UNL     1      -9.800  13.774  68.613  1.00  0.00    -0.157 C  
BRANCH  14  15
HETATM   15  O   UNL     1     -10.547  14.715  67.830  1.00  0.00    -0.247 OA 
BRANCH  15  16
HETATM   16  C   UNL     1     -10.877  14.321  66.561  1.00  0.00    -0.304 A  
HETATM   17  C   UNL     1     -10.983  15.005  64.237  1.00  0.00     0.169 A  
HETATM   18  C   UNL     1     -10.665  15.281  65.568  1.00  0.00    -0.385 A  
HETATM   19  C   UNL     1     -11.679  12.786  64.869  1.00  0.00    -0.394 A  
HETATM   20  C   UNL     1     -11.498  13.759  63.889  1.00  0.00    -0.141 A  
HETATM   21  C   UNL     1     -11.367  13.064  66.202  1.00  0.00    -0.349 A  
ENDBRANCH  15  16
ENDBRANCH  14  15
ENDBRANCH   2  14
TORSDOF 7
ENDMDL
MODEL      240
REMARK 921   NORMALIZED FREE ENERGY PREDICTED BY IDOCK:   -2.39 KCAL/MOL
REMARK 922        TOTAL FREE ENERGY PREDICTED BY IDOCK:   -4.46 KCAL/MOL
REMARK 923 INTER-LIGAND FREE ENERGY PREDICTED BY IDOCK:   -3.79 KCAL/MOL
REMARK 924 INTRA-LIGAND FREE ENERGY PREDICTED BY IDOCK:   -0.68 KCAL/MOL
REMARK 927      BINDING AFFINITY PREDICTED BY RF-SCORE:    0.00 PKD
ROOT
HETATM    1  C   UNL     1     -10.483   5.488  67.523  1.00  0.00    -0.269 C  
HETATM    2  C   UNL     1      -9.631   6.733  67.846  1.00  0.00    -0.120 C  
ENDROOT
BRANCH   2   3
HETATM    3  N   UNL     1      -8.790   7.230  66.706  1.00  0.00    -0.128 NA 
BRANCH   3   4
HETATM    4  C   UNL     1      -8.623   6.203  65.644  1.00  0.00    -0.145 C  
HETATM    5 CL   UNL     1      -7.267   4.290  64.256  1.00  0.00    -0.054 Cl 
HETATM    6  C   UNL     1      -7.250   5.519  65.555  1.00  0.00    -0.068 C  
ENDBRANCH   3   4
BRANCH   3   7
HETATM    7  C   UNL     1      -9.308   8.492  66.133  1.00  0.00    -0.214 C  
BRANCH   7   8
HETATM    8  C   UNL     1      -8.415   9.186  65.124  1.00  0.00    -0.182 A  
HETATM    9  C   UNL     1      -8.938   9.605  63.891  1.00  0.00    -0.254 A  
HETATM   10  C   UNL     1      -8.112  10.163  62.912  1.00  0.00    -0.149 A  
HETATM   11  C   UNL     1      -7.045   9.356  65.364  1.00  0.00    -0.091 A  
HETATM   12  C   UNL     1      -6.750  10.311  63.156  1.00  0.00    -0.117 A  
HETATM   13  C   UNL     1      -6.217   9.913  64.382  1.00  0.00    -0.122 A  
ENDBRANCH   7   8
ENDBRANCH   3   7
ENDBRANCH   2   3
BRANCH   2  14
HETATM   14  C   UNL     1      -8.805   6.476  69.138  1.00  0.00    -0.128 C  
BRANCH  14  15
HETATM   15  O   UNL     1      -9.592   6.822  70.286  1.00  0.00    -0.165 OA 
BRANCH  15  16
HETATM   16  C   UNL     1      -9.933   5.791  71.119  1.00  0.00    -0.192 A  
HETATM   17  C   UNL     1     -11.221   5.166  73.076  1.00  0.00    -0.390 A  
HETATM   18  C   UNL     1     -10.816   6.127  72.148  1.00  0.00    -0.289 A  
HETATM   19  C   UNL     1      -9.906   3.507  71.924  1.00  0.00    -0.237 A  
HETATM   20  C   UNL     1     -10.759   3.857  72.968  1.00  0.00    -0.241 A  
HETATM   21  C   UNL     1      -9.495   4.470  70.999  1.00  0.00    -0.229 A  
ENDBRANCH  15  16
ENDBRANCH  14  15
ENDBRANCH   2  14
TORSDOF 7
ENDMDL
MODEL      241
REMARK 921   NORMALIZED FREE ENERGY PREDICTED BY IDOCK:   -2.06 KCAL/MOL
REMARK 922        TOTAL FREE ENERGY PREDICTED BY IDOCK:   -4.00 KCAL/MOL
REMARK 923 INTER-LIGAND FREE ENERGY PREDICTED BY IDOCK:   -3.35 KCAL/MOL
REMARK 924 INTRA-LIGAND FREE ENERGY PREDICTED BY IDOCK:   -0.65 KCAL/MOL
REMARK 927      BINDING AFFINITY PREDICTED BY RF-SCORE:    0.00 PKD
ROOT
HETATM    1  C   UNL     1      -9.824   6.022  68.934  1.00  0.00    -0.173 C  
HETATM    2  C   UNL     1      -8.806   7.146  68.655  1.00  0.00    -0.126 C  
ENDROOT
BRANCH   2   3
HETATM    3  N   UNL     1      -8.256   7.161  67.258  1.00  0.00    -0.118 NA 
BRANCH   3   4
HETATM    4  C   UNL     1      -8.688   5.974  66.474  1.00  0.00    -0.128 C  
HETATM    5 CL   UNL     1      -8.416   3.464  65.448  1.00  0.00    -0.102 Cl 
HETATM    6  C   UNL     1      -7.695   4.805  66.386  1.00  0.00    -0.091 C  
ENDBRANCH   3   4
BRANCH   3   7
HETATM    7  C   UNL     1      -8.584   8.410  66.536  1.00  0.00    -0.120 C  
BRANCH   7   8
HETATM    8  C   UNL     1      -9.253   9.498  67.352  1.00  0.00    -0.152 A  
HETATM    9  C   UNL     1     -10.651   9.608  67.368  1.00  0.00    -0.333 A  
HETATM   10  C   UNL     1     -11.282  10.658  68.039  1.00  0.00    -0.373 A  
HETATM   11  C   UNL     1      -8.497  10.456  68.039  1.00  0.00    -0.119 A  
HETATM   12  C   UNL     1     -10.520  11.614  68.704  1.00  0.00    -0.234 A  
HETATM   13  C   UNL     1      -9.128  11.511  68.710  1.00  0.00    -0.063 A  
ENDBRANCH   7   8
ENDBRANCH   3   7
ENDBRANCH   2   3
BRANCH   2  14
HETATM   14  C   UNL     1      -7.694   7.122  69.741  1.00  0.00    -0.108 C  
BRANCH  14  15
HETATM   15  O   UNL     1      -8.060   7.994  70.820  1.00  0.00    -0.096 OA 
BRANCH  15  16
HETATM   16  C   UNL     1      -8.339   7.393  72.017  1.00  0.00    -0.106 A  
HETATM   17  C   UNL     1      -8.192   5.328  73.281  1.00  0.00    -0.111 A  
HETATM   18  C   UNL     1      -7.942   6.057  72.116  1.00  0.00    -0.106 A  
HETATM   19  C   UNL     1      -9.189   7.281  74.282  1.00  0.00    -0.232 A  
HETATM   20  C   UNL     1      -8.822   5.939  74.361  1.00  0.00    -0.127 A  
HETATM   21  C   UNL     1      -8.946   8.008  73.114  1.00  0.00    -0.333 A  
ENDBRANCH  15  16
ENDBRANCH  14  15
ENDBRANCH   2  14
TORSDOF 7
ENDMDL
MODEL      242
REMARK 921   NORMALIZED FREE ENERGY PREDICTED BY IDOCK:   -1.90 KCAL/MOL
REMARK 922        TOTAL FREE ENERGY PREDICTED BY IDOCK:   -3.77 KCAL/MOL
REMARK 923 INTER-LIGAND FREE ENERGY PREDICTED BY IDOCK:   -3.11 KCAL/MOL
REMARK 924 INTRA-LIGAND FREE ENERGY PREDICTED BY IDOCK:   -0.66 KCAL/MOL
REMARK 927      BINDING AFFINITY PREDICTED BY RF-SCORE:    0.00 PKD
ROOT
HETATM    1  C   UNL     1     -10.375   5.597  68.730  1.00  0.00    -0.288 C  
HETATM    2  C   UNL     1      -9.629   6.936  68.563  1.00  0.00    -0.131 C  
ENDROOT
BRANCH   2   3
HETATM    3  N   UNL     1      -8.565   6.933  67.503  1.00  0.00    -0.121 NA 
BRANCH   3   4
HETATM    4  C   UNL     1      -8.088   5.559  67.194  1.00  0.00    -0.101 C  
HETATM    5 CL   UNL     1      -6.309   3.496  67.253  1.00  0.00    -0.036 Cl 
HETATM    6  C   UNL     1      -6.675   5.194  67.677  1.00  0.00    -0.055 C  
ENDBRANCH   3   4
BRANCH   3   7
HETATM    7  C   UNL     1      -8.997   7.624  66.270  1.00  0.00    -0.169 C  
BRANCH   7   8
HETATM    8  C   UNL     1      -7.935   8.424  65.542  1.00  0.00    -0.115 A  
HETATM    9  C   UNL     1      -7.232   9.435  66.212  1.00  0.00    -0.092 A  
HETATM   10  C   UNL     1      -6.314  10.244  65.536  1.00  0.00    -0.117 A  
HETATM   11  C   UNL     1      -7.686   8.225  64.178  1.00  0.00    -0.138 A  
HETATM   12  C   UNL     1      -6.088  10.048  64.176  1.00  0.00    -0.132 A  
HETATM   13  C   UNL     1      -6.769   9.036  63.498  1.00  0.00    -0.089 A  
ENDBRANCH   7   8
ENDBRANCH   3   7
ENDBRANCH   2   3
BRANCH   2  14
HETATM   14  C   UNL     1      -9.102   7.414  69.946  1.00  0.00    -0.141 C  
BRANCH  14  15
HETATM   15  O   UNL     1     -10.181   7.430  70.890  1.00  0.00    -0.193 OA 
BRANCH  15  16
HETATM   16  C   UNL     1     -10.011   6.676  72.019  1.00  0.00    -0.165 A  
HETATM   17  C   UNL     1      -8.417   5.950  73.697  1.00  0.00    -0.119 A  
HETATM   18  C   UNL     1      -8.722   6.698  72.557  1.00  0.00    -0.126 A  
HETATM   19  C   UNL     1     -10.703   5.193  73.804  1.00  0.00    -0.352 A  
HETATM   20  C   UNL     1      -9.407   5.191  74.315  1.00  0.00    -0.125 A  
HETATM   21  C   UNL     1     -11.006   5.936  72.660  1.00  0.00    -0.305 A  
ENDBRANCH  15  16
ENDBRANCH  14  15
ENDBRANCH   2  14
TORSDOF 7
ENDMDL
MODEL      243
REMARK 921   NORMALIZED FREE ENERGY PREDICTED BY IDOCK:   15.88 KCAL/MOL
REMARK 922        TOTAL FREE ENERGY PREDICTED BY IDOCK:   21.28 KCAL/MOL
REMARK 923 INTER-LIGAND FREE ENERGY PREDICTED BY IDOCK:   21.02 KCAL/MOL
REMARK 924 INTRA-LIGAND FREE ENERGY PREDICTED BY IDOCK:    0.26 KCAL/MOL
REMARK 927      BINDING AFFINITY PREDICTED BY RF-SCORE:    0.00 PKD
ROOT
HETATM    1  C   UNL     1      -9.183  14.726  66.815  1.00  0.00    -0.282 C  
HETATM    2  C   UNL     1     -10.134  15.241  67.914  1.00  0.00    -0.233 C  
ENDROOT
BRANCH   2   3
HETATM    3  N   UNL     1     -11.142  16.252  67.449  1.00  0.00    -0.171 NA 
BRANCH   3   4
HETATM    4  C   UNL     1     -12.480  15.644  67.221  1.00  0.00     1.577 C  
HETATM    5 CL   UNL     1     -14.268  14.023  65.957  1.00  0.00     4.361 Cl 
HETATM    6  C   UNL     1     -12.606  14.680  66.031  1.00  0.00     0.055 C  
ENDBRANCH   3   4
BRANCH   3   7
HETATM    7  C   UNL     1     -11.245  17.408  68.366  1.00  0.00     0.212 C  
BRANCH   7   8
HETATM    8  C   UNL     1     -11.270  18.777  67.718  1.00  0.00     0.226 A  
HETATM    9  C   UNL     1     -11.120  19.931  68.502  1.00  0.00     0.924 A  
HETATM   10  C   UNL     1     -11.232  21.204  67.937  1.00  0.00     3.129 A  
HETATM   11  C   UNL     1     -11.516  18.925  66.347  1.00  0.00     1.130 A  
HETATM   12  C   UNL     1     -11.494  21.338  66.577  1.00  0.00     5.773 A  
HETATM   13  C   UNL     1     -11.630  20.201  65.780  1.00  0.00     1.434 A  
ENDBRANCH   7   8
ENDBRANCH   3   7
ENDBRANCH   2   3
BRANCH   2  14
HETATM   14  C   UNL     1      -9.303  15.734  69.133  1.00  0.00    -0.258 C  
BRANCH  14  15
HETATM   15  O   UNL     1      -9.652  14.966  70.292  1.00  0.00     0.266 OA 
BRANCH  15  16
HETATM   16  C   UNL     1     -10.063  13.680  70.067  1.00  0.00     1.653 A  
HETATM   17  C   UNL     1     -11.804  12.049  70.503  1.00  0.00    -0.215 A  
HETATM   18  C   UNL     1     -11.289  13.340  70.644  1.00  0.00     0.780 A  
HETATM   19  C   UNL     1      -9.898  11.441  69.160  1.00  0.00     0.033 A  
HETATM   20  C   UNL     1     -11.104  11.098  69.767  1.00  0.00    -0.271 A  
HETATM   21  C   UNL     1      -9.379  12.730  69.306  1.00  0.00     0.901 A  
ENDBRANCH  15  16
ENDBRANCH  14  15
ENDBRANCH   2  14
TORSDOF 7
ENDMDL
