MODEL        1
REMARK 921   NORMALIZED FREE ENERGY PREDICTED BY IDOCK:   -4.77 KCAL/MOL
REMARK 922        TOTAL FREE ENERGY PREDICTED BY IDOCK:   -4.98 KCAL/MOL
REMARK 923 INTER-LIGAND FREE ENERGY PREDICTED BY IDOCK:   -5.05 KCAL/MOL
REMARK 924 INTRA-LIGAND FREE ENERGY PREDICTED BY IDOCK:    0.08 KCAL/MOL
REMARK 927      BINDING AFFINITY PREDICTED BY RF-SCORE:    0.00 PKD
ROOT
HETATM    1  O   UNL     1     -12.113  14.738  74.387  1.00  0.00    -0.508 OA 
HETATM    2  C   UNL     1     -12.763  15.767  73.794  1.00  0.00    -0.608 C  
HETATM    3  C   UNL     1     -13.662  15.407  72.628  1.00  0.00    -0.640 C  
HETATM    4  O   UNL     1     -12.673  16.907  74.228  1.00  0.00    -0.529 OA 
ENDROOT
BRANCH   3   5
HETATM    5  C   UNL     1     -13.229  14.189  71.845  1.00  0.00    -0.468 A  
HETATM    6  C   UNL     1     -13.566  12.901  72.291  1.00  0.00    -0.611 A  
HETATM    7  C   UNL     1     -13.064  11.778  71.635  1.00  0.00    -0.443 A  
HETATM    8  C   UNL     1     -12.243  11.929  70.520  1.00  0.00    -0.426 A  
HETATM    9  C   UNL     1     -11.930  13.204  70.052  1.00  0.00    -0.391 A  
HETATM   10  C   UNL     1     -12.418  14.331  70.713  1.00  0.00    -0.428 A  
ENDBRANCH   3   5
TORSDOF 1
ENDMDL
MODEL        2
REMARK 921   NORMALIZED FREE ENERGY PREDICTED BY IDOCK:   -4.69 KCAL/MOL
REMARK 922        TOTAL FREE ENERGY PREDICTED BY IDOCK:   -4.88 KCAL/MOL
REMARK 923 INTER-LIGAND FREE ENERGY PREDICTED BY IDOCK:   -4.82 KCAL/MOL
REMARK 924 INTRA-LIGAND FREE ENERGY PREDICTED BY IDOCK:   -0.07 KCAL/MOL
REMARK 927      BINDING AFFINITY PREDICTED BY RF-SCORE:    0.00 PKD
ROOT
HETATM    1  O   UNL     1     -12.657  14.731  64.203  1.00  0.00    -0.784 OA 
HETATM    2  C   UNL     1     -11.617  15.580  64.376  1.00  0.00    -0.258 C  
HETATM    3  C   UNL     1     -10.457  15.057  65.199  1.00  0.00    -0.438 C  
HETATM    4  O   UNL     1     -11.600  16.678  63.838  1.00  0.00    -1.204 OA 
ENDROOT
BRANCH   3   5
HETATM    5  C   UNL     1     -10.833  14.041  66.253  1.00  0.00    -0.291 A  
HETATM    6  C   UNL     1     -10.644  12.670  66.017  1.00  0.00    -0.294 A  
HETATM    7  C   UNL     1     -11.103  11.730  66.939  1.00  0.00    -0.361 A  
HETATM    8  C   UNL     1     -11.731  12.149  68.110  1.00  0.00    -0.402 A  
HETATM    9  C   UNL     1     -11.893  13.509  68.367  1.00  0.00    -0.408 A  
HETATM   10  C   UNL     1     -11.448  14.453  67.441  1.00  0.00    -0.377 A  
ENDBRANCH   3   5
TORSDOF 1
ENDMDL
MODEL        3
REMARK 921   NORMALIZED FREE ENERGY PREDICTED BY IDOCK:   -4.67 KCAL/MOL
REMARK 922        TOTAL FREE ENERGY PREDICTED BY IDOCK:   -4.87 KCAL/MOL
REMARK 923 INTER-LIGAND FREE ENERGY PREDICTED BY IDOCK:   -4.80 KCAL/MOL
REMARK 924 INTRA-LIGAND FREE ENERGY PREDICTED BY IDOCK:   -0.07 KCAL/MOL
REMARK 927      BINDING AFFINITY PREDICTED BY RF-SCORE:    0.00 PKD
ROOT
HETATM    1  O   UNL     1     -10.180  15.472  65.200  1.00  0.00    -0.359 OA 
HETATM    2  C   UNL     1     -11.322  15.599  64.484  1.00  0.00    -0.320 C  
HETATM    3  C   UNL     1     -12.280  14.426  64.540  1.00  0.00    -0.483 C  
HETATM    4  O   UNL     1     -11.581  16.633  63.885  1.00  0.00    -1.204 OA 
ENDROOT
BRANCH   3   5
HETATM    5  C   UNL     1     -11.626  13.081  64.754  1.00  0.00    -0.368 A  
HETATM    6  C   UNL     1     -11.614  12.490  66.027  1.00  0.00    -0.456 A  
HETATM    7  C   UNL     1     -10.906  11.310  66.247  1.00  0.00    -0.296 A  
HETATM    8  C   UNL     1     -10.225  10.698  65.196  1.00  0.00    -0.368 A  
HETATM    9  C   UNL     1     -10.258  11.260  63.922  1.00  0.00    -0.420 A  
HETATM   10  C   UNL     1     -10.953  12.449  63.700  1.00  0.00    -0.525 A  
ENDBRANCH   3   5
TORSDOF 1
ENDMDL
MODEL        4
REMARK 921   NORMALIZED FREE ENERGY PREDICTED BY IDOCK:   -4.65 KCAL/MOL
REMARK 922        TOTAL FREE ENERGY PREDICTED BY IDOCK:   -4.85 KCAL/MOL
REMARK 923 INTER-LIGAND FREE ENERGY PREDICTED BY IDOCK:   -4.83 KCAL/MOL
REMARK 924 INTRA-LIGAND FREE ENERGY PREDICTED BY IDOCK:   -0.03 KCAL/MOL
REMARK 927      BINDING AFFINITY PREDICTED BY RF-SCORE:    0.00 PKD
ROOT
HETATM    1  O   UNL     1     -12.559  14.606  63.980  1.00  0.00    -0.819 OA 
HETATM    2  C   UNL     1     -11.635  15.527  64.343  1.00  0.00    -0.258 C  
HETATM    3  C   UNL     1     -10.595  15.071  65.347  1.00  0.00    -0.398 C  
HETATM    4  O   UNL     1     -11.614  16.637  63.831  1.00  0.00    -1.204 OA 
ENDROOT
BRANCH   3   5
HETATM    5  C   UNL     1     -11.064  14.001  66.305  1.00  0.00    -0.307 A  
HETATM    6  C   UNL     1     -11.646  14.352  67.534  1.00  0.00    -0.398 A  
HETATM    7  C   UNL     1     -11.966  13.366  68.466  1.00  0.00    -0.363 A  
HETATM    8  C   UNL     1     -11.731  12.024  68.173  1.00  0.00    -0.398 A  
HETATM    9  C   UNL     1     -11.184  11.665  66.943  1.00  0.00    -0.376 A  
HETATM   10  C   UNL     1     -10.848  12.648  66.012  1.00  0.00    -0.306 A  
ENDBRANCH   3   5
TORSDOF 1
ENDMDL
MODEL        5
REMARK 921   NORMALIZED FREE ENERGY PREDICTED BY IDOCK:   -4.59 KCAL/MOL
REMARK 922        TOTAL FREE ENERGY PREDICTED BY IDOCK:   -4.78 KCAL/MOL
REMARK 923 INTER-LIGAND FREE ENERGY PREDICTED BY IDOCK:   -4.69 KCAL/MOL
REMARK 924 INTRA-LIGAND FREE ENERGY PREDICTED BY IDOCK:   -0.09 KCAL/MOL
REMARK 927      BINDING AFFINITY PREDICTED BY RF-SCORE:    0.00 PKD
ROOT
HETATM    1  O   UNL     1     -11.202  16.949  64.287  1.00  0.00    -1.204 OA 
HETATM    2  C   UNL     1     -10.743  15.977  65.110  1.00  0.00    -0.409 C  
HETATM    3  C   UNL     1     -10.408  16.402  66.526  1.00  0.00    -0.306 C  
HETATM    4  O   UNL     1     -10.670  14.815  64.737  1.00  0.00    -0.407 OA 
ENDROOT
BRANCH   3   5
HETATM    5  C   UNL     1      -9.958  17.837  66.669  1.00  0.00    -0.338 A  
HETATM    6  C   UNL     1      -8.678  18.226  66.242  1.00  0.00    -0.199 A  
HETATM    7  C   UNL     1      -8.221  19.520  66.485  1.00  0.00    -0.334 A  
HETATM    8  C   UNL     1      -9.042  20.441  67.133  1.00  0.00    -0.489 A  
HETATM    9  C   UNL     1     -10.325  20.073  67.530  1.00  0.00    -0.519 A  
HETATM   10  C   UNL     1     -10.782  18.775  67.303  1.00  0.00    -0.490 A  
ENDBRANCH   3   5
TORSDOF 1
ENDMDL
MODEL        6
REMARK 921   NORMALIZED FREE ENERGY PREDICTED BY IDOCK:   -4.58 KCAL/MOL
REMARK 922        TOTAL FREE ENERGY PREDICTED BY IDOCK:   -4.77 KCAL/MOL
REMARK 923 INTER-LIGAND FREE ENERGY PREDICTED BY IDOCK:   -4.70 KCAL/MOL
REMARK 924 INTRA-LIGAND FREE ENERGY PREDICTED BY IDOCK:   -0.07 KCAL/MOL
REMARK 927      BINDING AFFINITY PREDICTED BY RF-SCORE:    0.00 PKD
ROOT
HETATM    1  O   UNL     1     -11.706  12.796  69.776  1.00  0.00    -0.308 OA 
HETATM    2  C   UNL     1     -11.930  13.727  68.820  1.00  0.00    -0.365 C  
HETATM    3  C   UNL     1     -11.962  15.169  69.285  1.00  0.00    -0.322 C  
HETATM    4  O   UNL     1     -12.031  13.412  67.643  1.00  0.00    -0.348 OA 
ENDROOT
BRANCH   3   5
HETATM    5  C   UNL     1     -12.434  15.367  70.707  1.00  0.00    -0.476 A  
HETATM    6  C   UNL     1     -13.778  15.152  71.047  1.00  0.00    -0.450 A  
HETATM    7  C   UNL     1     -14.235  15.451  72.329  1.00  0.00    -0.639 A  
HETATM    8  C   UNL     1     -13.352  15.945  73.287  1.00  0.00    -0.660 A  
HETATM    9  C   UNL     1     -12.009  16.131  72.968  1.00  0.00    -0.593 A  
HETATM   10  C   UNL     1     -11.550  15.847  71.682  1.00  0.00    -0.541 A  
ENDBRANCH   3   5
TORSDOF 1
ENDMDL
MODEL        7
REMARK 921   NORMALIZED FREE ENERGY PREDICTED BY IDOCK:   -4.57 KCAL/MOL
REMARK 922        TOTAL FREE ENERGY PREDICTED BY IDOCK:   -4.76 KCAL/MOL
REMARK 923 INTER-LIGAND FREE ENERGY PREDICTED BY IDOCK:   -4.67 KCAL/MOL
REMARK 924 INTRA-LIGAND FREE ENERGY PREDICTED BY IDOCK:   -0.09 KCAL/MOL
REMARK 927      BINDING AFFINITY PREDICTED BY RF-SCORE:    0.00 PKD
ROOT
HETATM    1  O   UNL     1     -10.102  15.539  65.116  1.00  0.00    -0.328 OA 
HETATM    2  C   UNL     1     -11.284  15.590  64.459  1.00  0.00    -0.315 C  
HETATM    3  C   UNL     1     -12.165  14.362  64.572  1.00  0.00    -0.483 C  
HETATM    4  O   UNL     1     -11.636  16.601  63.868  1.00  0.00    -1.204 OA 
ENDROOT
BRANCH   3   5
HETATM    5  C   UNL     1     -11.420  13.061  64.760  1.00  0.00    -0.363 A  
HETATM    6  C   UNL     1     -10.752  12.462  63.680  1.00  0.00    -0.497 A  
HETATM    7  C   UNL     1     -10.169  11.204  63.826  1.00  0.00    -0.434 A  
HETATM    8  C   UNL     1     -10.228  10.545  65.052  1.00  0.00    -0.365 A  
HETATM    9  C   UNL     1     -10.861  11.146  66.138  1.00  0.00    -0.247 A  
HETATM   10  C   UNL     1     -11.459  12.398  65.993  1.00  0.00    -0.431 A  
ENDBRANCH   3   5
TORSDOF 1
ENDMDL
MODEL        8
REMARK 921   NORMALIZED FREE ENERGY PREDICTED BY IDOCK:   -4.50 KCAL/MOL
REMARK 922        TOTAL FREE ENERGY PREDICTED BY IDOCK:   -4.69 KCAL/MOL
REMARK 923 INTER-LIGAND FREE ENERGY PREDICTED BY IDOCK:   -4.60 KCAL/MOL
REMARK 924 INTRA-LIGAND FREE ENERGY PREDICTED BY IDOCK:   -0.09 KCAL/MOL
REMARK 927      BINDING AFFINITY PREDICTED BY RF-SCORE:    0.00 PKD
ROOT
HETATM    1  O   UNL     1     -12.942  12.205  63.574  1.00  0.00    -0.794 OA 
HETATM    2  C   UNL     1     -12.207  13.316  63.815  1.00  0.00    -0.439 C  
HETATM    3  C   UNL     1     -10.851  13.094  64.456  1.00  0.00    -0.400 C  
HETATM    4  O   UNL     1     -12.599  14.421  63.470  1.00  0.00    -0.784 OA 
ENDROOT
BRANCH   3   5
HETATM    5  C   UNL     1     -10.761  11.877  65.347  1.00  0.00    -0.330 A  
HETATM    6  C   UNL     1     -11.329  11.892  66.630  1.00  0.00    -0.400 A  
HETATM    7  C   UNL     1     -11.140  10.814  67.494  1.00  0.00    -0.374 A  
HETATM    8  C   UNL     1     -10.405   9.706  67.078  1.00  0.00    -0.315 A  
HETATM    9  C   UNL     1      -9.865   9.669  65.795  1.00  0.00    -0.373 A  
HETATM   10  C   UNL     1     -10.039  10.751  64.932  1.00  0.00    -0.387 A  
ENDBRANCH   3   5
TORSDOF 1
ENDMDL
MODEL        9
REMARK 921   NORMALIZED FREE ENERGY PREDICTED BY IDOCK:   -4.46 KCAL/MOL
REMARK 922        TOTAL FREE ENERGY PREDICTED BY IDOCK:   -4.65 KCAL/MOL
REMARK 923 INTER-LIGAND FREE ENERGY PREDICTED BY IDOCK:   -4.58 KCAL/MOL
REMARK 924 INTRA-LIGAND FREE ENERGY PREDICTED BY IDOCK:   -0.07 KCAL/MOL
REMARK 927      BINDING AFFINITY PREDICTED BY RF-SCORE:    0.00 PKD
ROOT
HETATM    1  O   UNL     1     -11.525  13.115  69.567  1.00  0.00    -0.264 OA 
HETATM    2  C   UNL     1     -11.958  14.036  68.675  1.00  0.00    -0.354 C  
HETATM    3  C   UNL     1     -12.153  15.442  69.208  1.00  0.00    -0.283 C  
HETATM    4  O   UNL     1     -12.114  13.751  67.497  1.00  0.00    -0.384 OA 
ENDROOT
BRANCH   3   5
HETATM    5  C   UNL     1     -12.524  15.521  70.670  1.00  0.00    -0.483 A  
HETATM    6  C   UNL     1     -11.559  15.859  71.631  1.00  0.00    -0.541 A  
HETATM    7  C   UNL     1     -11.874  15.813  72.989  1.00  0.00    -0.551 A  
HETATM    8  C   UNL     1     -13.156  15.453  73.396  1.00  0.00    -0.633 A  
HETATM    9  C   UNL     1     -14.130  15.147  72.448  1.00  0.00    -0.593 A  
HETATM   10  C   UNL     1     -13.816  15.178  71.089  1.00  0.00    -0.495 A  
ENDBRANCH   3   5
TORSDOF 1
ENDMDL
MODEL       10
REMARK 921   NORMALIZED FREE ENERGY PREDICTED BY IDOCK:   -4.42 KCAL/MOL
REMARK 922        TOTAL FREE ENERGY PREDICTED BY IDOCK:   -4.60 KCAL/MOL
REMARK 923 INTER-LIGAND FREE ENERGY PREDICTED BY IDOCK:   -4.57 KCAL/MOL
REMARK 924 INTRA-LIGAND FREE ENERGY PREDICTED BY IDOCK:   -0.03 KCAL/MOL
REMARK 927      BINDING AFFINITY PREDICTED BY RF-SCORE:    0.00 PKD
ROOT
HETATM    1  O   UNL     1     -13.244  12.467  64.577  1.00  0.00    -0.832 OA 
HETATM    2  C   UNL     1     -12.323  13.434  64.356  1.00  0.00    -0.341 C  
HETATM    3  C   UNL     1     -11.145  13.465  65.308  1.00  0.00    -0.305 C  
HETATM    4  O   UNL     1     -12.417  14.189  63.399  1.00  0.00    -0.797 OA 
ENDROOT
BRANCH   3   5
HETATM    5  C   UNL     1     -11.439  12.958  66.701  1.00  0.00    -0.393 A  
HETATM    6  C   UNL     1     -11.878  13.840  67.700  1.00  0.00    -0.413 A  
HETATM    7  C   UNL     1     -12.033  13.393  69.012  1.00  0.00    -0.357 A  
HETATM    8  C   UNL     1     -11.774  12.062  69.331  1.00  0.00    -0.402 A  
HETATM    9  C   UNL     1     -11.368  11.172  68.338  1.00  0.00    -0.357 A  
HETATM   10  C   UNL     1     -11.199  11.618  67.028  1.00  0.00    -0.376 A  
ENDBRANCH   3   5
TORSDOF 1
ENDMDL
MODEL       11
REMARK 921   NORMALIZED FREE ENERGY PREDICTED BY IDOCK:   -4.38 KCAL/MOL
REMARK 922        TOTAL FREE ENERGY PREDICTED BY IDOCK:   -4.56 KCAL/MOL
REMARK 923 INTER-LIGAND FREE ENERGY PREDICTED BY IDOCK:   -4.49 KCAL/MOL
REMARK 924 INTRA-LIGAND FREE ENERGY PREDICTED BY IDOCK:   -0.07 KCAL/MOL
REMARK 927      BINDING AFFINITY PREDICTED BY RF-SCORE:    0.00 PKD
ROOT
HETATM    1  O   UNL     1     -13.164  12.372  64.568  1.00  0.00    -0.834 OA 
HETATM    2  C   UNL     1     -12.286  13.397  64.470  1.00  0.00    -0.398 C  
HETATM    3  C   UNL     1     -10.977  13.231  65.218  1.00  0.00    -0.307 C  
HETATM    4  O   UNL     1     -12.521  14.366  63.762  1.00  0.00    -0.814 OA 
ENDROOT
BRANCH   3   5
HETATM    5  C   UNL     1     -11.061  12.377  66.462  1.00  0.00    -0.346 A  
HETATM    6  C   UNL     1     -10.634  11.040  66.436  1.00  0.00    -0.308 A  
HETATM    7  C   UNL     1     -10.824  10.221  67.548  1.00  0.00    -0.355 A  
HETATM    8  C   UNL     1     -11.418  10.734  68.700  1.00  0.00    -0.365 A  
HETATM    9  C   UNL     1     -11.815  12.069  68.745  1.00  0.00    -0.358 A  
HETATM   10  C   UNL     1     -11.640  12.888  67.630  1.00  0.00    -0.406 A  
ENDBRANCH   3   5
TORSDOF 1
ENDMDL
MODEL       12
REMARK 921   NORMALIZED FREE ENERGY PREDICTED BY IDOCK:   -4.36 KCAL/MOL
REMARK 922        TOTAL FREE ENERGY PREDICTED BY IDOCK:   -4.54 KCAL/MOL
REMARK 923 INTER-LIGAND FREE ENERGY PREDICTED BY IDOCK:   -4.56 KCAL/MOL
REMARK 924 INTRA-LIGAND FREE ENERGY PREDICTED BY IDOCK:    0.02 KCAL/MOL
REMARK 927      BINDING AFFINITY PREDICTED BY RF-SCORE:    0.00 PKD
ROOT
HETATM    1  O   UNL     1     -14.315  15.553  72.109  1.00  0.00    -0.548 OA 
HETATM    2  C   UNL     1     -13.151  15.927  72.688  1.00  0.00    -0.472 C  
HETATM    3  C   UNL     1     -11.951  16.037  71.768  1.00  0.00    -0.592 C  
HETATM    4  O   UNL     1     -13.100  16.221  73.874  1.00  0.00    -0.693 OA 
ENDROOT
BRANCH   3   5
HETATM    5  C   UNL     1     -11.979  15.110  70.575  1.00  0.00    -0.371 A  
HETATM    6  C   UNL     1     -12.038  13.719  70.757  1.00  0.00    -0.395 A  
HETATM    7  C   UNL     1     -11.941  12.864  69.661  1.00  0.00    -0.358 A  
HETATM    8  C   UNL     1     -11.808  13.386  68.376  1.00  0.00    -0.401 A  
HETATM    9  C   UNL     1     -11.781  14.766  68.184  1.00  0.00    -0.353 A  
HETATM   10  C   UNL     1     -11.863  15.626  69.279  1.00  0.00    -0.378 A  
ENDBRANCH   3   5
TORSDOF 1
ENDMDL
MODEL       13
REMARK 921   NORMALIZED FREE ENERGY PREDICTED BY IDOCK:   -4.33 KCAL/MOL
REMARK 922        TOTAL FREE ENERGY PREDICTED BY IDOCK:   -4.51 KCAL/MOL
REMARK 923 INTER-LIGAND FREE ENERGY PREDICTED BY IDOCK:   -4.53 KCAL/MOL
REMARK 924 INTRA-LIGAND FREE ENERGY PREDICTED BY IDOCK:    0.01 KCAL/MOL
REMARK 927      BINDING AFFINITY PREDICTED BY RF-SCORE:    0.00 PKD
ROOT
HETATM    1  O   UNL     1     -11.389  16.917  64.193  1.00  0.00    -1.208 OA 
HETATM    2  C   UNL     1     -10.552  17.127  65.236  1.00  0.00    -0.043 C  
HETATM    3  C   UNL     1      -9.847  15.902  65.784  1.00  0.00    -0.380 C  
HETATM    4  O   UNL     1     -10.337  18.254  65.658  1.00  0.00    -0.607 OA 
ENDROOT
BRANCH   3   5
HETATM    5  C   UNL     1     -10.611  14.607  65.631  1.00  0.00    -0.344 A  
HETATM    6  C   UNL     1     -11.420  14.132  66.674  1.00  0.00    -0.378 A  
HETATM    7  C   UNL     1     -12.026  12.880  66.578  1.00  0.00    -0.447 A  
HETATM    8  C   UNL     1     -11.849  12.104  65.434  1.00  0.00    -0.357 A  
HETATM    9  C   UNL     1     -11.073  12.582  64.380  1.00  0.00    -0.383 A  
HETATM   10  C   UNL     1     -10.453  13.828  64.477  1.00  0.00    -0.378 A  
ENDBRANCH   3   5
TORSDOF 1
ENDMDL
MODEL       14
REMARK 921   NORMALIZED FREE ENERGY PREDICTED BY IDOCK:   -4.21 KCAL/MOL
REMARK 922        TOTAL FREE ENERGY PREDICTED BY IDOCK:   -4.38 KCAL/MOL
REMARK 923 INTER-LIGAND FREE ENERGY PREDICTED BY IDOCK:   -4.42 KCAL/MOL
REMARK 924 INTRA-LIGAND FREE ENERGY PREDICTED BY IDOCK:    0.04 KCAL/MOL
REMARK 927      BINDING AFFINITY PREDICTED BY RF-SCORE:    0.00 PKD
ROOT
HETATM    1  O   UNL     1     -14.337  15.572  72.016  1.00  0.00    -0.529 OA 
HETATM    2  C   UNL     1     -13.223  15.855  72.731  1.00  0.00    -0.503 C  
HETATM    3  C   UNL     1     -11.928  15.937  71.947  1.00  0.00    -0.588 C  
HETATM    4  O   UNL     1     -13.284  16.093  73.929  1.00  0.00    -0.649 OA 
ENDROOT
BRANCH   3   5
HETATM    5  C   UNL     1     -11.876  15.066  70.713  1.00  0.00    -0.372 A  
HETATM    6  C   UNL     1     -11.706  15.641  69.444  1.00  0.00    -0.395 A  
HETATM    7  C   UNL     1     -11.780  14.849  68.300  1.00  0.00    -0.342 A  
HETATM    8  C   UNL     1     -12.000  13.478  68.412  1.00  0.00    -0.378 A  
HETATM    9  C   UNL     1     -12.138  12.894  69.669  1.00  0.00    -0.290 A  
HETATM   10  C   UNL     1     -12.080  13.684  70.817  1.00  0.00    -0.374 A  
ENDBRANCH   3   5
TORSDOF 1
ENDMDL
MODEL       15
REMARK 921   NORMALIZED FREE ENERGY PREDICTED BY IDOCK:   -4.20 KCAL/MOL
REMARK 922        TOTAL FREE ENERGY PREDICTED BY IDOCK:   -4.37 KCAL/MOL
REMARK 923 INTER-LIGAND FREE ENERGY PREDICTED BY IDOCK:   -4.30 KCAL/MOL
REMARK 924 INTRA-LIGAND FREE ENERGY PREDICTED BY IDOCK:   -0.07 KCAL/MOL
REMARK 927      BINDING AFFINITY PREDICTED BY RF-SCORE:    0.00 PKD
ROOT
HETATM    1  O   UNL     1     -12.136  14.251  67.804  1.00  0.00    -0.363 OA 
HETATM    2  C   UNL     1     -11.267  15.173  68.280  1.00  0.00    -0.308 C  
HETATM    3  C   UNL     1     -11.034  15.161  69.778  1.00  0.00    -0.293 C  
HETATM    4  O   UNL     1     -10.663  15.922  67.526  1.00  0.00    -0.310 OA 
ENDROOT
BRANCH   3   5
HETATM    5  C   UNL     1     -12.208  14.682  70.600  1.00  0.00    -0.394 A  
HETATM    6  C   UNL     1     -13.233  15.571  70.961  1.00  0.00    -0.539 A  
HETATM    7  C   UNL     1     -14.251  15.157  71.819  1.00  0.00    -0.674 A  
HETATM    8  C   UNL     1     -14.267  13.850  72.304  1.00  0.00    -0.584 A  
HETATM    9  C   UNL     1     -13.272  12.952  71.925  1.00  0.00    -0.521 A  
HETATM   10  C   UNL     1     -12.243  13.366  71.078  1.00  0.00    -0.312 A  
ENDBRANCH   3   5
TORSDOF 1
ENDMDL
MODEL       16
REMARK 921   NORMALIZED FREE ENERGY PREDICTED BY IDOCK:   -4.20 KCAL/MOL
REMARK 922        TOTAL FREE ENERGY PREDICTED BY IDOCK:   -4.37 KCAL/MOL
REMARK 923 INTER-LIGAND FREE ENERGY PREDICTED BY IDOCK:   -4.28 KCAL/MOL
REMARK 924 INTRA-LIGAND FREE ENERGY PREDICTED BY IDOCK:   -0.09 KCAL/MOL
REMARK 927      BINDING AFFINITY PREDICTED BY RF-SCORE:    0.00 PKD
ROOT
HETATM    1  O   UNL     1     -12.104  11.567  68.106  1.00  0.00    -0.604 OA 
HETATM    2  C   UNL     1     -11.806  12.875  68.284  1.00  0.00    -0.330 C  
HETATM    3  C   UNL     1     -11.940  13.763  67.062  1.00  0.00    -0.452 C  
HETATM    4  O   UNL     1     -11.512  13.313  69.387  1.00  0.00    -0.267 OA 
ENDROOT
BRANCH   3   5
HETATM    5  C   UNL     1     -11.696  13.069  65.742  1.00  0.00    -0.427 A  
HETATM    6  C   UNL     1     -10.392  12.737  65.344  1.00  0.00    -0.310 A  
HETATM    7  C   UNL     1     -10.159  12.207  64.075  1.00  0.00    -0.357 A  
HETATM    8  C   UNL     1     -11.224  11.984  63.205  1.00  0.00    -0.403 A  
HETATM    9  C   UNL     1     -12.526  12.280  63.605  1.00  0.00    -0.647 A  
HETATM   10  C   UNL     1     -12.762  12.823  64.868  1.00  0.00    -0.479 A  
ENDBRANCH   3   5
TORSDOF 1
ENDMDL
MODEL       17
REMARK 921   NORMALIZED FREE ENERGY PREDICTED BY IDOCK:   -4.19 KCAL/MOL
REMARK 922        TOTAL FREE ENERGY PREDICTED BY IDOCK:   -4.36 KCAL/MOL
REMARK 923 INTER-LIGAND FREE ENERGY PREDICTED BY IDOCK:   -4.33 KCAL/MOL
REMARK 924 INTRA-LIGAND FREE ENERGY PREDICTED BY IDOCK:   -0.02 KCAL/MOL
REMARK 927      BINDING AFFINITY PREDICTED BY RF-SCORE:    0.00 PKD
ROOT
HETATM    1  O   UNL     1     -12.627  14.327  63.782  1.00  0.00    -0.821 OA 
HETATM    2  C   UNL     1     -12.520  13.024  64.130  1.00  0.00    -0.300 C  
HETATM    3  C   UNL     1     -12.154  12.745  65.575  1.00  0.00    -0.517 C  
HETATM    4  O   UNL     1     -12.773  12.133  63.332  1.00  0.00    -0.722 OA 
ENDROOT
BRANCH   3   5
HETATM    5  C   UNL     1     -11.309  13.811  66.232  1.00  0.00    -0.329 A  
HETATM    6  C   UNL     1     -11.831  14.586  67.280  1.00  0.00    -0.419 A  
HETATM    7  C   UNL     1     -11.094  15.647  67.803  1.00  0.00    -0.311 A  
HETATM    8  C   UNL     1      -9.825  15.930  67.301  1.00  0.00    -0.234 A  
HETATM    9  C   UNL     1      -9.286  15.147  66.283  1.00  0.00    -0.348 A  
HETATM   10  C   UNL     1     -10.026  14.092  65.747  1.00  0.00    -0.331 A  
ENDBRANCH   3   5
TORSDOF 1
ENDMDL
MODEL       18
REMARK 921   NORMALIZED FREE ENERGY PREDICTED BY IDOCK:   -4.18 KCAL/MOL
REMARK 922        TOTAL FREE ENERGY PREDICTED BY IDOCK:   -4.35 KCAL/MOL
REMARK 923 INTER-LIGAND FREE ENERGY PREDICTED BY IDOCK:   -4.27 KCAL/MOL
REMARK 924 INTRA-LIGAND FREE ENERGY PREDICTED BY IDOCK:   -0.08 KCAL/MOL
REMARK 927      BINDING AFFINITY PREDICTED BY RF-SCORE:    0.00 PKD
ROOT
HETATM    1  O   UNL     1     -12.670  14.220  63.768  1.00  0.00    -0.779 OA 
HETATM    2  C   UNL     1     -12.511  12.925  64.125  1.00  0.00    -0.335 C  
HETATM    3  C   UNL     1     -12.117  12.672  65.567  1.00  0.00    -0.515 C  
HETATM    4  O   UNL     1     -12.740  12.019  63.337  1.00  0.00    -0.706 OA 
ENDROOT
BRANCH   3   5
HETATM    5  C   UNL     1     -11.304  13.775  66.206  1.00  0.00    -0.329 A  
HETATM    6  C   UNL     1      -9.964  13.974  65.838  1.00  0.00    -0.325 A  
HETATM    7  C   UNL     1      -9.183  14.910  66.514  1.00  0.00    -0.314 A  
HETATM    8  C   UNL     1      -9.736  15.669  67.543  1.00  0.00    -0.222 A  
HETATM    9  C   UNL     1     -11.074  15.500  67.893  1.00  0.00    -0.321 A  
HETATM   10  C   UNL     1     -11.856  14.555  67.230  1.00  0.00    -0.419 A  
ENDBRANCH   3   5
TORSDOF 1
ENDMDL
MODEL       19
REMARK 921   NORMALIZED FREE ENERGY PREDICTED BY IDOCK:   -4.14 KCAL/MOL
REMARK 922        TOTAL FREE ENERGY PREDICTED BY IDOCK:   -4.31 KCAL/MOL
REMARK 923 INTER-LIGAND FREE ENERGY PREDICTED BY IDOCK:   -4.33 KCAL/MOL
REMARK 924 INTRA-LIGAND FREE ENERGY PREDICTED BY IDOCK:    0.02 KCAL/MOL
REMARK 927      BINDING AFFINITY PREDICTED BY RF-SCORE:    0.00 PKD
ROOT
HETATM    1  O   UNL     1     -13.143  14.121  65.197  1.00  0.00    -0.757 OA 
HETATM    2  C   UNL     1     -12.158  13.901  64.295  1.00  0.00    -0.440 C  
HETATM    3  C   UNL     1     -10.739  14.060  64.802  1.00  0.00    -0.442 C  
HETATM    4  O   UNL     1     -12.414  13.531  63.158  1.00  0.00    -0.759 OA 
ENDROOT
BRANCH   3   5
HETATM    5  C   UNL     1     -10.573  15.057  65.925  1.00  0.00    -0.338 A  
HETATM    6  C   UNL     1     -10.739  14.658  67.260  1.00  0.00    -0.290 A  
HETATM    7  C   UNL     1     -10.706  15.603  68.285  1.00  0.00    -0.283 A  
HETATM    8  C   UNL     1     -10.485  16.946  67.989  1.00  0.00    -0.347 A  
HETATM    9  C   UNL     1     -10.288  17.347  66.669  1.00  0.00    -0.306 A  
HETATM   10  C   UNL     1     -10.335  16.408  65.639  1.00  0.00    -0.371 A  
ENDBRANCH   3   5
TORSDOF 1
ENDMDL
MODEL       20
REMARK 921   NORMALIZED FREE ENERGY PREDICTED BY IDOCK:   -4.14 KCAL/MOL
REMARK 922        TOTAL FREE ENERGY PREDICTED BY IDOCK:   -4.30 KCAL/MOL
REMARK 923 INTER-LIGAND FREE ENERGY PREDICTED BY IDOCK:   -4.23 KCAL/MOL
REMARK 924 INTRA-LIGAND FREE ENERGY PREDICTED BY IDOCK:   -0.07 KCAL/MOL
REMARK 927      BINDING AFFINITY PREDICTED BY RF-SCORE:    0.00 PKD
ROOT
HETATM    1  O   UNL     1     -13.208  12.174  64.211  1.00  0.00    -0.768 OA 
HETATM    2  C   UNL     1     -12.559  13.210  64.793  1.00  0.00    -0.364 C  
HETATM    3  C   UNL     1     -11.056  13.250  64.600  1.00  0.00    -0.375 C  
HETATM    4  O   UNL     1     -13.171  14.089  65.381  1.00  0.00    -0.761 OA 
ENDROOT
BRANCH   3   5
HETATM    5  C   UNL     1     -10.401  11.898  64.433  1.00  0.00    -0.341 A  
HETATM    6  C   UNL     1     -10.316  11.011  65.517  1.00  0.00    -0.321 A  
HETATM    7  C   UNL     1      -9.605   9.818  65.393  1.00  0.00    -0.359 A  
HETATM    8  C   UNL     1      -8.995   9.491  64.184  1.00  0.00    -0.240 A  
HETATM    9  C   UNL     1      -9.101  10.351  63.093  1.00  0.00    -0.274 A  
HETATM   10  C   UNL     1      -9.799  11.553  63.216  1.00  0.00    -0.431 A  
ENDBRANCH   3   5
TORSDOF 1
ENDMDL
MODEL       21
REMARK 921   NORMALIZED FREE ENERGY PREDICTED BY IDOCK:   -4.13 KCAL/MOL
REMARK 922        TOTAL FREE ENERGY PREDICTED BY IDOCK:   -4.29 KCAL/MOL
REMARK 923 INTER-LIGAND FREE ENERGY PREDICTED BY IDOCK:   -4.24 KCAL/MOL
REMARK 924 INTRA-LIGAND FREE ENERGY PREDICTED BY IDOCK:   -0.05 KCAL/MOL
REMARK 927      BINDING AFFINITY PREDICTED BY RF-SCORE:    0.00 PKD
ROOT
HETATM    1  O   UNL     1     -11.526  16.905  64.053  1.00  0.00    -1.130 OA 
HETATM    2  C   UNL     1     -10.798  17.334  65.111  1.00  0.00     0.058 C  
HETATM    3  C   UNL     1      -9.994  16.276  65.841  1.00  0.00    -0.366 C  
HETATM    4  O   UNL     1     -10.749  18.519  65.407  1.00  0.00    -0.585 OA 
ENDROOT
BRANCH   3   5
HETATM    5  C   UNL     1     -10.586  14.887  65.799  1.00  0.00    -0.342 A  
HETATM    6  C   UNL     1     -10.154  13.959  64.839  1.00  0.00    -0.294 A  
HETATM    7  C   UNL     1     -10.785  12.721  64.725  1.00  0.00    -0.340 A  
HETATM    8  C   UNL     1     -11.835  12.391  65.579  1.00  0.00    -0.469 A  
HETATM    9  C   UNL     1     -12.250  13.294  66.556  1.00  0.00    -0.389 A  
HETATM   10  C   UNL     1     -11.630  14.539  66.665  1.00  0.00    -0.385 A  
ENDBRANCH   3   5
TORSDOF 1
ENDMDL
MODEL       22
REMARK 921   NORMALIZED FREE ENERGY PREDICTED BY IDOCK:   -4.13 KCAL/MOL
REMARK 922        TOTAL FREE ENERGY PREDICTED BY IDOCK:   -4.29 KCAL/MOL
REMARK 923 INTER-LIGAND FREE ENERGY PREDICTED BY IDOCK:   -4.20 KCAL/MOL
REMARK 924 INTRA-LIGAND FREE ENERGY PREDICTED BY IDOCK:   -0.09 KCAL/MOL
REMARK 927      BINDING AFFINITY PREDICTED BY RF-SCORE:    0.00 PKD
ROOT
HETATM    1  O   UNL     1     -10.756  14.843  65.023  1.00  0.00    -0.380 OA 
HETATM    2  C   UNL     1     -11.976  14.458  64.581  1.00  0.00    -0.464 C  
HETATM    3  C   UNL     1     -12.499  13.142  65.122  1.00  0.00    -0.539 C  
HETATM    4  O   UNL     1     -12.635  15.173  63.840  1.00  0.00    -0.794 OA 
ENDROOT
BRANCH   3   5
HETATM    5  C   UNL     1     -11.432  12.133  65.478  1.00  0.00    -0.394 A  
HETATM    6  C   UNL     1     -10.831  11.351  64.479  1.00  0.00    -0.375 A  
HETATM    7  C   UNL     1      -9.937  10.339  64.823  1.00  0.00    -0.392 A  
HETATM    8  C   UNL     1      -9.618  10.113  66.160  1.00  0.00    -0.256 A  
HETATM    9  C   UNL     1     -10.185  10.906  67.156  1.00  0.00    -0.249 A  
HETATM   10  C   UNL     1     -11.091  11.911  66.818  1.00  0.00    -0.359 A  
ENDBRANCH   3   5
TORSDOF 1
ENDMDL
MODEL       23
REMARK 921   NORMALIZED FREE ENERGY PREDICTED BY IDOCK:   -4.09 KCAL/MOL
REMARK 922        TOTAL FREE ENERGY PREDICTED BY IDOCK:   -4.25 KCAL/MOL
REMARK 923 INTER-LIGAND FREE ENERGY PREDICTED BY IDOCK:   -4.28 KCAL/MOL
REMARK 924 INTRA-LIGAND FREE ENERGY PREDICTED BY IDOCK:    0.03 KCAL/MOL
REMARK 927      BINDING AFFINITY PREDICTED BY RF-SCORE:    0.00 PKD
ROOT
HETATM    1  O   UNL     1     -11.479  10.236  67.714  1.00  0.00    -0.351 OA 
HETATM    2  C   UNL     1     -11.766  11.500  68.104  1.00  0.00    -0.287 C  
HETATM    3  C   UNL     1     -11.559  11.809  69.574  1.00  0.00    -0.398 C  
HETATM    4  O   UNL     1     -12.107  12.350  67.294  1.00  0.00    -0.516 OA 
ENDROOT
BRANCH   3   5
HETATM    5  C   UNL     1     -11.748  10.632  70.503  1.00  0.00    -0.451 A  
HETATM    6  C   UNL     1     -12.979  10.423  71.143  1.00  0.00    -0.506 A  
HETATM    7  C   UNL     1     -13.114   9.410  72.091  1.00  0.00    -0.526 A  
HETATM    8  C   UNL     1     -12.032   8.585  72.390  1.00  0.00    -0.434 A  
HETATM    9  C   UNL     1     -10.815   8.765  71.735  1.00  0.00    -0.416 A  
HETATM   10  C   UNL     1     -10.671   9.787  70.797  1.00  0.00    -0.393 A  
ENDBRANCH   3   5
TORSDOF 1
ENDMDL
MODEL       24
REMARK 921   NORMALIZED FREE ENERGY PREDICTED BY IDOCK:   -4.09 KCAL/MOL
REMARK 922        TOTAL FREE ENERGY PREDICTED BY IDOCK:   -4.25 KCAL/MOL
REMARK 923 INTER-LIGAND FREE ENERGY PREDICTED BY IDOCK:   -4.18 KCAL/MOL
REMARK 924 INTRA-LIGAND FREE ENERGY PREDICTED BY IDOCK:   -0.06 KCAL/MOL
REMARK 927      BINDING AFFINITY PREDICTED BY RF-SCORE:    0.00 PKD
ROOT
HETATM    1  O   UNL     1     -10.433  15.014  66.834  1.00  0.00    -0.269 OA 
HETATM    2  C   UNL     1     -11.433  14.635  67.663  1.00  0.00    -0.346 C  
HETATM    3  C   UNL     1     -11.885  13.193  67.549  1.00  0.00    -0.409 C  
HETATM    4  O   UNL     1     -11.889  15.404  68.497  1.00  0.00    -0.345 OA 
ENDROOT
BRANCH   3   5
HETATM    5  C   UNL     1     -11.722  12.582  66.177  1.00  0.00    -0.466 A  
HETATM    6  C   UNL     1     -10.696  11.657  65.928  1.00  0.00    -0.328 A  
HETATM    7  C   UNL     1     -10.472  11.188  64.634  1.00  0.00    -0.400 A  
HETATM    8  C   UNL     1     -11.282  11.620  63.585  1.00  0.00    -0.497 A  
HETATM    9  C   UNL     1     -12.322  12.514  63.829  1.00  0.00    -0.595 A  
HETATM   10  C   UNL     1     -12.541  12.996  65.119  1.00  0.00    -0.530 A  
ENDBRANCH   3   5
TORSDOF 1
ENDMDL
MODEL       25
REMARK 921   NORMALIZED FREE ENERGY PREDICTED BY IDOCK:   -3.95 KCAL/MOL
REMARK 922        TOTAL FREE ENERGY PREDICTED BY IDOCK:   -4.11 KCAL/MOL
REMARK 923 INTER-LIGAND FREE ENERGY PREDICTED BY IDOCK:   -4.28 KCAL/MOL
REMARK 924 INTRA-LIGAND FREE ENERGY PREDICTED BY IDOCK:    0.17 KCAL/MOL
REMARK 927      BINDING AFFINITY PREDICTED BY RF-SCORE:    0.00 PKD
ROOT
HETATM    1  O   UNL     1     -10.505   9.346  71.507  1.00  0.00    -0.337 OA 
HETATM    2  C   UNL     1     -11.715   8.847  71.852  1.00  0.00    -0.369 C  
HETATM    3  C   UNL     1     -12.923   9.615  71.353  1.00  0.00    -0.474 C  
HETATM    4  O   UNL     1     -11.812   7.799  72.474  1.00  0.00    -0.335 OA 
ENDROOT
BRANCH   3   5
HETATM    5  C   UNL     1     -12.702  11.099  71.174  1.00  0.00    -0.510 A  
HETATM    6  C   UNL     1     -13.268  12.016  72.073  1.00  0.00    -0.481 A  
HETATM    7  C   UNL     1     -13.164  13.386  71.837  1.00  0.00    -0.522 A  
HETATM    8  C   UNL     1     -12.478  13.852  70.718  1.00  0.00    -0.445 A  
HETATM    9  C   UNL     1     -11.885  12.949  69.837  1.00  0.00    -0.373 A  
HETATM   10  C   UNL     1     -11.999  11.577  70.061  1.00  0.00    -0.435 A  
ENDBRANCH   3   5
TORSDOF 1
ENDMDL
MODEL       26
REMARK 921   NORMALIZED FREE ENERGY PREDICTED BY IDOCK:   -3.95 KCAL/MOL
REMARK 922        TOTAL FREE ENERGY PREDICTED BY IDOCK:   -4.10 KCAL/MOL
REMARK 923 INTER-LIGAND FREE ENERGY PREDICTED BY IDOCK:   -4.56 KCAL/MOL
REMARK 924 INTRA-LIGAND FREE ENERGY PREDICTED BY IDOCK:    0.46 KCAL/MOL
REMARK 927      BINDING AFFINITY PREDICTED BY RF-SCORE:    0.00 PKD
ROOT
HETATM    1  O   UNL     1     -12.052  11.673  70.702  1.00  0.00    -0.368 OA 
HETATM    2  C   UNL     1     -12.972  11.406  71.658  1.00  0.00    -0.418 C  
HETATM    3  C   UNL     1     -13.732  12.598  72.206  1.00  0.00    -0.429 C  
HETATM    4  O   UNL     1     -13.211  10.258  72.003  1.00  0.00    -0.450 OA 
ENDROOT
BRANCH   3   5
HETATM    5  C   UNL     1     -12.969  13.902  72.184  1.00  0.00    -0.441 A  
HETATM    6  C   UNL     1     -12.795  14.644  73.363  1.00  0.00    -0.526 A  
HETATM    7  C   UNL     1     -12.198  15.903  73.319  1.00  0.00    -0.625 A  
HETATM    8  C   UNL     1     -11.751  16.421  72.105  1.00  0.00    -0.453 A  
HETATM    9  C   UNL     1     -11.891  15.678  70.935  1.00  0.00    -0.428 A  
HETATM   10  C   UNL     1     -12.501  14.424  70.972  1.00  0.00    -0.425 A  
ENDBRANCH   3   5
TORSDOF 1
ENDMDL
MODEL       27
REMARK 921   NORMALIZED FREE ENERGY PREDICTED BY IDOCK:   -3.94 KCAL/MOL
REMARK 922        TOTAL FREE ENERGY PREDICTED BY IDOCK:   -4.09 KCAL/MOL
REMARK 923 INTER-LIGAND FREE ENERGY PREDICTED BY IDOCK:   -4.00 KCAL/MOL
REMARK 924 INTRA-LIGAND FREE ENERGY PREDICTED BY IDOCK:   -0.09 KCAL/MOL
REMARK 927      BINDING AFFINITY PREDICTED BY RF-SCORE:    0.00 PKD
ROOT
HETATM    1  O   UNL     1     -11.343  15.085  66.677  1.00  0.00    -0.344 OA 
HETATM    2  C   UNL     1     -10.362  15.112  65.745  1.00  0.00    -0.339 C  
HETATM    3  C   UNL     1      -9.265  16.136  65.960  1.00  0.00    -0.363 C  
HETATM    4  O   UNL     1     -10.340  14.307  64.826  1.00  0.00    -0.433 OA 
ENDROOT
BRANCH   3   5
HETATM    5  C   UNL     1      -9.697  17.386  66.691  1.00  0.00    -0.296 A  
HETATM    6  C   UNL     1     -10.432  18.379  66.026  1.00  0.00    -0.400 A  
HETATM    7  C   UNL     1     -10.725  19.583  66.667  1.00  0.00    -0.552 A  
HETATM    8  C   UNL     1     -10.307  19.795  67.979  1.00  0.00    -0.567 A  
HETATM    9  C   UNL     1      -9.604  18.802  68.657  1.00  0.00    -0.432 A  
HETATM   10  C   UNL     1      -9.296  17.602  68.016  1.00  0.00    -0.274 A  
ENDBRANCH   3   5
TORSDOF 1
ENDMDL
MODEL       28
REMARK 921   NORMALIZED FREE ENERGY PREDICTED BY IDOCK:   -3.93 KCAL/MOL
REMARK 922        TOTAL FREE ENERGY PREDICTED BY IDOCK:   -4.08 KCAL/MOL
REMARK 923 INTER-LIGAND FREE ENERGY PREDICTED BY IDOCK:   -4.02 KCAL/MOL
REMARK 924 INTRA-LIGAND FREE ENERGY PREDICTED BY IDOCK:   -0.07 KCAL/MOL
REMARK 927      BINDING AFFINITY PREDICTED BY RF-SCORE:    0.00 PKD
ROOT
HETATM    1  O   UNL     1     -14.388  15.391  71.050  1.00  0.00    -0.447 OA 
HETATM    2  C   UNL     1     -13.779  14.361  71.683  1.00  0.00    -0.404 C  
HETATM    3  C   UNL     1     -12.279  14.251  71.491  1.00  0.00    -0.378 C  
HETATM    4  O   UNL     1     -14.406  13.610  72.416  1.00  0.00    -0.661 OA 
ENDROOT
BRANCH   3   5
HETATM    5  C   UNL     1     -11.767  14.784  70.173  1.00  0.00    -0.352 A  
HETATM    6  C   UNL     1     -11.186  16.060  70.100  1.00  0.00    -0.376 A  
HETATM    7  C   UNL     1     -10.826  16.597  68.865  1.00  0.00    -0.321 A  
HETATM    8  C   UNL     1     -11.019  15.860  67.699  1.00  0.00    -0.298 A  
HETATM    9  C   UNL     1     -11.565  14.579  67.766  1.00  0.00    -0.390 A  
HETATM   10  C   UNL     1     -11.941  14.043  68.998  1.00  0.00    -0.392 A  
ENDBRANCH   3   5
TORSDOF 1
ENDMDL
MODEL       29
REMARK 921   NORMALIZED FREE ENERGY PREDICTED BY IDOCK:   -3.90 KCAL/MOL
REMARK 922        TOTAL FREE ENERGY PREDICTED BY IDOCK:   -4.05 KCAL/MOL
REMARK 923 INTER-LIGAND FREE ENERGY PREDICTED BY IDOCK:   -4.01 KCAL/MOL
REMARK 924 INTRA-LIGAND FREE ENERGY PREDICTED BY IDOCK:   -0.04 KCAL/MOL
REMARK 927      BINDING AFFINITY PREDICTED BY RF-SCORE:    0.00 PKD
ROOT
HETATM    1  O   UNL     1     -13.466  13.842  65.344  1.00  0.00    -0.672 OA 
HETATM    2  C   UNL     1     -12.242  13.468  64.903  1.00  0.00    -0.410 C  
HETATM    3  C   UNL     1     -11.264  13.002  65.964  1.00  0.00    -0.320 C  
HETATM    4  O   UNL     1     -11.977  13.449  63.710  1.00  0.00    -0.466 OA 
ENDROOT
BRANCH   3   5
HETATM    5  C   UNL     1     -11.457  13.627  67.325  1.00  0.00    -0.370 A  
HETATM    6  C   UNL     1     -11.252  15.004  67.510  1.00  0.00    -0.333 A  
HETATM    7  C   UNL     1     -11.313  15.556  68.789  1.00  0.00    -0.339 A  
HETATM    8  C   UNL     1     -11.600  14.748  69.887  1.00  0.00    -0.330 A  
HETATM    9  C   UNL     1     -11.837  13.386  69.708  1.00  0.00    -0.393 A  
HETATM   10  C   UNL     1     -11.763  12.826  68.433  1.00  0.00    -0.380 A  
ENDBRANCH   3   5
TORSDOF 1
ENDMDL
MODEL       30
REMARK 921   NORMALIZED FREE ENERGY PREDICTED BY IDOCK:   -3.89 KCAL/MOL
REMARK 922        TOTAL FREE ENERGY PREDICTED BY IDOCK:   -4.04 KCAL/MOL
REMARK 923 INTER-LIGAND FREE ENERGY PREDICTED BY IDOCK:   -4.13 KCAL/MOL
REMARK 924 INTRA-LIGAND FREE ENERGY PREDICTED BY IDOCK:    0.09 KCAL/MOL
REMARK 927      BINDING AFFINITY PREDICTED BY RF-SCORE:    0.00 PKD
ROOT
HETATM    1  O   UNL     1     -11.072   9.861  68.066  1.00  0.00    -0.249 OA 
HETATM    2  C   UNL     1     -11.602  11.089  68.268  1.00  0.00    -0.284 C  
HETATM    3  C   UNL     1     -11.687  11.551  69.710  1.00  0.00    -0.426 C  
HETATM    4  O   UNL     1     -11.928  11.801  67.329  1.00  0.00    -0.618 OA 
ENDROOT
BRANCH   3   5
HETATM    5  C   UNL     1     -11.850  10.442  70.723  1.00  0.00    -0.466 A  
HETATM    6  C   UNL     1     -10.733   9.719  71.171  1.00  0.00    -0.284 A  
HETATM    7  C   UNL     1     -10.900   8.620  72.012  1.00  0.00    -0.430 A  
HETATM    8  C   UNL     1     -12.176   8.247  72.430  1.00  0.00    -0.412 A  
HETATM    9  C   UNL     1     -13.287   8.978  72.015  1.00  0.00    -0.494 A  
HETATM   10  C   UNL     1     -13.127  10.070  71.163  1.00  0.00    -0.472 A  
ENDBRANCH   3   5
TORSDOF 1
ENDMDL
MODEL       31
REMARK 921   NORMALIZED FREE ENERGY PREDICTED BY IDOCK:   -3.84 KCAL/MOL
REMARK 922        TOTAL FREE ENERGY PREDICTED BY IDOCK:   -3.98 KCAL/MOL
REMARK 923 INTER-LIGAND FREE ENERGY PREDICTED BY IDOCK:   -3.89 KCAL/MOL
REMARK 924 INTRA-LIGAND FREE ENERGY PREDICTED BY IDOCK:   -0.09 KCAL/MOL
REMARK 927      BINDING AFFINITY PREDICTED BY RF-SCORE:    0.00 PKD
ROOT
HETATM    1  O   UNL     1     -12.715   6.613  71.219  1.00  0.00    -0.290 OA 
HETATM    2  C   UNL     1     -11.693   6.630  72.107  1.00  0.00    -0.304 C  
HETATM    3  C   UNL     1     -11.329   7.985  72.681  1.00  0.00    -0.469 C  
HETATM    4  O   UNL     1     -11.148   5.595  72.464  1.00  0.00    -0.247 OA 
ENDROOT
BRANCH   3   5
HETATM    5  C   UNL     1     -11.602   9.157  71.767  1.00  0.00    -0.457 A  
HETATM    6  C   UNL     1     -10.750   9.429  70.686  1.00  0.00    -0.353 A  
HETATM    7  C   UNL     1     -10.934  10.578  69.918  1.00  0.00    -0.359 A  
HETATM    8  C   UNL     1     -11.981  11.450  70.208  1.00  0.00    -0.460 A  
HETATM    9  C   UNL     1     -12.852  11.171  71.260  1.00  0.00    -0.515 A  
HETATM   10  C   UNL     1     -12.662  10.030  72.039  1.00  0.00    -0.439 A  
ENDBRANCH   3   5
TORSDOF 1
ENDMDL
MODEL       32
REMARK 921   NORMALIZED FREE ENERGY PREDICTED BY IDOCK:   -3.83 KCAL/MOL
REMARK 922        TOTAL FREE ENERGY PREDICTED BY IDOCK:   -3.97 KCAL/MOL
REMARK 923 INTER-LIGAND FREE ENERGY PREDICTED BY IDOCK:   -3.91 KCAL/MOL
REMARK 924 INTRA-LIGAND FREE ENERGY PREDICTED BY IDOCK:   -0.07 KCAL/MOL
REMARK 927      BINDING AFFINITY PREDICTED BY RF-SCORE:    0.00 PKD
ROOT
HETATM    1  O   UNL     1     -13.910   9.453  72.127  1.00  0.00    -0.414 OA 
HETATM    2  C   UNL     1     -12.988  10.392  71.811  1.00  0.00    -0.475 C  
HETATM    3  C   UNL     1     -11.728   9.890  71.132  1.00  0.00    -0.478 C  
HETATM    4  O   UNL     1     -13.201  11.579  72.009  1.00  0.00    -0.509 OA 
ENDROOT
BRANCH   3   5
HETATM    5  C   UNL     1     -11.329   8.480  71.497  1.00  0.00    -0.348 A  
HETATM    6  C   UNL     1     -11.526   7.428  70.590  1.00  0.00    -0.307 A  
HETATM    7  C   UNL     1     -11.269   6.112  70.974  1.00  0.00    -0.361 A  
HETATM    8  C   UNL     1     -10.793   5.839  72.254  1.00  0.00    -0.298 A  
HETATM    9  C   UNL     1     -10.564   6.880  73.151  1.00  0.00    -0.330 A  
HETATM   10  C   UNL     1     -10.833   8.197  72.776  1.00  0.00    -0.390 A  
ENDBRANCH   3   5
TORSDOF 1
ENDMDL
MODEL       33
REMARK 921   NORMALIZED FREE ENERGY PREDICTED BY IDOCK:   -3.82 KCAL/MOL
REMARK 922        TOTAL FREE ENERGY PREDICTED BY IDOCK:   -3.97 KCAL/MOL
REMARK 923 INTER-LIGAND FREE ENERGY PREDICTED BY IDOCK:   -3.92 KCAL/MOL
REMARK 924 INTRA-LIGAND FREE ENERGY PREDICTED BY IDOCK:   -0.05 KCAL/MOL
REMARK 927      BINDING AFFINITY PREDICTED BY RF-SCORE:    0.00 PKD
ROOT
HETATM    1  O   UNL     1      -9.745  14.938  69.323  1.00  0.00    -0.203 OA 
HETATM    2  C   UNL     1     -10.369  14.211  68.368  1.00  0.00    -0.249 C  
HETATM    3  C   UNL     1     -11.874  14.080  68.503  1.00  0.00    -0.399 C  
HETATM    4  O   UNL     1      -9.751  13.748  67.420  1.00  0.00    -0.226 OA 
ENDROOT
BRANCH   3   5
HETATM    5  C   UNL     1     -12.391  14.132  69.921  1.00  0.00    -0.382 A  
HETATM    6  C   UNL     1     -12.483  12.959  70.687  1.00  0.00    -0.333 A  
HETATM    7  C   UNL     1     -13.073  12.990  71.950  1.00  0.00    -0.483 A  
HETATM    8  C   UNL     1     -13.553  14.191  72.467  1.00  0.00    -0.644 A  
HETATM    9  C   UNL     1     -13.436  15.366  71.727  1.00  0.00    -0.581 A  
HETATM   10  C   UNL     1     -12.860  15.338  70.457  1.00  0.00    -0.421 A  
ENDBRANCH   3   5
TORSDOF 1
ENDMDL
MODEL       34
REMARK 921   NORMALIZED FREE ENERGY PREDICTED BY IDOCK:   -3.79 KCAL/MOL
REMARK 922        TOTAL FREE ENERGY PREDICTED BY IDOCK:   -3.93 KCAL/MOL
REMARK 923 INTER-LIGAND FREE ENERGY PREDICTED BY IDOCK:   -3.86 KCAL/MOL
REMARK 924 INTRA-LIGAND FREE ENERGY PREDICTED BY IDOCK:   -0.07 KCAL/MOL
REMARK 927      BINDING AFFINITY PREDICTED BY RF-SCORE:    0.00 PKD
ROOT
HETATM    1  O   UNL     1     -10.593  14.501  68.049  1.00  0.00    -0.233 OA 
HETATM    2  C   UNL     1     -11.567  13.687  68.518  1.00  0.00    -0.335 C  
HETATM    3  C   UNL     1     -11.814  12.417  67.728  1.00  0.00    -0.362 C  
HETATM    4  O   UNL     1     -12.159  13.942  69.556  1.00  0.00    -0.321 OA 
ENDROOT
BRANCH   3   5
HETATM    5  C   UNL     1     -11.510  12.517  66.252  1.00  0.00    -0.421 A  
HETATM    6  C   UNL     1     -12.334  13.277  65.407  1.00  0.00    -0.528 A  
HETATM    7  C   UNL     1     -12.122  13.270  64.029  1.00  0.00    -0.508 A  
HETATM    8  C   UNL     1     -11.077  12.525  63.486  1.00  0.00    -0.497 A  
HETATM    9  C   UNL     1     -10.235  11.794  64.321  1.00  0.00    -0.344 A  
HETATM   10  C   UNL     1     -10.451  11.786  65.699  1.00  0.00    -0.308 A  
ENDBRANCH   3   5
TORSDOF 1
ENDMDL
MODEL       35
REMARK 921   NORMALIZED FREE ENERGY PREDICTED BY IDOCK:   -3.79 KCAL/MOL
REMARK 922        TOTAL FREE ENERGY PREDICTED BY IDOCK:   -3.93 KCAL/MOL
REMARK 923 INTER-LIGAND FREE ENERGY PREDICTED BY IDOCK:   -3.87 KCAL/MOL
REMARK 924 INTRA-LIGAND FREE ENERGY PREDICTED BY IDOCK:   -0.07 KCAL/MOL
REMARK 927      BINDING AFFINITY PREDICTED BY RF-SCORE:    0.00 PKD
ROOT
HETATM    1  O   UNL     1     -12.832   6.895  70.831  1.00  0.00    -0.294 OA 
HETATM    2  C   UNL     1     -11.913   6.773  71.817  1.00  0.00    -0.339 C  
HETATM    3  C   UNL     1     -11.501   8.058  72.508  1.00  0.00    -0.471 C  
HETATM    4  O   UNL     1     -11.498   5.677  72.163  1.00  0.00    -0.258 OA 
ENDROOT
BRANCH   3   5
HETATM    5  C   UNL     1     -11.576   9.296  71.645  1.00  0.00    -0.463 A  
HETATM    6  C   UNL     1     -12.616  10.222  71.821  1.00  0.00    -0.488 A  
HETATM    7  C   UNL     1     -12.753  11.299  70.945  1.00  0.00    -0.412 A  
HETATM    8  C   UNL     1     -11.842  11.472  69.905  1.00  0.00    -0.430 A  
HETATM    9  C   UNL     1     -10.788  10.576  69.742  1.00  0.00    -0.335 A  
HETATM   10  C   UNL     1     -10.656   9.489  70.607  1.00  0.00    -0.374 A  
ENDBRANCH   3   5
TORSDOF 1
ENDMDL
MODEL       36
REMARK 921   NORMALIZED FREE ENERGY PREDICTED BY IDOCK:   -3.78 KCAL/MOL
REMARK 922        TOTAL FREE ENERGY PREDICTED BY IDOCK:   -3.93 KCAL/MOL
REMARK 923 INTER-LIGAND FREE ENERGY PREDICTED BY IDOCK:   -3.86 KCAL/MOL
REMARK 924 INTRA-LIGAND FREE ENERGY PREDICTED BY IDOCK:   -0.07 KCAL/MOL
REMARK 927      BINDING AFFINITY PREDICTED BY RF-SCORE:    0.00 PKD
ROOT
HETATM    1  O   UNL     1      -9.422  13.855  66.594  1.00  0.00    -0.270 OA 
HETATM    2  C   UNL     1     -10.536  13.922  65.829  1.00  0.00    -0.297 C  
HETATM    3  C   UNL     1     -11.855  13.984  66.574  1.00  0.00    -0.439 C  
HETATM    4  O   UNL     1     -10.464  13.995  64.611  1.00  0.00    -0.434 OA 
ENDROOT
BRANCH   3   5
HETATM    5  C   UNL     1     -11.859  13.294  67.918  1.00  0.00    -0.388 A  
HETATM    6  C   UNL     1     -11.773  11.895  67.998  1.00  0.00    -0.382 A  
HETATM    7  C   UNL     1     -11.898  11.254  69.230  1.00  0.00    -0.423 A  
HETATM    8  C   UNL     1     -12.087  12.002  70.391  1.00  0.00    -0.407 A  
HETATM    9  C   UNL     1     -12.140  13.393  70.324  1.00  0.00    -0.419 A  
HETATM   10  C   UNL     1     -12.030  14.038  69.092  1.00  0.00    -0.400 A  
ENDBRANCH   3   5
TORSDOF 1
ENDMDL
MODEL       37
REMARK 921   NORMALIZED FREE ENERGY PREDICTED BY IDOCK:   -3.78 KCAL/MOL
REMARK 922        TOTAL FREE ENERGY PREDICTED BY IDOCK:   -3.92 KCAL/MOL
REMARK 923 INTER-LIGAND FREE ENERGY PREDICTED BY IDOCK:   -4.43 KCAL/MOL
REMARK 924 INTRA-LIGAND FREE ENERGY PREDICTED BY IDOCK:    0.51 KCAL/MOL
REMARK 927      BINDING AFFINITY PREDICTED BY RF-SCORE:    0.00 PKD
ROOT
HETATM    1  O   UNL     1     -12.388  11.350  68.821  1.00  0.00    -0.480 OA 
HETATM    2  C   UNL     1     -11.942  10.658  69.895  1.00  0.00    -0.310 C  
HETATM    3  C   UNL     1     -12.449  11.122  71.246  1.00  0.00    -0.466 C  
HETATM    4  O   UNL     1     -11.226   9.676  69.762  1.00  0.00    -0.233 OA 
ENDROOT
BRANCH   3   5
HETATM    5  C   UNL     1     -12.769  12.596  71.333  1.00  0.00    -0.347 A  
HETATM    6  C   UNL     1     -13.780  13.054  72.191  1.00  0.00    -0.547 A  
HETATM    7  C   UNL     1     -14.155  14.397  72.180  1.00  0.00    -0.627 A  
HETATM    8  C   UNL     1     -13.511  15.295  71.331  1.00  0.00    -0.588 A  
HETATM    9  C   UNL     1     -12.484  14.854  70.499  1.00  0.00    -0.419 A  
HETATM   10  C   UNL     1     -12.115  13.509  70.496  1.00  0.00    -0.409 A  
ENDBRANCH   3   5
TORSDOF 1
ENDMDL
MODEL       38
REMARK 921   NORMALIZED FREE ENERGY PREDICTED BY IDOCK:   -3.77 KCAL/MOL
REMARK 922        TOTAL FREE ENERGY PREDICTED BY IDOCK:   -3.91 KCAL/MOL
REMARK 923 INTER-LIGAND FREE ENERGY PREDICTED BY IDOCK:   -3.87 KCAL/MOL
REMARK 924 INTRA-LIGAND FREE ENERGY PREDICTED BY IDOCK:   -0.04 KCAL/MOL
REMARK 927      BINDING AFFINITY PREDICTED BY RF-SCORE:    0.00 PKD
ROOT
HETATM    1  O   UNL     1     -11.428  15.807  68.270  1.00  0.00    -0.361 OA 
HETATM    2  C   UNL     1     -10.901  15.307  67.128  1.00  0.00    -0.322 C  
HETATM    3  C   UNL     1      -9.709  16.052  66.560  1.00  0.00    -0.284 C  
HETATM    4  O   UNL     1     -11.331  14.276  66.632  1.00  0.00    -0.327 OA 
ENDROOT
BRANCH   3   5
HETATM    5  C   UNL     1      -9.682  17.532  66.863  1.00  0.00    -0.291 A  
HETATM    6  C   UNL     1      -8.969  18.018  67.970  1.00  0.00    -0.274 A  
HETATM    7  C   UNL     1      -9.045  19.366  68.316  1.00  0.00    -0.397 A  
HETATM    8  C   UNL     1      -9.811  20.242  67.550  1.00  0.00    -0.576 A  
HETATM    9  C   UNL     1     -10.496  19.774  66.430  1.00  0.00    -0.618 A  
HETATM   10  C   UNL     1     -10.435  18.423  66.088  1.00  0.00    -0.422 A  
ENDBRANCH   3   5
TORSDOF 1
ENDMDL
MODEL       39
REMARK 921   NORMALIZED FREE ENERGY PREDICTED BY IDOCK:   -3.77 KCAL/MOL
REMARK 922        TOTAL FREE ENERGY PREDICTED BY IDOCK:   -3.91 KCAL/MOL
REMARK 923 INTER-LIGAND FREE ENERGY PREDICTED BY IDOCK:   -3.84 KCAL/MOL
REMARK 924 INTRA-LIGAND FREE ENERGY PREDICTED BY IDOCK:   -0.07 KCAL/MOL
REMARK 927      BINDING AFFINITY PREDICTED BY RF-SCORE:    0.00 PKD
ROOT
HETATM    1  O   UNL     1     -10.620   7.085  73.794  1.00  0.00    -0.375 OA 
HETATM    2  C   UNL     1     -11.158   6.190  72.933  1.00  0.00    -0.247 C  
HETATM    3  C   UNL     1     -11.509   6.715  71.555  1.00  0.00    -0.343 C  
HETATM    4  O   UNL     1     -11.286   5.014  73.242  1.00  0.00    -0.325 OA 
ENDROOT
BRANCH   3   5
HETATM    5  C   UNL     1     -11.881   8.179  71.509  1.00  0.00    -0.332 A  
HETATM    6  C   UNL     1     -13.091   8.622  72.064  1.00  0.00    -0.417 A  
HETATM    7  C   UNL     1     -13.487   9.950  71.913  1.00  0.00    -0.467 A  
HETATM    8  C   UNL     1     -12.671  10.849  71.229  1.00  0.00    -0.542 A  
HETATM    9  C   UNL     1     -11.453  10.425  70.703  1.00  0.00    -0.438 A  
HETATM   10  C   UNL     1     -11.059   9.094  70.839  1.00  0.00    -0.356 A  
ENDBRANCH   3   5
TORSDOF 1
ENDMDL
MODEL       40
REMARK 921   NORMALIZED FREE ENERGY PREDICTED BY IDOCK:   -3.72 KCAL/MOL
REMARK 922        TOTAL FREE ENERGY PREDICTED BY IDOCK:   -3.86 KCAL/MOL
REMARK 923 INTER-LIGAND FREE ENERGY PREDICTED BY IDOCK:   -3.77 KCAL/MOL
REMARK 924 INTRA-LIGAND FREE ENERGY PREDICTED BY IDOCK:   -0.09 KCAL/MOL
REMARK 927      BINDING AFFINITY PREDICTED BY RF-SCORE:    0.00 PKD
ROOT
HETATM    1  O   UNL     1     -11.291   6.145  69.098  1.00  0.00    -0.399 OA 
HETATM    2  C   UNL     1     -10.605   5.765  70.200  1.00  0.00    -0.307 C  
HETATM    3  C   UNL     1     -11.253   6.083  71.534  1.00  0.00    -0.326 C  
HETATM    4  O   UNL     1      -9.557   5.142  70.110  1.00  0.00    -0.154 OA 
ENDROOT
BRANCH   3   5
HETATM    5  C   UNL     1     -12.135   7.310  71.535  1.00  0.00    -0.365 A  
HETATM    6  C   UNL     1     -11.566   8.593  71.548  1.00  0.00    -0.368 A  
HETATM    7  C   UNL     1     -12.379   9.719  71.672  1.00  0.00    -0.495 A  
HETATM    8  C   UNL     1     -13.762   9.576  71.759  1.00  0.00    -0.385 A  
HETATM    9  C   UNL     1     -14.337   8.308  71.715  1.00  0.00    -0.574 A  
HETATM   10  C   UNL     1     -13.527   7.177  71.606  1.00  0.00    -0.397 A  
ENDBRANCH   3   5
TORSDOF 1
ENDMDL
MODEL       41
REMARK 921   NORMALIZED FREE ENERGY PREDICTED BY IDOCK:   -3.71 KCAL/MOL
REMARK 922        TOTAL FREE ENERGY PREDICTED BY IDOCK:   -3.85 KCAL/MOL
REMARK 923 INTER-LIGAND FREE ENERGY PREDICTED BY IDOCK:   -3.77 KCAL/MOL
REMARK 924 INTRA-LIGAND FREE ENERGY PREDICTED BY IDOCK:   -0.08 KCAL/MOL
REMARK 927      BINDING AFFINITY PREDICTED BY RF-SCORE:    0.00 PKD
ROOT
HETATM    1  O   UNL     1     -11.872  13.277  68.966  1.00  0.00    -0.295 OA 
HETATM    2  C   UNL     1     -11.874  12.078  68.338  1.00  0.00    -0.300 C  
HETATM    3  C   UNL     1     -11.164  12.024  66.999  1.00  0.00    -0.377 C  
HETATM    4  O   UNL     1     -12.367  11.090  68.863  1.00  0.00    -0.516 OA 
ENDROOT
BRANCH   3   5
HETATM    5  C   UNL     1     -11.166  13.322  66.226  1.00  0.00    -0.321 A  
HETATM    6  C   UNL     1     -12.281  13.689  65.456  1.00  0.00    -0.476 A  
HETATM    7  C   UNL     1     -12.233  14.825  64.649  1.00  0.00    -0.405 A  
HETATM    8  C   UNL     1     -11.085  15.614  64.621  1.00  0.00    -0.387 A  
HETATM    9  C   UNL     1      -9.985  15.275  65.407  1.00  0.00    -0.364 A  
HETATM   10  C   UNL     1     -10.023  14.131  66.205  1.00  0.00    -0.328 A  
ENDBRANCH   3   5
TORSDOF 1
ENDMDL
MODEL       42
REMARK 921   NORMALIZED FREE ENERGY PREDICTED BY IDOCK:   -3.71 KCAL/MOL
REMARK 922        TOTAL FREE ENERGY PREDICTED BY IDOCK:   -3.85 KCAL/MOL
REMARK 923 INTER-LIGAND FREE ENERGY PREDICTED BY IDOCK:   -3.78 KCAL/MOL
REMARK 924 INTRA-LIGAND FREE ENERGY PREDICTED BY IDOCK:   -0.07 KCAL/MOL
REMARK 927      BINDING AFFINITY PREDICTED BY RF-SCORE:    0.00 PKD
ROOT
HETATM    1  O   UNL     1     -10.172   7.520  73.491  1.00  0.00    -0.332 OA 
HETATM    2  C   UNL     1     -10.967   6.524  73.035  1.00  0.00    -0.239 C  
HETATM    3  C   UNL     1     -11.703   6.797  71.738  1.00  0.00    -0.353 C  
HETATM    4  O   UNL     1     -11.028   5.448  73.613  1.00  0.00    -0.289 OA 
ENDROOT
BRANCH   3   5
HETATM    5  C   UNL     1     -12.032   8.250  71.488  1.00  0.00    -0.335 A  
HETATM    6  C   UNL     1     -11.278   9.003  70.575  1.00  0.00    -0.301 A  
HETATM    7  C   UNL     1     -11.506  10.372  70.437  1.00  0.00    -0.420 A  
HETATM    8  C   UNL     1     -12.500  10.994  71.189  1.00  0.00    -0.502 A  
HETATM    9  C   UNL     1     -13.276  10.247  72.074  1.00  0.00    -0.516 A  
HETATM   10  C   UNL     1     -13.042   8.881  72.226  1.00  0.00    -0.491 A  
ENDBRANCH   3   5
TORSDOF 1
ENDMDL
MODEL       43
REMARK 921   NORMALIZED FREE ENERGY PREDICTED BY IDOCK:   -3.70 KCAL/MOL
REMARK 922        TOTAL FREE ENERGY PREDICTED BY IDOCK:   -3.84 KCAL/MOL
REMARK 923 INTER-LIGAND FREE ENERGY PREDICTED BY IDOCK:   -3.76 KCAL/MOL
REMARK 924 INTRA-LIGAND FREE ENERGY PREDICTED BY IDOCK:   -0.09 KCAL/MOL
REMARK 927      BINDING AFFINITY PREDICTED BY RF-SCORE:    0.00 PKD
ROOT
HETATM    1  O   UNL     1     -12.391  10.951  68.590  1.00  0.00    -0.501 OA 
HETATM    2  C   UNL     1     -11.081  11.231  68.783  1.00  0.00    -0.233 C  
HETATM    3  C   UNL     1     -10.510  12.362  67.950  1.00  0.00    -0.227 C  
HETATM    4  O   UNL     1     -10.427  10.643  69.631  1.00  0.00    -0.228 OA 
ENDROOT
BRANCH   3   5
HETATM    5  C   UNL     1     -11.171  12.556  66.605  1.00  0.00    -0.357 A  
HETATM    6  C   UNL     1     -10.813  11.749  65.514  1.00  0.00    -0.348 A  
HETATM    7  C   UNL     1     -11.335  12.010  64.248  1.00  0.00    -0.433 A  
HETATM    8  C   UNL     1     -12.231  13.060  64.064  1.00  0.00    -0.489 A  
HETATM    9  C   UNL     1     -12.617  13.846  65.148  1.00  0.00    -0.466 A  
HETATM   10  C   UNL     1     -12.087  13.599  66.414  1.00  0.00    -0.478 A  
ENDBRANCH   3   5
TORSDOF 1
ENDMDL
MODEL       44
REMARK 921   NORMALIZED FREE ENERGY PREDICTED BY IDOCK:   -3.70 KCAL/MOL
REMARK 922        TOTAL FREE ENERGY PREDICTED BY IDOCK:   -3.84 KCAL/MOL
REMARK 923 INTER-LIGAND FREE ENERGY PREDICTED BY IDOCK:   -3.76 KCAL/MOL
REMARK 924 INTRA-LIGAND FREE ENERGY PREDICTED BY IDOCK:   -0.08 KCAL/MOL
REMARK 927      BINDING AFFINITY PREDICTED BY RF-SCORE:    0.00 PKD
ROOT
HETATM    1  O   UNL     1     -11.579  15.271  67.744  1.00  0.00    -0.335 OA 
HETATM    2  C   UNL     1     -10.706  16.123  67.158  1.00  0.00    -0.262 C  
HETATM    3  C   UNL     1     -10.648  16.083  65.644  1.00  0.00    -0.392 C  
HETATM    4  O   UNL     1     -10.056  16.918  67.821  1.00  0.00    -0.272 OA 
ENDROOT
BRANCH   3   5
HETATM    5  C   UNL     1     -10.977  14.742  65.030  1.00  0.00    -0.426 A  
HETATM    6  C   UNL     1     -10.074  13.673  65.131  1.00  0.00    -0.298 A  
HETATM    7  C   UNL     1     -10.325  12.476  64.462  1.00  0.00    -0.362 A  
HETATM    8  C   UNL     1     -11.488  12.328  63.708  1.00  0.00    -0.545 A  
HETATM    9  C   UNL     1     -12.406  13.374  63.629  1.00  0.00    -0.422 A  
HETATM   10  C   UNL     1     -12.152  14.578  64.284  1.00  0.00    -0.448 A  
ENDBRANCH   3   5
TORSDOF 1
ENDMDL
MODEL       45
REMARK 921   NORMALIZED FREE ENERGY PREDICTED BY IDOCK:   -3.68 KCAL/MOL
REMARK 922        TOTAL FREE ENERGY PREDICTED BY IDOCK:   -3.82 KCAL/MOL
REMARK 923 INTER-LIGAND FREE ENERGY PREDICTED BY IDOCK:   -4.07 KCAL/MOL
REMARK 924 INTRA-LIGAND FREE ENERGY PREDICTED BY IDOCK:    0.25 KCAL/MOL
REMARK 927      BINDING AFFINITY PREDICTED BY RF-SCORE:    0.00 PKD
ROOT
HETATM    1  O   UNL     1     -12.199  11.792  67.410  1.00  0.00    -0.501 OA 
HETATM    2  C   UNL     1     -11.392  12.872  67.530  1.00  0.00    -0.308 C  
HETATM    3  C   UNL     1     -10.936  13.213  68.935  1.00  0.00    -0.270 C  
HETATM    4  O   UNL     1     -11.007  13.487  66.546  1.00  0.00    -0.288 OA 
ENDROOT
BRANCH   3   5
HETATM    5  C   UNL     1     -11.902  12.823  70.029  1.00  0.00    -0.352 A  
HETATM    6  C   UNL     1     -12.571  13.809  70.772  1.00  0.00    -0.410 A  
HETATM    7  C   UNL     1     -13.367  13.450  71.858  1.00  0.00    -0.539 A  
HETATM    8  C   UNL     1     -13.522  12.107  72.197  1.00  0.00    -0.383 A  
HETATM    9  C   UNL     1     -12.888  11.120  71.445  1.00  0.00    -0.544 A  
HETATM   10  C   UNL     1     -12.078  11.475  70.366  1.00  0.00    -0.471 A  
ENDBRANCH   3   5
TORSDOF 1
ENDMDL
MODEL       46
REMARK 921   NORMALIZED FREE ENERGY PREDICTED BY IDOCK:   -3.67 KCAL/MOL
REMARK 922        TOTAL FREE ENERGY PREDICTED BY IDOCK:   -3.81 KCAL/MOL
REMARK 923 INTER-LIGAND FREE ENERGY PREDICTED BY IDOCK:   -4.20 KCAL/MOL
REMARK 924 INTRA-LIGAND FREE ENERGY PREDICTED BY IDOCK:    0.39 KCAL/MOL
REMARK 927      BINDING AFFINITY PREDICTED BY RF-SCORE:    0.00 PKD
ROOT
HETATM    1  O   UNL     1     -12.124  11.741  67.390  1.00  0.00    -0.595 OA 
HETATM    2  C   UNL     1     -11.857  13.053  67.587  1.00  0.00    -0.351 C  
HETATM    3  C   UNL     1     -11.387  13.438  68.976  1.00  0.00    -0.335 C  
HETATM    4  O   UNL     1     -11.930  13.858  66.670  1.00  0.00    -0.396 OA 
ENDROOT
BRANCH   3   5
HETATM    5  C   UNL     1     -11.912  12.562  70.090  1.00  0.00    -0.377 A  
HETATM    6  C   UNL     1     -11.591  11.196  70.131  1.00  0.00    -0.410 A  
HETATM    7  C   UNL     1     -12.173  10.367  71.088  1.00  0.00    -0.498 A  
HETATM    8  C   UNL     1     -13.060  10.896  72.024  1.00  0.00    -0.462 A  
HETATM    9  C   UNL     1     -13.360  12.256  72.010  1.00  0.00    -0.491 A  
HETATM   10  C   UNL     1     -12.791  13.087  71.045  1.00  0.00    -0.281 A  
ENDBRANCH   3   5
TORSDOF 1
ENDMDL
MODEL       47
REMARK 921   NORMALIZED FREE ENERGY PREDICTED BY IDOCK:   -3.66 KCAL/MOL
REMARK 922        TOTAL FREE ENERGY PREDICTED BY IDOCK:   -3.80 KCAL/MOL
REMARK 923 INTER-LIGAND FREE ENERGY PREDICTED BY IDOCK:   -3.74 KCAL/MOL
REMARK 924 INTRA-LIGAND FREE ENERGY PREDICTED BY IDOCK:   -0.06 KCAL/MOL
REMARK 927      BINDING AFFINITY PREDICTED BY RF-SCORE:    0.00 PKD
ROOT
HETATM    1  O   UNL     1      -7.034  19.824  69.411  1.00  0.00    -0.348 OA 
HETATM    2  C   UNL     1      -6.392  20.513  68.439  1.00  0.00    -0.316 C  
HETATM    3  C   UNL     1      -7.230  20.917  67.241  1.00  0.00    -0.408 C  
HETATM    4  O   UNL     1      -5.221  20.842  68.563  1.00  0.00    -0.251 OA 
ENDROOT
BRANCH   3   5
HETATM    5  C   UNL     1      -8.377  19.985  66.925  1.00  0.00    -0.376 A  
HETATM    6  C   UNL     1      -9.699  20.368  67.197  1.00  0.00    -0.601 A  
HETATM    7  C   UNL     1     -10.743  19.461  67.018  1.00  0.00    -0.582 A  
HETATM    8  C   UNL     1     -10.480  18.177  66.547  1.00  0.00    -0.356 A  
HETATM    9  C   UNL     1      -9.173  17.799  66.244  1.00  0.00    -0.203 A  
HETATM   10  C   UNL     1      -8.124  18.697  66.435  1.00  0.00    -0.300 A  
ENDBRANCH   3   5
TORSDOF 1
ENDMDL
MODEL       48
REMARK 921   NORMALIZED FREE ENERGY PREDICTED BY IDOCK:   -3.66 KCAL/MOL
REMARK 922        TOTAL FREE ENERGY PREDICTED BY IDOCK:   -3.80 KCAL/MOL
REMARK 923 INTER-LIGAND FREE ENERGY PREDICTED BY IDOCK:   -3.73 KCAL/MOL
REMARK 924 INTRA-LIGAND FREE ENERGY PREDICTED BY IDOCK:   -0.07 KCAL/MOL
REMARK 927      BINDING AFFINITY PREDICTED BY RF-SCORE:    0.00 PKD
ROOT
HETATM    1  O   UNL     1      -6.397  21.153  68.086  1.00  0.00    -0.323 OA 
HETATM    2  C   UNL     1      -6.287  20.453  69.239  1.00  0.00    -0.253 C  
HETATM    3  C   UNL     1      -6.971  19.100  69.267  1.00  0.00    -0.331 C  
HETATM    4  O   UNL     1      -5.616  20.871  70.171  1.00  0.00    -0.505 OA 
ENDROOT
BRANCH   3   5
HETATM    5  C   UNL     1      -8.194  18.988  68.388  1.00  0.00    -0.382 A  
HETATM    6  C   UNL     1      -8.111  18.369  67.131  1.00  0.00    -0.244 A  
HETATM    7  C   UNL     1      -9.210  18.375  66.272  1.00  0.00    -0.217 A  
HETATM    8  C   UNL     1     -10.403  18.976  66.668  1.00  0.00    -0.501 A  
HETATM    9  C   UNL     1     -10.503  19.565  67.927  1.00  0.00    -0.552 A  
HETATM   10  C   UNL     1      -9.403  19.574  68.784  1.00  0.00    -0.423 A  
ENDBRANCH   3   5
TORSDOF 1
ENDMDL
MODEL       49
REMARK 921   NORMALIZED FREE ENERGY PREDICTED BY IDOCK:   -3.65 KCAL/MOL
REMARK 922        TOTAL FREE ENERGY PREDICTED BY IDOCK:   -3.79 KCAL/MOL
REMARK 923 INTER-LIGAND FREE ENERGY PREDICTED BY IDOCK:   -3.80 KCAL/MOL
REMARK 924 INTRA-LIGAND FREE ENERGY PREDICTED BY IDOCK:    0.01 KCAL/MOL
REMARK 927      BINDING AFFINITY PREDICTED BY RF-SCORE:    0.00 PKD
ROOT
HETATM    1  O   UNL     1     -11.979  11.114  67.748  1.00  0.00    -0.630 OA 
HETATM    2  C   UNL     1     -10.866  10.433  67.390  1.00  0.00    -0.286 C  
HETATM    3  C   UNL     1      -9.985  11.093  66.347  1.00  0.00    -0.257 C  
HETATM    4  O   UNL     1     -10.567   9.379  67.932  1.00  0.00    -0.237 OA 
ENDROOT
BRANCH   3   5
HETATM    5  C   UNL     1     -10.716  11.985  65.371  1.00  0.00    -0.330 A  
HETATM    6  C   UNL     1     -10.928  13.340  65.667  1.00  0.00    -0.292 A  
HETATM    7  C   UNL     1     -11.706  14.130  64.822  1.00  0.00    -0.416 A  
HETATM    8  C   UNL     1     -12.258  13.582  63.666  1.00  0.00    -0.438 A  
HETATM    9  C   UNL     1     -12.026  12.246  63.348  1.00  0.00    -0.588 A  
HETATM   10  C   UNL     1     -11.260  11.448  64.197  1.00  0.00    -0.327 A  
ENDBRANCH   3   5
TORSDOF 1
ENDMDL
MODEL       50
REMARK 921   NORMALIZED FREE ENERGY PREDICTED BY IDOCK:   -3.63 KCAL/MOL
REMARK 922        TOTAL FREE ENERGY PREDICTED BY IDOCK:   -3.76 KCAL/MOL
REMARK 923 INTER-LIGAND FREE ENERGY PREDICTED BY IDOCK:   -3.70 KCAL/MOL
REMARK 924 INTRA-LIGAND FREE ENERGY PREDICTED BY IDOCK:   -0.07 KCAL/MOL
REMARK 927      BINDING AFFINITY PREDICTED BY RF-SCORE:    0.00 PKD
ROOT
HETATM    1  O   UNL     1      -9.593  14.597  67.992  1.00  0.00    -0.204 OA 
HETATM    2  C   UNL     1     -10.705  14.566  68.764  1.00  0.00    -0.253 C  
HETATM    3  C   UNL     1     -11.794  13.606  68.329  1.00  0.00    -0.404 C  
HETATM    4  O   UNL     1     -10.784  15.232  69.786  1.00  0.00    -0.253 OA 
ENDROOT
BRANCH   3   5
HETATM    5  C   UNL     1     -11.856  13.347  66.841  1.00  0.00    -0.453 A  
HETATM    6  C   UNL     1     -11.321  12.167  66.303  1.00  0.00    -0.411 A  
HETATM    7  C   UNL     1     -11.270  11.986  64.921  1.00  0.00    -0.374 A  
HETATM    8  C   UNL     1     -11.772  12.967  64.069  1.00  0.00    -0.497 A  
HETATM    9  C   UNL     1     -12.334  14.128  64.597  1.00  0.00    -0.432 A  
HETATM   10  C   UNL     1     -12.374  14.320  65.978  1.00  0.00    -0.416 A  
ENDBRANCH   3   5
TORSDOF 1
ENDMDL
MODEL       51
REMARK 921   NORMALIZED FREE ENERGY PREDICTED BY IDOCK:   -3.61 KCAL/MOL
REMARK 922        TOTAL FREE ENERGY PREDICTED BY IDOCK:   -3.75 KCAL/MOL
REMARK 923 INTER-LIGAND FREE ENERGY PREDICTED BY IDOCK:   -3.66 KCAL/MOL
REMARK 924 INTRA-LIGAND FREE ENERGY PREDICTED BY IDOCK:   -0.09 KCAL/MOL
REMARK 927      BINDING AFFINITY PREDICTED BY RF-SCORE:    0.00 PKD
ROOT
HETATM    1  O   UNL     1      -9.660   8.636  69.812  1.00  0.00    -0.167 OA 
HETATM    2  C   UNL     1      -9.210   8.842  71.072  1.00  0.00    -0.245 C  
HETATM    3  C   UNL     1     -10.105   8.346  72.190  1.00  0.00    -0.376 C  
HETATM    4  O   UNL     1      -8.113   9.341  71.278  1.00  0.00    -0.320 OA 
ENDROOT
BRANCH   3   5
HETATM    5  C   UNL     1     -11.581   8.342  71.868  1.00  0.00    -0.395 A  
HETATM    6  C   UNL     1     -12.300   9.546  71.810  1.00  0.00    -0.474 A  
HETATM    7  C   UNL     1     -13.682   9.531  71.633  1.00  0.00    -0.365 A  
HETATM    8  C   UNL     1     -14.355   8.319  71.489  1.00  0.00    -0.525 A  
HETATM    9  C   UNL     1     -13.645   7.120  71.513  1.00  0.00    -0.408 A  
HETATM   10  C   UNL     1     -12.263   7.130  71.704  1.00  0.00    -0.385 A  
ENDBRANCH   3   5
TORSDOF 1
ENDMDL
MODEL       52
REMARK 921   NORMALIZED FREE ENERGY PREDICTED BY IDOCK:   -3.61 KCAL/MOL
REMARK 922        TOTAL FREE ENERGY PREDICTED BY IDOCK:   -3.74 KCAL/MOL
REMARK 923 INTER-LIGAND FREE ENERGY PREDICTED BY IDOCK:   -3.65 KCAL/MOL
REMARK 924 INTRA-LIGAND FREE ENERGY PREDICTED BY IDOCK:   -0.09 KCAL/MOL
REMARK 927      BINDING AFFINITY PREDICTED BY RF-SCORE:    0.00 PKD
ROOT
HETATM    1  O   UNL     1      -9.632  15.107  69.318  1.00  0.00    -0.221 OA 
HETATM    2  C   UNL     1     -10.859  15.368  69.826  1.00  0.00    -0.288 C  
HETATM    3  C   UNL     1     -11.946  14.364  69.497  1.00  0.00    -0.376 C  
HETATM    4  O   UNL     1     -11.049  16.327  70.561  1.00  0.00    -0.348 OA 
ENDROOT
BRANCH   3   5
HETATM    5  C   UNL     1     -11.772  13.649  68.177  1.00  0.00    -0.392 A  
HETATM    6  C   UNL     1     -12.036  14.313  66.969  1.00  0.00    -0.424 A  
HETATM    7  C   UNL     1     -11.992  13.617  65.762  1.00  0.00    -0.425 A  
HETATM    8  C   UNL     1     -11.663  12.263  65.747  1.00  0.00    -0.445 A  
HETATM    9  C   UNL     1     -11.368  11.604  66.939  1.00  0.00    -0.364 A  
HETATM   10  C   UNL     1     -11.425  12.293  68.151  1.00  0.00    -0.371 A  
ENDBRANCH   3   5
TORSDOF 1
ENDMDL
MODEL       53
REMARK 921   NORMALIZED FREE ENERGY PREDICTED BY IDOCK:   -3.61 KCAL/MOL
REMARK 922        TOTAL FREE ENERGY PREDICTED BY IDOCK:   -3.74 KCAL/MOL
REMARK 923 INTER-LIGAND FREE ENERGY PREDICTED BY IDOCK:   -3.65 KCAL/MOL
REMARK 924 INTRA-LIGAND FREE ENERGY PREDICTED BY IDOCK:   -0.09 KCAL/MOL
REMARK 927      BINDING AFFINITY PREDICTED BY RF-SCORE:    0.00 PKD
ROOT
HETATM    1  O   UNL     1     -11.541   9.354  71.939  1.00  0.00    -0.378 OA 
HETATM    2  C   UNL     1     -12.809   9.027  71.597  1.00  0.00    -0.359 C  
HETATM    3  C   UNL     1     -13.157   7.553  71.649  1.00  0.00    -0.401 C  
HETATM    4  O   UNL     1     -13.633   9.889  71.327  1.00  0.00    -0.324 OA 
ENDROOT
BRANCH   3   5
HETATM    5  C   UNL     1     -12.000   6.618  71.384  1.00  0.00    -0.405 A  
HETATM    6  C   UNL     1     -11.519   6.435  70.079  1.00  0.00    -0.496 A  
HETATM    7  C   UNL     1     -10.534   5.482  69.821  1.00  0.00    -0.389 A  
HETATM    8  C   UNL     1     -10.007   4.723  70.863  1.00  0.00    -0.283 A  
HETATM    9  C   UNL     1     -10.456   4.920  72.167  1.00  0.00    -0.257 A  
HETATM   10  C   UNL     1     -11.452   5.862  72.428  1.00  0.00    -0.358 A  
ENDBRANCH   3   5
TORSDOF 1
ENDMDL
MODEL       54
REMARK 921   NORMALIZED FREE ENERGY PREDICTED BY IDOCK:   -3.60 KCAL/MOL
REMARK 922        TOTAL FREE ENERGY PREDICTED BY IDOCK:   -3.74 KCAL/MOL
REMARK 923 INTER-LIGAND FREE ENERGY PREDICTED BY IDOCK:   -3.66 KCAL/MOL
REMARK 924 INTRA-LIGAND FREE ENERGY PREDICTED BY IDOCK:   -0.08 KCAL/MOL
REMARK 927      BINDING AFFINITY PREDICTED BY RF-SCORE:    0.00 PKD
ROOT
HETATM    1  O   UNL     1      -8.668  17.471  65.765  1.00  0.00    -0.514 OA 
HETATM    2  C   UNL     1      -9.765  17.727  66.516  1.00  0.00    -0.320 C  
HETATM    3  C   UNL     1      -9.770  19.046  67.263  1.00  0.00    -0.368 C  
HETATM    4  O   UNL     1     -10.716  16.959  66.528  1.00  0.00    -0.222 OA 
ENDROOT
BRANCH   3   5
HETATM    5  C   UNL     1      -8.405  19.558  67.657  1.00  0.00    -0.340 A  
HETATM    6  C   UNL     1      -7.783  19.096  68.828  1.00  0.00    -0.390 A  
HETATM    7  C   UNL     1      -6.580  19.659  69.252  1.00  0.00    -0.379 A  
HETATM    8  C   UNL     1      -5.978  20.667  68.503  1.00  0.00    -0.376 A  
HETATM    9  C   UNL     1      -6.572  21.109  67.323  1.00  0.00    -0.429 A  
HETATM   10  C   UNL     1      -7.783  20.560  66.901  1.00  0.00    -0.323 A  
ENDBRANCH   3   5
TORSDOF 1
ENDMDL
MODEL       55
REMARK 921   NORMALIZED FREE ENERGY PREDICTED BY IDOCK:   -3.60 KCAL/MOL
REMARK 922        TOTAL FREE ENERGY PREDICTED BY IDOCK:   -3.73 KCAL/MOL
REMARK 923 INTER-LIGAND FREE ENERGY PREDICTED BY IDOCK:   -3.64 KCAL/MOL
REMARK 924 INTRA-LIGAND FREE ENERGY PREDICTED BY IDOCK:   -0.09 KCAL/MOL
REMARK 927      BINDING AFFINITY PREDICTED BY RF-SCORE:    0.00 PKD
ROOT
HETATM    1  O   UNL     1     -10.017  12.506  67.061  1.00  0.00    -0.210 OA 
HETATM    2  C   UNL     1     -11.367  12.466  66.980  1.00  0.00    -0.327 C  
HETATM    3  C   UNL     1     -12.045  13.732  66.493  1.00  0.00    -0.483 C  
HETATM    4  O   UNL     1     -11.986  11.441  67.226  1.00  0.00    -0.580 OA 
ENDROOT
BRANCH   3   5
HETATM    5  C   UNL     1     -11.309  15.011  66.816  1.00  0.00    -0.293 A  
HETATM    6  C   UNL     1     -11.356  15.551  68.111  1.00  0.00    -0.348 A  
HETATM    7  C   UNL     1     -10.778  16.792  68.375  1.00  0.00    -0.362 A  
HETATM    8  C   UNL     1     -10.131  17.492  67.359  1.00  0.00    -0.325 A  
HETATM    9  C   UNL     1     -10.051  16.949  66.079  1.00  0.00    -0.336 A  
HETATM   10  C   UNL     1     -10.640  15.714  65.805  1.00  0.00    -0.374 A  
ENDBRANCH   3   5
TORSDOF 1
ENDMDL
MODEL       56
REMARK 921   NORMALIZED FREE ENERGY PREDICTED BY IDOCK:   -3.56 KCAL/MOL
REMARK 922        TOTAL FREE ENERGY PREDICTED BY IDOCK:   -3.70 KCAL/MOL
REMARK 923 INTER-LIGAND FREE ENERGY PREDICTED BY IDOCK:   -3.65 KCAL/MOL
REMARK 924 INTRA-LIGAND FREE ENERGY PREDICTED BY IDOCK:   -0.04 KCAL/MOL
REMARK 927      BINDING AFFINITY PREDICTED BY RF-SCORE:    0.00 PKD
ROOT
HETATM    1  O   UNL     1      -8.694  17.309  65.770  1.00  0.00    -0.531 OA 
HETATM    2  C   UNL     1      -9.877  17.502  66.400  1.00  0.00    -0.309 C  
HETATM    3  C   UNL     1     -10.061  18.845  67.079  1.00  0.00    -0.408 C  
HETATM    4  O   UNL     1     -10.760  16.658  66.358  1.00  0.00    -0.245 OA 
ENDROOT
BRANCH   3   5
HETATM    5  C   UNL     1      -8.786  19.485  67.576  1.00  0.00    -0.355 A  
HETATM    6  C   UNL     1      -8.103  20.418  66.780  1.00  0.00    -0.283 A  
HETATM    7  C   UNL     1      -6.866  20.916  67.188  1.00  0.00    -0.417 A  
HETATM    8  C   UNL     1      -6.313  20.506  68.399  1.00  0.00    -0.351 A  
HETATM    9  C   UNL     1      -7.000  19.605  69.210  1.00  0.00    -0.375 A  
HETATM   10  C   UNL     1      -8.231  19.093  68.800  1.00  0.00    -0.382 A  
ENDBRANCH   3   5
TORSDOF 1
ENDMDL
MODEL       57
REMARK 921   NORMALIZED FREE ENERGY PREDICTED BY IDOCK:   -3.55 KCAL/MOL
REMARK 922        TOTAL FREE ENERGY PREDICTED BY IDOCK:   -3.68 KCAL/MOL
REMARK 923 INTER-LIGAND FREE ENERGY PREDICTED BY IDOCK:   -3.64 KCAL/MOL
REMARK 924 INTRA-LIGAND FREE ENERGY PREDICTED BY IDOCK:   -0.04 KCAL/MOL
REMARK 927      BINDING AFFINITY PREDICTED BY RF-SCORE:    0.00 PKD
ROOT
HETATM    1  O   UNL     1      -9.481  15.657  69.416  1.00  0.00    -0.251 OA 
HETATM    2  C   UNL     1     -10.510  16.436  69.010  1.00  0.00    -0.288 C  
HETATM    3  C   UNL     1     -11.886  15.801  69.049  1.00  0.00    -0.367 C  
HETATM    4  O   UNL     1     -10.333  17.605  68.695  1.00  0.00    -0.355 OA 
ENDROOT
BRANCH   3   5
HETATM    5  C   UNL     1     -11.900  14.304  68.847  1.00  0.00    -0.372 A  
HETATM    6  C   UNL     1     -11.899  13.438  69.951  1.00  0.00    -0.385 A  
HETATM    7  C   UNL     1     -11.790  12.061  69.763  1.00  0.00    -0.401 A  
HETATM    8  C   UNL     1     -11.704  11.536  68.475  1.00  0.00    -0.379 A  
HETATM    9  C   UNL     1     -11.736  12.387  67.372  1.00  0.00    -0.417 A  
HETATM   10  C   UNL     1     -11.831  13.766  67.555  1.00  0.00    -0.422 A  
ENDBRANCH   3   5
TORSDOF 1
ENDMDL
MODEL       58
REMARK 921   NORMALIZED FREE ENERGY PREDICTED BY IDOCK:   -3.53 KCAL/MOL
REMARK 922        TOTAL FREE ENERGY PREDICTED BY IDOCK:   -3.66 KCAL/MOL
REMARK 923 INTER-LIGAND FREE ENERGY PREDICTED BY IDOCK:   -3.63 KCAL/MOL
REMARK 924 INTRA-LIGAND FREE ENERGY PREDICTED BY IDOCK:   -0.03 KCAL/MOL
REMARK 927      BINDING AFFINITY PREDICTED BY RF-SCORE:    0.00 PKD
ROOT
HETATM    1  O   UNL     1     -13.086  14.254  70.666  1.00  0.00    -0.324 OA 
HETATM    2  C   UNL     1     -11.873  14.846  70.762  1.00  0.00    -0.312 C  
HETATM    3  C   UNL     1     -11.122  15.048  69.460  1.00  0.00    -0.292 C  
HETATM    4  O   UNL     1     -11.448  15.248  71.836  1.00  0.00    -0.410 OA 
ENDROOT
BRANCH   3   5
HETATM    5  C   UNL     1     -11.421  14.025  68.389  1.00  0.00    -0.340 A  
HETATM    6  C   UNL     1     -11.081  12.676  68.581  1.00  0.00    -0.305 A  
HETATM    7  C   UNL     1     -11.247  11.757  67.545  1.00  0.00    -0.354 A  
HETATM    8  C   UNL     1     -11.771  12.170  66.322  1.00  0.00    -0.389 A  
HETATM    9  C   UNL     1     -12.140  13.500  66.135  1.00  0.00    -0.482 A  
HETATM   10  C   UNL     1     -11.964  14.426  67.162  1.00  0.00    -0.419 A  
ENDBRANCH   3   5
TORSDOF 1
ENDMDL
MODEL       59
REMARK 921   NORMALIZED FREE ENERGY PREDICTED BY IDOCK:   -3.52 KCAL/MOL
REMARK 922        TOTAL FREE ENERGY PREDICTED BY IDOCK:   -3.65 KCAL/MOL
REMARK 923 INTER-LIGAND FREE ENERGY PREDICTED BY IDOCK:   -4.24 KCAL/MOL
REMARK 924 INTRA-LIGAND FREE ENERGY PREDICTED BY IDOCK:    0.59 KCAL/MOL
REMARK 927      BINDING AFFINITY PREDICTED BY RF-SCORE:    0.00 PKD
ROOT
HETATM    1  O   UNL     1     -12.048  14.689  71.672  1.00  0.00    -0.336 OA 
HETATM    2  C   UNL     1     -13.347  14.482  71.989  1.00  0.00    -0.373 C  
HETATM    3  C   UNL     1     -13.749  13.045  72.258  1.00  0.00    -0.608 C  
HETATM    4  O   UNL     1     -14.125  15.417  72.113  1.00  0.00    -0.495 OA 
ENDROOT
BRANCH   3   5
HETATM    5  C   UNL     1     -12.942  12.010  71.509  1.00  0.00    -0.407 A  
HETATM    6  C   UNL     1     -12.253  12.357  70.337  1.00  0.00    -0.370 A  
HETATM    7  C   UNL     1     -11.610  11.376  69.583  1.00  0.00    -0.399 A  
HETATM    8  C   UNL     1     -11.631  10.047  70.003  1.00  0.00    -0.279 A  
HETATM    9  C   UNL     1     -12.286   9.699  71.183  1.00  0.00    -0.427 A  
HETATM   10  C   UNL     1     -12.942  10.675  71.933  1.00  0.00    -0.542 A  
ENDBRANCH   3   5
TORSDOF 1
ENDMDL
MODEL       60
REMARK 921   NORMALIZED FREE ENERGY PREDICTED BY IDOCK:   -3.51 KCAL/MOL
REMARK 922        TOTAL FREE ENERGY PREDICTED BY IDOCK:   -3.64 KCAL/MOL
REMARK 923 INTER-LIGAND FREE ENERGY PREDICTED BY IDOCK:   -3.57 KCAL/MOL
REMARK 924 INTRA-LIGAND FREE ENERGY PREDICTED BY IDOCK:   -0.07 KCAL/MOL
REMARK 927      BINDING AFFINITY PREDICTED BY RF-SCORE:    0.00 PKD
ROOT
HETATM    1  O   UNL     1      -9.277   9.952  64.827  1.00  0.00    -0.219 OA 
HETATM    2  C   UNL     1      -9.147  10.074  63.485  1.00  0.00    -0.272 C  
HETATM    3  C   UNL     1      -9.476  11.435  62.903  1.00  0.00    -0.372 C  
HETATM    4  O   UNL     1      -8.725   9.152  62.804  1.00  0.00    -0.218 OA 
ENDROOT
BRANCH   3   5
HETATM    5  C   UNL     1     -10.512  12.222  63.673  1.00  0.00    -0.483 A  
HETATM    6  C   UNL     1     -10.123  13.277  64.512  1.00  0.00    -0.241 A  
HETATM    7  C   UNL     1     -11.066  13.921  65.312  1.00  0.00    -0.318 A  
HETATM    8  C   UNL     1     -12.403  13.534  65.265  1.00  0.00    -0.506 A  
HETATM    9  C   UNL     1     -12.803  12.508  64.410  1.00  0.00    -0.366 A  
HETATM   10  C   UNL     1     -11.861  11.852  63.618  1.00  0.00    -0.573 A  
ENDBRANCH   3   5
TORSDOF 1
ENDMDL
MODEL       61
REMARK 921   NORMALIZED FREE ENERGY PREDICTED BY IDOCK:   -3.50 KCAL/MOL
REMARK 922        TOTAL FREE ENERGY PREDICTED BY IDOCK:   -3.63 KCAL/MOL
REMARK 923 INTER-LIGAND FREE ENERGY PREDICTED BY IDOCK:   -3.53 KCAL/MOL
REMARK 924 INTRA-LIGAND FREE ENERGY PREDICTED BY IDOCK:   -0.09 KCAL/MOL
REMARK 927      BINDING AFFINITY PREDICTED BY RF-SCORE:    0.00 PKD
ROOT
HETATM    1  O   UNL     1     -10.381  10.619  65.682  1.00  0.00    -0.255 OA 
HETATM    2  C   UNL     1     -10.763  10.830  66.963  1.00  0.00    -0.265 C  
HETATM    3  C   UNL     1     -11.651  12.035  67.206  1.00  0.00    -0.383 C  
HETATM    4  O   UNL     1     -10.457  10.049  67.852  1.00  0.00    -0.199 OA 
ENDROOT
BRANCH   3   5
HETATM    5  C   UNL     1     -11.444  13.181  66.242  1.00  0.00    -0.372 A  
HETATM    6  C   UNL     1     -10.350  14.048  66.393  1.00  0.00    -0.289 A  
HETATM    7  C   UNL     1     -10.229  15.173  65.579  1.00  0.00    -0.405 A  
HETATM    8  C   UNL     1     -11.182  15.429  64.595  1.00  0.00    -0.374 A  
HETATM    9  C   UNL     1     -12.253  14.556  64.417  1.00  0.00    -0.480 A  
HETATM   10  C   UNL     1     -12.386  13.437  65.239  1.00  0.00    -0.513 A  
ENDBRANCH   3   5
TORSDOF 1
ENDMDL
MODEL       62
REMARK 921   NORMALIZED FREE ENERGY PREDICTED BY IDOCK:   -3.49 KCAL/MOL
REMARK 922        TOTAL FREE ENERGY PREDICTED BY IDOCK:   -3.62 KCAL/MOL
REMARK 923 INTER-LIGAND FREE ENERGY PREDICTED BY IDOCK:   -3.59 KCAL/MOL
REMARK 924 INTRA-LIGAND FREE ENERGY PREDICTED BY IDOCK:   -0.03 KCAL/MOL
REMARK 927      BINDING AFFINITY PREDICTED BY RF-SCORE:    0.00 PKD
ROOT
HETATM    1  O   UNL     1      -9.389  13.752  66.568  1.00  0.00    -0.269 OA 
HETATM    2  C   UNL     1     -10.512  13.834  65.816  1.00  0.00    -0.299 C  
HETATM    3  C   UNL     1     -11.816  13.527  66.526  1.00  0.00    -0.441 C  
HETATM    4  O   UNL     1     -10.468  14.200  64.650  1.00  0.00    -0.434 OA 
ENDROOT
BRANCH   3   5
HETATM    5  C   UNL     1     -11.700  12.548  67.671  1.00  0.00    -0.423 A  
HETATM    6  C   UNL     1     -11.903  12.973  68.993  1.00  0.00    -0.362 A  
HETATM    7  C   UNL     1     -11.677  12.098  70.055  1.00  0.00    -0.330 A  
HETATM    8  C   UNL     1     -11.270  10.789  69.806  1.00  0.00    -0.365 A  
HETATM    9  C   UNL     1     -11.097  10.349  68.495  1.00  0.00    -0.318 A  
HETATM   10  C   UNL     1     -11.308  11.225  67.431  1.00  0.00    -0.349 A  
ENDBRANCH   3   5
TORSDOF 1
ENDMDL
MODEL       63
REMARK 921   NORMALIZED FREE ENERGY PREDICTED BY IDOCK:   -3.49 KCAL/MOL
REMARK 922        TOTAL FREE ENERGY PREDICTED BY IDOCK:   -3.62 KCAL/MOL
REMARK 923 INTER-LIGAND FREE ENERGY PREDICTED BY IDOCK:   -3.56 KCAL/MOL
REMARK 924 INTRA-LIGAND FREE ENERGY PREDICTED BY IDOCK:   -0.06 KCAL/MOL
REMARK 927      BINDING AFFINITY PREDICTED BY RF-SCORE:    0.00 PKD
ROOT
HETATM    1  O   UNL     1     -10.178  12.206  68.080  1.00  0.00    -0.189 OA 
HETATM    2  C   UNL     1     -11.497  12.089  67.800  1.00  0.00    -0.325 C  
HETATM    3  C   UNL     1     -12.095  13.179  66.932  1.00  0.00    -0.377 C  
HETATM    4  O   UNL     1     -12.140  11.120  68.176  1.00  0.00    -0.633 OA 
ENDROOT
BRANCH   3   5
HETATM    5  C   UNL     1     -11.431  14.530  67.061  1.00  0.00    -0.383 A  
HETATM    6  C   UNL     1     -10.624  15.027  66.025  1.00  0.00    -0.329 A  
HETATM    7  C   UNL     1      -9.916  16.216  66.196  1.00  0.00    -0.357 A  
HETATM    8  C   UNL     1     -10.024  16.928  67.389  1.00  0.00    -0.269 A  
HETATM    9  C   UNL     1     -10.848  16.458  68.410  1.00  0.00    -0.342 A  
HETATM   10  C   UNL     1     -11.547  15.262  68.249  1.00  0.00    -0.357 A  
ENDBRANCH   3   5
TORSDOF 1
ENDMDL
MODEL       64
REMARK 921   NORMALIZED FREE ENERGY PREDICTED BY IDOCK:   -3.47 KCAL/MOL
REMARK 922        TOTAL FREE ENERGY PREDICTED BY IDOCK:   -3.60 KCAL/MOL
REMARK 923 INTER-LIGAND FREE ENERGY PREDICTED BY IDOCK:   -3.51 KCAL/MOL
REMARK 924 INTRA-LIGAND FREE ENERGY PREDICTED BY IDOCK:   -0.09 KCAL/MOL
REMARK 927      BINDING AFFINITY PREDICTED BY RF-SCORE:    0.00 PKD
ROOT
HETATM    1  O   UNL     1      -8.785  12.193  67.418  1.00  0.00    -0.161 OA 
HETATM    2  C   UNL     1      -9.568  11.207  67.913  1.00  0.00    -0.175 C  
HETATM    3  C   UNL     1     -10.620  10.652  66.972  1.00  0.00    -0.317 C  
HETATM    4  O   UNL     1      -9.383  10.755  69.034  1.00  0.00    -0.187 OA 
ENDROOT
BRANCH   3   5
HETATM    5  C   UNL     1     -11.138  11.635  65.948  1.00  0.00    -0.320 A  
HETATM    6  C   UNL     1     -12.010  12.666  66.331  1.00  0.00    -0.425 A  
HETATM    7  C   UNL     1     -12.581  13.496  65.367  1.00  0.00    -0.531 A  
HETATM    8  C   UNL     1     -12.270  13.319  64.020  1.00  0.00    -0.475 A  
HETATM    9  C   UNL     1     -11.380  12.318  63.635  1.00  0.00    -0.547 A  
HETATM   10  C   UNL     1     -10.817  11.476  64.594  1.00  0.00    -0.372 A  
ENDBRANCH   3   5
TORSDOF 1
ENDMDL
MODEL       65
REMARK 921   NORMALIZED FREE ENERGY PREDICTED BY IDOCK:   -3.47 KCAL/MOL
REMARK 922        TOTAL FREE ENERGY PREDICTED BY IDOCK:   -3.60 KCAL/MOL
REMARK 923 INTER-LIGAND FREE ENERGY PREDICTED BY IDOCK:   -3.53 KCAL/MOL
REMARK 924 INTRA-LIGAND FREE ENERGY PREDICTED BY IDOCK:   -0.07 KCAL/MOL
REMARK 927      BINDING AFFINITY PREDICTED BY RF-SCORE:    0.00 PKD
ROOT
HETATM    1  O   UNL     1     -10.309   9.015  69.083  1.00  0.00    -0.210 OA 
HETATM    2  C   UNL     1      -9.581   9.423  70.149  1.00  0.00    -0.238 C  
HETATM    3  C   UNL     1     -10.052   8.935  71.505  1.00  0.00    -0.394 C  
HETATM    4  O   UNL     1      -8.567  10.091  70.005  1.00  0.00    -0.190 OA 
ENDROOT
BRANCH   3   5
HETATM    5  C   UNL     1     -11.538   8.687  71.610  1.00  0.00    -0.379 A  
HETATM    6  C   UNL     1     -12.048   7.381  71.540  1.00  0.00    -0.357 A  
HETATM    7  C   UNL     1     -13.425   7.165  71.516  1.00  0.00    -0.411 A  
HETATM    8  C   UNL     1     -14.302   8.245  71.583  1.00  0.00    -0.561 A  
HETATM    9  C   UNL     1     -13.806   9.543  71.684  1.00  0.00    -0.287 A  
HETATM   10  C   UNL     1     -12.429   9.765  71.695  1.00  0.00    -0.500 A  
ENDBRANCH   3   5
TORSDOF 1
ENDMDL
MODEL       66
REMARK 921   NORMALIZED FREE ENERGY PREDICTED BY IDOCK:   -3.46 KCAL/MOL
REMARK 922        TOTAL FREE ENERGY PREDICTED BY IDOCK:   -3.58 KCAL/MOL
REMARK 923 INTER-LIGAND FREE ENERGY PREDICTED BY IDOCK:   -3.49 KCAL/MOL
REMARK 924 INTRA-LIGAND FREE ENERGY PREDICTED BY IDOCK:   -0.09 KCAL/MOL
REMARK 927      BINDING AFFINITY PREDICTED BY RF-SCORE:    0.00 PKD
ROOT
HETATM    1  O   UNL     1     -13.481  10.138  70.746  1.00  0.00    -0.311 OA 
HETATM    2  C   UNL     1     -12.327  10.846  70.761  1.00  0.00    -0.390 C  
HETATM    3  C   UNL     1     -11.053  10.054  70.543  1.00  0.00    -0.400 C  
HETATM    4  O   UNL     1     -12.334  12.063  70.879  1.00  0.00    -0.373 OA 
ENDROOT
BRANCH   3   5
HETATM    5  C   UNL     1     -11.107   8.621  71.018  1.00  0.00    -0.316 A  
HETATM    6  C   UNL     1     -10.987   8.320  72.383  1.00  0.00    -0.438 A  
HETATM    7  C   UNL     1     -10.916   6.993  72.806  1.00  0.00    -0.329 A  
HETATM    8  C   UNL     1     -10.986   5.959  71.875  1.00  0.00    -0.321 A  
HETATM    9  C   UNL     1     -11.138   6.248  70.520  1.00  0.00    -0.399 A  
HETATM   10  C   UNL     1     -11.195   7.574  70.091  1.00  0.00    -0.213 A  
ENDBRANCH   3   5
TORSDOF 1
ENDMDL
MODEL       67
REMARK 921   NORMALIZED FREE ENERGY PREDICTED BY IDOCK:   -3.45 KCAL/MOL
REMARK 922        TOTAL FREE ENERGY PREDICTED BY IDOCK:   -3.58 KCAL/MOL
REMARK 923 INTER-LIGAND FREE ENERGY PREDICTED BY IDOCK:   -3.54 KCAL/MOL
REMARK 924 INTRA-LIGAND FREE ENERGY PREDICTED BY IDOCK:   -0.04 KCAL/MOL
REMARK 927      BINDING AFFINITY PREDICTED BY RF-SCORE:    0.00 PKD
ROOT
HETATM    1  O   UNL     1     -11.746  12.342  63.425  1.00  0.00    -0.468 OA 
HETATM    2  C   UNL     1     -10.683  11.588  63.790  1.00  0.00    -0.408 C  
HETATM    3  C   UNL     1     -10.391  11.520  65.276  1.00  0.00    -0.322 C  
HETATM    4  O   UNL     1     -10.046  10.950  62.964  1.00  0.00    -0.310 OA 
ENDROOT
BRANCH   3   5
HETATM    5  C   UNL     1     -10.797  12.746  66.060  1.00  0.00    -0.301 A  
HETATM    6  C   UNL     1     -10.168  13.979  65.828  1.00  0.00    -0.343 A  
HETATM    7  C   UNL     1     -10.459  15.078  66.634  1.00  0.00    -0.284 A  
HETATM    8  C   UNL     1     -11.393  14.963  67.661  1.00  0.00    -0.348 A  
HETATM    9  C   UNL     1     -12.046  13.752  67.879  1.00  0.00    -0.322 A  
HETATM   10  C   UNL     1     -11.748  12.645  67.084  1.00  0.00    -0.438 A  
ENDBRANCH   3   5
TORSDOF 1
ENDMDL
MODEL       68
REMARK 921   NORMALIZED FREE ENERGY PREDICTED BY IDOCK:   -3.45 KCAL/MOL
REMARK 922        TOTAL FREE ENERGY PREDICTED BY IDOCK:   -3.57 KCAL/MOL
REMARK 923 INTER-LIGAND FREE ENERGY PREDICTED BY IDOCK:   -3.51 KCAL/MOL
REMARK 924 INTRA-LIGAND FREE ENERGY PREDICTED BY IDOCK:   -0.07 KCAL/MOL
REMARK 927      BINDING AFFINITY PREDICTED BY RF-SCORE:    0.00 PKD
ROOT
HETATM    1  O   UNL     1      -9.533  11.402  62.784  1.00  0.00    -0.369 OA 
HETATM    2  C   UNL     1      -9.649  10.653  63.905  1.00  0.00    -0.306 C  
HETATM    3  C   UNL     1     -10.703  11.098  64.900  1.00  0.00    -0.318 C  
HETATM    4  O   UNL     1      -8.981   9.641  64.062  1.00  0.00    -0.227 OA 
ENDROOT
BRANCH   3   5
HETATM    5  C   UNL     1     -10.982  12.583  64.908  1.00  0.00    -0.335 A  
HETATM    6  C   UNL     1     -12.148  13.090  64.312  1.00  0.00    -0.480 A  
HETATM    7  C   UNL     1     -12.344  14.466  64.214  1.00  0.00    -0.402 A  
HETATM    8  C   UNL     1     -11.393  15.346  64.728  1.00  0.00    -0.381 A  
HETATM    9  C   UNL     1     -10.249  14.851  65.350  1.00  0.00    -0.409 A  
HETATM   10  C   UNL     1     -10.041  13.474  65.437  1.00  0.00    -0.279 A  
ENDBRANCH   3   5
TORSDOF 1
ENDMDL
MODEL       69
REMARK 921   NORMALIZED FREE ENERGY PREDICTED BY IDOCK:   -3.45 KCAL/MOL
REMARK 922        TOTAL FREE ENERGY PREDICTED BY IDOCK:   -3.57 KCAL/MOL
REMARK 923 INTER-LIGAND FREE ENERGY PREDICTED BY IDOCK:   -3.48 KCAL/MOL
REMARK 924 INTRA-LIGAND FREE ENERGY PREDICTED BY IDOCK:   -0.09 KCAL/MOL
REMARK 927      BINDING AFFINITY PREDICTED BY RF-SCORE:    0.00 PKD
ROOT
HETATM    1  O   UNL     1      -7.805  15.731  66.684  1.00  0.00    -0.234 OA 
HETATM    2  C   UNL     1      -8.394  16.895  66.324  1.00  0.00    -0.296 C  
HETATM    3  C   UNL     1      -9.850  17.055  66.712  1.00  0.00    -0.283 C  
HETATM    4  O   UNL     1      -7.757  17.783  65.776  1.00  0.00    -0.541 OA 
ENDROOT
BRANCH   3   5
HETATM    5  C   UNL     1     -10.632  15.765  66.792  1.00  0.00    -0.309 A  
HETATM    6  C   UNL     1     -11.031  15.102  65.621  1.00  0.00    -0.359 A  
HETATM    7  C   UNL     1     -11.854  13.979  65.696  1.00  0.00    -0.384 A  
HETATM    8  C   UNL     1     -12.266  13.496  66.936  1.00  0.00    -0.377 A  
HETATM    9  C   UNL     1     -11.849  14.130  68.105  1.00  0.00    -0.387 A  
HETATM   10  C   UNL     1     -11.037  15.262  68.035  1.00  0.00    -0.312 A  
ENDBRANCH   3   5
TORSDOF 1
ENDMDL
MODEL       70
REMARK 921   NORMALIZED FREE ENERGY PREDICTED BY IDOCK:   -3.44 KCAL/MOL
REMARK 922        TOTAL FREE ENERGY PREDICTED BY IDOCK:   -3.56 KCAL/MOL
REMARK 923 INTER-LIGAND FREE ENERGY PREDICTED BY IDOCK:   -3.49 KCAL/MOL
REMARK 924 INTRA-LIGAND FREE ENERGY PREDICTED BY IDOCK:   -0.07 KCAL/MOL
REMARK 927      BINDING AFFINITY PREDICTED BY RF-SCORE:    0.00 PKD
ROOT
HETATM    1  O   UNL     1      -9.744  12.965  67.982  1.00  0.00    -0.211 OA 
HETATM    2  C   UNL     1      -9.627  14.299  67.790  1.00  0.00    -0.221 C  
HETATM    3  C   UNL     1     -10.599  14.922  66.808  1.00  0.00    -0.305 C  
HETATM    4  O   UNL     1      -8.822  14.962  68.429  1.00  0.00    -0.165 OA 
ENDROOT
BRANCH   3   5
HETATM    5  C   UNL     1     -11.062  14.002  65.703  1.00  0.00    -0.302 A  
HETATM    6  C   UNL     1     -12.348  13.440  65.737  1.00  0.00    -0.513 A  
HETATM    7  C   UNL     1     -12.728  12.499  64.782  1.00  0.00    -0.415 A  
HETATM    8  C   UNL     1     -11.839  12.128  63.774  1.00  0.00    -0.592 A  
HETATM    9  C   UNL     1     -10.572  12.705  63.714  1.00  0.00    -0.432 A  
HETATM   10  C   UNL     1     -10.182  13.637  64.676  1.00  0.00    -0.338 A  
ENDBRANCH   3   5
TORSDOF 1
ENDMDL
MODEL       71
REMARK 921   NORMALIZED FREE ENERGY PREDICTED BY IDOCK:   -3.43 KCAL/MOL
REMARK 922        TOTAL FREE ENERGY PREDICTED BY IDOCK:   -3.55 KCAL/MOL
REMARK 923 INTER-LIGAND FREE ENERGY PREDICTED BY IDOCK:   -3.47 KCAL/MOL
REMARK 924 INTRA-LIGAND FREE ENERGY PREDICTED BY IDOCK:   -0.08 KCAL/MOL
REMARK 927      BINDING AFFINITY PREDICTED BY RF-SCORE:    0.00 PKD
ROOT
HETATM    1  O   UNL     1     -10.319   7.740  68.823  1.00  0.00    -0.202 OA 
HETATM    2  C   UNL     1      -9.350   8.646  69.089  1.00  0.00    -0.153 C  
HETATM    3  C   UNL     1      -9.442   9.349  70.429  1.00  0.00    -0.319 C  
HETATM    4  O   UNL     1      -8.423   8.828  68.313  1.00  0.00    -0.128 OA 
ENDROOT
BRANCH   3   5
HETATM    5  C   UNL     1     -10.845   9.511  70.967  1.00  0.00    -0.423 A  
HETATM    6  C   UNL     1     -11.655  10.571  70.531  1.00  0.00    -0.441 A  
HETATM    7  C   UNL     1     -12.901  10.788  71.116  1.00  0.00    -0.513 A  
HETATM    8  C   UNL     1     -13.358   9.939  72.122  1.00  0.00    -0.498 A  
HETATM    9  C   UNL     1     -12.574   8.865  72.538  1.00  0.00    -0.363 A  
HETATM   10  C   UNL     1     -11.320   8.652  71.966  1.00  0.00    -0.432 A  
ENDBRANCH   3   5
TORSDOF 1
ENDMDL
MODEL       72
REMARK 921   NORMALIZED FREE ENERGY PREDICTED BY IDOCK:   -3.42 KCAL/MOL
REMARK 922        TOTAL FREE ENERGY PREDICTED BY IDOCK:   -3.55 KCAL/MOL
REMARK 923 INTER-LIGAND FREE ENERGY PREDICTED BY IDOCK:   -3.55 KCAL/MOL
REMARK 924 INTRA-LIGAND FREE ENERGY PREDICTED BY IDOCK:    0.00 KCAL/MOL
REMARK 927      BINDING AFFINITY PREDICTED BY RF-SCORE:    0.00 PKD
ROOT
HETATM    1  O   UNL     1     -12.601  12.469  65.560  1.00  0.00    -0.642 OA 
HETATM    2  C   UNL     1     -12.055  12.405  64.323  1.00  0.00    -0.433 C  
HETATM    3  C   UNL     1     -10.968  11.367  64.125  1.00  0.00    -0.411 C  
HETATM    4  O   UNL     1     -12.471  13.105  63.411  1.00  0.00    -0.730 OA 
ENDROOT
BRANCH   3   5
HETATM    5  C   UNL     1     -10.162  11.047  65.362  1.00  0.00    -0.333 A  
HETATM    6  C   UNL     1      -9.419  12.049  66.005  1.00  0.00    -0.229 A  
HETATM    7  C   UNL     1      -8.582  11.726  67.072  1.00  0.00    -0.173 A  
HETATM    8  C   UNL     1      -8.498  10.409  67.521  1.00  0.00    -0.115 A  
HETATM    9  C   UNL     1      -9.257   9.414  66.909  1.00  0.00    -0.173 A  
HETATM   10  C   UNL     1     -10.084   9.729  65.831  1.00  0.00    -0.314 A  
ENDBRANCH   3   5
TORSDOF 1
ENDMDL
MODEL       73
REMARK 921   NORMALIZED FREE ENERGY PREDICTED BY IDOCK:   -3.42 KCAL/MOL
REMARK 922        TOTAL FREE ENERGY PREDICTED BY IDOCK:   -3.54 KCAL/MOL
REMARK 923 INTER-LIGAND FREE ENERGY PREDICTED BY IDOCK:   -3.48 KCAL/MOL
REMARK 924 INTRA-LIGAND FREE ENERGY PREDICTED BY IDOCK:   -0.07 KCAL/MOL
REMARK 927      BINDING AFFINITY PREDICTED BY RF-SCORE:    0.00 PKD
ROOT
HETATM    1  O   UNL     1      -7.894  17.301  68.506  1.00  0.00    -0.245 OA 
HETATM    2  C   UNL     1      -8.632  18.435  68.456  1.00  0.00    -0.319 C  
HETATM    3  C   UNL     1     -10.125  18.253  68.271  1.00  0.00    -0.406 C  
HETATM    4  O   UNL     1      -8.117  19.532  68.618  1.00  0.00    -0.352 OA 
ENDROOT
BRANCH   3   5
HETATM    5  C   UNL     1     -10.524  17.015  67.502  1.00  0.00    -0.334 A  
HETATM    6  C   UNL     1     -11.060  15.904  68.171  1.00  0.00    -0.338 A  
HETATM    7  C   UNL     1     -11.313  14.722  67.477  1.00  0.00    -0.355 A  
HETATM    8  C   UNL     1     -11.056  14.645  66.110  1.00  0.00    -0.334 A  
HETATM    9  C   UNL     1     -10.554  15.754  65.431  1.00  0.00    -0.441 A  
HETATM   10  C   UNL     1     -10.286  16.935  66.124  1.00  0.00    -0.352 A  
ENDBRANCH   3   5
TORSDOF 1
ENDMDL
MODEL       74
REMARK 921   NORMALIZED FREE ENERGY PREDICTED BY IDOCK:   -3.40 KCAL/MOL
REMARK 922        TOTAL FREE ENERGY PREDICTED BY IDOCK:   -3.52 KCAL/MOL
REMARK 923 INTER-LIGAND FREE ENERGY PREDICTED BY IDOCK:   -3.46 KCAL/MOL
REMARK 924 INTRA-LIGAND FREE ENERGY PREDICTED BY IDOCK:   -0.07 KCAL/MOL
REMARK 927      BINDING AFFINITY PREDICTED BY RF-SCORE:    0.00 PKD
ROOT
HETATM    1  O   UNL     1     -11.684  14.921  64.698  1.00  0.00    -0.409 OA 
HETATM    2  C   UNL     1     -10.701  14.011  64.890  1.00  0.00    -0.418 C  
HETATM    3  C   UNL     1      -9.922  14.130  66.185  1.00  0.00    -0.328 C  
HETATM    4  O   UNL     1     -10.508  13.110  64.086  1.00  0.00    -0.421 OA 
ENDROOT
BRANCH   3   5
HETATM    5  C   UNL     1      -9.820  15.533  66.738  1.00  0.00    -0.252 A  
HETATM    6  C   UNL     1     -10.658  15.947  67.785  1.00  0.00    -0.302 A  
HETATM    7  C   UNL     1     -10.646  17.274  68.211  1.00  0.00    -0.383 A  
HETATM    8  C   UNL     1      -9.785  18.192  67.612  1.00  0.00    -0.293 A  
HETATM    9  C   UNL     1      -8.926  17.782  66.594  1.00  0.00    -0.283 A  
HETATM   10  C   UNL     1      -8.945  16.458  66.155  1.00  0.00    -0.367 A  
ENDBRANCH   3   5
TORSDOF 1
ENDMDL
MODEL       75
REMARK 921   NORMALIZED FREE ENERGY PREDICTED BY IDOCK:   -3.40 KCAL/MOL
REMARK 922        TOTAL FREE ENERGY PREDICTED BY IDOCK:   -3.52 KCAL/MOL
REMARK 923 INTER-LIGAND FREE ENERGY PREDICTED BY IDOCK:   -3.44 KCAL/MOL
REMARK 924 INTRA-LIGAND FREE ENERGY PREDICTED BY IDOCK:   -0.08 KCAL/MOL
REMARK 927      BINDING AFFINITY PREDICTED BY RF-SCORE:    0.00 PKD
ROOT
HETATM    1  O   UNL     1     -11.758  13.220  65.361  1.00  0.00    -0.320 OA 
HETATM    2  C   UNL     1     -11.889  14.439  64.786  1.00  0.00    -0.433 C  
HETATM    3  C   UNL     1     -10.982  15.530  65.319  1.00  0.00    -0.391 C  
HETATM    4  O   UNL     1     -12.653  14.616  63.848  1.00  0.00    -0.834 OA 
ENDROOT
BRANCH   3   5
HETATM    5  C   UNL     1     -10.590  15.379  66.770  1.00  0.00    -0.309 A  
HETATM    6  C   UNL     1     -11.534  15.589  67.787  1.00  0.00    -0.247 A  
HETATM    7  C   UNL     1     -11.142  15.568  69.125  1.00  0.00    -0.272 A  
HETATM    8  C   UNL     1      -9.813  15.315  69.458  1.00  0.00    -0.230 A  
HETATM    9  C   UNL     1      -8.876  15.073  68.456  1.00  0.00    -0.181 A  
HETATM   10  C   UNL     1      -9.260  15.107  67.116  1.00  0.00    -0.226 A  
ENDBRANCH   3   5
TORSDOF 1
ENDMDL
MODEL       76
REMARK 921   NORMALIZED FREE ENERGY PREDICTED BY IDOCK:   -3.38 KCAL/MOL
REMARK 922        TOTAL FREE ENERGY PREDICTED BY IDOCK:   -3.50 KCAL/MOL
REMARK 923 INTER-LIGAND FREE ENERGY PREDICTED BY IDOCK:   -3.45 KCAL/MOL
REMARK 924 INTRA-LIGAND FREE ENERGY PREDICTED BY IDOCK:   -0.05 KCAL/MOL
REMARK 927      BINDING AFFINITY PREDICTED BY RF-SCORE:    0.00 PKD
ROOT
HETATM    1  O   UNL     1      -8.419  16.091  69.325  1.00  0.00    -0.251 OA 
HETATM    2  C   UNL     1      -9.110  17.039  68.648  1.00  0.00    -0.271 C  
HETATM    3  C   UNL     1     -10.526  17.300  69.124  1.00  0.00    -0.263 C  
HETATM    4  O   UNL     1      -8.587  17.684  67.752  1.00  0.00    -0.222 OA 
ENDROOT
BRANCH   3   5
HETATM    5  C   UNL     1     -11.217  16.109  69.745  1.00  0.00    -0.343 A  
HETATM    6  C   UNL     1     -11.457  16.068  71.127  1.00  0.00    -0.470 A  
HETATM    7  C   UNL     1     -11.984  14.919  71.715  1.00  0.00    -0.435 A  
HETATM    8  C   UNL     1     -12.297  13.813  70.927  1.00  0.00    -0.456 A  
HETATM    9  C   UNL     1     -12.093  13.857  69.549  1.00  0.00    -0.393 A  
HETATM   10  C   UNL     1     -11.552  14.999  68.959  1.00  0.00    -0.342 A  
ENDBRANCH   3   5
TORSDOF 1
ENDMDL
MODEL       77
REMARK 921   NORMALIZED FREE ENERGY PREDICTED BY IDOCK:   -3.37 KCAL/MOL
REMARK 922        TOTAL FREE ENERGY PREDICTED BY IDOCK:   -3.49 KCAL/MOL
REMARK 923 INTER-LIGAND FREE ENERGY PREDICTED BY IDOCK:   -3.47 KCAL/MOL
REMARK 924 INTRA-LIGAND FREE ENERGY PREDICTED BY IDOCK:   -0.02 KCAL/MOL
REMARK 927      BINDING AFFINITY PREDICTED BY RF-SCORE:    0.00 PKD
ROOT
HETATM    1  O   UNL     1      -8.302  16.698  68.851  1.00  0.00    -0.238 OA 
HETATM    2  C   UNL     1      -8.785  17.894  68.439  1.00  0.00    -0.293 C  
HETATM    3  C   UNL     1     -10.192  17.889  67.874  1.00  0.00    -0.375 C  
HETATM    4  O   UNL     1      -8.137  18.921  68.583  1.00  0.00    -0.337 OA 
ENDROOT
BRANCH   3   5
HETATM    5  C   UNL     1     -10.602  16.597  67.205  1.00  0.00    -0.281 A  
HETATM    6  C   UNL     1     -10.393  16.412  65.830  1.00  0.00    -0.388 A  
HETATM    7  C   UNL     1     -10.881  15.271  65.194  1.00  0.00    -0.441 A  
HETATM    8  C   UNL     1     -11.561  14.300  65.926  1.00  0.00    -0.358 A  
HETATM    9  C   UNL     1     -11.744  14.461  67.298  1.00  0.00    -0.429 A  
HETATM   10  C   UNL     1     -11.270  15.607  67.936  1.00  0.00    -0.328 A  
ENDBRANCH   3   5
TORSDOF 1
ENDMDL
MODEL       78
REMARK 921   NORMALIZED FREE ENERGY PREDICTED BY IDOCK:   -3.30 KCAL/MOL
REMARK 922        TOTAL FREE ENERGY PREDICTED BY IDOCK:   -3.42 KCAL/MOL
REMARK 923 INTER-LIGAND FREE ENERGY PREDICTED BY IDOCK:   -3.36 KCAL/MOL
REMARK 924 INTRA-LIGAND FREE ENERGY PREDICTED BY IDOCK:   -0.06 KCAL/MOL
REMARK 927      BINDING AFFINITY PREDICTED BY RF-SCORE:    0.00 PKD
ROOT
HETATM    1  O   UNL     1      -9.411  10.580  69.633  1.00  0.00    -0.140 OA 
HETATM    2  C   UNL     1     -10.561  10.166  70.215  1.00  0.00    -0.264 C  
HETATM    3  C   UNL     1     -11.843  10.734  69.640  1.00  0.00    -0.392 C  
HETATM    4  O   UNL     1     -10.553   9.332  71.109  1.00  0.00    -0.279 OA 
ENDROOT
BRANCH   3   5
HETATM    5  C   UNL     1     -11.713  12.114  69.039  1.00  0.00    -0.377 A  
HETATM    6  C   UNL     1     -11.845  13.256  69.845  1.00  0.00    -0.380 A  
HETATM    7  C   UNL     1     -11.845  14.526  69.269  1.00  0.00    -0.361 A  
HETATM    8  C   UNL     1     -11.692  14.667  67.891  1.00  0.00    -0.379 A  
HETATM    9  C   UNL     1     -11.529  13.541  67.087  1.00  0.00    -0.368 A  
HETATM   10  C   UNL     1     -11.542  12.268  67.657  1.00  0.00    -0.421 A  
ENDBRANCH   3   5
TORSDOF 1
ENDMDL
MODEL       79
REMARK 921   NORMALIZED FREE ENERGY PREDICTED BY IDOCK:   -3.29 KCAL/MOL
REMARK 922        TOTAL FREE ENERGY PREDICTED BY IDOCK:   -3.40 KCAL/MOL
REMARK 923 INTER-LIGAND FREE ENERGY PREDICTED BY IDOCK:   -3.34 KCAL/MOL
REMARK 924 INTRA-LIGAND FREE ENERGY PREDICTED BY IDOCK:   -0.07 KCAL/MOL
REMARK 927      BINDING AFFINITY PREDICTED BY RF-SCORE:    0.00 PKD
ROOT
HETATM    1  O   UNL     1      -9.245  11.086  68.832  1.00  0.00    -0.179 OA 
HETATM    2  C   UNL     1     -10.344  10.582  69.441  1.00  0.00    -0.234 C  
HETATM    3  C   UNL     1     -11.664  10.806  68.731  1.00  0.00    -0.315 C  
HETATM    4  O   UNL     1     -10.253   9.928  70.470  1.00  0.00    -0.278 OA 
ENDROOT
BRANCH   3   5
HETATM    5  C   UNL     1     -11.730  12.063  67.894  1.00  0.00    -0.393 A  
HETATM    6  C   UNL     1     -11.635  11.992  66.496  1.00  0.00    -0.384 A  
HETATM    7  C   UNL     1     -11.574  13.159  65.736  1.00  0.00    -0.383 A  
HETATM    8  C   UNL     1     -11.630  14.403  66.362  1.00  0.00    -0.383 A  
HETATM    9  C   UNL     1     -11.757  14.483  67.747  1.00  0.00    -0.403 A  
HETATM   10  C   UNL     1     -11.804  13.318  68.512  1.00  0.00    -0.384 A  
ENDBRANCH   3   5
TORSDOF 1
ENDMDL
MODEL       80
REMARK 921   NORMALIZED FREE ENERGY PREDICTED BY IDOCK:   -3.29 KCAL/MOL
REMARK 922        TOTAL FREE ENERGY PREDICTED BY IDOCK:   -3.40 KCAL/MOL
REMARK 923 INTER-LIGAND FREE ENERGY PREDICTED BY IDOCK:   -3.31 KCAL/MOL
REMARK 924 INTRA-LIGAND FREE ENERGY PREDICTED BY IDOCK:   -0.09 KCAL/MOL
REMARK 927      BINDING AFFINITY PREDICTED BY RF-SCORE:    0.00 PKD
ROOT
HETATM    1  O   UNL     1      -9.349  12.413  68.285  1.00  0.00    -0.207 OA 
HETATM    2  C   UNL     1     -10.413  11.794  67.723  1.00  0.00    -0.194 C  
HETATM    3  C   UNL     1     -11.718  12.565  67.737  1.00  0.00    -0.419 C  
HETATM    4  O   UNL     1     -10.297  10.705  67.180  1.00  0.00    -0.206 OA 
ENDROOT
BRANCH   3   5
HETATM    5  C   UNL     1     -11.880  13.520  68.897  1.00  0.00    -0.384 A  
HETATM    6  C   UNL     1     -12.216  13.038  70.171  1.00  0.00    -0.342 A  
HETATM    7  C   UNL     1     -12.484  13.929  71.210  1.00  0.00    -0.440 A  
HETATM    8  C   UNL     1     -12.396  15.302  70.992  1.00  0.00    -0.426 A  
HETATM    9  C   UNL     1     -12.032  15.788  69.738  1.00  0.00    -0.337 A  
HETATM   10  C   UNL     1     -11.778  14.901  68.692  1.00  0.00    -0.358 A  
ENDBRANCH   3   5
TORSDOF 1
ENDMDL
MODEL       81
REMARK 921   NORMALIZED FREE ENERGY PREDICTED BY IDOCK:   -3.28 KCAL/MOL
REMARK 922        TOTAL FREE ENERGY PREDICTED BY IDOCK:   -3.40 KCAL/MOL
REMARK 923 INTER-LIGAND FREE ENERGY PREDICTED BY IDOCK:   -3.42 KCAL/MOL
REMARK 924 INTRA-LIGAND FREE ENERGY PREDICTED BY IDOCK:    0.02 KCAL/MOL
REMARK 927      BINDING AFFINITY PREDICTED BY RF-SCORE:    0.00 PKD
ROOT
HETATM    1  O   UNL     1      -8.595  16.506  67.000  1.00  0.00    -0.175 OA 
HETATM    2  C   UNL     1      -9.522  17.463  66.764  1.00  0.00    -0.273 C  
HETATM    3  C   UNL     1     -10.709  17.492  67.706  1.00  0.00    -0.333 C  
HETATM    4  O   UNL     1      -9.364  18.292  65.879  1.00  0.00    -0.506 OA 
ENDROOT
BRANCH   3   5
HETATM    5  C   UNL     1     -11.088  16.151  68.290  1.00  0.00    -0.348 A  
HETATM    6  C   UNL     1     -11.448  15.086  67.450  1.00  0.00    -0.326 A  
HETATM    7  C   UNL     1     -11.914  13.890  67.994  1.00  0.00    -0.390 A  
HETATM    8  C   UNL     1     -12.002  13.739  69.376  1.00  0.00    -0.397 A  
HETATM    9  C   UNL     1     -11.616  14.779  70.218  1.00  0.00    -0.333 A  
HETATM   10  C   UNL     1     -11.163  15.983  69.679  1.00  0.00    -0.336 A  
ENDBRANCH   3   5
TORSDOF 1
ENDMDL
MODEL       82
REMARK 921   NORMALIZED FREE ENERGY PREDICTED BY IDOCK:   -3.27 KCAL/MOL
REMARK 922        TOTAL FREE ENERGY PREDICTED BY IDOCK:   -3.39 KCAL/MOL
REMARK 923 INTER-LIGAND FREE ENERGY PREDICTED BY IDOCK:   -3.42 KCAL/MOL
REMARK 924 INTRA-LIGAND FREE ENERGY PREDICTED BY IDOCK:    0.03 KCAL/MOL
REMARK 927      BINDING AFFINITY PREDICTED BY RF-SCORE:    0.00 PKD
ROOT
HETATM    1  O   UNL     1      -5.897  18.261  65.515  1.00  0.00    -0.189 OA 
HETATM    2  C   UNL     1      -6.093  19.434  64.869  1.00  0.00    -0.276 C  
HETATM    3  C   UNL     1      -6.837  20.506  65.640  1.00  0.00    -0.230 C  
HETATM    4  O   UNL     1      -5.631  19.626  63.753  1.00  0.00    -0.244 OA 
ENDROOT
BRANCH   3   5
HETATM    5  C   UNL     1      -7.831  19.986  66.653  1.00  0.00    -0.337 A  
HETATM    6  C   UNL     1      -9.189  19.866  66.319  1.00  0.00    -0.457 A  
HETATM    7  C   UNL     1     -10.120  19.502  67.290  1.00  0.00    -0.523 A  
HETATM    8  C   UNL     1      -9.703  19.234  68.592  1.00  0.00    -0.494 A  
HETATM    9  C   UNL     1      -8.353  19.319  68.924  1.00  0.00    -0.339 A  
HETATM   10  C   UNL     1      -7.419  19.697  67.960  1.00  0.00    -0.331 A  
ENDBRANCH   3   5
TORSDOF 1
ENDMDL
MODEL       83
REMARK 921   NORMALIZED FREE ENERGY PREDICTED BY IDOCK:   -3.23 KCAL/MOL
REMARK 922        TOTAL FREE ENERGY PREDICTED BY IDOCK:   -3.35 KCAL/MOL
REMARK 923 INTER-LIGAND FREE ENERGY PREDICTED BY IDOCK:   -3.30 KCAL/MOL
REMARK 924 INTRA-LIGAND FREE ENERGY PREDICTED BY IDOCK:   -0.05 KCAL/MOL
REMARK 927      BINDING AFFINITY PREDICTED BY RF-SCORE:    0.00 PKD
ROOT
HETATM    1  O   UNL     1      -9.754  16.762  65.520  1.00  0.00    -0.537 OA 
HETATM    2  C   UNL     1     -10.488  16.100  66.444  1.00  0.00    -0.301 C  
HETATM    3  C   UNL     1     -10.530  16.715  67.829  1.00  0.00    -0.316 C  
HETATM    4  O   UNL     1     -11.128  15.102  66.148  1.00  0.00    -0.339 OA 
ENDROOT
BRANCH   3   5
HETATM    5  C   UNL     1      -9.299  17.502  68.213  1.00  0.00    -0.281 A  
HETATM    6  C   UNL     1      -9.355  18.900  68.326  1.00  0.00    -0.384 A  
HETATM    7  C   UNL     1      -8.192  19.632  68.560  1.00  0.00    -0.332 A  
HETATM    8  C   UNL     1      -6.971  18.977  68.705  1.00  0.00    -0.343 A  
HETATM    9  C   UNL     1      -6.911  17.587  68.627  1.00  0.00    -0.232 A  
HETATM   10  C   UNL     1      -8.069  16.851  68.378  1.00  0.00    -0.237 A  
ENDBRANCH   3   5
TORSDOF 1
ENDMDL
MODEL       84
REMARK 921   NORMALIZED FREE ENERGY PREDICTED BY IDOCK:   -3.23 KCAL/MOL
REMARK 922        TOTAL FREE ENERGY PREDICTED BY IDOCK:   -3.34 KCAL/MOL
REMARK 923 INTER-LIGAND FREE ENERGY PREDICTED BY IDOCK:   -3.25 KCAL/MOL
REMARK 924 INTRA-LIGAND FREE ENERGY PREDICTED BY IDOCK:   -0.09 KCAL/MOL
REMARK 927      BINDING AFFINITY PREDICTED BY RF-SCORE:    0.00 PKD
ROOT
HETATM    1  O   UNL     1      -6.881  18.155  69.175  1.00  0.00    -0.264 OA 
HETATM    2  C   UNL     1      -7.350  19.348  68.742  1.00  0.00    -0.355 C  
HETATM    3  C   UNL     1      -8.822  19.399  68.387  1.00  0.00    -0.397 C  
HETATM    4  O   UNL     1      -6.630  20.336  68.707  1.00  0.00    -0.310 OA 
ENDROOT
BRANCH   3   5
HETATM    5  C   UNL     1      -9.401  18.094  67.891  1.00  0.00    -0.276 A  
HETATM    6  C   UNL     1      -9.112  17.635  66.597  1.00  0.00    -0.280 A  
HETATM    7  C   UNL     1      -9.743  16.495  66.100  1.00  0.00    -0.344 A  
HETATM    8  C   UNL     1     -10.647  15.794  66.895  1.00  0.00    -0.317 A  
HETATM    9  C   UNL     1     -10.915  16.225  68.193  1.00  0.00    -0.343 A  
HETATM   10  C   UNL     1     -10.298  17.373  68.689  1.00  0.00    -0.364 A  
ENDBRANCH   3   5
TORSDOF 1
ENDMDL
MODEL       85
REMARK 921   NORMALIZED FREE ENERGY PREDICTED BY IDOCK:   -3.22 KCAL/MOL
REMARK 922        TOTAL FREE ENERGY PREDICTED BY IDOCK:   -3.33 KCAL/MOL
REMARK 923 INTER-LIGAND FREE ENERGY PREDICTED BY IDOCK:   -3.27 KCAL/MOL
REMARK 924 INTRA-LIGAND FREE ENERGY PREDICTED BY IDOCK:   -0.07 KCAL/MOL
REMARK 927      BINDING AFFINITY PREDICTED BY RF-SCORE:    0.00 PKD
ROOT
HETATM    1  O   UNL     1     -11.925   6.528  70.606  1.00  0.00    -0.386 OA 
HETATM    2  C   UNL     1     -12.700   7.352  71.349  1.00  0.00    -0.369 C  
HETATM    3  C   UNL     1     -12.063   8.658  71.782  1.00  0.00    -0.403 C  
HETATM    4  O   UNL     1     -13.865   7.075  71.593  1.00  0.00    -0.346 OA 
ENDROOT
BRANCH   3   5
HETATM    5  C   UNL     1     -10.564   8.604  71.963  1.00  0.00    -0.421 A  
HETATM    6  C   UNL     1      -9.709   9.088  70.960  1.00  0.00    -0.348 A  
HETATM    7  C   UNL     1      -8.329   8.928  71.077  1.00  0.00    -0.233 A  
HETATM    8  C   UNL     1      -7.791   8.305  72.201  1.00  0.00    -0.170 A  
HETATM    9  C   UNL     1      -8.630   7.851  73.216  1.00  0.00    -0.276 A  
HETATM   10  C   UNL     1     -10.013   7.996  73.098  1.00  0.00    -0.316 A  
ENDBRANCH   3   5
TORSDOF 1
ENDMDL
MODEL       86
REMARK 921   NORMALIZED FREE ENERGY PREDICTED BY IDOCK:   -3.20 KCAL/MOL
REMARK 922        TOTAL FREE ENERGY PREDICTED BY IDOCK:   -3.31 KCAL/MOL
REMARK 923 INTER-LIGAND FREE ENERGY PREDICTED BY IDOCK:   -3.25 KCAL/MOL
REMARK 924 INTRA-LIGAND FREE ENERGY PREDICTED BY IDOCK:   -0.06 KCAL/MOL
REMARK 927      BINDING AFFINITY PREDICTED BY RF-SCORE:    0.00 PKD
ROOT
HETATM    1  O   UNL     1     -12.334  13.887  66.904  1.00  0.00    -0.410 OA 
HETATM    2  C   UNL     1     -12.253  14.024  65.560  1.00  0.00    -0.439 C  
HETATM    3  C   UNL     1     -10.882  13.809  64.949  1.00  0.00    -0.398 C  
HETATM    4  O   UNL     1     -13.248  14.242  64.885  1.00  0.00    -0.550 OA 
ENDROOT
BRANCH   3   5
HETATM    5  C   UNL     1      -9.722  14.159  65.851  1.00  0.00    -0.267 A  
HETATM    6  C   UNL     1      -9.060  13.157  66.578  1.00  0.00    -0.135 A  
HETATM    7  C   UNL     1      -8.071  13.497  67.500  1.00  0.00    -0.190 A  
HETATM    8  C   UNL     1      -7.720  14.832  67.688  1.00  0.00    -0.199 A  
HETATM    9  C   UNL     1      -8.350  15.830  66.947  1.00  0.00    -0.283 A  
HETATM   10  C   UNL     1      -9.350  15.497  66.034  1.00  0.00    -0.379 A  
ENDBRANCH   3   5
TORSDOF 1
ENDMDL
MODEL       87
REMARK 921   NORMALIZED FREE ENERGY PREDICTED BY IDOCK:   -3.19 KCAL/MOL
REMARK 922        TOTAL FREE ENERGY PREDICTED BY IDOCK:   -3.30 KCAL/MOL
REMARK 923 INTER-LIGAND FREE ENERGY PREDICTED BY IDOCK:   -3.22 KCAL/MOL
REMARK 924 INTRA-LIGAND FREE ENERGY PREDICTED BY IDOCK:   -0.08 KCAL/MOL
REMARK 927      BINDING AFFINITY PREDICTED BY RF-SCORE:    0.00 PKD
ROOT
HETATM    1  O   UNL     1      -9.395   5.626  71.515  1.00  0.00    -0.146 OA 
HETATM    2  C   UNL     1     -10.058   5.131  70.444  1.00  0.00    -0.262 C  
HETATM    3  C   UNL     1     -10.865   6.129  69.638  1.00  0.00    -0.424 C  
HETATM    4  O   UNL     1      -9.950   3.957  70.120  1.00  0.00    -0.162 OA 
ENDROOT
BRANCH   3   5
HETATM    5  C   UNL     1     -11.402   7.299  70.429  1.00  0.00    -0.299 A  
HETATM    6  C   UNL     1     -12.583   7.170  71.176  1.00  0.00    -0.384 A  
HETATM    7  C   UNL     1     -13.140   8.282  71.806  1.00  0.00    -0.366 A  
HETATM    8  C   UNL     1     -12.513   9.523  71.715  1.00  0.00    -0.484 A  
HETATM    9  C   UNL     1     -11.323   9.654  71.002  1.00  0.00    -0.444 A  
HETATM   10  C   UNL     1     -10.769   8.547  70.359  1.00  0.00    -0.246 A  
ENDBRANCH   3   5
TORSDOF 1
ENDMDL
MODEL       88
REMARK 921   NORMALIZED FREE ENERGY PREDICTED BY IDOCK:   -3.17 KCAL/MOL
REMARK 922        TOTAL FREE ENERGY PREDICTED BY IDOCK:   -3.28 KCAL/MOL
REMARK 923 INTER-LIGAND FREE ENERGY PREDICTED BY IDOCK:   -3.30 KCAL/MOL
REMARK 924 INTRA-LIGAND FREE ENERGY PREDICTED BY IDOCK:    0.02 KCAL/MOL
REMARK 927      BINDING AFFINITY PREDICTED BY RF-SCORE:    0.00 PKD
ROOT
HETATM    1  O   UNL     1      -9.448  10.994  67.150  1.00  0.00    -0.163 OA 
HETATM    2  C   UNL     1      -9.939  10.172  66.194  1.00  0.00    -0.246 C  
HETATM    3  C   UNL     1     -10.407  10.838  64.915  1.00  0.00    -0.369 C  
HETATM    4  O   UNL     1      -9.937   8.958  66.342  1.00  0.00    -0.264 OA 
ENDROOT
BRANCH   3   5
HETATM    5  C   UNL     1     -10.920  12.249  65.085  1.00  0.00    -0.344 A  
HETATM    6  C   UNL     1     -10.268  13.322  64.459  1.00  0.00    -0.332 A  
HETATM    7  C   UNL     1     -10.670  14.633  64.714  1.00  0.00    -0.399 A  
HETATM    8  C   UNL     1     -11.737  14.881  65.576  1.00  0.00    -0.211 A  
HETATM    9  C   UNL     1     -12.410  13.819  66.176  1.00  0.00    -0.496 A  
HETATM   10  C   UNL     1     -12.003  12.507  65.935  1.00  0.00    -0.472 A  
ENDBRANCH   3   5
TORSDOF 1
ENDMDL
MODEL       89
REMARK 921   NORMALIZED FREE ENERGY PREDICTED BY IDOCK:   -3.14 KCAL/MOL
REMARK 922        TOTAL FREE ENERGY PREDICTED BY IDOCK:   -3.25 KCAL/MOL
REMARK 923 INTER-LIGAND FREE ENERGY PREDICTED BY IDOCK:   -3.52 KCAL/MOL
REMARK 924 INTRA-LIGAND FREE ENERGY PREDICTED BY IDOCK:    0.27 KCAL/MOL
REMARK 927      BINDING AFFINITY PREDICTED BY RF-SCORE:    0.00 PKD
ROOT
HETATM    1  O   UNL     1     -12.320  10.943  68.557  1.00  0.00    -0.490 OA 
HETATM    2  C   UNL     1     -11.761  10.952  69.789  1.00  0.00    -0.338 C  
HETATM    3  C   UNL     1     -10.584  10.018  69.996  1.00  0.00    -0.344 C  
HETATM    4  O   UNL     1     -12.150  11.722  70.655  1.00  0.00    -0.368 OA 
ENDROOT
BRANCH   3   5
HETATM    5  C   UNL     1     -10.609   8.768  69.148  1.00  0.00    -0.200 A  
HETATM    6  C   UNL     1     -10.417   8.847  67.760  1.00  0.00    -0.300 A  
HETATM    7  C   UNL     1     -10.561   7.711  66.965  1.00  0.00    -0.406 A  
HETATM    8  C   UNL     1     -10.874   6.485  67.549  1.00  0.00    -0.433 A  
HETATM    9  C   UNL     1     -11.034   6.391  68.930  1.00  0.00    -0.412 A  
HETATM   10  C   UNL     1     -10.906   7.528  69.728  1.00  0.00    -0.234 A  
ENDBRANCH   3   5
TORSDOF 1
ENDMDL
MODEL       90
REMARK 921   NORMALIZED FREE ENERGY PREDICTED BY IDOCK:   -3.13 KCAL/MOL
REMARK 922        TOTAL FREE ENERGY PREDICTED BY IDOCK:   -3.24 KCAL/MOL
REMARK 923 INTER-LIGAND FREE ENERGY PREDICTED BY IDOCK:   -3.42 KCAL/MOL
REMARK 924 INTRA-LIGAND FREE ENERGY PREDICTED BY IDOCK:    0.18 KCAL/MOL
REMARK 927      BINDING AFFINITY PREDICTED BY RF-SCORE:    0.00 PKD
ROOT
HETATM    1  O   UNL     1      -7.337  17.057  68.923  1.00  0.00    -0.229 OA 
HETATM    2  C   UNL     1      -8.245  16.053  68.921  1.00  0.00    -0.223 C  
HETATM    3  C   UNL     1      -9.409  16.206  67.961  1.00  0.00    -0.203 C  
HETATM    4  O   UNL     1      -8.087  15.057  69.611  1.00  0.00    -0.177 OA 
ENDROOT
BRANCH   3   5
HETATM    5  C   UNL     1      -9.807  17.634  67.669  1.00  0.00    -0.294 A  
HETATM    6  C   UNL     1      -9.969  18.069  66.344  1.00  0.00    -0.362 A  
HETATM    7  C   UNL     1     -10.218  19.414  66.073  1.00  0.00    -0.540 A  
HETATM    8  C   UNL     1     -10.329  20.328  67.118  1.00  0.00    -0.419 A  
HETATM    9  C   UNL     1     -10.202  19.899  68.438  1.00  0.00    -0.557 A  
HETATM   10  C   UNL     1      -9.939  18.557  68.714  1.00  0.00    -0.417 A  
ENDBRANCH   3   5
TORSDOF 1
ENDMDL
MODEL       91
REMARK 921   NORMALIZED FREE ENERGY PREDICTED BY IDOCK:   -3.11 KCAL/MOL
REMARK 922        TOTAL FREE ENERGY PREDICTED BY IDOCK:   -3.22 KCAL/MOL
REMARK 923 INTER-LIGAND FREE ENERGY PREDICTED BY IDOCK:   -3.13 KCAL/MOL
REMARK 924 INTRA-LIGAND FREE ENERGY PREDICTED BY IDOCK:   -0.09 KCAL/MOL
REMARK 927      BINDING AFFINITY PREDICTED BY RF-SCORE:    0.00 PKD
ROOT
HETATM    1  O   UNL     1     -11.492  12.784  69.330  1.00  0.00    -0.274 OA 
HETATM    2  C   UNL     1     -11.641  12.002  68.235  1.00  0.00    -0.334 C  
HETATM    3  C   UNL     1     -11.749  10.511  68.489  1.00  0.00    -0.125 C  
HETATM    4  O   UNL     1     -11.747  12.489  67.119  1.00  0.00    -0.344 OA 
ENDROOT
BRANCH   3   5
HETATM    5  C   UNL     1     -11.020  10.022  69.719  1.00  0.00    -0.317 A  
HETATM    6  C   UNL     1      -9.624   9.874  69.705  1.00  0.00    -0.249 A  
HETATM    7  C   UNL     1      -8.967   9.308  70.797  1.00  0.00    -0.292 A  
HETATM    8  C   UNL     1      -9.693   8.908  71.917  1.00  0.00    -0.349 A  
HETATM    9  C   UNL     1     -11.075   9.081  71.952  1.00  0.00    -0.433 A  
HETATM   10  C   UNL     1     -11.738   9.633  70.856  1.00  0.00    -0.412 A  
ENDBRANCH   3   5
TORSDOF 1
ENDMDL
MODEL       92
REMARK 921   NORMALIZED FREE ENERGY PREDICTED BY IDOCK:   -3.06 KCAL/MOL
REMARK 922        TOTAL FREE ENERGY PREDICTED BY IDOCK:   -3.17 KCAL/MOL
REMARK 923 INTER-LIGAND FREE ENERGY PREDICTED BY IDOCK:   -3.17 KCAL/MOL
REMARK 924 INTRA-LIGAND FREE ENERGY PREDICTED BY IDOCK:    0.00 KCAL/MOL
REMARK 927      BINDING AFFINITY PREDICTED BY RF-SCORE:    0.00 PKD
ROOT
HETATM    1  O   UNL     1     -10.319  17.220  65.512  1.00  0.00    -0.614 OA 
HETATM    2  C   UNL     1     -10.459  18.378  66.197  1.00  0.00    -0.395 C  
HETATM    3  C   UNL     1     -10.035  18.349  67.653  1.00  0.00    -0.355 C  
HETATM    4  O   UNL     1     -10.844  19.398  65.644  1.00  0.00    -0.442 OA 
ENDROOT
BRANCH   3   5
HETATM    5  C   UNL     1     -10.181  17.007  68.330  1.00  0.00    -0.331 A  
HETATM    6  C   UNL     1      -9.049  16.319  68.795  1.00  0.00    -0.245 A  
HETATM    7  C   UNL     1      -9.175  15.029  69.309  1.00  0.00    -0.159 A  
HETATM    8  C   UNL     1     -10.429  14.426  69.385  1.00  0.00    -0.097 A  
HETATM    9  C   UNL     1     -11.561  15.115  68.955  1.00  0.00    -0.350 A  
HETATM   10  C   UNL     1     -11.439  16.400  68.427  1.00  0.00    -0.181 A  
ENDBRANCH   3   5
TORSDOF 1
ENDMDL
MODEL       93
REMARK 921   NORMALIZED FREE ENERGY PREDICTED BY IDOCK:   -3.02 KCAL/MOL
REMARK 922        TOTAL FREE ENERGY PREDICTED BY IDOCK:   -3.12 KCAL/MOL
REMARK 923 INTER-LIGAND FREE ENERGY PREDICTED BY IDOCK:   -3.17 KCAL/MOL
REMARK 924 INTRA-LIGAND FREE ENERGY PREDICTED BY IDOCK:    0.05 KCAL/MOL
REMARK 927      BINDING AFFINITY PREDICTED BY RF-SCORE:    0.00 PKD
ROOT
HETATM    1  O   UNL     1      -9.416  11.257  66.322  1.00  0.00    -0.192 OA 
HETATM    2  C   UNL     1      -8.833  12.055  67.247  1.00  0.00    -0.183 C  
HETATM    3  C   UNL     1      -9.637  13.262  67.690  1.00  0.00    -0.213 C  
HETATM    4  O   UNL     1      -7.750  11.769  67.736  1.00  0.00    -0.117 OA 
ENDROOT
BRANCH   3   5
HETATM    5  C   UNL     1     -10.577  13.817  66.646  1.00  0.00    -0.274 A  
HETATM    6  C   UNL     1     -11.862  13.275  66.487  1.00  0.00    -0.450 A  
HETATM    7  C   UNL     1     -12.681  13.707  65.445  1.00  0.00    -0.500 A  
HETATM    8  C   UNL     1     -12.236  14.696  64.570  1.00  0.00    -0.473 A  
HETATM    9  C   UNL     1     -10.974  15.262  64.740  1.00  0.00    -0.403 A  
HETATM   10  C   UNL     1     -10.145  14.823  65.772  1.00  0.00    -0.364 A  
ENDBRANCH   3   5
TORSDOF 1
ENDMDL
MODEL       94
REMARK 921   NORMALIZED FREE ENERGY PREDICTED BY IDOCK:   -2.95 KCAL/MOL
REMARK 922        TOTAL FREE ENERGY PREDICTED BY IDOCK:   -3.05 KCAL/MOL
REMARK 923 INTER-LIGAND FREE ENERGY PREDICTED BY IDOCK:   -3.04 KCAL/MOL
REMARK 924 INTRA-LIGAND FREE ENERGY PREDICTED BY IDOCK:   -0.01 KCAL/MOL
REMARK 927      BINDING AFFINITY PREDICTED BY RF-SCORE:    0.00 PKD
ROOT
HETATM    1  O   UNL     1     -12.284  13.832  68.579  1.00  0.00    -0.348 OA 
HETATM    2  C   UNL     1     -11.867  14.265  69.791  1.00  0.00    -0.324 C  
HETATM    3  C   UNL     1     -11.096  15.570  69.806  1.00  0.00    -0.300 C  
HETATM    4  O   UNL     1     -12.160  13.662  70.814  1.00  0.00    -0.340 OA 
ENDROOT
BRANCH   3   5
HETATM    5  C   UNL     1     -10.307  15.856  68.550  1.00  0.00    -0.232 A  
HETATM    6  C   UNL     1     -10.651  16.939  67.726  1.00  0.00    -0.340 A  
HETATM    7  C   UNL     1     -10.000  17.128  66.507  1.00  0.00    -0.308 A  
HETATM    8  C   UNL     1      -8.988  16.254  66.114  1.00  0.00    -0.374 A  
HETATM    9  C   UNL     1      -8.618  15.196  66.941  1.00  0.00    -0.289 A  
HETATM   10  C   UNL     1      -9.277  14.994  68.154  1.00  0.00    -0.183 A  
ENDBRANCH   3   5
TORSDOF 1
ENDMDL
MODEL       95
REMARK 921   NORMALIZED FREE ENERGY PREDICTED BY IDOCK:   -2.95 KCAL/MOL
REMARK 922        TOTAL FREE ENERGY PREDICTED BY IDOCK:   -3.05 KCAL/MOL
REMARK 923 INTER-LIGAND FREE ENERGY PREDICTED BY IDOCK:   -3.00 KCAL/MOL
REMARK 924 INTRA-LIGAND FREE ENERGY PREDICTED BY IDOCK:   -0.05 KCAL/MOL
REMARK 927      BINDING AFFINITY PREDICTED BY RF-SCORE:    0.00 PKD
ROOT
HETATM    1  O   UNL     1     -12.236  11.051  68.359  1.00  0.00    -0.586 OA 
HETATM    2  C   UNL     1     -11.119  11.020  69.123  1.00  0.00    -0.243 C  
HETATM    3  C   UNL     1      -9.825  11.398  68.431  1.00  0.00    -0.205 C  
HETATM    4  O   UNL     1     -11.177  10.764  70.317  1.00  0.00    -0.298 OA 
ENDROOT
BRANCH   3   5
HETATM    5  C   UNL     1      -9.780  11.088  66.953  1.00  0.00    -0.215 A  
HETATM    6  C   UNL     1     -10.092  12.078  66.009  1.00  0.00    -0.257 A  
HETATM    7  C   UNL     1     -10.168  11.758  64.654  1.00  0.00    -0.326 A  
HETATM    8  C   UNL     1      -9.913  10.456  64.229  1.00  0.00    -0.368 A  
HETATM    9  C   UNL     1      -9.572   9.473  65.156  1.00  0.00    -0.270 A  
HETATM   10  C   UNL     1      -9.508   9.786  66.514  1.00  0.00    -0.228 A  
ENDBRANCH   3   5
TORSDOF 1
ENDMDL
MODEL       96
REMARK 921   NORMALIZED FREE ENERGY PREDICTED BY IDOCK:   -2.95 KCAL/MOL
REMARK 922        TOTAL FREE ENERGY PREDICTED BY IDOCK:   -3.04 KCAL/MOL
REMARK 923 INTER-LIGAND FREE ENERGY PREDICTED BY IDOCK:   -2.98 KCAL/MOL
REMARK 924 INTRA-LIGAND FREE ENERGY PREDICTED BY IDOCK:   -0.06 KCAL/MOL
REMARK 927      BINDING AFFINITY PREDICTED BY RF-SCORE:    0.00 PKD
ROOT
HETATM    1  O   UNL     1     -12.219   6.617  70.353  1.00  0.00    -0.332 OA 
HETATM    2  C   UNL     1     -11.163   6.176  69.631  1.00  0.00    -0.418 C  
HETATM    3  C   UNL     1     -10.146   5.335  70.377  1.00  0.00    -0.324 C  
HETATM    4  O   UNL     1     -11.082   6.396  68.431  1.00  0.00    -0.315 OA 
ENDROOT
BRANCH   3   5
HETATM    5  C   UNL     1     -10.021   5.649  71.850  1.00  0.00    -0.223 A  
HETATM    6  C   UNL     1     -10.537   4.766  72.811  1.00  0.00    -0.272 A  
HETATM    7  C   UNL     1     -10.528   5.114  74.161  1.00  0.00    -0.326 A  
HETATM    8  C   UNL     1      -9.986   6.333  74.564  1.00  0.00    -0.356 A  
HETATM    9  C   UNL     1      -9.442   7.201  73.619  1.00  0.00    -0.265 A  
HETATM   10  C   UNL     1      -9.462   6.863  72.266  1.00  0.00    -0.151 A  
ENDBRANCH   3   5
TORSDOF 1
ENDMDL
MODEL       97
REMARK 921   NORMALIZED FREE ENERGY PREDICTED BY IDOCK:   -2.92 KCAL/MOL
REMARK 922        TOTAL FREE ENERGY PREDICTED BY IDOCK:   -3.02 KCAL/MOL
REMARK 923 INTER-LIGAND FREE ENERGY PREDICTED BY IDOCK:   -3.03 KCAL/MOL
REMARK 924 INTRA-LIGAND FREE ENERGY PREDICTED BY IDOCK:    0.01 KCAL/MOL
REMARK 927      BINDING AFFINITY PREDICTED BY RF-SCORE:    0.00 PKD
ROOT
HETATM    1  O   UNL     1     -12.088  10.928  68.900  1.00  0.00    -0.463 OA 
HETATM    2  C   UNL     1     -10.762  10.986  68.634  1.00  0.00    -0.198 C  
HETATM    3  C   UNL     1      -9.980   9.706  68.855  1.00  0.00    -0.186 C  
HETATM    4  O   UNL     1     -10.251  12.000  68.180  1.00  0.00    -0.189 OA 
ENDROOT
BRANCH   3   5
HETATM    5  C   UNL     1     -10.532   8.802  69.932  1.00  0.00    -0.227 A  
HETATM    6  C   UNL     1     -11.007   7.521  69.610  1.00  0.00    -0.164 A  
HETATM    7  C   UNL     1     -11.627   6.737  70.582  1.00  0.00    -0.422 A  
HETATM    8  C   UNL     1     -11.756   7.213  71.885  1.00  0.00    -0.328 A  
HETATM    9  C   UNL     1     -11.259   8.470  72.221  1.00  0.00    -0.432 A  
HETATM   10  C   UNL     1     -10.651   9.265  71.249  1.00  0.00    -0.417 A  
ENDBRANCH   3   5
TORSDOF 1
ENDMDL
MODEL       98
REMARK 921   NORMALIZED FREE ENERGY PREDICTED BY IDOCK:   -2.92 KCAL/MOL
REMARK 922        TOTAL FREE ENERGY PREDICTED BY IDOCK:   -3.01 KCAL/MOL
REMARK 923 INTER-LIGAND FREE ENERGY PREDICTED BY IDOCK:   -2.95 KCAL/MOL
REMARK 924 INTRA-LIGAND FREE ENERGY PREDICTED BY IDOCK:   -0.07 KCAL/MOL
REMARK 927      BINDING AFFINITY PREDICTED BY RF-SCORE:    0.00 PKD
ROOT
HETATM    1  O   UNL     1     -12.951   8.964  72.235  1.00  0.00    -0.377 OA 
HETATM    2  C   UNL     1     -13.234   7.757  71.692  1.00  0.00    -0.343 C  
HETATM    3  C   UNL     1     -12.048   6.851  71.420  1.00  0.00    -0.408 C  
HETATM    4  O   UNL     1     -14.389   7.405  71.499  1.00  0.00    -0.448 OA 
ENDROOT
BRANCH   3   5
HETATM    5  C   UNL     1     -10.755   7.572  71.117  1.00  0.00    -0.242 A  
HETATM    6  C   UNL     1      -9.772   7.716  72.108  1.00  0.00    -0.220 A  
HETATM    7  C   UNL     1      -8.635   8.484  71.862  1.00  0.00    -0.254 A  
HETATM    8  C   UNL     1      -8.459   9.095  70.622  1.00  0.00    -0.246 A  
HETATM    9  C   UNL     1      -9.415   8.931  69.622  1.00  0.00    -0.168 A  
HETATM   10  C   UNL     1     -10.561   8.175  69.867  1.00  0.00    -0.239 A  
ENDBRANCH   3   5
TORSDOF 1
ENDMDL
MODEL       99
REMARK 921   NORMALIZED FREE ENERGY PREDICTED BY IDOCK:   -2.90 KCAL/MOL
REMARK 922        TOTAL FREE ENERGY PREDICTED BY IDOCK:   -2.99 KCAL/MOL
REMARK 923 INTER-LIGAND FREE ENERGY PREDICTED BY IDOCK:   -2.94 KCAL/MOL
REMARK 924 INTRA-LIGAND FREE ENERGY PREDICTED BY IDOCK:   -0.05 KCAL/MOL
REMARK 927      BINDING AFFINITY PREDICTED BY RF-SCORE:    0.00 PKD
ROOT
HETATM    1  O   UNL     1      -9.480   5.884  72.769  1.00  0.00    -0.149 OA 
HETATM    2  C   UNL     1     -10.748   5.596  73.145  1.00  0.00    -0.267 C  
HETATM    3  C   UNL     1     -11.846   6.079  72.217  1.00  0.00    -0.305 C  
HETATM    4  O   UNL     1     -10.976   4.928  74.143  1.00  0.00    -0.310 OA 
ENDROOT
BRANCH   3   5
HETATM    5  C   UNL     1     -11.516   7.332  71.441  1.00  0.00    -0.294 A  
HETATM    6  C   UNL     1     -11.018   7.246  70.131  1.00  0.00    -0.280 A  
HETATM    7  C   UNL     1     -10.600   8.396  69.462  1.00  0.00    -0.217 A  
HETATM    8  C   UNL     1     -10.698   9.639  70.083  1.00  0.00    -0.321 A  
HETATM    9  C   UNL     1     -11.221   9.737  71.371  1.00  0.00    -0.368 A  
HETATM   10  C   UNL     1     -11.626   8.588  72.050  1.00  0.00    -0.432 A  
ENDBRANCH   3   5
TORSDOF 1
ENDMDL
MODEL      100
REMARK 921   NORMALIZED FREE ENERGY PREDICTED BY IDOCK:   -2.90 KCAL/MOL
REMARK 922        TOTAL FREE ENERGY PREDICTED BY IDOCK:   -2.99 KCAL/MOL
REMARK 923 INTER-LIGAND FREE ENERGY PREDICTED BY IDOCK:   -3.15 KCAL/MOL
REMARK 924 INTRA-LIGAND FREE ENERGY PREDICTED BY IDOCK:    0.16 KCAL/MOL
REMARK 927      BINDING AFFINITY PREDICTED BY RF-SCORE:    0.00 PKD
ROOT
HETATM    1  O   UNL     1     -12.103  10.884  68.081  1.00  0.00    -0.563 OA 
HETATM    2  C   UNL     1     -10.796  10.717  67.772  1.00  0.00    -0.286 C  
HETATM    3  C   UNL     1     -10.148   9.441  68.272  1.00  0.00    -0.210 C  
HETATM    4  O   UNL     1     -10.203  11.526  67.072  1.00  0.00    -0.206 OA 
ENDROOT
BRANCH   3   5
HETATM    5  C   UNL     1     -10.735   8.890  69.551  1.00  0.00    -0.206 A  
HETATM    6  C   UNL     1     -10.944   9.729  70.656  1.00  0.00    -0.398 A  
HETATM    7  C   UNL     1     -11.371   9.196  71.871  1.00  0.00    -0.416 A  
HETATM    8  C   UNL     1     -11.614   7.829  71.987  1.00  0.00    -0.347 A  
HETATM    9  C   UNL     1     -11.439   6.993  70.886  1.00  0.00    -0.349 A  
HETATM   10  C   UNL     1     -10.998   7.520  69.672  1.00  0.00    -0.164 A  
ENDBRANCH   3   5
TORSDOF 1
ENDMDL
MODEL      101
REMARK 921   NORMALIZED FREE ENERGY PREDICTED BY IDOCK:   -2.88 KCAL/MOL
REMARK 922        TOTAL FREE ENERGY PREDICTED BY IDOCK:   -2.97 KCAL/MOL
REMARK 923 INTER-LIGAND FREE ENERGY PREDICTED BY IDOCK:   -3.32 KCAL/MOL
REMARK 924 INTRA-LIGAND FREE ENERGY PREDICTED BY IDOCK:    0.35 KCAL/MOL
REMARK 927      BINDING AFFINITY PREDICTED BY RF-SCORE:    0.00 PKD
ROOT
HETATM    1  O   UNL     1     -13.473  10.080  71.678  1.00  0.00    -0.359 OA 
HETATM    2  C   UNL     1     -12.875  11.284  71.524  1.00  0.00    -0.414 C  
HETATM    3  C   UNL     1     -11.815  11.371  70.444  1.00  0.00    -0.428 C  
HETATM    4  O   UNL     1     -13.227  12.254  72.181  1.00  0.00    -0.496 OA 
ENDROOT
BRANCH   3   5
HETATM    5  C   UNL     1     -11.077  10.081  70.174  1.00  0.00    -0.371 A  
HETATM    6  C   UNL     1     -10.748   9.712  68.860  1.00  0.00    -0.230 A  
HETATM    7  C   UNL     1     -10.176   8.467  68.603  1.00  0.00    -0.220 A  
HETATM    8  C   UNL     1      -9.907   7.591  69.653  1.00  0.00    -0.180 A  
HETATM    9  C   UNL     1     -10.201   7.963  70.963  1.00  0.00    -0.217 A  
HETATM   10  C   UNL     1     -10.786   9.201  71.224  1.00  0.00    -0.402 A  
ENDBRANCH   3   5
TORSDOF 1
ENDMDL
MODEL      102
REMARK 921   NORMALIZED FREE ENERGY PREDICTED BY IDOCK:   -2.87 KCAL/MOL
REMARK 922        TOTAL FREE ENERGY PREDICTED BY IDOCK:   -2.97 KCAL/MOL
REMARK 923 INTER-LIGAND FREE ENERGY PREDICTED BY IDOCK:   -2.93 KCAL/MOL
REMARK 924 INTRA-LIGAND FREE ENERGY PREDICTED BY IDOCK:   -0.03 KCAL/MOL
REMARK 927      BINDING AFFINITY PREDICTED BY RF-SCORE:    0.00 PKD
ROOT
HETATM    1  O   UNL     1      -6.562  18.387  65.996  1.00  0.00    -0.209 OA 
HETATM    2  C   UNL     1      -7.001  19.566  65.498  1.00  0.00    -0.273 C  
HETATM    3  C   UNL     1      -8.161  20.210  66.232  1.00  0.00    -0.266 C  
HETATM    4  O   UNL     1      -6.443  20.101  64.551  1.00  0.00    -0.270 OA 
ENDROOT
BRANCH   3   5
HETATM    5  C   UNL     1      -9.098  19.241  66.914  1.00  0.00    -0.358 A  
HETATM    6  C   UNL     1      -9.166  19.186  68.315  1.00  0.00    -0.385 A  
HETATM    7  C   UNL     1      -9.940  18.210  68.942  1.00  0.00    -0.352 A  
HETATM    8  C   UNL     1     -10.667  17.299  68.179  1.00  0.00    -0.363 A  
HETATM    9  C   UNL     1     -10.630  17.367  66.788  1.00  0.00    -0.194 A  
HETATM   10  C   UNL     1      -9.847  18.332  66.156  1.00  0.00    -0.264 A  
ENDBRANCH   3   5
TORSDOF 1
ENDMDL
MODEL      103
REMARK 921   NORMALIZED FREE ENERGY PREDICTED BY IDOCK:   -2.87 KCAL/MOL
REMARK 922        TOTAL FREE ENERGY PREDICTED BY IDOCK:   -2.96 KCAL/MOL
REMARK 923 INTER-LIGAND FREE ENERGY PREDICTED BY IDOCK:   -2.90 KCAL/MOL
REMARK 924 INTRA-LIGAND FREE ENERGY PREDICTED BY IDOCK:   -0.07 KCAL/MOL
REMARK 927      BINDING AFFINITY PREDICTED BY RF-SCORE:    0.00 PKD
ROOT
HETATM    1  O   UNL     1     -12.014  11.678  67.249  1.00  0.00    -0.627 OA 
HETATM    2  C   UNL     1     -11.677  12.445  66.186  1.00  0.00    -0.400 C  
HETATM    3  C   UNL     1     -10.616  11.878  65.263  1.00  0.00    -0.320 C  
HETATM    4  O   UNL     1     -12.251  13.500  65.960  1.00  0.00    -0.414 OA 
ENDROOT
BRANCH   3   5
HETATM    5  C   UNL     1      -9.612  10.968  65.931  1.00  0.00    -0.255 A  
HETATM    6  C   UNL     1      -9.746   9.574  65.841  1.00  0.00    -0.352 A  
HETATM    7  C   UNL     1      -8.891   8.739  66.557  1.00  0.00    -0.156 A  
HETATM    8  C   UNL     1      -7.884   9.285  67.350  1.00  0.00    -0.099 A  
HETATM    9  C   UNL     1      -7.723  10.668  67.421  1.00  0.00    -0.106 A  
HETATM   10  C   UNL     1      -8.586  11.508  66.717  1.00  0.00    -0.170 A  
ENDBRANCH   3   5
TORSDOF 1
ENDMDL
MODEL      104
REMARK 921   NORMALIZED FREE ENERGY PREDICTED BY IDOCK:   -2.87 KCAL/MOL
REMARK 922        TOTAL FREE ENERGY PREDICTED BY IDOCK:   -2.96 KCAL/MOL
REMARK 923 INTER-LIGAND FREE ENERGY PREDICTED BY IDOCK:   -2.90 KCAL/MOL
REMARK 924 INTRA-LIGAND FREE ENERGY PREDICTED BY IDOCK:   -0.06 KCAL/MOL
REMARK 927      BINDING AFFINITY PREDICTED BY RF-SCORE:    0.00 PKD
ROOT
HETATM    1  O   UNL     1      -8.783   5.849  69.049  1.00  0.00    -0.113 OA 
HETATM    2  C   UNL     1      -9.913   5.517  68.382  1.00  0.00    -0.159 C  
HETATM    3  C   UNL     1     -11.156   6.308  68.737  1.00  0.00    -0.424 C  
HETATM    4  O   UNL     1      -9.901   4.670  67.500  1.00  0.00    -0.171 OA 
ENDROOT
BRANCH   3   5
HETATM    5  C   UNL     1     -11.198   6.822  70.157  1.00  0.00    -0.387 A  
HETATM    6  C   UNL     1     -11.021   8.188  70.425  1.00  0.00    -0.248 A  
HETATM    7  C   UNL     1     -10.939   8.641  71.741  1.00  0.00    -0.396 A  
HETATM    8  C   UNL     1     -11.056   7.740  72.798  1.00  0.00    -0.457 A  
HETATM    9  C   UNL     1     -11.265   6.387  72.542  1.00  0.00    -0.307 A  
HETATM   10  C   UNL     1     -11.333   5.927  71.227  1.00  0.00    -0.238 A  
ENDBRANCH   3   5
TORSDOF 1
ENDMDL
MODEL      105
REMARK 921   NORMALIZED FREE ENERGY PREDICTED BY IDOCK:   -2.84 KCAL/MOL
REMARK 922        TOTAL FREE ENERGY PREDICTED BY IDOCK:   -2.93 KCAL/MOL
REMARK 923 INTER-LIGAND FREE ENERGY PREDICTED BY IDOCK:   -2.89 KCAL/MOL
REMARK 924 INTRA-LIGAND FREE ENERGY PREDICTED BY IDOCK:   -0.04 KCAL/MOL
REMARK 927      BINDING AFFINITY PREDICTED BY RF-SCORE:    0.00 PKD
ROOT
HETATM    1  O   UNL     1      -8.741  10.464  67.330  1.00  0.00    -0.126 OA 
HETATM    2  C   UNL     1      -9.600   9.881  66.461  1.00  0.00    -0.190 C  
HETATM    3  C   UNL     1     -10.465  10.821  65.644  1.00  0.00    -0.255 C  
HETATM    4  O   UNL     1      -9.618   8.669  66.306  1.00  0.00    -0.226 OA 
ENDROOT
BRANCH   3   5
HETATM    5  C   UNL     1     -10.793  12.132  66.321  1.00  0.00    -0.317 A  
HETATM    6  C   UNL     1     -11.587  12.155  67.478  1.00  0.00    -0.413 A  
HETATM    7  C   UNL     1     -11.988  13.371  68.030  1.00  0.00    -0.357 A  
HETATM    8  C   UNL     1     -11.581  14.570  67.447  1.00  0.00    -0.406 A  
HETATM    9  C   UNL     1     -10.766  14.556  66.317  1.00  0.00    -0.309 A  
HETATM   10  C   UNL     1     -10.375  13.342  65.753  1.00  0.00    -0.290 A  
ENDBRANCH   3   5
TORSDOF 1
ENDMDL
MODEL      106
REMARK 921   NORMALIZED FREE ENERGY PREDICTED BY IDOCK:   -2.83 KCAL/MOL
REMARK 922        TOTAL FREE ENERGY PREDICTED BY IDOCK:   -2.92 KCAL/MOL
REMARK 923 INTER-LIGAND FREE ENERGY PREDICTED BY IDOCK:   -2.83 KCAL/MOL
REMARK 924 INTRA-LIGAND FREE ENERGY PREDICTED BY IDOCK:   -0.09 KCAL/MOL
REMARK 927      BINDING AFFINITY PREDICTED BY RF-SCORE:    0.00 PKD
ROOT
HETATM    1  O   UNL     1     -10.475  16.427  69.954  1.00  0.00    -0.277 OA 
HETATM    2  C   UNL     1     -10.662  16.157  68.641  1.00  0.00    -0.295 C  
HETATM    3  C   UNL     1      -9.485  16.436  67.727  1.00  0.00    -0.222 C  
HETATM    4  O   UNL     1     -11.703  15.656  68.241  1.00  0.00    -0.349 OA 
ENDROOT
BRANCH   3   5
HETATM    5  C   UNL     1      -8.578  17.554  68.183  1.00  0.00    -0.258 A  
HETATM    6  C   UNL     1      -8.980  18.893  68.056  1.00  0.00    -0.338 A  
HETATM    7  C   UNL     1      -8.094  19.924  68.364  1.00  0.00    -0.239 A  
HETATM    8  C   UNL     1      -6.812  19.630  68.823  1.00  0.00    -0.362 A  
HETATM    9  C   UNL     1      -6.415  18.304  68.983  1.00  0.00    -0.251 A  
HETATM   10  C   UNL     1      -7.293  17.269  68.662  1.00  0.00    -0.238 A  
ENDBRANCH   3   5
TORSDOF 1
ENDMDL
MODEL      107
REMARK 921   NORMALIZED FREE ENERGY PREDICTED BY IDOCK:   -2.82 KCAL/MOL
REMARK 922        TOTAL FREE ENERGY PREDICTED BY IDOCK:   -2.91 KCAL/MOL
REMARK 923 INTER-LIGAND FREE ENERGY PREDICTED BY IDOCK:   -2.85 KCAL/MOL
REMARK 924 INTRA-LIGAND FREE ENERGY PREDICTED BY IDOCK:   -0.06 KCAL/MOL
REMARK 927      BINDING AFFINITY PREDICTED BY RF-SCORE:    0.00 PKD
ROOT
HETATM    1  O   UNL     1     -11.722   4.976  72.815  1.00  0.00    -0.199 OA 
HETATM    2  C   UNL     1     -10.790   5.298  73.743  1.00  0.00    -0.261 C  
HETATM    3  C   UNL     1     -10.482   6.775  73.895  1.00  0.00    -0.356 C  
HETATM    4  O   UNL     1     -10.284   4.443  74.454  1.00  0.00    -0.186 OA 
ENDROOT
BRANCH   3   5
HETATM    5  C   UNL     1     -10.665   7.595  72.639  1.00  0.00    -0.377 A  
HETATM    6  C   UNL     1     -11.838   8.340  72.442  1.00  0.00    -0.461 A  
HETATM    7  C   UNL     1     -12.056   8.997  71.232  1.00  0.00    -0.375 A  
HETATM    8  C   UNL     1     -11.100   8.936  70.221  1.00  0.00    -0.251 A  
HETATM    9  C   UNL     1      -9.918   8.224  70.421  1.00  0.00    -0.196 A  
HETATM   10  C   UNL     1      -9.701   7.553  71.624  1.00  0.00    -0.184 A  
ENDBRANCH   3   5
TORSDOF 1
ENDMDL
MODEL      108
REMARK 921   NORMALIZED FREE ENERGY PREDICTED BY IDOCK:   -2.80 KCAL/MOL
REMARK 922        TOTAL FREE ENERGY PREDICTED BY IDOCK:   -2.89 KCAL/MOL
REMARK 923 INTER-LIGAND FREE ENERGY PREDICTED BY IDOCK:   -2.85 KCAL/MOL
REMARK 924 INTRA-LIGAND FREE ENERGY PREDICTED BY IDOCK:   -0.04 KCAL/MOL
REMARK 927      BINDING AFFINITY PREDICTED BY RF-SCORE:    0.00 PKD
ROOT
HETATM    1  O   UNL     1     -10.376   8.360  71.306  1.00  0.00    -0.197 OA 
HETATM    2  C   UNL     1     -11.627   7.862  71.448  1.00  0.00    -0.272 C  
HETATM    3  C   UNL     1     -11.815   6.408  71.065  1.00  0.00    -0.321 C  
HETATM    4  O   UNL     1     -12.527   8.540  71.922  1.00  0.00    -0.312 OA 
ENDROOT
BRANCH   3   5
HETATM    5  C   UNL     1     -10.884   5.910  69.985  1.00  0.00    -0.421 A  
HETATM    6  C   UNL     1     -10.971   6.420  68.680  1.00  0.00    -0.404 A  
HETATM    7  C   UNL     1     -10.195   5.874  67.659  1.00  0.00    -0.229 A  
HETATM    8  C   UNL     1      -9.312   4.832  67.934  1.00  0.00    -0.164 A  
HETATM    9  C   UNL     1      -9.195   4.341  69.233  1.00  0.00    -0.210 A  
HETATM   10  C   UNL     1      -9.980   4.874  70.255  1.00  0.00    -0.321 A  
ENDBRANCH   3   5
TORSDOF 1
ENDMDL
MODEL      109
REMARK 921   NORMALIZED FREE ENERGY PREDICTED BY IDOCK:   -2.80 KCAL/MOL
REMARK 922        TOTAL FREE ENERGY PREDICTED BY IDOCK:   -2.89 KCAL/MOL
REMARK 923 INTER-LIGAND FREE ENERGY PREDICTED BY IDOCK:   -2.80 KCAL/MOL
REMARK 924 INTRA-LIGAND FREE ENERGY PREDICTED BY IDOCK:   -0.08 KCAL/MOL
REMARK 927      BINDING AFFINITY PREDICTED BY RF-SCORE:    0.00 PKD
ROOT
HETATM    1  O   UNL     1      -8.148   7.537  70.414  1.00  0.00    -0.107 OA 
HETATM    2  C   UNL     1      -8.630   7.245  69.183  1.00  0.00    -0.133 C  
HETATM    3  C   UNL     1      -9.990   7.822  68.843  1.00  0.00    -0.185 C  
HETATM    4  O   UNL     1      -7.966   6.607  68.379  1.00  0.00    -0.108 OA 
ENDROOT
BRANCH   3   5
HETATM    5  C   UNL     1     -10.909   8.021  70.026  1.00  0.00    -0.235 A  
HETATM    6  C   UNL     1     -11.665   6.949  70.526  1.00  0.00    -0.401 A  
HETATM    7  C   UNL     1     -12.601   7.162  71.538  1.00  0.00    -0.427 A  
HETATM    8  C   UNL     1     -12.774   8.437  72.072  1.00  0.00    -0.399 A  
HETATM    9  C   UNL     1     -12.005   9.501  71.603  1.00  0.00    -0.474 A  
HETATM   10  C   UNL     1     -11.077   9.295  70.582  1.00  0.00    -0.335 A  
ENDBRANCH   3   5
TORSDOF 1
ENDMDL
MODEL      110
REMARK 921   NORMALIZED FREE ENERGY PREDICTED BY IDOCK:   -2.77 KCAL/MOL
REMARK 922        TOTAL FREE ENERGY PREDICTED BY IDOCK:   -2.86 KCAL/MOL
REMARK 923 INTER-LIGAND FREE ENERGY PREDICTED BY IDOCK:   -2.86 KCAL/MOL
REMARK 924 INTRA-LIGAND FREE ENERGY PREDICTED BY IDOCK:    0.01 KCAL/MOL
REMARK 927      BINDING AFFINITY PREDICTED BY RF-SCORE:    0.00 PKD
ROOT
HETATM    1  O   UNL     1     -11.847   6.500  69.939  1.00  0.00    -0.381 OA 
HETATM    2  C   UNL     1     -11.651   7.372  70.956  1.00  0.00    -0.288 C  
HETATM    3  C   UNL     1     -10.666   6.942  72.025  1.00  0.00    -0.244 C  
HETATM    4  O   UNL     1     -12.194   8.468  70.963  1.00  0.00    -0.267 OA 
ENDROOT
BRANCH   3   5
HETATM    5  C   UNL     1     -10.567   5.449  72.233  1.00  0.00    -0.280 A  
HETATM    6  C   UNL     1     -11.341   4.816  73.218  1.00  0.00    -0.408 A  
HETATM    7  C   UNL     1     -11.159   3.460  73.490  1.00  0.00    -0.317 A  
HETATM    8  C   UNL     1     -10.223   2.723  72.768  1.00  0.00    -0.237 A  
HETATM    9  C   UNL     1      -9.473   3.336  71.767  1.00  0.00    -0.215 A  
HETATM   10  C   UNL     1      -9.641   4.695  71.501  1.00  0.00    -0.225 A  
ENDBRANCH   3   5
TORSDOF 1
ENDMDL
MODEL      111
REMARK 921   NORMALIZED FREE ENERGY PREDICTED BY IDOCK:   -2.77 KCAL/MOL
REMARK 922        TOTAL FREE ENERGY PREDICTED BY IDOCK:   -2.85 KCAL/MOL
REMARK 923 INTER-LIGAND FREE ENERGY PREDICTED BY IDOCK:   -2.76 KCAL/MOL
REMARK 924 INTRA-LIGAND FREE ENERGY PREDICTED BY IDOCK:   -0.09 KCAL/MOL
REMARK 927      BINDING AFFINITY PREDICTED BY RF-SCORE:    0.00 PKD
ROOT
HETATM    1  O   UNL     1      -8.754   5.578  67.423  1.00  0.00    -0.109 OA 
HETATM    2  C   UNL     1      -9.927   5.507  66.751  1.00  0.00    -0.183 C  
HETATM    3  C   UNL     1     -10.966   6.551  67.109  1.00  0.00    -0.480 C  
HETATM    4  O   UNL     1     -10.098   4.684  65.863  1.00  0.00    -0.216 OA 
ENDROOT
BRANCH   3   5
HETATM    5  C   UNL     1     -10.899   7.052  68.533  1.00  0.00    -0.187 A  
HETATM    6  C   UNL     1     -11.366   6.255  69.589  1.00  0.00    -0.492 A  
HETATM    7  C   UNL     1     -11.415   6.766  70.885  1.00  0.00    -0.384 A  
HETATM    8  C   UNL     1     -10.980   8.064  71.141  1.00  0.00    -0.271 A  
HETATM    9  C   UNL     1     -10.484   8.851  70.103  1.00  0.00    -0.236 A  
HETATM   10  C   UNL     1     -10.446   8.350  68.803  1.00  0.00    -0.202 A  
ENDBRANCH   3   5
TORSDOF 1
ENDMDL
MODEL      112
REMARK 921   NORMALIZED FREE ENERGY PREDICTED BY IDOCK:   -2.74 KCAL/MOL
REMARK 922        TOTAL FREE ENERGY PREDICTED BY IDOCK:   -2.82 KCAL/MOL
REMARK 923 INTER-LIGAND FREE ENERGY PREDICTED BY IDOCK:   -2.76 KCAL/MOL
REMARK 924 INTRA-LIGAND FREE ENERGY PREDICTED BY IDOCK:   -0.06 KCAL/MOL
REMARK 927      BINDING AFFINITY PREDICTED BY RF-SCORE:    0.00 PKD
ROOT
HETATM    1  O   UNL     1     -10.967   7.398  66.858  1.00  0.00    -0.324 OA 
HETATM    2  C   UNL     1      -9.621   7.391  67.002  1.00  0.00    -0.172 C  
HETATM    3  C   UNL     1      -8.956   8.746  67.137  1.00  0.00    -0.146 C  
HETATM    4  O   UNL     1      -9.000   6.341  67.082  1.00  0.00    -0.112 OA 
ENDROOT
BRANCH   3   5
HETATM    5  C   UNL     1      -9.670   9.877  66.435  1.00  0.00    -0.270 A  
HETATM    6  C   UNL     1     -10.516  10.737  67.152  1.00  0.00    -0.285 A  
HETATM    7  C   UNL     1     -11.266  11.702  66.482  1.00  0.00    -0.356 A  
HETATM    8  C   UNL     1     -11.162  11.833  65.099  1.00  0.00    -0.311 A  
HETATM    9  C   UNL     1     -10.299  11.005  64.383  1.00  0.00    -0.424 A  
HETATM   10  C   UNL     1      -9.557  10.028  65.047  1.00  0.00    -0.362 A  
ENDBRANCH   3   5
TORSDOF 1
ENDMDL
MODEL      113
REMARK 921   NORMALIZED FREE ENERGY PREDICTED BY IDOCK:   -2.74 KCAL/MOL
REMARK 922        TOTAL FREE ENERGY PREDICTED BY IDOCK:   -2.82 KCAL/MOL
REMARK 923 INTER-LIGAND FREE ENERGY PREDICTED BY IDOCK:   -2.80 KCAL/MOL
REMARK 924 INTRA-LIGAND FREE ENERGY PREDICTED BY IDOCK:   -0.02 KCAL/MOL
REMARK 927      BINDING AFFINITY PREDICTED BY RF-SCORE:    0.00 PKD
ROOT
HETATM    1  O   UNL     1      -7.653  19.601  69.324  1.00  0.00    -0.336 OA 
HETATM    2  C   UNL     1      -7.361  19.475  68.008  1.00  0.00    -0.281 C  
HETATM    3  C   UNL     1      -8.289  18.592  67.199  1.00  0.00    -0.253 C  
HETATM    4  O   UNL     1      -6.437  20.097  67.503  1.00  0.00    -0.201 OA 
ENDROOT
BRANCH   3   5
HETATM    5  C   UNL     1      -8.936  17.469  67.976  1.00  0.00    -0.258 A  
HETATM    6  C   UNL     1     -10.320  17.469  68.206  1.00  0.00    -0.379 A  
HETATM    7  C   UNL     1     -10.896  16.498  69.025  1.00  0.00    -0.329 A  
HETATM    8  C   UNL     1     -10.101  15.510  69.601  1.00  0.00    -0.297 A  
HETATM    9  C   UNL     1      -8.730  15.484  69.353  1.00  0.00    -0.258 A  
HETATM   10  C   UNL     1      -8.147  16.461  68.546  1.00  0.00    -0.205 A  
ENDBRANCH   3   5
TORSDOF 1
ENDMDL
MODEL      114
REMARK 921   NORMALIZED FREE ENERGY PREDICTED BY IDOCK:   -2.73 KCAL/MOL
REMARK 922        TOTAL FREE ENERGY PREDICTED BY IDOCK:   -2.81 KCAL/MOL
REMARK 923 INTER-LIGAND FREE ENERGY PREDICTED BY IDOCK:   -2.75 KCAL/MOL
REMARK 924 INTRA-LIGAND FREE ENERGY PREDICTED BY IDOCK:   -0.06 KCAL/MOL
REMARK 927      BINDING AFFINITY PREDICTED BY RF-SCORE:    0.00 PKD
ROOT
HETATM    1  O   UNL     1     -11.773   8.484  70.816  1.00  0.00    -0.277 OA 
HETATM    2  C   UNL     1     -12.057   7.183  71.055  1.00  0.00    -0.350 C  
HETATM    3  C   UNL     1     -11.087   6.170  70.480  1.00  0.00    -0.405 C  
HETATM    4  O   UNL     1     -13.009   6.861  71.752  1.00  0.00    -0.363 OA 
ENDROOT
BRANCH   3   5
HETATM    5  C   UNL     1     -10.389   6.608  69.213  1.00  0.00    -0.228 A  
HETATM    6  C   UNL     1      -9.086   7.127  69.263  1.00  0.00    -0.137 A  
HETATM    7  C   UNL     1      -8.491   7.641  68.112  1.00  0.00    -0.124 A  
HETATM    8  C   UNL     1      -9.180   7.622  66.901  1.00  0.00    -0.179 A  
HETATM    9  C   UNL     1     -10.462   7.079  66.836  1.00  0.00    -0.356 A  
HETATM   10  C   UNL     1     -11.067   6.576  67.988  1.00  0.00    -0.332 A  
ENDBRANCH   3   5
TORSDOF 1
ENDMDL
MODEL      115
REMARK 921   NORMALIZED FREE ENERGY PREDICTED BY IDOCK:   -2.67 KCAL/MOL
REMARK 922        TOTAL FREE ENERGY PREDICTED BY IDOCK:   -2.75 KCAL/MOL
REMARK 923 INTER-LIGAND FREE ENERGY PREDICTED BY IDOCK:   -2.67 KCAL/MOL
REMARK 924 INTRA-LIGAND FREE ENERGY PREDICTED BY IDOCK:   -0.07 KCAL/MOL
REMARK 927      BINDING AFFINITY PREDICTED BY RF-SCORE:    0.00 PKD
ROOT
HETATM    1  O   UNL     1      -6.059  17.200  67.980  1.00  0.00    -0.126 OA 
HETATM    2  C   UNL     1      -6.210  17.363  66.645  1.00  0.00    -0.204 C  
HETATM    3  C   UNL     1      -7.595  17.757  66.172  1.00  0.00    -0.302 C  
HETATM    4  O   UNL     1      -5.259  17.259  65.884  1.00  0.00    -0.324 OA 
ENDROOT
BRANCH   3   5
HETATM    5  C   UNL     1      -8.728  17.263  67.042  1.00  0.00    -0.248 A  
HETATM    6  C   UNL     1      -9.242  15.968  66.872  1.00  0.00    -0.244 A  
HETATM    7  C   UNL     1     -10.364  15.558  67.591  1.00  0.00    -0.269 A  
HETATM    8  C   UNL     1     -10.966  16.426  68.500  1.00  0.00    -0.350 A  
HETATM    9  C   UNL     1     -10.443  17.702  68.699  1.00  0.00    -0.317 A  
HETATM   10  C   UNL     1      -9.329  18.122  67.971  1.00  0.00    -0.289 A  
ENDBRANCH   3   5
TORSDOF 1
ENDMDL
MODEL      116
REMARK 921   NORMALIZED FREE ENERGY PREDICTED BY IDOCK:   -2.65 KCAL/MOL
REMARK 922        TOTAL FREE ENERGY PREDICTED BY IDOCK:   -2.73 KCAL/MOL
REMARK 923 INTER-LIGAND FREE ENERGY PREDICTED BY IDOCK:   -3.06 KCAL/MOL
REMARK 924 INTRA-LIGAND FREE ENERGY PREDICTED BY IDOCK:    0.33 KCAL/MOL
REMARK 927      BINDING AFFINITY PREDICTED BY RF-SCORE:    0.00 PKD
ROOT
HETATM    1  O   UNL     1      -9.005  15.729  67.776  1.00  0.00    -0.175 OA 
HETATM    2  C   UNL     1      -7.678  15.879  67.559  1.00  0.00    -0.159 C  
HETATM    3  C   UNL     1      -7.096  17.240  67.887  1.00  0.00    -0.174 C  
HETATM    4  O   UNL     1      -6.988  14.943  67.181  1.00  0.00    -0.233 OA 
ENDROOT
BRANCH   3   5
HETATM    5  C   UNL     1      -8.059  18.395  67.737  1.00  0.00    -0.264 A  
HETATM    6  C   UNL     1      -9.179  18.501  68.576  1.00  0.00    -0.360 A  
HETATM    7  C   UNL     1     -10.128  19.498  68.356  1.00  0.00    -0.546 A  
HETATM    8  C   UNL     1      -9.957  20.408  67.315  1.00  0.00    -0.564 A  
HETATM    9  C   UNL     1      -8.832  20.330  66.497  1.00  0.00    -0.303 A  
HETATM   10  C   UNL     1      -7.887  19.326  66.704  1.00  0.00    -0.284 A  
ENDBRANCH   3   5
TORSDOF 1
ENDMDL
MODEL      117
REMARK 921   NORMALIZED FREE ENERGY PREDICTED BY IDOCK:   -2.64 KCAL/MOL
REMARK 922        TOTAL FREE ENERGY PREDICTED BY IDOCK:   -2.72 KCAL/MOL
REMARK 923 INTER-LIGAND FREE ENERGY PREDICTED BY IDOCK:   -2.65 KCAL/MOL
REMARK 924 INTRA-LIGAND FREE ENERGY PREDICTED BY IDOCK:   -0.08 KCAL/MOL
REMARK 927      BINDING AFFINITY PREDICTED BY RF-SCORE:    0.00 PKD
ROOT
HETATM    1  O   UNL     1      -9.713   3.931  70.055  1.00  0.00    -0.201 OA 
HETATM    2  C   UNL     1      -9.740   4.595  68.876  1.00  0.00    -0.166 C  
HETATM    3  C   UNL     1      -9.770   6.108  68.961  1.00  0.00    -0.157 C  
HETATM    4  O   UNL     1      -9.676   3.996  67.812  1.00  0.00    -0.166 OA 
ENDROOT
BRANCH   3   5
HETATM    5  C   UNL     1     -10.443   6.661  70.196  1.00  0.00    -0.248 A  
HETATM    6  C   UNL     1     -11.835   6.565  70.350  1.00  0.00    -0.378 A  
HETATM    7  C   UNL     1     -12.465   7.182  71.429  1.00  0.00    -0.427 A  
HETATM    8  C   UNL     1     -11.713   7.879  72.373  1.00  0.00    -0.423 A  
HETATM    9  C   UNL     1     -10.328   7.952  72.245  1.00  0.00    -0.314 A  
HETATM   10  C   UNL     1      -9.693   7.349  71.159  1.00  0.00    -0.166 A  
ENDBRANCH   3   5
TORSDOF 1
ENDMDL
MODEL      118
REMARK 921   NORMALIZED FREE ENERGY PREDICTED BY IDOCK:   -2.64 KCAL/MOL
REMARK 922        TOTAL FREE ENERGY PREDICTED BY IDOCK:   -2.72 KCAL/MOL
REMARK 923 INTER-LIGAND FREE ENERGY PREDICTED BY IDOCK:   -2.63 KCAL/MOL
REMARK 924 INTRA-LIGAND FREE ENERGY PREDICTED BY IDOCK:   -0.09 KCAL/MOL
REMARK 927      BINDING AFFINITY PREDICTED BY RF-SCORE:    0.00 PKD
ROOT
HETATM    1  O   UNL     1      -9.255   5.839  70.913  1.00  0.00    -0.153 OA 
HETATM    2  C   UNL     1     -10.562   5.960  71.244  1.00  0.00    -0.252 C  
HETATM    3  C   UNL     1     -11.517   6.241  70.101  1.00  0.00    -0.452 C  
HETATM    4  O   UNL     1     -10.942   5.785  72.392  1.00  0.00    -0.232 OA 
ENDROOT
BRANCH   3   5
HETATM    5  C   UNL     1     -10.919   7.011  68.947  1.00  0.00    -0.162 A  
HETATM    6  C   UNL     1     -10.659   8.385  69.069  1.00  0.00    -0.172 A  
HETATM    7  C   UNL     1     -10.221   9.117  67.966  1.00  0.00    -0.258 A  
HETATM    8  C   UNL     1     -10.018   8.482  66.742  1.00  0.00    -0.351 A  
HETATM    9  C   UNL     1     -10.243   7.112  66.621  1.00  0.00    -0.224 A  
HETATM   10  C   UNL     1     -10.695   6.378  67.718  1.00  0.00    -0.377 A  
ENDBRANCH   3   5
TORSDOF 1
ENDMDL
MODEL      119
REMARK 921   NORMALIZED FREE ENERGY PREDICTED BY IDOCK:   -2.64 KCAL/MOL
REMARK 922        TOTAL FREE ENERGY PREDICTED BY IDOCK:   -2.72 KCAL/MOL
REMARK 923 INTER-LIGAND FREE ENERGY PREDICTED BY IDOCK:   -2.65 KCAL/MOL
REMARK 924 INTRA-LIGAND FREE ENERGY PREDICTED BY IDOCK:   -0.07 KCAL/MOL
REMARK 927      BINDING AFFINITY PREDICTED BY RF-SCORE:    0.00 PKD
ROOT
HETATM    1  O   UNL     1      -8.072   8.974  67.807  1.00  0.00    -0.108 OA 
HETATM    2  C   UNL     1      -8.996   7.988  67.734  1.00  0.00    -0.132 C  
HETATM    3  C   UNL     1     -10.235   8.293  66.914  1.00  0.00    -0.388 C  
HETATM    4  O   UNL     1      -8.800   6.898  68.250  1.00  0.00    -0.123 OA 
ENDROOT
BRANCH   3   5
HETATM    5  C   UNL     1     -10.628   9.751  66.875  1.00  0.00    -0.243 A  
HETATM    6  C   UNL     1     -10.302  10.546  65.765  1.00  0.00    -0.270 A  
HETATM    7  C   UNL     1     -10.559  11.916  65.784  1.00  0.00    -0.309 A  
HETATM    8  C   UNL     1     -11.162  12.499  66.897  1.00  0.00    -0.354 A  
HETATM    9  C   UNL     1     -11.518  11.711  67.989  1.00  0.00    -0.385 A  
HETATM   10  C   UNL     1     -11.251  10.342  67.981  1.00  0.00    -0.340 A  
ENDBRANCH   3   5
TORSDOF 1
ENDMDL
MODEL      120
REMARK 921   NORMALIZED FREE ENERGY PREDICTED BY IDOCK:   -2.59 KCAL/MOL
REMARK 922        TOTAL FREE ENERGY PREDICTED BY IDOCK:   -2.67 KCAL/MOL
REMARK 923 INTER-LIGAND FREE ENERGY PREDICTED BY IDOCK:   -2.58 KCAL/MOL
REMARK 924 INTRA-LIGAND FREE ENERGY PREDICTED BY IDOCK:   -0.09 KCAL/MOL
REMARK 927      BINDING AFFINITY PREDICTED BY RF-SCORE:    0.00 PKD
ROOT
HETATM    1  O   UNL     1      -9.525  14.303  68.151  1.00  0.00    -0.192 OA 
HETATM    2  C   UNL     1     -10.876  14.359  68.210  1.00  0.00    -0.242 C  
HETATM    3  C   UNL     1     -11.588  13.049  68.484  1.00  0.00    -0.363 C  
HETATM    4  O   UNL     1     -11.470  15.423  68.112  1.00  0.00    -0.335 OA 
ENDROOT
BRANCH   3   5
HETATM    5  C   UNL     1     -10.868  11.818  67.985  1.00  0.00    -0.256 A  
HETATM    6  C   UNL     1     -10.893  11.484  66.622  1.00  0.00    -0.335 A  
HETATM    7  C   UNL     1     -10.332  10.286  66.182  1.00  0.00    -0.253 A  
HETATM    8  C   UNL     1      -9.722   9.425  67.092  1.00  0.00    -0.225 A  
HETATM    9  C   UNL     1      -9.664   9.764  68.442  1.00  0.00    -0.162 A  
HETATM   10  C   UNL     1     -10.237  10.954  68.889  1.00  0.00    -0.213 A  
ENDBRANCH   3   5
TORSDOF 1
ENDMDL
MODEL      121
REMARK 921   NORMALIZED FREE ENERGY PREDICTED BY IDOCK:   -2.58 KCAL/MOL
REMARK 922        TOTAL FREE ENERGY PREDICTED BY IDOCK:   -2.65 KCAL/MOL
REMARK 923 INTER-LIGAND FREE ENERGY PREDICTED BY IDOCK:   -2.56 KCAL/MOL
REMARK 924 INTRA-LIGAND FREE ENERGY PREDICTED BY IDOCK:   -0.09 KCAL/MOL
REMARK 927      BINDING AFFINITY PREDICTED BY RF-SCORE:    0.00 PKD
ROOT
HETATM    1  O   UNL     1      -8.377   6.331  65.767  1.00  0.00    -0.132 OA 
HETATM    2  C   UNL     1      -9.082   5.316  65.215  1.00  0.00    -0.089 C  
HETATM    3  C   UNL     1     -10.343   4.902  65.947  1.00  0.00    -0.271 C  
HETATM    4  O   UNL     1      -8.744   4.816  64.151  1.00  0.00    -0.141 OA 
ENDROOT
BRANCH   3   5
HETATM    5  C   UNL     1     -10.311   5.121  67.442  1.00  0.00    -0.209 A  
HETATM    6  C   UNL     1      -9.632   4.221  68.277  1.00  0.00    -0.197 A  
HETATM    7  C   UNL     1      -9.705   4.357  69.663  1.00  0.00    -0.289 A  
HETATM    8  C   UNL     1     -10.435   5.402  70.224  1.00  0.00    -0.355 A  
HETATM    9  C   UNL     1     -11.086   6.319  69.401  1.00  0.00    -0.477 A  
HETATM   10  C   UNL     1     -11.028   6.179  68.015  1.00  0.00    -0.399 A  
ENDBRANCH   3   5
TORSDOF 1
ENDMDL
MODEL      122
REMARK 921   NORMALIZED FREE ENERGY PREDICTED BY IDOCK:   -2.56 KCAL/MOL
REMARK 922        TOTAL FREE ENERGY PREDICTED BY IDOCK:   -2.64 KCAL/MOL
REMARK 923 INTER-LIGAND FREE ENERGY PREDICTED BY IDOCK:   -2.58 KCAL/MOL
REMARK 924 INTRA-LIGAND FREE ENERGY PREDICTED BY IDOCK:   -0.06 KCAL/MOL
REMARK 927      BINDING AFFINITY PREDICTED BY RF-SCORE:    0.00 PKD
ROOT
HETATM    1  O   UNL     1      -7.403   5.279  70.111  1.00  0.00    -0.063 OA 
HETATM    2  C   UNL     1      -7.902   4.060  69.800  1.00  0.00    -0.052 C  
HETATM    3  C   UNL     1      -9.401   3.986  69.585  1.00  0.00    -0.243 C  
HETATM    4  O   UNL     1      -7.166   3.097  69.640  1.00  0.00    -0.044 OA 
ENDROOT
BRANCH   3   5
HETATM    5  C   UNL     1     -10.206   4.992  70.374  1.00  0.00    -0.324 A  
HETATM    6  C   UNL     1     -10.282   4.903  71.773  1.00  0.00    -0.268 A  
HETATM    7  C   UNL     1     -11.121   5.757  72.486  1.00  0.00    -0.327 A  
HETATM    8  C   UNL     1     -11.872   6.719  71.815  1.00  0.00    -0.371 A  
HETATM    9  C   UNL     1     -11.779   6.836  70.430  1.00  0.00    -0.418 A  
HETATM   10  C   UNL     1     -10.952   5.974  69.710  1.00  0.00    -0.471 A  
ENDBRANCH   3   5
TORSDOF 1
ENDMDL
MODEL      123
REMARK 921   NORMALIZED FREE ENERGY PREDICTED BY IDOCK:   -2.55 KCAL/MOL
REMARK 922        TOTAL FREE ENERGY PREDICTED BY IDOCK:   -2.63 KCAL/MOL
REMARK 923 INTER-LIGAND FREE ENERGY PREDICTED BY IDOCK:   -2.54 KCAL/MOL
REMARK 924 INTRA-LIGAND FREE ENERGY PREDICTED BY IDOCK:   -0.09 KCAL/MOL
REMARK 927      BINDING AFFINITY PREDICTED BY RF-SCORE:    0.00 PKD
ROOT
HETATM    1  O   UNL     1      -8.639   7.744  68.692  1.00  0.00    -0.128 OA 
HETATM    2  C   UNL     1      -9.464   7.222  67.754  1.00  0.00    -0.131 C  
HETATM    3  C   UNL     1     -10.756   6.615  68.264  1.00  0.00    -0.317 C  
HETATM    4  O   UNL     1      -9.199   7.303  66.563  1.00  0.00    -0.148 OA 
ENDROOT
BRANCH   3   5
HETATM    5  C   UNL     1     -10.681   6.040  69.659  1.00  0.00    -0.405 A  
HETATM    6  C   UNL     1     -10.034   4.816  69.889  1.00  0.00    -0.306 A  
HETATM    7  C   UNL     1     -10.071   4.230  71.153  1.00  0.00    -0.173 A  
HETATM    8  C   UNL     1     -10.732   4.869  72.200  1.00  0.00    -0.193 A  
HETATM    9  C   UNL     1     -11.349   6.100  71.988  1.00  0.00    -0.348 A  
HETATM   10  C   UNL     1     -11.327   6.684  70.722  1.00  0.00    -0.389 A  
ENDBRANCH   3   5
TORSDOF 1
ENDMDL
MODEL      124
REMARK 921   NORMALIZED FREE ENERGY PREDICTED BY IDOCK:   -2.53 KCAL/MOL
REMARK 922        TOTAL FREE ENERGY PREDICTED BY IDOCK:   -2.60 KCAL/MOL
REMARK 923 INTER-LIGAND FREE ENERGY PREDICTED BY IDOCK:   -2.57 KCAL/MOL
REMARK 924 INTRA-LIGAND FREE ENERGY PREDICTED BY IDOCK:   -0.03 KCAL/MOL
REMARK 927      BINDING AFFINITY PREDICTED BY RF-SCORE:    0.00 PKD
ROOT
HETATM    1  O   UNL     1     -11.327  15.115  69.900  1.00  0.00    -0.251 OA 
HETATM    2  C   UNL     1     -11.360  14.072  69.037  1.00  0.00    -0.281 C  
HETATM    3  C   UNL     1     -10.302  14.069  67.951  1.00  0.00    -0.239 C  
HETATM    4  O   UNL     1     -12.161  13.160  69.179  1.00  0.00    -0.294 OA 
ENDROOT
BRANCH   3   5
HETATM    5  C   UNL     1      -9.831  15.439  67.520  1.00  0.00    -0.217 A  
HETATM    6  C   UNL     1      -8.701  16.021  68.114  1.00  0.00    -0.173 A  
HETATM    7  C   UNL     1      -8.340  17.331  67.801  1.00  0.00    -0.212 A  
HETATM    8  C   UNL     1      -9.088  18.060  66.879  1.00  0.00    -0.273 A  
HETATM    9  C   UNL     1     -10.193  17.478  66.260  1.00  0.00    -0.356 A  
HETATM   10  C   UNL     1     -10.566  16.173  66.581  1.00  0.00    -0.274 A  
ENDBRANCH   3   5
TORSDOF 1
ENDMDL
MODEL      125
REMARK 921   NORMALIZED FREE ENERGY PREDICTED BY IDOCK:   -2.53 KCAL/MOL
REMARK 922        TOTAL FREE ENERGY PREDICTED BY IDOCK:   -2.60 KCAL/MOL
REMARK 923 INTER-LIGAND FREE ENERGY PREDICTED BY IDOCK:   -2.51 KCAL/MOL
REMARK 924 INTRA-LIGAND FREE ENERGY PREDICTED BY IDOCK:   -0.09 KCAL/MOL
REMARK 927      BINDING AFFINITY PREDICTED BY RF-SCORE:    0.00 PKD
ROOT
HETATM    1  O   UNL     1     -11.680   8.508  70.725  1.00  0.00    -0.277 OA 
HETATM    2  C   UNL     1     -12.063   7.211  70.709  1.00  0.00    -0.288 C  
HETATM    3  C   UNL     1     -11.086   6.233  70.087  1.00  0.00    -0.443 C  
HETATM    4  O   UNL     1     -13.110   6.854  71.230  1.00  0.00    -0.332 OA 
ENDROOT
BRANCH   3   5
HETATM    5  C   UNL     1     -10.213   6.813  68.999  1.00  0.00    -0.191 A  
HETATM    6  C   UNL     1     -10.716   6.985  67.700  1.00  0.00    -0.331 A  
HETATM    7  C   UNL     1      -9.874   7.406  66.672  1.00  0.00    -0.263 A  
HETATM    8  C   UNL     1      -8.533   7.679  66.934  1.00  0.00    -0.126 A  
HETATM    9  C   UNL     1      -8.033   7.542  68.228  1.00  0.00    -0.123 A  
HETATM   10  C   UNL     1      -8.868   7.107  69.257  1.00  0.00    -0.136 A  
ENDBRANCH   3   5
TORSDOF 1
ENDMDL
MODEL      126
REMARK 921   NORMALIZED FREE ENERGY PREDICTED BY IDOCK:   -2.52 KCAL/MOL
REMARK 922        TOTAL FREE ENERGY PREDICTED BY IDOCK:   -2.60 KCAL/MOL
REMARK 923 INTER-LIGAND FREE ENERGY PREDICTED BY IDOCK:   -3.43 KCAL/MOL
REMARK 924 INTRA-LIGAND FREE ENERGY PREDICTED BY IDOCK:    0.83 KCAL/MOL
REMARK 927      BINDING AFFINITY PREDICTED BY RF-SCORE:    0.00 PKD
ROOT
HETATM    1  O   UNL     1     -13.655  11.662  72.188  1.00  0.00    -0.332 OA 
HETATM    2  C   UNL     1     -13.088  12.852  71.880  1.00  0.00    -0.373 C  
HETATM    3  C   UNL     1     -12.349  12.918  70.558  1.00  0.00    -0.362 C  
HETATM    4  O   UNL     1     -13.229  13.826  72.604  1.00  0.00    -0.502 OA 
ENDROOT
BRANCH   3   5
HETATM    5  C   UNL     1     -11.741  11.611  70.104  1.00  0.00    -0.381 A  
HETATM    6  C   UNL     1     -11.772  10.484  70.941  1.00  0.00    -0.431 A  
HETATM    7  C   UNL     1     -11.106   9.317  70.571  1.00  0.00    -0.317 A  
HETATM    8  C   UNL     1     -10.424   9.256  69.357  1.00  0.00    -0.229 A  
HETATM    9  C   UNL     1     -10.415  10.360  68.506  1.00  0.00    -0.210 A  
HETATM   10  C   UNL     1     -11.068  11.535  68.878  1.00  0.00    -0.288 A  
ENDBRANCH   3   5
TORSDOF 1
ENDMDL
MODEL      127
REMARK 921   NORMALIZED FREE ENERGY PREDICTED BY IDOCK:   -2.51 KCAL/MOL
REMARK 922        TOTAL FREE ENERGY PREDICTED BY IDOCK:   -2.58 KCAL/MOL
REMARK 923 INTER-LIGAND FREE ENERGY PREDICTED BY IDOCK:   -2.52 KCAL/MOL
REMARK 924 INTRA-LIGAND FREE ENERGY PREDICTED BY IDOCK:   -0.06 KCAL/MOL
REMARK 927      BINDING AFFINITY PREDICTED BY RF-SCORE:    0.00 PKD
ROOT
HETATM    1  O   UNL     1      -7.319  13.840  69.151  1.00  0.00    -0.082 OA 
HETATM    2  C   UNL     1      -7.216  14.012  67.812  1.00  0.00    -0.165 C  
HETATM    3  C   UNL     1      -8.376  14.715  67.137  1.00  0.00    -0.236 C  
HETATM    4  O   UNL     1      -6.208  13.674  67.207  1.00  0.00    -0.313 OA 
ENDROOT
BRANCH   3   5
HETATM    5  C   UNL     1      -9.716  14.517  67.807  1.00  0.00    -0.216 A  
HETATM    6  C   UNL     1     -10.309  15.563  68.531  1.00  0.00    -0.225 A  
HETATM    7  C   UNL     1     -11.484  15.342  69.248  1.00  0.00    -0.334 A  
HETATM    8  C   UNL     1     -12.087  14.085  69.231  1.00  0.00    -0.380 A  
HETATM    9  C   UNL     1     -11.522  13.050  68.489  1.00  0.00    -0.340 A  
HETATM   10  C   UNL     1     -10.339  13.263  67.781  1.00  0.00    -0.233 A  
ENDBRANCH   3   5
TORSDOF 1
ENDMDL
MODEL      128
REMARK 921   NORMALIZED FREE ENERGY PREDICTED BY IDOCK:   -2.49 KCAL/MOL
REMARK 922        TOTAL FREE ENERGY PREDICTED BY IDOCK:   -2.56 KCAL/MOL
REMARK 923 INTER-LIGAND FREE ENERGY PREDICTED BY IDOCK:   -2.49 KCAL/MOL
REMARK 924 INTRA-LIGAND FREE ENERGY PREDICTED BY IDOCK:   -0.06 KCAL/MOL
REMARK 927      BINDING AFFINITY PREDICTED BY RF-SCORE:    0.00 PKD
ROOT
HETATM    1  O   UNL     1      -9.702  10.236  63.622  1.00  0.00    -0.301 OA 
HETATM    2  C   UNL     1     -10.553  11.181  64.085  1.00  0.00    -0.368 C  
HETATM    3  C   UNL     1     -10.337  11.633  65.516  1.00  0.00    -0.309 C  
HETATM    4  O   UNL     1     -11.400  11.680  63.357  1.00  0.00    -0.395 OA 
ENDROOT
BRANCH   3   5
HETATM    5  C   UNL     1      -9.746  10.585  66.430  1.00  0.00    -0.245 A  
HETATM    6  C   UNL     1      -8.404  10.669  66.833  1.00  0.00    -0.125 A  
HETATM    7  C   UNL     1      -7.829   9.639  67.577  1.00  0.00    -0.095 A  
HETATM    8  C   UNL     1      -8.592   8.531  67.942  1.00  0.00    -0.134 A  
HETATM    9  C   UNL     1      -9.933   8.455  67.573  1.00  0.00    -0.259 A  
HETATM   10  C   UNL     1     -10.509   9.476  66.817  1.00  0.00    -0.263 A  
ENDBRANCH   3   5
TORSDOF 1
ENDMDL
MODEL      129
REMARK 921   NORMALIZED FREE ENERGY PREDICTED BY IDOCK:   -2.49 KCAL/MOL
REMARK 922        TOTAL FREE ENERGY PREDICTED BY IDOCK:   -2.56 KCAL/MOL
REMARK 923 INTER-LIGAND FREE ENERGY PREDICTED BY IDOCK:   -2.47 KCAL/MOL
REMARK 924 INTRA-LIGAND FREE ENERGY PREDICTED BY IDOCK:   -0.09 KCAL/MOL
REMARK 927      BINDING AFFINITY PREDICTED BY RF-SCORE:    0.00 PKD
ROOT
HETATM    1  O   UNL     1     -10.117  11.619  68.921  1.00  0.00    -0.181 OA 
HETATM    2  C   UNL     1     -10.944  12.077  67.952  1.00  0.00    -0.220 C  
HETATM    3  C   UNL     1     -10.384  13.162  67.053  1.00  0.00    -0.249 C  
HETATM    4  O   UNL     1     -12.051  11.588  67.783  1.00  0.00    -0.626 OA 
ENDROOT
BRANCH   3   5
HETATM    5  C   UNL     1      -9.355  14.058  67.703  1.00  0.00    -0.203 A  
HETATM    6  C   UNL     1      -9.745  15.016  68.651  1.00  0.00    -0.219 A  
HETATM    7  C   UNL     1      -8.813  15.921  69.158  1.00  0.00    -0.253 A  
HETATM    8  C   UNL     1      -7.484  15.862  68.742  1.00  0.00    -0.170 A  
HETATM    9  C   UNL     1      -7.083  14.893  67.825  1.00  0.00    -0.192 A  
HETATM   10  C   UNL     1      -8.014  13.995  67.304  1.00  0.00    -0.157 A  
ENDBRANCH   3   5
TORSDOF 1
ENDMDL
MODEL      130
REMARK 921   NORMALIZED FREE ENERGY PREDICTED BY IDOCK:   -2.44 KCAL/MOL
REMARK 922        TOTAL FREE ENERGY PREDICTED BY IDOCK:   -2.51 KCAL/MOL
REMARK 923 INTER-LIGAND FREE ENERGY PREDICTED BY IDOCK:   -2.47 KCAL/MOL
REMARK 924 INTRA-LIGAND FREE ENERGY PREDICTED BY IDOCK:   -0.03 KCAL/MOL
REMARK 927      BINDING AFFINITY PREDICTED BY RF-SCORE:    0.00 PKD
ROOT
HETATM    1  O   UNL     1      -9.592   7.503  67.668  1.00  0.00    -0.138 OA 
HETATM    2  C   UNL     1      -8.400   8.106  67.889  1.00  0.00    -0.129 C  
HETATM    3  C   UNL     1      -8.328   9.022  69.095  1.00  0.00    -0.123 C  
HETATM    4  O   UNL     1      -7.429   7.863  67.187  1.00  0.00    -0.089 OA 
ENDROOT
BRANCH   3   5
HETATM    5  C   UNL     1      -9.632   9.689  69.465  1.00  0.00    -0.211 A  
HETATM    6  C   UNL     1     -10.294   9.344  70.653  1.00  0.00    -0.349 A  
HETATM    7  C   UNL     1     -11.554   9.871  70.933  1.00  0.00    -0.456 A  
HETATM    8  C   UNL     1     -12.152  10.761  70.043  1.00  0.00    -0.423 A  
HETATM    9  C   UNL     1     -11.487  11.134  68.876  1.00  0.00    -0.363 A  
HETATM   10  C   UNL     1     -10.233  10.598  68.585  1.00  0.00    -0.196 A  
ENDBRANCH   3   5
TORSDOF 1
ENDMDL
MODEL      131
REMARK 921   NORMALIZED FREE ENERGY PREDICTED BY IDOCK:   -2.44 KCAL/MOL
REMARK 922        TOTAL FREE ENERGY PREDICTED BY IDOCK:   -2.51 KCAL/MOL
REMARK 923 INTER-LIGAND FREE ENERGY PREDICTED BY IDOCK:   -2.52 KCAL/MOL
REMARK 924 INTRA-LIGAND FREE ENERGY PREDICTED BY IDOCK:    0.02 KCAL/MOL
REMARK 927      BINDING AFFINITY PREDICTED BY RF-SCORE:    0.00 PKD
ROOT
HETATM    1  O   UNL     1      -8.467  15.246  69.640  1.00  0.00    -0.233 OA 
HETATM    2  C   UNL     1      -7.279  15.821  69.339  1.00  0.00    -0.217 C  
HETATM    3  C   UNL     1      -7.344  17.123  68.565  1.00  0.00    -0.231 C  
HETATM    4  O   UNL     1      -6.226  15.342  69.734  1.00  0.00    -0.136 OA 
ENDROOT
BRANCH   3   5
HETATM    5  C   UNL     1      -8.543  17.262  67.656  1.00  0.00    -0.218 A  
HETATM    6  C   UNL     1      -8.765  16.336  66.625  1.00  0.00    -0.294 A  
HETATM    7  C   UNL     1      -9.801  16.534  65.714  1.00  0.00    -0.275 A  
HETATM    8  C   UNL     1     -10.636  17.643  65.837  1.00  0.00    -0.203 A  
HETATM    9  C   UNL     1     -10.443  18.550  66.877  1.00  0.00    -0.434 A  
HETATM   10  C   UNL     1      -9.399  18.364  67.782  1.00  0.00    -0.283 A  
ENDBRANCH   3   5
TORSDOF 1
ENDMDL
MODEL      132
REMARK 921   NORMALIZED FREE ENERGY PREDICTED BY IDOCK:   -2.44 KCAL/MOL
REMARK 922        TOTAL FREE ENERGY PREDICTED BY IDOCK:   -2.51 KCAL/MOL
REMARK 923 INTER-LIGAND FREE ENERGY PREDICTED BY IDOCK:   -2.44 KCAL/MOL
REMARK 924 INTRA-LIGAND FREE ENERGY PREDICTED BY IDOCK:   -0.07 KCAL/MOL
REMARK 927      BINDING AFFINITY PREDICTED BY RF-SCORE:    0.00 PKD
ROOT
HETATM    1  O   UNL     1      -8.958   9.149  64.597  1.00  0.00    -0.192 OA 
HETATM    2  C   UNL     1      -9.776   9.963  65.304  1.00  0.00    -0.313 C  
HETATM    3  C   UNL     1      -9.916   9.650  66.781  1.00  0.00    -0.289 C  
HETATM    4  O   UNL     1     -10.311  10.930  64.782  1.00  0.00    -0.308 OA 
ENDROOT
BRANCH   3   5
HETATM    5  C   UNL     1      -9.748   8.193  67.141  1.00  0.00    -0.259 A  
HETATM    6  C   UNL     1      -8.529   7.724  67.655  1.00  0.00    -0.121 A  
HETATM    7  C   UNL     1      -8.336   6.360  67.871  1.00  0.00    -0.118 A  
HETATM    8  C   UNL     1      -9.362   5.458  67.599  1.00  0.00    -0.122 A  
HETATM    9  C   UNL     1     -10.587   5.918  67.118  1.00  0.00    -0.373 A  
HETATM   10  C   UNL     1     -10.779   7.280  66.887  1.00  0.00    -0.346 A  
ENDBRANCH   3   5
TORSDOF 1
ENDMDL
MODEL      133
REMARK 921   NORMALIZED FREE ENERGY PREDICTED BY IDOCK:   -2.41 KCAL/MOL
REMARK 922        TOTAL FREE ENERGY PREDICTED BY IDOCK:   -2.48 KCAL/MOL
REMARK 923 INTER-LIGAND FREE ENERGY PREDICTED BY IDOCK:   -2.43 KCAL/MOL
REMARK 924 INTRA-LIGAND FREE ENERGY PREDICTED BY IDOCK:   -0.05 KCAL/MOL
REMARK 927      BINDING AFFINITY PREDICTED BY RF-SCORE:    0.00 PKD
ROOT
HETATM    1  O   UNL     1     -10.077   8.788  67.163  1.00  0.00    -0.205 OA 
HETATM    2  C   UNL     1     -10.754   9.675  67.930  1.00  0.00    -0.247 C  
HETATM    3  C   UNL     1     -10.540   9.564  69.427  1.00  0.00    -0.235 C  
HETATM    4  O   UNL     1     -11.441  10.552  67.427  1.00  0.00    -0.405 OA 
ENDROOT
BRANCH   3   5
HETATM    5  C   UNL     1     -10.221   8.172  69.921  1.00  0.00    -0.204 A  
HETATM    6  C   UNL     1      -8.889   7.773  70.110  1.00  0.00    -0.145 A  
HETATM    7  C   UNL     1      -8.593   6.453  70.449  1.00  0.00    -0.142 A  
HETATM    8  C   UNL     1      -9.621   5.530  70.624  1.00  0.00    -0.221 A  
HETATM    9  C   UNL     1     -10.948   5.926  70.470  1.00  0.00    -0.362 A  
HETATM   10  C   UNL     1     -11.249   7.241  70.117  1.00  0.00    -0.264 A  
ENDBRANCH   3   5
TORSDOF 1
ENDMDL
MODEL      134
REMARK 921   NORMALIZED FREE ENERGY PREDICTED BY IDOCK:   -2.40 KCAL/MOL
REMARK 922        TOTAL FREE ENERGY PREDICTED BY IDOCK:   -2.46 KCAL/MOL
REMARK 923 INTER-LIGAND FREE ENERGY PREDICTED BY IDOCK:   -2.40 KCAL/MOL
REMARK 924 INTRA-LIGAND FREE ENERGY PREDICTED BY IDOCK:   -0.07 KCAL/MOL
REMARK 927      BINDING AFFINITY PREDICTED BY RF-SCORE:    0.00 PKD
ROOT
HETATM    1  O   UNL     1      -8.515   5.825  67.052  1.00  0.00    -0.108 OA 
HETATM    2  C   UNL     1      -9.758   5.292  66.983  1.00  0.00    -0.153 C  
HETATM    3  C   UNL     1     -10.911   6.275  67.040  1.00  0.00    -0.458 C  
HETATM    4  O   UNL     1      -9.923   4.092  66.819  1.00  0.00    -0.218 OA 
ENDROOT
BRANCH   3   5
HETATM    5  C   UNL     1     -10.633   7.535  67.825  1.00  0.00    -0.274 A  
HETATM    6  C   UNL     1     -10.369   8.743  67.160  1.00  0.00    -0.364 A  
HETATM    7  C   UNL     1      -9.994   9.875  67.884  1.00  0.00    -0.190 A  
HETATM    8  C   UNL     1      -9.903   9.817  69.273  1.00  0.00    -0.208 A  
HETATM    9  C   UNL     1     -10.195   8.631  69.943  1.00  0.00    -0.206 A  
HETATM   10  C   UNL     1     -10.556   7.492  69.223  1.00  0.00    -0.215 A  
ENDBRANCH   3   5
TORSDOF 1
ENDMDL
MODEL      135
REMARK 921   NORMALIZED FREE ENERGY PREDICTED BY IDOCK:   -2.39 KCAL/MOL
REMARK 922        TOTAL FREE ENERGY PREDICTED BY IDOCK:   -2.45 KCAL/MOL
REMARK 923 INTER-LIGAND FREE ENERGY PREDICTED BY IDOCK:   -2.41 KCAL/MOL
REMARK 924 INTRA-LIGAND FREE ENERGY PREDICTED BY IDOCK:   -0.05 KCAL/MOL
REMARK 927      BINDING AFFINITY PREDICTED BY RF-SCORE:    0.00 PKD
ROOT
HETATM    1  O   UNL     1     -12.544  11.149  68.667  1.00  0.00    -0.318 OA 
HETATM    2  C   UNL     1     -11.882  11.441  67.524  1.00  0.00    -0.022 C  
HETATM    3  C   UNL     1     -10.864  10.418  67.060  1.00  0.00    -0.269 C  
HETATM    4  O   UNL     1     -12.148  12.445  66.878  1.00  0.00    -0.564 OA 
ENDROOT
BRANCH   3   5
HETATM    5  C   UNL     1     -10.216   9.620  68.168  1.00  0.00    -0.225 A  
HETATM    6  C   UNL     1      -9.370  10.248  69.094  1.00  0.00    -0.214 A  
HETATM    7  C   UNL     1      -8.679   9.490  70.039  1.00  0.00    -0.242 A  
HETATM    8  C   UNL     1      -8.843   8.108  70.082  1.00  0.00    -0.145 A  
HETATM    9  C   UNL     1      -9.706   7.480  69.186  1.00  0.00    -0.166 A  
HETATM   10  C   UNL     1     -10.389   8.231  68.230  1.00  0.00    -0.242 A  
ENDBRANCH   3   5
TORSDOF 1
ENDMDL
MODEL      136
REMARK 921   NORMALIZED FREE ENERGY PREDICTED BY IDOCK:   -2.35 KCAL/MOL
REMARK 922        TOTAL FREE ENERGY PREDICTED BY IDOCK:   -2.41 KCAL/MOL
REMARK 923 INTER-LIGAND FREE ENERGY PREDICTED BY IDOCK:   -2.38 KCAL/MOL
REMARK 924 INTRA-LIGAND FREE ENERGY PREDICTED BY IDOCK:   -0.03 KCAL/MOL
REMARK 927      BINDING AFFINITY PREDICTED BY RF-SCORE:    0.00 PKD
ROOT
HETATM    1  O   UNL     1      -9.362   7.981  66.441  1.00  0.00    -0.185 OA 
HETATM    2  C   UNL     1      -9.245   9.184  65.832  1.00  0.00    -0.227 C  
HETATM    3  C   UNL     1      -9.008  10.374  66.742  1.00  0.00    -0.153 C  
HETATM    4  O   UNL     1      -9.265   9.281  64.613  1.00  0.00    -0.190 OA 
ENDROOT
BRANCH   3   5
HETATM    5  C   UNL     1      -9.598  10.242  68.126  1.00  0.00    -0.151 A  
HETATM    6  C   UNL     1      -8.823   9.744  69.185  1.00  0.00    -0.160 A  
HETATM    7  C   UNL     1      -9.404   9.510  70.430  1.00  0.00    -0.311 A  
HETATM    8  C   UNL     1     -10.753   9.791  70.636  1.00  0.00    -0.394 A  
HETATM    9  C   UNL     1     -11.522  10.315  69.599  1.00  0.00    -0.297 A  
HETATM   10  C   UNL     1     -10.949  10.538  68.347  1.00  0.00    -0.310 A  
ENDBRANCH   3   5
TORSDOF 1
ENDMDL
MODEL      137
REMARK 921   NORMALIZED FREE ENERGY PREDICTED BY IDOCK:   -2.32 KCAL/MOL
REMARK 922        TOTAL FREE ENERGY PREDICTED BY IDOCK:   -2.37 KCAL/MOL
REMARK 923 INTER-LIGAND FREE ENERGY PREDICTED BY IDOCK:   -2.29 KCAL/MOL
REMARK 924 INTRA-LIGAND FREE ENERGY PREDICTED BY IDOCK:   -0.09 KCAL/MOL
REMARK 927      BINDING AFFINITY PREDICTED BY RF-SCORE:    0.00 PKD
ROOT
HETATM    1  O   UNL     1     -10.965   5.606  69.316  1.00  0.00    -0.304 OA 
HETATM    2  C   UNL     1     -10.004   4.659  69.426  1.00  0.00    -0.179 C  
HETATM    3  C   UNL     1      -9.507   4.372  70.829  1.00  0.00    -0.243 C  
HETATM    4  O   UNL     1      -9.618   4.032  68.450  1.00  0.00    -0.161 OA 
ENDROOT
BRANCH   3   5
HETATM    5  C   UNL     1      -9.574   5.546  71.779  1.00  0.00    -0.183 A  
HETATM    6  C   UNL     1      -8.670   6.613  71.655  1.00  0.00    -0.130 A  
HETATM    7  C   UNL     1      -8.655   7.633  72.604  1.00  0.00    -0.171 A  
HETATM    8  C   UNL     1      -9.554   7.610  73.669  1.00  0.00    -0.333 A  
HETATM    9  C   UNL     1     -10.476   6.572  73.781  1.00  0.00    -0.335 A  
HETATM   10  C   UNL     1     -10.485   5.541  72.842  1.00  0.00    -0.250 A  
ENDBRANCH   3   5
TORSDOF 1
ENDMDL
MODEL      138
REMARK 921   NORMALIZED FREE ENERGY PREDICTED BY IDOCK:   -2.27 KCAL/MOL
REMARK 922        TOTAL FREE ENERGY PREDICTED BY IDOCK:   -2.33 KCAL/MOL
REMARK 923 INTER-LIGAND FREE ENERGY PREDICTED BY IDOCK:   -2.26 KCAL/MOL
REMARK 924 INTRA-LIGAND FREE ENERGY PREDICTED BY IDOCK:   -0.07 KCAL/MOL
REMARK 927      BINDING AFFINITY PREDICTED BY RF-SCORE:    0.00 PKD
ROOT
HETATM    1  O   UNL     1     -11.160   6.869  72.425  1.00  0.00    -0.242 OA 
HETATM    2  C   UNL     1     -12.006   7.049  71.384  1.00  0.00    -0.340 C  
HETATM    3  C   UNL     1     -11.619   6.371  70.084  1.00  0.00    -0.449 C  
HETATM    4  O   UNL     1     -13.051   7.669  71.518  1.00  0.00    -0.340 OA 
ENDROOT
BRANCH   3   5
HETATM    5  C   UNL     1     -10.132   6.200  69.875  1.00  0.00    -0.227 A  
HETATM    6  C   UNL     1      -9.524   4.954  70.091  1.00  0.00    -0.240 A  
HETATM    7  C   UNL     1      -8.137   4.827  70.015  1.00  0.00    -0.069 A  
HETATM    8  C   UNL     1      -7.351   5.935  69.703  1.00  0.00    -0.075 A  
HETATM    9  C   UNL     1      -7.950   7.168  69.456  1.00  0.00    -0.128 A  
HETATM   10  C   UNL     1      -9.335   7.303  69.544  1.00  0.00    -0.152 A  
ENDBRANCH   3   5
TORSDOF 1
ENDMDL
MODEL      139
REMARK 921   NORMALIZED FREE ENERGY PREDICTED BY IDOCK:   -2.26 KCAL/MOL
REMARK 922        TOTAL FREE ENERGY PREDICTED BY IDOCK:   -2.32 KCAL/MOL
REMARK 923 INTER-LIGAND FREE ENERGY PREDICTED BY IDOCK:   -2.24 KCAL/MOL
REMARK 924 INTRA-LIGAND FREE ENERGY PREDICTED BY IDOCK:   -0.08 KCAL/MOL
REMARK 927      BINDING AFFINITY PREDICTED BY RF-SCORE:    0.00 PKD
ROOT
HETATM    1  O   UNL     1     -10.230   6.357  66.688  1.00  0.00    -0.187 OA 
HETATM    2  C   UNL     1      -9.817   7.622  66.933  1.00  0.00    -0.234 C  
HETATM    3  C   UNL     1      -9.227   7.879  68.305  1.00  0.00    -0.137 C  
HETATM    4  O   UNL     1      -9.864   8.482  66.065  1.00  0.00    -0.212 OA 
ENDROOT
BRANCH   3   5
HETATM    5  C   UNL     1      -9.770   6.998  69.406  1.00  0.00    -0.159 A  
HETATM    6  C   UNL     1     -10.988   7.308  70.029  1.00  0.00    -0.273 A  
HETATM    7  C   UNL     1     -11.427   6.564  71.123  1.00  0.00    -0.380 A  
HETATM    8  C   UNL     1     -10.666   5.493  71.590  1.00  0.00    -0.296 A  
HETATM    9  C   UNL     1      -9.471   5.158  70.957  1.00  0.00    -0.214 A  
HETATM   10  C   UNL     1      -9.021   5.909  69.870  1.00  0.00    -0.144 A  
ENDBRANCH   3   5
TORSDOF 1
ENDMDL
MODEL      140
REMARK 921   NORMALIZED FREE ENERGY PREDICTED BY IDOCK:   -2.25 KCAL/MOL
REMARK 922        TOTAL FREE ENERGY PREDICTED BY IDOCK:   -2.31 KCAL/MOL
REMARK 923 INTER-LIGAND FREE ENERGY PREDICTED BY IDOCK:   -2.22 KCAL/MOL
REMARK 924 INTRA-LIGAND FREE ENERGY PREDICTED BY IDOCK:   -0.09 KCAL/MOL
REMARK 927      BINDING AFFINITY PREDICTED BY RF-SCORE:    0.00 PKD
ROOT
HETATM    1  O   UNL     1      -7.164  12.101  67.627  1.00  0.00    -0.101 OA 
HETATM    2  C   UNL     1      -7.482  11.339  66.554  1.00  0.00    -0.105 C  
HETATM    3  C   UNL     1      -8.952  11.281  66.187  1.00  0.00    -0.210 C  
HETATM    4  O   UNL     1      -6.615  10.790  65.889  1.00  0.00    -0.126 OA 
ENDROOT
BRANCH   3   5
HETATM    5  C   UNL     1      -9.903  11.447  67.349  1.00  0.00    -0.199 A  
HETATM    6  C   UNL     1     -10.184  10.365  68.198  1.00  0.00    -0.187 A  
HETATM    7  C   UNL     1     -11.153  10.488  69.193  1.00  0.00    -0.302 A  
HETATM    8  C   UNL     1     -11.830  11.693  69.365  1.00  0.00    -0.408 A  
HETATM    9  C   UNL     1     -11.535  12.782  68.547  1.00  0.00    -0.344 A  
HETATM   10  C   UNL     1     -10.577  12.660  67.541  1.00  0.00    -0.236 A  
ENDBRANCH   3   5
TORSDOF 1
ENDMDL
MODEL      141
REMARK 921   NORMALIZED FREE ENERGY PREDICTED BY IDOCK:   -2.23 KCAL/MOL
REMARK 922        TOTAL FREE ENERGY PREDICTED BY IDOCK:   -2.29 KCAL/MOL
REMARK 923 INTER-LIGAND FREE ENERGY PREDICTED BY IDOCK:   -2.25 KCAL/MOL
REMARK 924 INTRA-LIGAND FREE ENERGY PREDICTED BY IDOCK:   -0.04 KCAL/MOL
REMARK 927      BINDING AFFINITY PREDICTED BY RF-SCORE:    0.00 PKD
ROOT
HETATM    1  O   UNL     1     -11.563   8.556  71.635  1.00  0.00    -0.265 OA 
HETATM    2  C   UNL     1     -11.016   9.284  70.634  1.00  0.00    -0.276 C  
HETATM    3  C   UNL     1     -10.455   8.498  69.466  1.00  0.00    -0.222 C  
HETATM    4  O   UNL     1     -11.039  10.506  70.655  1.00  0.00    -0.292 OA 
ENDROOT
BRANCH   3   5
HETATM    5  C   UNL     1      -9.941   7.121  69.815  1.00  0.00    -0.180 A  
HETATM    6  C   UNL     1     -10.772   5.997  69.683  1.00  0.00    -0.405 A  
HETATM    7  C   UNL     1     -10.336   4.747  70.119  1.00  0.00    -0.168 A  
HETATM    8  C   UNL     1      -9.064   4.603  70.669  1.00  0.00    -0.181 A  
HETATM    9  C   UNL     1      -8.220   5.707  70.774  1.00  0.00    -0.118 A  
HETATM   10  C   UNL     1      -8.657   6.963  70.352  1.00  0.00    -0.143 A  
ENDBRANCH   3   5
TORSDOF 1
ENDMDL
MODEL      142
REMARK 921   NORMALIZED FREE ENERGY PREDICTED BY IDOCK:   -2.22 KCAL/MOL
REMARK 922        TOTAL FREE ENERGY PREDICTED BY IDOCK:   -2.27 KCAL/MOL
REMARK 923 INTER-LIGAND FREE ENERGY PREDICTED BY IDOCK:   -2.20 KCAL/MOL
REMARK 924 INTRA-LIGAND FREE ENERGY PREDICTED BY IDOCK:   -0.07 KCAL/MOL
REMARK 927      BINDING AFFINITY PREDICTED BY RF-SCORE:    0.00 PKD
ROOT
HETATM    1  O   UNL     1      -6.616   9.627  68.845  1.00  0.00    -0.046 OA 
HETATM    2  C   UNL     1      -7.439   9.854  69.895  1.00  0.00    -0.154 C  
HETATM    3  C   UNL     1      -8.925   9.739  69.617  1.00  0.00    -0.229 C  
HETATM    4  O   UNL     1      -6.994  10.073  71.013  1.00  0.00    -0.339 OA 
ENDROOT
BRANCH   3   5
HETATM    5  C   UNL     1      -9.334  10.079  68.203  1.00  0.00    -0.137 A  
HETATM    6  C   UNL     1      -9.665   9.061  67.294  1.00  0.00    -0.232 A  
HETATM    7  C   UNL     1      -9.924   9.369  65.960  1.00  0.00    -0.352 A  
HETATM    8  C   UNL     1      -9.878  10.692  65.526  1.00  0.00    -0.316 A  
HETATM    9  C   UNL     1      -9.582  11.712  66.428  1.00  0.00    -0.236 A  
HETATM   10  C   UNL     1      -9.308  11.408  67.762  1.00  0.00    -0.162 A  
ENDBRANCH   3   5
TORSDOF 1
ENDMDL
MODEL      143
REMARK 921   NORMALIZED FREE ENERGY PREDICTED BY IDOCK:   -2.21 KCAL/MOL
REMARK 922        TOTAL FREE ENERGY PREDICTED BY IDOCK:   -2.27 KCAL/MOL
REMARK 923 INTER-LIGAND FREE ENERGY PREDICTED BY IDOCK:   -2.28 KCAL/MOL
REMARK 924 INTRA-LIGAND FREE ENERGY PREDICTED BY IDOCK:    0.01 KCAL/MOL
REMARK 927      BINDING AFFINITY PREDICTED BY RF-SCORE:    0.00 PKD
ROOT
HETATM    1  O   UNL     1      -7.149   4.770  68.125  1.00  0.00    -0.059 OA 
HETATM    2  C   UNL     1      -7.979   3.967  67.419  1.00  0.00    -0.091 C  
HETATM    3  C   UNL     1      -9.460   4.262  67.543  1.00  0.00    -0.216 C  
HETATM    4  O   UNL     1      -7.540   3.099  66.677  1.00  0.00    -0.074 OA 
ENDROOT
BRANCH   3   5
HETATM    5  C   UNL     1      -9.879   4.868  68.862  1.00  0.00    -0.241 A  
HETATM    6  C   UNL     1      -9.662   4.176  70.063  1.00  0.00    -0.282 A  
HETATM    7  C   UNL     1     -10.157   4.682  71.264  1.00  0.00    -0.245 A  
HETATM    8  C   UNL     1     -10.851   5.890  71.280  1.00  0.00    -0.333 A  
HETATM    9  C   UNL     1     -11.044   6.599  70.096  1.00  0.00    -0.384 A  
HETATM   10  C   UNL     1     -10.563   6.091  68.890  1.00  0.00    -0.356 A  
ENDBRANCH   3   5
TORSDOF 1
ENDMDL
MODEL      144
REMARK 921   NORMALIZED FREE ENERGY PREDICTED BY IDOCK:   -2.18 KCAL/MOL
REMARK 922        TOTAL FREE ENERGY PREDICTED BY IDOCK:   -2.23 KCAL/MOL
REMARK 923 INTER-LIGAND FREE ENERGY PREDICTED BY IDOCK:   -2.14 KCAL/MOL
REMARK 924 INTRA-LIGAND FREE ENERGY PREDICTED BY IDOCK:   -0.09 KCAL/MOL
REMARK 927      BINDING AFFINITY PREDICTED BY RF-SCORE:    0.00 PKD
ROOT
HETATM    1  O   UNL     1     -11.274   4.174  64.643  1.00  0.00    -0.331 OA 
HETATM    2  C   UNL     1      -9.965   3.833  64.681  1.00  0.00    -0.199 C  
HETATM    3  C   UNL     1      -9.209   4.222  65.936  1.00  0.00    -0.145 C  
HETATM    4  O   UNL     1      -9.453   3.188  63.777  1.00  0.00    -0.106 OA 
ENDROOT
BRANCH   3   5
HETATM    5  C   UNL     1      -9.723   5.464  66.627  1.00  0.00    -0.174 A  
HETATM    6  C   UNL     1      -9.355   6.737  66.167  1.00  0.00    -0.095 A  
HETATM    7  C   UNL     1      -9.731   7.876  66.878  1.00  0.00    -0.285 A  
HETATM    8  C   UNL     1     -10.494   7.755  68.038  1.00  0.00    -0.244 A  
HETATM    9  C   UNL     1     -10.890   6.496  68.484  1.00  0.00    -0.353 A  
HETATM   10  C   UNL     1     -10.504   5.353  67.784  1.00  0.00    -0.208 A  
ENDBRANCH   3   5
TORSDOF 1
ENDMDL
MODEL      145
REMARK 921   NORMALIZED FREE ENERGY PREDICTED BY IDOCK:   -2.18 KCAL/MOL
REMARK 922        TOTAL FREE ENERGY PREDICTED BY IDOCK:   -2.23 KCAL/MOL
REMARK 923 INTER-LIGAND FREE ENERGY PREDICTED BY IDOCK:   -2.14 KCAL/MOL
REMARK 924 INTRA-LIGAND FREE ENERGY PREDICTED BY IDOCK:   -0.09 KCAL/MOL
REMARK 927      BINDING AFFINITY PREDICTED BY RF-SCORE:    0.00 PKD
ROOT
HETATM    1  O   UNL     1     -10.221   5.226  68.728  1.00  0.00    -0.182 OA 
HETATM    2  C   UNL     1     -10.674   6.047  69.705  1.00  0.00    -0.335 C  
HETATM    3  C   UNL     1     -10.771   7.518  69.350  1.00  0.00    -0.200 C  
HETATM    4  O   UNL     1     -11.043   5.604  70.783  1.00  0.00    -0.241 OA 
ENDROOT
BRANCH   3   5
HETATM    5  C   UNL     1      -9.771   7.990  68.320  1.00  0.00    -0.177 A  
HETATM    6  C   UNL     1      -8.420   8.152  68.664  1.00  0.00    -0.127 A  
HETATM    7  C   UNL     1      -7.524   8.702  67.748  1.00  0.00    -0.097 A  
HETATM    8  C   UNL     1      -7.962   9.072  66.478  1.00  0.00    -0.103 A  
HETATM    9  C   UNL     1      -9.295   8.884  66.118  1.00  0.00    -0.301 A  
HETATM   10  C   UNL     1     -10.198   8.348  67.035  1.00  0.00    -0.377 A  
ENDBRANCH   3   5
TORSDOF 1
ENDMDL
MODEL      146
REMARK 921   NORMALIZED FREE ENERGY PREDICTED BY IDOCK:   -2.15 KCAL/MOL
REMARK 922        TOTAL FREE ENERGY PREDICTED BY IDOCK:   -2.20 KCAL/MOL
REMARK 923 INTER-LIGAND FREE ENERGY PREDICTED BY IDOCK:   -2.15 KCAL/MOL
REMARK 924 INTRA-LIGAND FREE ENERGY PREDICTED BY IDOCK:   -0.05 KCAL/MOL
REMARK 927      BINDING AFFINITY PREDICTED BY RF-SCORE:    0.00 PKD
ROOT
HETATM    1  O   UNL     1      -8.781   5.768  70.720  1.00  0.00    -0.127 OA 
HETATM    2  C   UNL     1      -8.084   6.362  71.716  1.00  0.00    -0.105 C  
HETATM    3  C   UNL     1      -8.888   7.213  72.679  1.00  0.00    -0.143 C  
HETATM    4  O   UNL     1      -6.886   6.160  71.858  1.00  0.00    -0.062 OA 
ENDROOT
BRANCH   3   5
HETATM    5  C   UNL     1     -10.119   7.855  72.083  1.00  0.00    -0.279 A  
HETATM    6  C   UNL     1     -11.377   7.252  72.230  1.00  0.00    -0.310 A  
HETATM    7  C   UNL     1     -12.490   7.781  71.578  1.00  0.00    -0.348 A  
HETATM    8  C   UNL     1     -12.362   8.926  70.794  1.00  0.00    -0.029 A  
HETATM    9  C   UNL     1     -11.122   9.550  70.668  1.00  0.00    -0.364 A  
HETATM   10  C   UNL     1     -10.003   9.016  71.307  1.00  0.00    -0.381 A  
ENDBRANCH   3   5
TORSDOF 1
ENDMDL
MODEL      147
REMARK 921   NORMALIZED FREE ENERGY PREDICTED BY IDOCK:   -2.13 KCAL/MOL
REMARK 922        TOTAL FREE ENERGY PREDICTED BY IDOCK:   -2.18 KCAL/MOL
REMARK 923 INTER-LIGAND FREE ENERGY PREDICTED BY IDOCK:   -2.11 KCAL/MOL
REMARK 924 INTRA-LIGAND FREE ENERGY PREDICTED BY IDOCK:   -0.07 KCAL/MOL
REMARK 927      BINDING AFFINITY PREDICTED BY RF-SCORE:    0.00 PKD
ROOT
HETATM    1  O   UNL     1      -7.175   5.373  70.053  1.00  0.00    -0.060 OA 
HETATM    2  C   UNL     1      -8.150   5.225  70.980  1.00  0.00    -0.112 C  
HETATM    3  C   UNL     1      -9.484   4.716  70.472  1.00  0.00    -0.247 C  
HETATM    4  O   UNL     1      -7.931   5.431  72.166  1.00  0.00    -0.104 OA 
ENDROOT
BRANCH   3   5
HETATM    5  C   UNL     1      -9.802   5.086  69.042  1.00  0.00    -0.252 A  
HETATM    6  C   UNL     1     -10.377   6.331  68.741  1.00  0.00    -0.245 A  
HETATM    7  C   UNL     1     -10.780   6.621  67.438  1.00  0.00    -0.409 A  
HETATM    8  C   UNL     1     -10.594   5.683  66.425  1.00  0.00    -0.254 A  
HETATM    9  C   UNL     1      -9.995   4.458  66.709  1.00  0.00    -0.223 A  
HETATM   10  C   UNL     1      -9.602   4.157  68.013  1.00  0.00    -0.200 A  
ENDBRANCH   3   5
TORSDOF 1
ENDMDL
MODEL      148
REMARK 921   NORMALIZED FREE ENERGY PREDICTED BY IDOCK:   -2.09 KCAL/MOL
REMARK 922        TOTAL FREE ENERGY PREDICTED BY IDOCK:   -2.13 KCAL/MOL
REMARK 923 INTER-LIGAND FREE ENERGY PREDICTED BY IDOCK:   -2.04 KCAL/MOL
REMARK 924 INTRA-LIGAND FREE ENERGY PREDICTED BY IDOCK:   -0.09 KCAL/MOL
REMARK 927      BINDING AFFINITY PREDICTED BY RF-SCORE:    0.00 PKD
ROOT
HETATM    1  O   UNL     1      -9.828   5.585  66.355  1.00  0.00    -0.156 OA 
HETATM    2  C   UNL     1      -8.779   4.974  66.954  1.00  0.00    -0.107 C  
HETATM    3  C   UNL     1      -8.858   4.836  68.461  1.00  0.00    -0.119 C  
HETATM    4  O   UNL     1      -7.859   4.508  66.297  1.00  0.00    -0.097 OA 
ENDROOT
BRANCH   3   5
HETATM    5  C   UNL     1      -9.645   5.921  69.158  1.00  0.00    -0.166 A  
HETATM    6  C   UNL     1      -9.092   7.198  69.334  1.00  0.00    -0.145 A  
HETATM    7  C   UNL     1      -9.771   8.160  70.083  1.00  0.00    -0.175 A  
HETATM    8  C   UNL     1     -11.012   7.862  70.641  1.00  0.00    -0.248 A  
HETATM    9  C   UNL     1     -11.583   6.606  70.444  1.00  0.00    -0.457 A  
HETATM   10  C   UNL     1     -10.902   5.637  69.708  1.00  0.00    -0.370 A  
ENDBRANCH   3   5
TORSDOF 1
ENDMDL
MODEL      149
REMARK 921   NORMALIZED FREE ENERGY PREDICTED BY IDOCK:   -2.06 KCAL/MOL
REMARK 922        TOTAL FREE ENERGY PREDICTED BY IDOCK:   -2.10 KCAL/MOL
REMARK 923 INTER-LIGAND FREE ENERGY PREDICTED BY IDOCK:   -2.03 KCAL/MOL
REMARK 924 INTRA-LIGAND FREE ENERGY PREDICTED BY IDOCK:   -0.07 KCAL/MOL
REMARK 927      BINDING AFFINITY PREDICTED BY RF-SCORE:    0.00 PKD
ROOT
HETATM    1  O   UNL     1      -9.376   3.186  66.228  1.00  0.00    -0.157 OA 
HETATM    2  C   UNL     1      -9.069   2.891  67.513  1.00  0.00    -0.181 C  
HETATM    3  C   UNL     1      -9.471   3.921  68.550  1.00  0.00    -0.213 C  
HETATM    4  O   UNL     1      -8.558   1.821  67.811  1.00  0.00    -0.071 OA 
ENDROOT
BRANCH   3   5
HETATM    5  C   UNL     1      -9.498   5.347  68.051  1.00  0.00    -0.138 A  
HETATM    6  C   UNL     1     -10.719   5.976  67.763  1.00  0.00    -0.369 A  
HETATM    7  C   UNL     1     -10.735   7.247  67.189  1.00  0.00    -0.413 A  
HETATM    8  C   UNL     1      -9.538   7.907  66.920  1.00  0.00    -0.263 A  
HETATM    9  C   UNL     1      -8.322   7.303  67.233  1.00  0.00    -0.119 A  
HETATM   10  C   UNL     1      -8.300   6.026  67.794  1.00  0.00    -0.112 A  
ENDBRANCH   3   5
TORSDOF 1
ENDMDL
MODEL      150
REMARK 921   NORMALIZED FREE ENERGY PREDICTED BY IDOCK:   -2.05 KCAL/MOL
REMARK 922        TOTAL FREE ENERGY PREDICTED BY IDOCK:   -2.09 KCAL/MOL
REMARK 923 INTER-LIGAND FREE ENERGY PREDICTED BY IDOCK:   -2.12 KCAL/MOL
REMARK 924 INTRA-LIGAND FREE ENERGY PREDICTED BY IDOCK:    0.03 KCAL/MOL
REMARK 927      BINDING AFFINITY PREDICTED BY RF-SCORE:    0.00 PKD
ROOT
HETATM    1  O   UNL     1     -10.967   6.475  73.262  1.00  0.00    -0.259 OA 
HETATM    2  C   UNL     1     -11.556   7.060  72.192  1.00  0.00    -0.282 C  
HETATM    3  C   UNL     1     -11.410   6.334  70.869  1.00  0.00    -0.389 C  
HETATM    4  O   UNL     1     -12.219   8.080  72.314  1.00  0.00    -0.327 OA 
ENDROOT
BRANCH   3   5
HETATM    5  C   UNL     1     -10.147   5.517  70.728  1.00  0.00    -0.277 A  
HETATM    6  C   UNL     1      -9.019   6.056  70.091  1.00  0.00    -0.150 A  
HETATM    7  C   UNL     1      -7.899   5.261  69.855  1.00  0.00    -0.080 A  
HETATM    8  C   UNL     1      -7.886   3.931  70.272  1.00  0.00    -0.047 A  
HETATM    9  C   UNL     1      -8.989   3.397  70.934  1.00  0.00    -0.164 A  
HETATM   10  C   UNL     1     -10.118   4.185  71.160  1.00  0.00    -0.145 A  
ENDBRANCH   3   5
TORSDOF 1
ENDMDL
MODEL      151
REMARK 921   NORMALIZED FREE ENERGY PREDICTED BY IDOCK:   -2.04 KCAL/MOL
REMARK 922        TOTAL FREE ENERGY PREDICTED BY IDOCK:   -2.09 KCAL/MOL
REMARK 923 INTER-LIGAND FREE ENERGY PREDICTED BY IDOCK:   -2.03 KCAL/MOL
REMARK 924 INTRA-LIGAND FREE ENERGY PREDICTED BY IDOCK:   -0.06 KCAL/MOL
REMARK 927      BINDING AFFINITY PREDICTED BY RF-SCORE:    0.00 PKD
ROOT
HETATM    1  O   UNL     1     -10.441   7.538  67.120  1.00  0.00    -0.278 OA 
HETATM    2  C   UNL     1     -10.502   7.430  68.468  1.00  0.00    -0.186 C  
HETATM    3  C   UNL     1     -10.650   8.728  69.237  1.00  0.00    -0.210 C  
HETATM    4  O   UNL     1     -10.502   6.337  69.016  1.00  0.00    -0.190 OA 
ENDROOT
BRANCH   3   5
HETATM    5  C   UNL     1     -10.038   9.936  68.567  1.00  0.00    -0.186 A  
HETATM    6  C   UNL     1     -10.835  10.805  67.804  1.00  0.00    -0.320 A  
HETATM    7  C   UNL     1     -10.249  11.848  67.089  1.00  0.00    -0.230 A  
HETATM    8  C   UNL     1      -8.871  12.047  67.146  1.00  0.00    -0.188 A  
HETATM    9  C   UNL     1      -8.077  11.209  67.926  1.00  0.00    -0.119 A  
HETATM   10  C   UNL     1      -8.657  10.155  68.632  1.00  0.00    -0.123 A  
ENDBRANCH   3   5
TORSDOF 1
ENDMDL
MODEL      152
REMARK 921   NORMALIZED FREE ENERGY PREDICTED BY IDOCK:   -2.04 KCAL/MOL
REMARK 922        TOTAL FREE ENERGY PREDICTED BY IDOCK:   -2.09 KCAL/MOL
REMARK 923 INTER-LIGAND FREE ENERGY PREDICTED BY IDOCK:   -2.00 KCAL/MOL
REMARK 924 INTRA-LIGAND FREE ENERGY PREDICTED BY IDOCK:   -0.09 KCAL/MOL
REMARK 927      BINDING AFFINITY PREDICTED BY RF-SCORE:    0.00 PKD
ROOT
HETATM    1  O   UNL     1     -11.808   9.291  72.640  1.00  0.00     0.077 OA 
HETATM    2  C   UNL     1     -12.347   8.406  71.770  1.00  0.00    -0.331 C  
HETATM    3  C   UNL     1     -11.499   8.054  70.563  1.00  0.00    -0.192 C  
HETATM    4  O   UNL     1     -13.427   7.878  71.992  1.00  0.00    -0.291 OA 
ENDROOT
BRANCH   3   5
HETATM    5  C   UNL     1     -10.567   9.150  70.101  1.00  0.00    -0.258 A  
HETATM    6  C   UNL     1     -11.054  10.224  69.340  1.00  0.00    -0.299 A  
HETATM    7  C   UNL     1     -10.173  11.168  68.814  1.00  0.00    -0.219 A  
HETATM    8  C   UNL     1      -8.806  11.060  69.059  1.00  0.00    -0.068 A  
HETATM    9  C   UNL     1      -8.317  10.015  69.840  1.00  0.00    -0.169 A  
HETATM   10  C   UNL     1      -9.193   9.060  70.357  1.00  0.00    -0.243 A  
ENDBRANCH   3   5
TORSDOF 1
ENDMDL
MODEL      153
REMARK 921   NORMALIZED FREE ENERGY PREDICTED BY IDOCK:   -1.95 KCAL/MOL
REMARK 922        TOTAL FREE ENERGY PREDICTED BY IDOCK:   -1.98 KCAL/MOL
REMARK 923 INTER-LIGAND FREE ENERGY PREDICTED BY IDOCK:   -2.11 KCAL/MOL
REMARK 924 INTRA-LIGAND FREE ENERGY PREDICTED BY IDOCK:    0.12 KCAL/MOL
REMARK 927      BINDING AFFINITY PREDICTED BY RF-SCORE:    0.00 PKD
ROOT
HETATM    1  O   UNL     1      -9.528   2.763  69.655  1.00  0.00    -0.140 OA 
HETATM    2  C   UNL     1      -9.472   3.988  69.083  1.00  0.00    -0.178 C  
HETATM    3  C   UNL     1      -9.168   5.147  70.013  1.00  0.00    -0.180 C  
HETATM    4  O   UNL     1      -9.594   4.129  67.875  1.00  0.00    -0.169 OA 
ENDROOT
BRANCH   3   5
HETATM    5  C   UNL     1      -9.640   4.959  71.436  1.00  0.00    -0.226 A  
HETATM    6  C   UNL     1      -8.900   4.172  72.332  1.00  0.00    -0.121 A  
HETATM    7  C   UNL     1      -9.398   3.902  73.606  1.00  0.00    -0.116 A  
HETATM    8  C   UNL     1     -10.624   4.432  74.003  1.00  0.00    -0.332 A  
HETATM    9  C   UNL     1     -11.350   5.240  73.131  1.00  0.00    -0.358 A  
HETATM   10  C   UNL     1     -10.863   5.502  71.851  1.00  0.00    -0.286 A  
ENDBRANCH   3   5
TORSDOF 1
ENDMDL
MODEL      154
REMARK 921   NORMALIZED FREE ENERGY PREDICTED BY IDOCK:   -1.94 KCAL/MOL
REMARK 922        TOTAL FREE ENERGY PREDICTED BY IDOCK:   -1.98 KCAL/MOL
REMARK 923 INTER-LIGAND FREE ENERGY PREDICTED BY IDOCK:   -1.91 KCAL/MOL
REMARK 924 INTRA-LIGAND FREE ENERGY PREDICTED BY IDOCK:   -0.07 KCAL/MOL
REMARK 927      BINDING AFFINITY PREDICTED BY RF-SCORE:    0.00 PKD
ROOT
HETATM    1  O   UNL     1     -10.199   7.295  68.905  1.00  0.00    -0.182 OA 
HETATM    2  C   UNL     1     -10.796   6.195  69.422  1.00  0.00    -0.353 C  
HETATM    3  C   UNL     1     -10.074   4.880  69.208  1.00  0.00    -0.248 C  
HETATM    4  O   UNL     1     -11.823   6.284  70.079  1.00  0.00    -0.351 OA 
ENDROOT
BRANCH   3   5
HETATM    5  C   UNL     1      -9.242   4.809  67.949  1.00  0.00    -0.146 A  
HETATM    6  C   UNL     1      -7.847   4.958  68.009  1.00  0.00    -0.083 A  
HETATM    7  C   UNL     1      -7.096   5.013  66.836  1.00  0.00    -0.072 A  
HETATM    8  C   UNL     1      -7.725   4.899  65.598  1.00  0.00    -0.087 A  
HETATM    9  C   UNL     1      -9.105   4.718  65.530  1.00  0.00    -0.152 A  
HETATM   10  C   UNL     1      -9.863   4.676  66.701  1.00  0.00    -0.239 A  
ENDBRANCH   3   5
TORSDOF 1
ENDMDL
MODEL      155
REMARK 921   NORMALIZED FREE ENERGY PREDICTED BY IDOCK:   -1.94 KCAL/MOL
REMARK 922        TOTAL FREE ENERGY PREDICTED BY IDOCK:   -1.97 KCAL/MOL
REMARK 923 INTER-LIGAND FREE ENERGY PREDICTED BY IDOCK:   -1.91 KCAL/MOL
REMARK 924 INTRA-LIGAND FREE ENERGY PREDICTED BY IDOCK:   -0.07 KCAL/MOL
REMARK 927      BINDING AFFINITY PREDICTED BY RF-SCORE:    0.00 PKD
ROOT
HETATM    1  O   UNL     1      -8.421   5.505  67.818  1.00  0.00    -0.100 OA 
HETATM    2  C   UNL     1      -9.282   5.507  68.862  1.00  0.00    -0.119 C  
HETATM    3  C   UNL     1     -10.365   6.567  68.833  1.00  0.00    -0.225 C  
HETATM    4  O   UNL     1      -9.218   4.654  69.736  1.00  0.00    -0.104 OA 
ENDROOT
BRANCH   3   5
HETATM    5  C   UNL     1      -9.986   7.843  68.119  1.00  0.00    -0.210 A  
HETATM    6  C   UNL     1     -10.480   8.111  66.833  1.00  0.00    -0.379 A  
HETATM    7  C   UNL     1     -10.034   9.229  66.128  1.00  0.00    -0.348 A  
HETATM    8  C   UNL     1      -9.111  10.097  66.708  1.00  0.00    -0.159 A  
HETATM    9  C   UNL     1      -8.640   9.856  67.997  1.00  0.00    -0.121 A  
HETATM   10  C   UNL     1      -9.073   8.732  68.700  1.00  0.00    -0.141 A  
ENDBRANCH   3   5
TORSDOF 1
ENDMDL
MODEL      156
REMARK 921   NORMALIZED FREE ENERGY PREDICTED BY IDOCK:   -1.94 KCAL/MOL
REMARK 922        TOTAL FREE ENERGY PREDICTED BY IDOCK:   -1.97 KCAL/MOL
REMARK 923 INTER-LIGAND FREE ENERGY PREDICTED BY IDOCK:   -2.54 KCAL/MOL
REMARK 924 INTRA-LIGAND FREE ENERGY PREDICTED BY IDOCK:    0.57 KCAL/MOL
REMARK 927      BINDING AFFINITY PREDICTED BY RF-SCORE:    0.00 PKD
ROOT
HETATM    1  O   UNL     1      -9.546   6.448  68.436  1.00  0.00    -0.126 OA 
HETATM    2  C   UNL     1      -9.419   6.982  67.199  1.00  0.00    -0.145 C  
HETATM    3  C   UNL     1      -9.418   8.496  67.122  1.00  0.00    -0.208 C  
HETATM    4  O   UNL     1      -9.250   6.273  66.218  1.00  0.00    -0.157 OA 
ENDROOT
BRANCH   3   5
HETATM    5  C   UNL     1     -10.213   9.188  68.206  1.00  0.00    -0.242 A  
HETATM    6  C   UNL     1     -11.141  10.188  67.878  1.00  0.00    -0.303 A  
HETATM    7  C   UNL     1     -11.782  10.908  68.885  1.00  0.00    -0.376 A  
HETATM    8  C   UNL     1     -11.522  10.621  70.223  1.00  0.00    -0.422 A  
HETATM    9  C   UNL     1     -10.626   9.607  70.558  1.00  0.00    -0.369 A  
HETATM   10  C   UNL     1      -9.971   8.894  69.554  1.00  0.00    -0.191 A  
ENDBRANCH   3   5
TORSDOF 1
ENDMDL
MODEL      157
REMARK 921   NORMALIZED FREE ENERGY PREDICTED BY IDOCK:   -1.88 KCAL/MOL
REMARK 922        TOTAL FREE ENERGY PREDICTED BY IDOCK:   -1.92 KCAL/MOL
REMARK 923 INTER-LIGAND FREE ENERGY PREDICTED BY IDOCK:   -1.88 KCAL/MOL
REMARK 924 INTRA-LIGAND FREE ENERGY PREDICTED BY IDOCK:   -0.04 KCAL/MOL
REMARK 927      BINDING AFFINITY PREDICTED BY RF-SCORE:    0.00 PKD
ROOT
HETATM    1  O   UNL     1      -8.545   6.763  69.764  1.00  0.00    -0.138 OA 
HETATM    2  C   UNL     1      -8.729   5.693  68.956  1.00  0.00    -0.104 C  
HETATM    3  C   UNL     1      -9.741   4.666  69.425  1.00  0.00    -0.272 C  
HETATM    4  O   UNL     1      -8.154   5.607  67.880  1.00  0.00    -0.100 OA 
ENDROOT
BRANCH   3   5
HETATM    5  C   UNL     1      -9.887   4.558  70.925  1.00  0.00    -0.269 A  
HETATM    6  C   UNL     1     -10.882   5.286  71.596  1.00  0.00    -0.181 A  
HETATM    7  C   UNL     1     -10.937   5.279  72.989  1.00  0.00    -0.354 A  
HETATM    8  C   UNL     1     -10.018   4.530  73.721  1.00  0.00    -0.189 A  
HETATM    9  C   UNL     1      -9.047   3.779  73.061  1.00  0.00    -0.113 A  
HETATM   10  C   UNL     1      -8.978   3.794  71.668  1.00  0.00    -0.155 A  
ENDBRANCH   3   5
TORSDOF 1
ENDMDL
MODEL      158
REMARK 921   NORMALIZED FREE ENERGY PREDICTED BY IDOCK:   -1.87 KCAL/MOL
REMARK 922        TOTAL FREE ENERGY PREDICTED BY IDOCK:   -1.91 KCAL/MOL
REMARK 923 INTER-LIGAND FREE ENERGY PREDICTED BY IDOCK:   -1.85 KCAL/MOL
REMARK 924 INTRA-LIGAND FREE ENERGY PREDICTED BY IDOCK:   -0.05 KCAL/MOL
REMARK 927      BINDING AFFINITY PREDICTED BY RF-SCORE:    0.00 PKD
ROOT
HETATM    1  O   UNL     1      -9.593   2.958  65.169  1.00  0.00    -0.121 OA 
HETATM    2  C   UNL     1      -8.340   3.455  65.040  1.00  0.00    -0.097 C  
HETATM    3  C   UNL     1      -7.833   4.297  66.195  1.00  0.00    -0.095 C  
HETATM    4  O   UNL     1      -7.646   3.178  64.073  1.00  0.00    -0.072 OA 
ENDROOT
BRANCH   3   5
HETATM    5  C   UNL     1      -8.905   5.040  66.958  1.00  0.00    -0.106 A  
HETATM    6  C   UNL     1      -9.260   4.641  68.255  1.00  0.00    -0.166 A  
HETATM    7  C   UNL     1     -10.330   5.250  68.909  1.00  0.00    -0.228 A  
HETATM    8  C   UNL     1     -11.038   6.275  68.285  1.00  0.00    -0.364 A  
HETATM    9  C   UNL     1     -10.671   6.700  67.009  1.00  0.00    -0.437 A  
HETATM   10  C   UNL     1      -9.611   6.084  66.346  1.00  0.00    -0.168 A  
ENDBRANCH   3   5
TORSDOF 1
ENDMDL
MODEL      159
REMARK 921   NORMALIZED FREE ENERGY PREDICTED BY IDOCK:   -1.83 KCAL/MOL
REMARK 922        TOTAL FREE ENERGY PREDICTED BY IDOCK:   -1.86 KCAL/MOL
REMARK 923 INTER-LIGAND FREE ENERGY PREDICTED BY IDOCK:   -1.79 KCAL/MOL
REMARK 924 INTRA-LIGAND FREE ENERGY PREDICTED BY IDOCK:   -0.06 KCAL/MOL
REMARK 927      BINDING AFFINITY PREDICTED BY RF-SCORE:    0.00 PKD
ROOT
HETATM    1  O   UNL     1      -8.309   8.408  64.068  1.00  0.00    -0.146 OA 
HETATM    2  C   UNL     1      -8.663   9.709  64.184  1.00  0.00    -0.216 C  
HETATM    3  C   UNL     1      -8.634  10.286  65.586  1.00  0.00    -0.170 C  
HETATM    4  O   UNL     1      -8.923  10.384  63.199  1.00  0.00    -0.188 OA 
ENDROOT
BRANCH   3   5
HETATM    5  C   UNL     1      -8.908   9.290  66.689  1.00  0.00    -0.146 A  
HETATM    6  C   UNL     1     -10.227   8.993  67.067  1.00  0.00    -0.336 A  
HETATM    7  C   UNL     1     -10.473   8.168  68.163  1.00  0.00    -0.225 A  
HETATM    8  C   UNL     1      -9.410   7.616  68.875  1.00  0.00    -0.145 A  
HETATM    9  C   UNL     1      -8.098   7.880  68.486  1.00  0.00    -0.123 A  
HETATM   10  C   UNL     1      -7.846   8.716  67.399  1.00  0.00    -0.098 A  
ENDBRANCH   3   5
TORSDOF 1
ENDMDL
MODEL      160
REMARK 921   NORMALIZED FREE ENERGY PREDICTED BY IDOCK:   -1.82 KCAL/MOL
REMARK 922        TOTAL FREE ENERGY PREDICTED BY IDOCK:   -1.85 KCAL/MOL
REMARK 923 INTER-LIGAND FREE ENERGY PREDICTED BY IDOCK:   -1.97 KCAL/MOL
REMARK 924 INTRA-LIGAND FREE ENERGY PREDICTED BY IDOCK:    0.12 KCAL/MOL
REMARK 927      BINDING AFFINITY PREDICTED BY RF-SCORE:    0.00 PKD
ROOT
HETATM    1  O   UNL     1      -9.013  13.926  68.131  1.00  0.00    -0.173 OA 
HETATM    2  C   UNL     1      -9.452  13.948  66.851  1.00  0.00    -0.258 C  
HETATM    3  C   UNL     1     -10.035  12.652  66.322  1.00  0.00    -0.266 C  
HETATM    4  O   UNL     1      -9.434  14.978  66.194  1.00  0.00    -0.286 OA 
ENDROOT
BRANCH   3   5
HETATM    5  C   UNL     1      -9.461  11.398  66.941  1.00  0.00    -0.193 A  
HETATM    6  C   UNL     1     -10.307  10.444  67.526  1.00  0.00    -0.268 A  
HETATM    7  C   UNL     1      -9.769   9.349  68.202  1.00  0.00    -0.164 A  
HETATM    8  C   UNL     1      -8.387   9.187  68.280  1.00  0.00    -0.120 A  
HETATM    9  C   UNL     1      -7.541  10.113  67.674  1.00  0.00    -0.090 A  
HETATM   10  C   UNL     1      -8.074  11.217  67.009  1.00  0.00    -0.149 A  
ENDBRANCH   3   5
TORSDOF 1
ENDMDL
MODEL      161
REMARK 921   NORMALIZED FREE ENERGY PREDICTED BY IDOCK:   -1.80 KCAL/MOL
REMARK 922        TOTAL FREE ENERGY PREDICTED BY IDOCK:   -1.83 KCAL/MOL
REMARK 923 INTER-LIGAND FREE ENERGY PREDICTED BY IDOCK:   -1.77 KCAL/MOL
REMARK 924 INTRA-LIGAND FREE ENERGY PREDICTED BY IDOCK:   -0.07 KCAL/MOL
REMARK 927      BINDING AFFINITY PREDICTED BY RF-SCORE:    0.00 PKD
ROOT
HETATM    1  O   UNL     1      -8.750   6.913  69.774  1.00  0.00    -0.140 OA 
HETATM    2  C   UNL     1      -7.615   7.332  69.169  1.00  0.00    -0.102 C  
HETATM    3  C   UNL     1      -7.547   8.807  68.823  1.00  0.00    -0.095 C  
HETATM    4  O   UNL     1      -6.680   6.568  68.979  1.00  0.00    -0.049 OA 
ENDROOT
BRANCH   3   5
HETATM    5  C   UNL     1      -8.882   9.454  68.536  1.00  0.00    -0.128 A  
HETATM    6  C   UNL     1      -9.598   9.121  67.375  1.00  0.00    -0.193 A  
HETATM    7  C   UNL     1     -10.768   9.806  67.052  1.00  0.00    -0.236 A  
HETATM    8  C   UNL     1     -11.244  10.810  67.892  1.00  0.00    -0.386 A  
HETATM    9  C   UNL     1     -10.557  11.125  69.063  1.00  0.00    -0.251 A  
HETATM   10  C   UNL     1      -9.378  10.452  69.384  1.00  0.00    -0.186 A  
ENDBRANCH   3   5
TORSDOF 1
ENDMDL
MODEL      162
REMARK 921   NORMALIZED FREE ENERGY PREDICTED BY IDOCK:   -1.78 KCAL/MOL
REMARK 922        TOTAL FREE ENERGY PREDICTED BY IDOCK:   -1.81 KCAL/MOL
REMARK 923 INTER-LIGAND FREE ENERGY PREDICTED BY IDOCK:   -1.72 KCAL/MOL
REMARK 924 INTRA-LIGAND FREE ENERGY PREDICTED BY IDOCK:   -0.09 KCAL/MOL
REMARK 927      BINDING AFFINITY PREDICTED BY RF-SCORE:    0.00 PKD
ROOT
HETATM    1  O   UNL     1     -10.572   5.493  69.102  1.00  0.00    -0.255 OA 
HETATM    2  C   UNL     1     -11.061   6.580  69.744  1.00  0.00    -0.370 C  
HETATM    3  C   UNL     1     -10.302   7.876  69.537  1.00  0.00    -0.217 C  
HETATM    4  O   UNL     1     -12.093   6.518  70.397  1.00  0.00    -0.360 OA 
ENDROOT
BRANCH   3   5
HETATM    5  C   UNL     1      -8.823   7.711  69.273  1.00  0.00    -0.136 A  
HETATM    6  C   UNL     1      -7.950   7.362  70.315  1.00  0.00    -0.107 A  
HETATM    7  C   UNL     1      -6.574   7.329  70.096  1.00  0.00    -0.043 A  
HETATM    8  C   UNL     1      -6.060   7.621  68.834  1.00  0.00    -0.035 A  
HETATM    9  C   UNL     1      -6.922   7.937  67.786  1.00  0.00    -0.074 A  
HETATM   10  C   UNL     1      -8.299   7.985  68.004  1.00  0.00    -0.126 A  
ENDBRANCH   3   5
TORSDOF 1
ENDMDL
MODEL      163
REMARK 921   NORMALIZED FREE ENERGY PREDICTED BY IDOCK:   -1.78 KCAL/MOL
REMARK 922        TOTAL FREE ENERGY PREDICTED BY IDOCK:   -1.81 KCAL/MOL
REMARK 923 INTER-LIGAND FREE ENERGY PREDICTED BY IDOCK:   -1.72 KCAL/MOL
REMARK 924 INTRA-LIGAND FREE ENERGY PREDICTED BY IDOCK:   -0.09 KCAL/MOL
REMARK 927      BINDING AFFINITY PREDICTED BY RF-SCORE:    0.00 PKD
ROOT
HETATM    1  O   UNL     1      -8.084   6.429  67.535  1.00  0.00    -0.115 OA 
HETATM    2  C   UNL     1      -8.570   7.007  68.659  1.00  0.00    -0.120 C  
HETATM    3  C   UNL     1      -9.426   8.242  68.458  1.00  0.00    -0.149 C  
HETATM    4  O   UNL     1      -8.376   6.512  69.760  1.00  0.00    -0.124 OA 
ENDROOT
BRANCH   3   5
HETATM    5  C   UNL     1      -9.088   9.057  67.232  1.00  0.00    -0.151 A  
HETATM    6  C   UNL     1      -7.926   9.844  67.200  1.00  0.00    -0.109 A  
HETATM    7  C   UNL     1      -7.679  10.687  66.117  1.00  0.00    -0.145 A  
HETATM    8  C   UNL     1      -8.575  10.735  65.051  1.00  0.00    -0.115 A  
HETATM    9  C   UNL     1      -9.715   9.934  65.060  1.00  0.00    -0.359 A  
HETATM   10  C   UNL     1      -9.973   9.099  66.147  1.00  0.00    -0.338 A  
ENDBRANCH   3   5
TORSDOF 1
ENDMDL
MODEL      164
REMARK 921   NORMALIZED FREE ENERGY PREDICTED BY IDOCK:   -1.78 KCAL/MOL
REMARK 922        TOTAL FREE ENERGY PREDICTED BY IDOCK:   -1.81 KCAL/MOL
REMARK 923 INTER-LIGAND FREE ENERGY PREDICTED BY IDOCK:   -1.74 KCAL/MOL
REMARK 924 INTRA-LIGAND FREE ENERGY PREDICTED BY IDOCK:   -0.07 KCAL/MOL
REMARK 927      BINDING AFFINITY PREDICTED BY RF-SCORE:    0.00 PKD
ROOT
HETATM    1  O   UNL     1      -9.301   4.287  68.889  1.00  0.00    -0.134 OA 
HETATM    2  C   UNL     1      -9.684   5.585  68.925  1.00  0.00    -0.144 C  
HETATM    3  C   UNL     1     -10.289   6.138  67.650  1.00  0.00    -0.250 C  
HETATM    4  O   UNL     1      -9.600   6.242  69.953  1.00  0.00    -0.154 OA 
ENDROOT
BRANCH   3   5
HETATM    5  C   UNL     1      -9.789   5.495  66.377  1.00  0.00    -0.192 A  
HETATM    6  C   UNL     1      -8.601   5.940  65.776  1.00  0.00    -0.154 A  
HETATM    7  C   UNL     1      -8.205   5.429  64.541  1.00  0.00    -0.133 A  
HETATM    8  C   UNL     1      -8.977   4.457  63.908  1.00  0.00    -0.143 A  
HETATM    9  C   UNL     1     -10.141   3.987  64.513  1.00  0.00    -0.209 A  
HETATM   10  C   UNL     1     -10.548   4.505  65.742  1.00  0.00    -0.226 A  
ENDBRANCH   3   5
TORSDOF 1
ENDMDL
MODEL      165
REMARK 921   NORMALIZED FREE ENERGY PREDICTED BY IDOCK:   -1.77 KCAL/MOL
REMARK 922        TOTAL FREE ENERGY PREDICTED BY IDOCK:   -1.80 KCAL/MOL
REMARK 923 INTER-LIGAND FREE ENERGY PREDICTED BY IDOCK:   -1.88 KCAL/MOL
REMARK 924 INTRA-LIGAND FREE ENERGY PREDICTED BY IDOCK:    0.08 KCAL/MOL
REMARK 927      BINDING AFFINITY PREDICTED BY RF-SCORE:    0.00 PKD
ROOT
HETATM    1  O   UNL     1      -9.706   4.506  69.309  1.00  0.00    -0.174 OA 
HETATM    2  C   UNL     1      -9.927   4.505  70.644  1.00  0.00    -0.203 C  
HETATM    3  C   UNL     1     -10.435   5.804  71.238  1.00  0.00    -0.295 C  
HETATM    4  O   UNL     1      -9.784   3.489  71.308  1.00  0.00    -0.166 OA 
ENDROOT
BRANCH   3   5
HETATM    5  C   UNL     1      -9.991   7.052  70.511  1.00  0.00    -0.191 A  
HETATM    6  C   UNL     1     -10.940   7.951  69.999  1.00  0.00    -0.208 A  
HETATM    7  C   UNL     1     -10.532   9.036  69.225  1.00  0.00    -0.238 A  
HETATM    8  C   UNL     1      -9.177   9.245  68.974  1.00  0.00    -0.144 A  
HETATM    9  C   UNL     1      -8.227   8.375  69.505  1.00  0.00    -0.118 A  
HETATM   10  C   UNL     1      -8.631   7.280  70.268  1.00  0.00    -0.142 A  
ENDBRANCH   3   5
TORSDOF 1
ENDMDL
MODEL      166
REMARK 921   NORMALIZED FREE ENERGY PREDICTED BY IDOCK:   -1.76 KCAL/MOL
REMARK 922        TOTAL FREE ENERGY PREDICTED BY IDOCK:   -1.79 KCAL/MOL
REMARK 923 INTER-LIGAND FREE ENERGY PREDICTED BY IDOCK:   -1.73 KCAL/MOL
REMARK 924 INTRA-LIGAND FREE ENERGY PREDICTED BY IDOCK:   -0.06 KCAL/MOL
REMARK 927      BINDING AFFINITY PREDICTED BY RF-SCORE:    0.00 PKD
ROOT
HETATM    1  O   UNL     1      -6.434   8.857  66.085  1.00  0.00    -0.063 OA 
HETATM    2  C   UNL     1      -6.812   7.822  65.300  1.00  0.00    -0.051 C  
HETATM    3  C   UNL     1      -8.304   7.654  65.089  1.00  0.00    -0.100 C  
HETATM    4  O   UNL     1      -5.985   7.113  64.746  1.00  0.00    -0.036 OA 
ENDROOT
BRANCH   3   5
HETATM    5  C   UNL     1      -9.166   8.135  66.233  1.00  0.00    -0.245 A  
HETATM    6  C   UNL     1      -9.906   9.321  66.115  1.00  0.00    -0.363 A  
HETATM    7  C   UNL     1     -10.603   9.826  67.212  1.00  0.00    -0.320 A  
HETATM    8  C   UNL     1     -10.586   9.141  68.425  1.00  0.00    -0.217 A  
HETATM    9  C   UNL     1      -9.879   7.945  68.542  1.00  0.00    -0.186 A  
HETATM   10  C   UNL     1      -9.169   7.444  67.451  1.00  0.00    -0.146 A  
ENDBRANCH   3   5
TORSDOF 1
ENDMDL
MODEL      167
REMARK 921   NORMALIZED FREE ENERGY PREDICTED BY IDOCK:   -1.72 KCAL/MOL
REMARK 922        TOTAL FREE ENERGY PREDICTED BY IDOCK:   -1.74 KCAL/MOL
REMARK 923 INTER-LIGAND FREE ENERGY PREDICTED BY IDOCK:   -1.65 KCAL/MOL
REMARK 924 INTRA-LIGAND FREE ENERGY PREDICTED BY IDOCK:   -0.09 KCAL/MOL
REMARK 927      BINDING AFFINITY PREDICTED BY RF-SCORE:    0.00 PKD
ROOT
HETATM    1  O   UNL     1      -6.888   8.954  64.336  1.00  0.00    -0.080 OA 
HETATM    2  C   UNL     1      -6.544   9.774  65.357  1.00  0.00    -0.091 C  
HETATM    3  C   UNL     1      -6.919   9.304  66.748  1.00  0.00    -0.081 C  
HETATM    4  O   UNL     1      -5.908  10.799  65.157  1.00  0.00    -0.120 OA 
ENDROOT
BRANCH   3   5
HETATM    5  C   UNL     1      -8.154   8.436  66.814  1.00  0.00    -0.098 A  
HETATM    6  C   UNL     1      -9.432   9.015  66.775  1.00  0.00    -0.238 A  
HETATM    7  C   UNL     1     -10.566   8.225  66.957  1.00  0.00    -0.328 A  
HETATM    8  C   UNL     1     -10.437   6.852  67.156  1.00  0.00    -0.373 A  
HETATM    9  C   UNL     1      -9.173   6.264  67.164  1.00  0.00    -0.125 A  
HETATM   10  C   UNL     1      -8.035   7.053  66.996  1.00  0.00    -0.116 A  
ENDBRANCH   3   5
TORSDOF 1
ENDMDL
MODEL      168
REMARK 921   NORMALIZED FREE ENERGY PREDICTED BY IDOCK:   -1.71 KCAL/MOL
REMARK 922        TOTAL FREE ENERGY PREDICTED BY IDOCK:   -1.74 KCAL/MOL
REMARK 923 INTER-LIGAND FREE ENERGY PREDICTED BY IDOCK:   -1.65 KCAL/MOL
REMARK 924 INTRA-LIGAND FREE ENERGY PREDICTED BY IDOCK:   -0.09 KCAL/MOL
REMARK 927      BINDING AFFINITY PREDICTED BY RF-SCORE:    0.00 PKD
ROOT
HETATM    1  O   UNL     1      -7.617   5.318  64.763  1.00  0.00    -0.077 OA 
HETATM    2  C   UNL     1      -6.941   6.437  65.114  1.00  0.00    -0.052 C  
HETATM    3  C   UNL     1      -7.196   6.960  66.514  1.00  0.00    -0.072 C  
HETATM    4  O   UNL     1      -6.127   6.948  64.359  1.00  0.00    -0.035 OA 
ENDROOT
BRANCH   3   5
HETATM    5  C   UNL     1      -8.571   6.661  67.064  1.00  0.00    -0.113 A  
HETATM    6  C   UNL     1      -9.691   7.368  66.599  1.00  0.00    -0.262 A  
HETATM    7  C   UNL     1     -10.938   7.175  67.192  1.00  0.00    -0.342 A  
HETATM    8  C   UNL     1     -11.082   6.263  68.235  1.00  0.00    -0.364 A  
HETATM    9  C   UNL     1      -9.982   5.534  68.682  1.00  0.00    -0.222 A  
HETATM   10  C   UNL     1      -8.729   5.733  68.101  1.00  0.00    -0.107 A  
ENDBRANCH   3   5
TORSDOF 1
ENDMDL
MODEL      169
REMARK 921   NORMALIZED FREE ENERGY PREDICTED BY IDOCK:   -1.71 KCAL/MOL
REMARK 922        TOTAL FREE ENERGY PREDICTED BY IDOCK:   -1.73 KCAL/MOL
REMARK 923 INTER-LIGAND FREE ENERGY PREDICTED BY IDOCK:   -1.64 KCAL/MOL
REMARK 924 INTRA-LIGAND FREE ENERGY PREDICTED BY IDOCK:   -0.09 KCAL/MOL
REMARK 927      BINDING AFFINITY PREDICTED BY RF-SCORE:    0.00 PKD
ROOT
HETATM    1  O   UNL     1      -7.116   5.751  65.958  1.00  0.00    -0.068 OA 
HETATM    2  C   UNL     1      -7.964   4.703  66.082  1.00  0.00    -0.103 C  
HETATM    3  C   UNL     1      -9.390   5.039  66.472  1.00  0.00    -0.141 C  
HETATM    4  O   UNL     1      -7.602   3.563  65.828  1.00  0.00    -0.076 OA 
ENDROOT
BRANCH   3   5
HETATM    5  C   UNL     1      -9.542   6.284  67.315  1.00  0.00    -0.138 A  
HETATM    6  C   UNL     1      -9.190   6.269  68.674  1.00  0.00    -0.124 A  
HETATM    7  C   UNL     1      -9.444   7.380  69.476  1.00  0.00    -0.155 A  
HETATM    8  C   UNL     1     -10.028   8.520  68.927  1.00  0.00    -0.197 A  
HETATM    9  C   UNL     1     -10.351   8.554  67.572  1.00  0.00    -0.334 A  
HETATM   10  C   UNL     1     -10.112   7.440  66.768  1.00  0.00    -0.305 A  
ENDBRANCH   3   5
TORSDOF 1
ENDMDL
MODEL      170
REMARK 921   NORMALIZED FREE ENERGY PREDICTED BY IDOCK:   -1.69 KCAL/MOL
REMARK 922        TOTAL FREE ENERGY PREDICTED BY IDOCK:   -1.72 KCAL/MOL
REMARK 923 INTER-LIGAND FREE ENERGY PREDICTED BY IDOCK:   -1.65 KCAL/MOL
REMARK 924 INTRA-LIGAND FREE ENERGY PREDICTED BY IDOCK:   -0.07 KCAL/MOL
REMARK 927      BINDING AFFINITY PREDICTED BY RF-SCORE:    0.00 PKD
ROOT
HETATM    1  O   UNL     1      -9.308   2.684  67.205  1.00  0.00    -0.167 OA 
HETATM    2  C   UNL     1      -9.639   3.933  67.609  1.00  0.00    -0.153 C  
HETATM    3  C   UNL     1     -10.267   4.829  66.560  1.00  0.00    -0.294 C  
HETATM    4  O   UNL     1      -9.493   4.281  68.771  1.00  0.00    -0.146 OA 
ENDROOT
BRANCH   3   5
HETATM    5  C   UNL     1      -9.837   4.544  65.140  1.00  0.00    -0.156 A  
HETATM    6  C   UNL     1     -10.696   3.868  64.260  1.00  0.00    -0.218 A  
HETATM    7  C   UNL     1     -10.252   3.500  62.990  1.00  0.00    -0.178 A  
HETATM    8  C   UNL     1      -8.960   3.822  62.582  1.00  0.00    -0.095 A  
HETATM    9  C   UNL     1      -8.111   4.522  63.438  1.00  0.00    -0.093 A  
HETATM   10  C   UNL     1      -8.546   4.880  64.714  1.00  0.00    -0.149 A  
ENDBRANCH   3   5
TORSDOF 1
ENDMDL
MODEL      171
REMARK 921   NORMALIZED FREE ENERGY PREDICTED BY IDOCK:   -1.66 KCAL/MOL
REMARK 922        TOTAL FREE ENERGY PREDICTED BY IDOCK:   -1.68 KCAL/MOL
REMARK 923 INTER-LIGAND FREE ENERGY PREDICTED BY IDOCK:   -1.65 KCAL/MOL
REMARK 924 INTRA-LIGAND FREE ENERGY PREDICTED BY IDOCK:   -0.04 KCAL/MOL
REMARK 927      BINDING AFFINITY PREDICTED BY RF-SCORE:    0.00 PKD
ROOT
HETATM    1  O   UNL     1      -9.882   3.893  70.697  1.00  0.00    -0.189 OA 
HETATM    2  C   UNL     1     -10.219   4.712  71.720  1.00  0.00    -0.172 C  
HETATM    3  C   UNL     1     -10.457   6.166  71.363  1.00  0.00    -0.273 C  
HETATM    4  O   UNL     1     -10.384   4.277  72.851  1.00  0.00    -0.163 OA 
ENDROOT
BRANCH   3   5
HETATM    5  C   UNL     1      -9.664   6.666  70.178  1.00  0.00    -0.174 A  
HETATM    6  C   UNL     1     -10.223   6.648  68.890  1.00  0.00    -0.195 A  
HETATM    7  C   UNL     1      -9.449   6.995  67.784  1.00  0.00    -0.132 A  
HETATM    8  C   UNL     1      -8.122   7.385  67.955  1.00  0.00    -0.119 A  
HETATM    9  C   UNL     1      -7.569   7.436  69.233  1.00  0.00    -0.101 A  
HETATM   10  C   UNL     1      -8.335   7.076  70.341  1.00  0.00    -0.129 A  
ENDBRANCH   3   5
TORSDOF 1
ENDMDL
MODEL      172
REMARK 921   NORMALIZED FREE ENERGY PREDICTED BY IDOCK:   -1.63 KCAL/MOL
REMARK 922        TOTAL FREE ENERGY PREDICTED BY IDOCK:   -1.65 KCAL/MOL
REMARK 923 INTER-LIGAND FREE ENERGY PREDICTED BY IDOCK:   -2.60 KCAL/MOL
REMARK 924 INTRA-LIGAND FREE ENERGY PREDICTED BY IDOCK:    0.95 KCAL/MOL
REMARK 927      BINDING AFFINITY PREDICTED BY RF-SCORE:    0.00 PKD
ROOT
HETATM    1  O   UNL     1      -8.228   7.800  66.201  1.00  0.00    -0.110 OA 
HETATM    2  C   UNL     1      -8.126   7.789  64.852  1.00  0.00    -0.136 C  
HETATM    3  C   UNL     1      -8.433   9.096  64.148  1.00  0.00    -0.198 C  
HETATM    4  O   UNL     1      -7.742   6.793  64.255  1.00  0.00    -0.099 OA 
ENDROOT
BRANCH   3   5
HETATM    5  C   UNL     1      -9.431   9.981  64.858  1.00  0.00    -0.355 A  
HETATM    6  C   UNL     1     -10.112  10.989  64.158  1.00  0.00    -0.403 A  
HETATM    7  C   UNL     1     -10.939  11.881  64.839  1.00  0.00    -0.367 A  
HETATM    8  C   UNL     1     -11.111  11.761  66.217  1.00  0.00    -0.364 A  
HETATM    9  C   UNL     1     -10.464  10.743  66.915  1.00  0.00    -0.304 A  
HETATM   10  C   UNL     1      -9.624   9.857  66.240  1.00  0.00    -0.265 A  
ENDBRANCH   3   5
TORSDOF 1
ENDMDL
MODEL      173
REMARK 921   NORMALIZED FREE ENERGY PREDICTED BY IDOCK:   -1.63 KCAL/MOL
REMARK 922        TOTAL FREE ENERGY PREDICTED BY IDOCK:   -1.65 KCAL/MOL
REMARK 923 INTER-LIGAND FREE ENERGY PREDICTED BY IDOCK:   -1.58 KCAL/MOL
REMARK 924 INTRA-LIGAND FREE ENERGY PREDICTED BY IDOCK:   -0.07 KCAL/MOL
REMARK 927      BINDING AFFINITY PREDICTED BY RF-SCORE:    0.00 PKD
ROOT
HETATM    1  O   UNL     1      -6.929   4.330  71.930  1.00  0.00    -0.042 OA 
HETATM    2  C   UNL     1      -7.707   3.607  72.769  1.00  0.00    -0.065 C  
HETATM    3  C   UNL     1      -9.200   3.844  72.667  1.00  0.00    -0.140 C  
HETATM    4  O   UNL     1      -7.222   2.768  73.515  1.00  0.00    -0.038 OA 
ENDROOT
BRANCH   3   5
HETATM    5  C   UNL     1      -9.595   5.233  72.223  1.00  0.00    -0.180 A  
HETATM    6  C   UNL     1     -10.045   5.460  70.913  1.00  0.00    -0.286 A  
HETATM    7  C   UNL     1     -10.292   6.759  70.470  1.00  0.00    -0.226 A  
HETATM    8  C   UNL     1     -10.114   7.837  71.335  1.00  0.00    -0.211 A  
HETATM    9  C   UNL     1      -9.698   7.618  72.647  1.00  0.00    -0.251 A  
HETATM   10  C   UNL     1      -9.436   6.322  73.090  1.00  0.00    -0.142 A  
ENDBRANCH   3   5
TORSDOF 1
ENDMDL
MODEL      174
REMARK 921   NORMALIZED FREE ENERGY PREDICTED BY IDOCK:   -1.60 KCAL/MOL
REMARK 922        TOTAL FREE ENERGY PREDICTED BY IDOCK:   -1.61 KCAL/MOL
REMARK 923 INTER-LIGAND FREE ENERGY PREDICTED BY IDOCK:   -1.68 KCAL/MOL
REMARK 924 INTRA-LIGAND FREE ENERGY PREDICTED BY IDOCK:    0.07 KCAL/MOL
REMARK 927      BINDING AFFINITY PREDICTED BY RF-SCORE:    0.00 PKD
ROOT
HETATM    1  O   UNL     1      -9.931   7.929  67.970  1.00  0.00    -0.163 OA 
HETATM    2  C   UNL     1      -9.534   9.167  67.595  1.00  0.00    -0.140 C  
HETATM    3  C   UNL     1      -8.405   9.780  68.400  1.00  0.00    -0.110 C  
HETATM    4  O   UNL     1     -10.023   9.719  66.619  1.00  0.00    -0.202 OA 
ENDROOT
BRANCH   3   5
HETATM    5  C   UNL     1      -8.335   9.330  69.840  1.00  0.00    -0.161 A  
HETATM    6  C   UNL     1      -7.176   8.713  70.336  1.00  0.00    -0.045 A  
HETATM    7  C   UNL     1      -7.157   8.190  71.628  1.00  0.00    -0.075 A  
HETATM    8  C   UNL     1      -8.283   8.298  72.442  1.00  0.00    -0.214 A  
HETATM    9  C   UNL     1      -9.427   8.937  71.969  1.00  0.00    -0.249 A  
HETATM   10  C   UNL     1      -9.456   9.449  70.672  1.00  0.00    -0.325 A  
ENDBRANCH   3   5
TORSDOF 1
ENDMDL
MODEL      175
REMARK 921   NORMALIZED FREE ENERGY PREDICTED BY IDOCK:   -1.56 KCAL/MOL
REMARK 922        TOTAL FREE ENERGY PREDICTED BY IDOCK:   -1.58 KCAL/MOL
REMARK 923 INTER-LIGAND FREE ENERGY PREDICTED BY IDOCK:   -1.56 KCAL/MOL
REMARK 924 INTRA-LIGAND FREE ENERGY PREDICTED BY IDOCK:   -0.02 KCAL/MOL
REMARK 927      BINDING AFFINITY PREDICTED BY RF-SCORE:    0.00 PKD
ROOT
HETATM    1  O   UNL     1      -8.502   5.429  64.059  1.00  0.00    -0.134 OA 
HETATM    2  C   UNL     1      -7.934   6.638  63.841  1.00  0.00    -0.075 C  
HETATM    3  C   UNL     1      -7.588   7.446  65.076  1.00  0.00    -0.103 C  
HETATM    4  O   UNL     1      -7.662   7.014  62.710  1.00  0.00    -0.095 OA 
ENDROOT
BRANCH   3   5
HETATM    5  C   UNL     1      -8.479   7.194  66.270  1.00  0.00    -0.138 A  
HETATM    6  C   UNL     1      -8.132   6.224  67.223  1.00  0.00    -0.109 A  
HETATM    7  C   UNL     1      -9.014   5.909  68.257  1.00  0.00    -0.112 A  
HETATM    8  C   UNL     1     -10.234   6.573  68.361  1.00  0.00    -0.192 A  
HETATM    9  C   UNL     1     -10.572   7.561  67.437  1.00  0.00    -0.364 A  
HETATM   10  C   UNL     1      -9.700   7.869  66.393  1.00  0.00    -0.235 A  
ENDBRANCH   3   5
TORSDOF 1
ENDMDL
MODEL      176
REMARK 921   NORMALIZED FREE ENERGY PREDICTED BY IDOCK:   -1.56 KCAL/MOL
REMARK 922        TOTAL FREE ENERGY PREDICTED BY IDOCK:   -1.57 KCAL/MOL
REMARK 923 INTER-LIGAND FREE ENERGY PREDICTED BY IDOCK:   -1.56 KCAL/MOL
REMARK 924 INTRA-LIGAND FREE ENERGY PREDICTED BY IDOCK:   -0.01 KCAL/MOL
REMARK 927      BINDING AFFINITY PREDICTED BY RF-SCORE:    0.00 PKD
ROOT
HETATM    1  O   UNL     1      -9.188   3.635  68.878  1.00  0.00    -0.133 OA 
HETATM    2  C   UNL     1      -9.852   4.352  69.815  1.00  0.00    -0.214 C  
HETATM    3  C   UNL     1     -10.399   5.693  69.368  1.00  0.00    -0.343 C  
HETATM    4  O   UNL     1     -10.048   3.901  70.934  1.00  0.00    -0.129 OA 
ENDROOT
BRANCH   3   5
HETATM    5  C   UNL     1      -9.610   6.366  68.269  1.00  0.00    -0.123 A  
HETATM    6  C   UNL     1      -9.930   6.137  66.922  1.00  0.00    -0.211 A  
HETATM    7  C   UNL     1      -9.126   6.662  65.911  1.00  0.00    -0.059 A  
HETATM    8  C   UNL     1      -8.014   7.437  66.234  1.00  0.00    -0.109 A  
HETATM    9  C   UNL     1      -7.708   7.697  67.569  1.00  0.00    -0.118 A  
HETATM   10  C   UNL     1      -8.501   7.161  68.584  1.00  0.00    -0.125 A  
ENDBRANCH   3   5
TORSDOF 1
ENDMDL
MODEL      177
REMARK 921   NORMALIZED FREE ENERGY PREDICTED BY IDOCK:   -1.54 KCAL/MOL
REMARK 922        TOTAL FREE ENERGY PREDICTED BY IDOCK:   -1.56 KCAL/MOL
REMARK 923 INTER-LIGAND FREE ENERGY PREDICTED BY IDOCK:   -1.94 KCAL/MOL
REMARK 924 INTRA-LIGAND FREE ENERGY PREDICTED BY IDOCK:    0.38 KCAL/MOL
REMARK 927      BINDING AFFINITY PREDICTED BY RF-SCORE:    0.00 PKD
ROOT
HETATM    1  O   UNL     1      -8.884   4.839  65.460  1.00  0.00    -0.129 OA 
HETATM    2  C   UNL     1      -8.540   4.867  66.769  1.00  0.00    -0.108 C  
HETATM    3  C   UNL     1      -9.090   6.024  67.580  1.00  0.00    -0.109 C  
HETATM    4  O   UNL     1      -7.878   3.969  67.269  1.00  0.00    -0.090 OA 
ENDROOT
BRANCH   3   5
HETATM    5  C   UNL     1      -9.325   7.294  66.796  1.00  0.00    -0.203 A  
HETATM    6  C   UNL     1      -8.472   7.644  65.738  1.00  0.00    -0.153 A  
HETATM    7  C   UNL     1      -8.617   8.874  65.097  1.00  0.00    -0.208 A  
HETATM    8  C   UNL     1      -9.625   9.751  65.489  1.00  0.00    -0.348 A  
HETATM    9  C   UNL     1     -10.497   9.398  66.518  1.00  0.00    -0.199 A  
HETATM   10  C   UNL     1     -10.347   8.176  67.172  1.00  0.00    -0.391 A  
ENDBRANCH   3   5
TORSDOF 1
ENDMDL
MODEL      178
REMARK 921   NORMALIZED FREE ENERGY PREDICTED BY IDOCK:   -1.53 KCAL/MOL
REMARK 922        TOTAL FREE ENERGY PREDICTED BY IDOCK:   -1.54 KCAL/MOL
REMARK 923 INTER-LIGAND FREE ENERGY PREDICTED BY IDOCK:   -1.47 KCAL/MOL
REMARK 924 INTRA-LIGAND FREE ENERGY PREDICTED BY IDOCK:   -0.07 KCAL/MOL
REMARK 927      BINDING AFFINITY PREDICTED BY RF-SCORE:    0.00 PKD
ROOT
HETATM    1  O   UNL     1     -10.111   7.056  71.468  1.00  0.00    -0.188 OA 
HETATM    2  C   UNL     1      -9.338   8.161  71.350  1.00  0.00    -0.155 C  
HETATM    3  C   UNL     1      -8.771   8.436  69.971  1.00  0.00    -0.133 C  
HETATM    4  O   UNL     1      -9.171   8.919  72.294  1.00  0.00    -0.376 OA 
ENDROOT
BRANCH   3   5
HETATM    5  C   UNL     1      -8.526   7.206  69.128  1.00  0.00    -0.133 A  
HETATM    6  C   UNL     1      -9.416   6.860  68.100  1.00  0.00    -0.122 A  
HETATM    7  C   UNL     1      -9.255   5.663  67.405  1.00  0.00    -0.109 A  
HETATM    8  C   UNL     1      -8.194   4.813  67.714  1.00  0.00    -0.100 A  
HETATM    9  C   UNL     1      -7.287   5.164  68.711  1.00  0.00    -0.062 A  
HETATM   10  C   UNL     1      -7.452   6.354  69.419  1.00  0.00    -0.094 A  
ENDBRANCH   3   5
TORSDOF 1
ENDMDL
MODEL      179
REMARK 921   NORMALIZED FREE ENERGY PREDICTED BY IDOCK:   -1.40 KCAL/MOL
REMARK 922        TOTAL FREE ENERGY PREDICTED BY IDOCK:   -1.41 KCAL/MOL
REMARK 923 INTER-LIGAND FREE ENERGY PREDICTED BY IDOCK:   -1.35 KCAL/MOL
REMARK 924 INTRA-LIGAND FREE ENERGY PREDICTED BY IDOCK:   -0.06 KCAL/MOL
REMARK 927      BINDING AFFINITY PREDICTED BY RF-SCORE:    0.00 PKD
ROOT
HETATM    1  O   UNL     1      -9.469   5.876  66.090  1.00  0.00    -0.158 OA 
HETATM    2  C   UNL     1      -8.138   6.120  66.053  1.00  0.00    -0.118 C  
HETATM    3  C   UNL     1      -7.428   6.160  67.391  1.00  0.00    -0.082 C  
HETATM    4  O   UNL     1      -7.546   6.234  64.989  1.00  0.00    -0.078 OA 
ENDROOT
BRANCH   3   5
HETATM    5  C   UNL     1      -8.283   6.615  68.551  1.00  0.00    -0.119 A  
HETATM    6  C   UNL     1      -8.751   5.688  69.496  1.00  0.00    -0.109 A  
HETATM    7  C   UNL     1      -9.638   6.091  70.494  1.00  0.00    -0.198 A  
HETATM    8  C   UNL     1     -10.046   7.421  70.571  1.00  0.00    -0.192 A  
HETATM    9  C   UNL     1      -9.561   8.354  69.656  1.00  0.00    -0.163 A  
HETATM   10  C   UNL     1      -8.685   7.953  68.647  1.00  0.00    -0.128 A  
ENDBRANCH   3   5
TORSDOF 1
ENDMDL
MODEL      180
REMARK 921   NORMALIZED FREE ENERGY PREDICTED BY IDOCK:   -1.40 KCAL/MOL
REMARK 922        TOTAL FREE ENERGY PREDICTED BY IDOCK:   -1.41 KCAL/MOL
REMARK 923 INTER-LIGAND FREE ENERGY PREDICTED BY IDOCK:   -1.32 KCAL/MOL
REMARK 924 INTRA-LIGAND FREE ENERGY PREDICTED BY IDOCK:   -0.09 KCAL/MOL
REMARK 927      BINDING AFFINITY PREDICTED BY RF-SCORE:    0.00 PKD
ROOT
HETATM    1  O   UNL     1      -9.755   5.463  65.895  1.00  0.00    -0.144 OA 
HETATM    2  C   UNL     1      -8.518   5.005  65.590  1.00  0.00    -0.127 C  
HETATM    3  C   UNL     1      -7.923   3.995  66.551  1.00  0.00    -0.097 C  
HETATM    4  O   UNL     1      -7.954   5.346  64.560  1.00  0.00    -0.102 OA 
ENDROOT
BRANCH   3   5
HETATM    5  C   UNL     1      -8.384   4.134  67.983  1.00  0.00    -0.098 A  
HETATM    6  C   UNL     1      -7.831   5.119  68.816  1.00  0.00    -0.079 A  
HETATM    7  C   UNL     1      -8.169   5.166  70.168  1.00  0.00    -0.086 A  
HETATM    8  C   UNL     1      -9.076   4.248  70.693  1.00  0.00    -0.175 A  
HETATM    9  C   UNL     1      -9.654   3.287  69.867  1.00  0.00    -0.172 A  
HETATM   10  C   UNL     1      -9.309   3.227  68.517  1.00  0.00    -0.237 A  
ENDBRANCH   3   5
TORSDOF 1
ENDMDL
MODEL      181
REMARK 921   NORMALIZED FREE ENERGY PREDICTED BY IDOCK:   -1.37 KCAL/MOL
REMARK 922        TOTAL FREE ENERGY PREDICTED BY IDOCK:   -1.38 KCAL/MOL
REMARK 923 INTER-LIGAND FREE ENERGY PREDICTED BY IDOCK:   -1.31 KCAL/MOL
REMARK 924 INTRA-LIGAND FREE ENERGY PREDICTED BY IDOCK:   -0.07 KCAL/MOL
REMARK 927      BINDING AFFINITY PREDICTED BY RF-SCORE:    0.00 PKD
ROOT
HETATM    1  O   UNL     1      -7.823   3.202  67.396  1.00  0.00    -0.076 OA 
HETATM    2  C   UNL     1      -9.092   3.177  67.864  1.00  0.00    -0.177 C  
HETATM    3  C   UNL     1      -9.784   4.519  67.993  1.00  0.00    -0.192 C  
HETATM    4  O   UNL     1      -9.658   2.119  68.103  1.00  0.00    -0.212 OA 
ENDROOT
BRANCH   3   5
HETATM    5  C   UNL     1      -8.863   5.685  68.268  1.00  0.00    -0.108 A  
HETATM    6  C   UNL     1      -8.479   5.993  69.582  1.00  0.00    -0.126 A  
HETATM    7  C   UNL     1      -7.729   7.139  69.843  1.00  0.00    -0.108 A  
HETATM    8  C   UNL     1      -7.338   7.972  68.797  1.00  0.00    -0.085 A  
HETATM    9  C   UNL     1      -7.687   7.656  67.486  1.00  0.00    -0.118 A  
HETATM   10  C   UNL     1      -8.450   6.519  67.220  1.00  0.00    -0.112 A  
ENDBRANCH   3   5
TORSDOF 1
ENDMDL
MODEL      182
REMARK 921   NORMALIZED FREE ENERGY PREDICTED BY IDOCK:   -1.35 KCAL/MOL
REMARK 922        TOTAL FREE ENERGY PREDICTED BY IDOCK:   -1.35 KCAL/MOL
REMARK 923 INTER-LIGAND FREE ENERGY PREDICTED BY IDOCK:   -1.27 KCAL/MOL
REMARK 924 INTRA-LIGAND FREE ENERGY PREDICTED BY IDOCK:   -0.08 KCAL/MOL
REMARK 927      BINDING AFFINITY PREDICTED BY RF-SCORE:    0.00 PKD
ROOT
HETATM    1  O   UNL     1      -9.632   6.985  67.652  1.00  0.00    -0.129 OA 
HETATM    2  C   UNL     1     -10.292   7.520  68.706  1.00  0.00    -0.200 C  
HETATM    3  C   UNL     1     -10.019   8.983  68.993  1.00  0.00    -0.191 C  
HETATM    4  O   UNL     1     -11.108   6.866  69.339  1.00  0.00    -0.244 OA 
ENDROOT
BRANCH   3   5
HETATM    5  C   UNL     1      -8.642   9.462  68.596  1.00  0.00    -0.123 A  
HETATM    6  C   UNL     1      -7.514   9.077  69.338  1.00  0.00    -0.077 A  
HETATM    7  C   UNL     1      -6.263   9.616  69.044  1.00  0.00    -0.041 A  
HETATM    8  C   UNL     1      -6.122  10.524  67.996  1.00  0.00    -0.047 A  
HETATM    9  C   UNL     1      -7.230  10.887  67.233  1.00  0.00    -0.098 A  
HETATM   10  C   UNL     1      -8.487  10.361  67.533  1.00  0.00    -0.115 A  
ENDBRANCH   3   5
TORSDOF 1
ENDMDL
MODEL      183
REMARK 921   NORMALIZED FREE ENERGY PREDICTED BY IDOCK:   -1.28 KCAL/MOL
REMARK 922        TOTAL FREE ENERGY PREDICTED BY IDOCK:   -1.28 KCAL/MOL
REMARK 923 INTER-LIGAND FREE ENERGY PREDICTED BY IDOCK:   -1.19 KCAL/MOL
REMARK 924 INTRA-LIGAND FREE ENERGY PREDICTED BY IDOCK:   -0.09 KCAL/MOL
REMARK 927      BINDING AFFINITY PREDICTED BY RF-SCORE:    0.00 PKD
ROOT
HETATM    1  O   UNL     1      -8.639   2.334  68.085  1.00  0.00    -0.070 OA 
HETATM    2  C   UNL     1      -9.384   3.456  68.221  1.00  0.00    -0.180 C  
HETATM    3  C   UNL     1      -9.849   4.109  66.934  1.00  0.00    -0.197 C  
HETATM    4  O   UNL     1      -9.711   3.868  69.324  1.00  0.00    -0.185 OA 
ENDROOT
BRANCH   3   5
HETATM    5  C   UNL     1      -8.931   3.908  65.752  1.00  0.00    -0.131 A  
HETATM    6  C   UNL     1      -7.744   4.649  65.640  1.00  0.00    -0.094 A  
HETATM    7  C   UNL     1      -6.960   4.550  64.491  1.00  0.00    -0.050 A  
HETATM    8  C   UNL     1      -7.342   3.698  63.457  1.00  0.00    -0.051 A  
HETATM    9  C   UNL     1      -8.502   2.935  63.573  1.00  0.00    -0.086 A  
HETATM   10  C   UNL     1      -9.297   3.041  64.715  1.00  0.00    -0.148 A  
ENDBRANCH   3   5
TORSDOF 1
ENDMDL
MODEL      184
REMARK 921   NORMALIZED FREE ENERGY PREDICTED BY IDOCK:   -1.25 KCAL/MOL
REMARK 922        TOTAL FREE ENERGY PREDICTED BY IDOCK:   -1.25 KCAL/MOL
REMARK 923 INTER-LIGAND FREE ENERGY PREDICTED BY IDOCK:   -1.20 KCAL/MOL
REMARK 924 INTRA-LIGAND FREE ENERGY PREDICTED BY IDOCK:   -0.05 KCAL/MOL
REMARK 927      BINDING AFFINITY PREDICTED BY RF-SCORE:    0.00 PKD
ROOT
HETATM    1  O   UNL     1      -8.256   5.906  66.696  1.00  0.00    -0.105 OA 
HETATM    2  C   UNL     1      -8.094   4.562  66.688  1.00  0.00    -0.103 C  
HETATM    3  C   UNL     1      -8.560   3.825  67.928  1.00  0.00    -0.113 C  
HETATM    4  O   UNL     1      -7.658   3.983  65.703  1.00  0.00    -0.083 OA 
ENDROOT
BRANCH   3   5
HETATM    5  C   UNL     1      -8.480   4.624  69.208  1.00  0.00    -0.090 A  
HETATM    6  C   UNL     1      -9.651   5.069  69.842  1.00  0.00    -0.246 A  
HETATM    7  C   UNL     1      -9.572   5.906  70.954  1.00  0.00    -0.202 A  
HETATM    8  C   UNL     1      -8.329   6.287  71.455  1.00  0.00    -0.123 A  
HETATM    9  C   UNL     1      -7.161   5.824  70.851  1.00  0.00    -0.080 A  
HETATM   10  C   UNL     1      -7.235   4.997  69.730  1.00  0.00    -0.055 A  
ENDBRANCH   3   5
TORSDOF 1
ENDMDL
MODEL      185
REMARK 921   NORMALIZED FREE ENERGY PREDICTED BY IDOCK:   -1.24 KCAL/MOL
REMARK 922        TOTAL FREE ENERGY PREDICTED BY IDOCK:   -1.23 KCAL/MOL
REMARK 923 INTER-LIGAND FREE ENERGY PREDICTED BY IDOCK:   -1.17 KCAL/MOL
REMARK 924 INTRA-LIGAND FREE ENERGY PREDICTED BY IDOCK:   -0.07 KCAL/MOL
REMARK 927      BINDING AFFINITY PREDICTED BY RF-SCORE:    0.00 PKD
ROOT
HETATM    1  O   UNL     1     -10.097   7.928  67.118  1.00  0.00    -0.203 OA 
HETATM    2  C   UNL     1     -10.074   6.918  68.019  1.00  0.00    -0.166 C  
HETATM    3  C   UNL     1      -8.706   6.381  68.388  1.00  0.00    -0.113 C  
HETATM    4  O   UNL     1     -11.103   6.518  68.546  1.00  0.00    -0.296 OA 
ENDROOT
BRANCH   3   5
HETATM    5  C   UNL     1      -7.666   6.491  67.297  1.00  0.00    -0.101 A  
HETATM    6  C   UNL     1      -6.718   7.526  67.320  1.00  0.00    -0.067 A  
HETATM    7  C   UNL     1      -5.839   7.696  66.252  1.00  0.00    -0.037 A  
HETATM    8  C   UNL     1      -5.882   6.824  65.166  1.00  0.00    -0.035 A  
HETATM    9  C   UNL     1      -6.797   5.774  65.150  1.00  0.00    -0.051 A  
HETATM   10  C   UNL     1      -7.689   5.608  66.209  1.00  0.00    -0.099 A  
ENDBRANCH   3   5
TORSDOF 1
ENDMDL
MODEL      186
REMARK 921   NORMALIZED FREE ENERGY PREDICTED BY IDOCK:   -1.17 KCAL/MOL
REMARK 922        TOTAL FREE ENERGY PREDICTED BY IDOCK:   -1.17 KCAL/MOL
REMARK 923 INTER-LIGAND FREE ENERGY PREDICTED BY IDOCK:   -1.24 KCAL/MOL
REMARK 924 INTRA-LIGAND FREE ENERGY PREDICTED BY IDOCK:    0.08 KCAL/MOL
REMARK 927      BINDING AFFINITY PREDICTED BY RF-SCORE:    0.00 PKD
ROOT
HETATM    1  O   UNL     1      -8.031   4.718  72.125  1.00  0.00    -0.101 OA 
HETATM    2  C   UNL     1      -8.295   6.028  71.912  1.00  0.00    -0.115 C  
HETATM    3  C   UNL     1      -9.033   6.361  70.630  1.00  0.00    -0.144 C  
HETATM    4  O   UNL     1      -8.008   6.875  72.745  1.00  0.00    -0.103 OA 
ENDROOT
BRANCH   3   5
HETATM    5  C   UNL     1      -8.778   5.409  69.485  1.00  0.00    -0.108 A  
HETATM    6  C   UNL     1      -7.467   5.136  69.065  1.00  0.00    -0.069 A  
HETATM    7  C   UNL     1      -7.240   4.354  67.934  1.00  0.00    -0.065 A  
HETATM    8  C   UNL     1      -8.316   3.821  67.227  1.00  0.00    -0.098 A  
HETATM    9  C   UNL     1      -9.620   4.060  67.655  1.00  0.00    -0.210 A  
HETATM   10  C   UNL     1      -9.852   4.853  68.778  1.00  0.00    -0.231 A  
ENDBRANCH   3   5
TORSDOF 1
ENDMDL
MODEL      187
REMARK 921   NORMALIZED FREE ENERGY PREDICTED BY IDOCK:   -1.16 KCAL/MOL
REMARK 922        TOTAL FREE ENERGY PREDICTED BY IDOCK:   -1.15 KCAL/MOL
REMARK 923 INTER-LIGAND FREE ENERGY PREDICTED BY IDOCK:   -1.06 KCAL/MOL
REMARK 924 INTRA-LIGAND FREE ENERGY PREDICTED BY IDOCK:   -0.09 KCAL/MOL
REMARK 927      BINDING AFFINITY PREDICTED BY RF-SCORE:    0.00 PKD
ROOT
HETATM    1  O   UNL     1      -6.247   7.243  65.746  1.00  0.00    -0.036 OA 
HETATM    2  C   UNL     1      -6.392   7.192  67.091  1.00  0.00    -0.053 C  
HETATM    3  C   UNL     1      -7.037   5.937  67.646  1.00  0.00    -0.074 C  
HETATM    4  O   UNL     1      -5.962   8.084  67.807  1.00  0.00    -0.043 OA 
ENDROOT
BRANCH   3   5
HETATM    5  C   UNL     1      -8.022   5.265  66.719  1.00  0.00    -0.104 A  
HETATM    6  C   UNL     1      -9.330   5.757  66.595  1.00  0.00    -0.155 A  
HETATM    7  C   UNL     1     -10.271   5.065  65.833  1.00  0.00    -0.209 A  
HETATM    8  C   UNL     1      -9.909   3.893  65.173  1.00  0.00    -0.184 A  
HETATM    9  C   UNL     1      -8.603   3.415  65.265  1.00  0.00    -0.110 A  
HETATM   10  C   UNL     1      -7.663   4.096  66.037  1.00  0.00    -0.090 A  
ENDBRANCH   3   5
TORSDOF 1
ENDMDL
MODEL      188
REMARK 921   NORMALIZED FREE ENERGY PREDICTED BY IDOCK:   -1.08 KCAL/MOL
REMARK 922        TOTAL FREE ENERGY PREDICTED BY IDOCK:   -1.07 KCAL/MOL
REMARK 923 INTER-LIGAND FREE ENERGY PREDICTED BY IDOCK:   -1.01 KCAL/MOL
REMARK 924 INTRA-LIGAND FREE ENERGY PREDICTED BY IDOCK:   -0.06 KCAL/MOL
REMARK 927      BINDING AFFINITY PREDICTED BY RF-SCORE:    0.00 PKD
ROOT
HETATM    1  O   UNL     1      -7.564   4.932  65.788  1.00  0.00    -0.084 OA 
HETATM    2  C   UNL     1      -7.333   3.683  65.321  1.00  0.00    -0.072 C  
HETATM    3  C   UNL     1      -7.924   2.547  66.131  1.00  0.00    -0.082 C  
HETATM    4  O   UNL     1      -6.736   3.502  64.270  1.00  0.00    -0.041 OA 
ENDROOT
BRANCH   3   5
HETATM    5  C   UNL     1      -8.062   2.825  67.610  1.00  0.00    -0.078 A  
HETATM    6  C   UNL     1      -9.289   3.253  68.141  1.00  0.00    -0.244 A  
HETATM    7  C   UNL     1      -9.382   3.625  69.481  1.00  0.00    -0.247 A  
HETATM    8  C   UNL     1      -8.261   3.552  70.306  1.00  0.00    -0.075 A  
HETATM    9  C   UNL     1      -7.047   3.098  69.795  1.00  0.00    -0.041 A  
HETATM   10  C   UNL     1      -6.945   2.739  68.451  1.00  0.00    -0.048 A  
ENDBRANCH   3   5
TORSDOF 1
ENDMDL
