MODEL        1
REMARK 921   NORMALIZED FREE ENERGY PREDICTED BY IDOCK:   -6.75 KCAL/MOL
REMARK 922        TOTAL FREE ENERGY PREDICTED BY IDOCK:   -9.08 KCAL/MOL
REMARK 923 INTER-LIGAND FREE ENERGY PREDICTED BY IDOCK:   -8.33 KCAL/MOL
REMARK 924 INTRA-LIGAND FREE ENERGY PREDICTED BY IDOCK:   -0.75 KCAL/MOL
REMARK 927      BINDING AFFINITY PREDICTED BY RF-SCORE:    0.00 PKD
ROOT
HETATM    1  C   UNL     1     -11.634  11.869  63.651  1.00  0.00    -0.559 C  
HETATM    2  C   UNL     1     -11.785  12.458  65.021  1.00  0.00    -0.420 A  
HETATM    3  C   UNL     1     -12.413  13.687  65.208  1.00  0.00    -0.517 A  
HETATM    4  C   UNL     1     -12.406  14.314  66.463  1.00  0.00    -0.345 A  
HETATM    5  C   UNL     1     -11.754  13.748  67.571  1.00  0.00    -0.375 A  
HETATM    6  C   UNL     1     -11.273  12.436  67.392  1.00  0.00    -0.351 A  
HETATM    7  C   UNL     1     -11.269  11.806  66.140  1.00  0.00    -0.363 A  
ENDROOT
BRANCH   5   8
HETATM    8  N   UNL     1     -11.520  14.427  68.800  1.00  0.00    -0.272 NA 
BRANCH   8   9
HETATM    9  C   UNL     1     -10.122  14.829  69.138  1.00  0.00    -0.197 C  
BRANCH   9  10
HETATM   10  C   UNL     1      -9.810  16.254  68.689  1.00  0.00    -0.230 C  
HETATM   11  C   UNL     1     -10.180  18.442  68.180  1.00  0.00    -0.384 C  
HETATM   12  N   UNL     1      -8.579  16.710  68.722  1.00  0.00    -0.256 NA 
HETATM   13  C   UNL     1      -8.686  18.102  68.201  1.00  0.00    -0.277 C  
HETATM   14  N   UNL     1     -10.767  17.124  68.221  1.00  0.00    -0.375 NA 
ENDBRANCH   9  10
ENDBRANCH   8   9
BRANCH   8  15
HETATM   15  C   UNL     1     -12.314  14.260  69.996  1.00  0.00    -0.346 A  
HETATM   16  C   UNL     1     -12.505  13.000  70.599  1.00  0.00    -0.347 A  
HETATM   17  C   UNL     1     -12.896  15.369  70.644  1.00  0.00    -0.484 A  
HETATM   18  C   UNL     1     -13.221  12.874  71.793  1.00  0.00    -0.384 A  
HETATM   19  C   UNL     1     -13.579  15.238  71.861  1.00  0.00    -0.575 A  
HETATM   20  O   UNL     1     -13.439  11.657  72.373  1.00  0.00    -0.602 OA 
HETATM   21  C   UNL     1     -13.734  13.987  72.441  1.00  0.00    -0.669 A  
HETATM   22  H   UNL     1     -13.926  11.572  73.184  1.00  0.00     0.000 HD 
ENDBRANCH   8  15
ENDBRANCH   5   8
TORSDOF 4
ENDMDL
MODEL        2
REMARK 921   NORMALIZED FREE ENERGY PREDICTED BY IDOCK:   -6.73 KCAL/MOL
REMARK 922        TOTAL FREE ENERGY PREDICTED BY IDOCK:   -9.06 KCAL/MOL
REMARK 923 INTER-LIGAND FREE ENERGY PREDICTED BY IDOCK:   -8.33 KCAL/MOL
REMARK 924 INTRA-LIGAND FREE ENERGY PREDICTED BY IDOCK:   -0.72 KCAL/MOL
REMARK 927      BINDING AFFINITY PREDICTED BY RF-SCORE:    0.00 PKD
ROOT
HETATM    1  C   UNL     1     -10.896  11.293  65.030  1.00  0.00    -0.285 C  
HETATM    2  C   UNL     1     -11.142  12.179  66.213  1.00  0.00    -0.353 A  
HETATM    3  C   UNL     1     -12.030  13.249  66.135  1.00  0.00    -0.470 A  
HETATM    4  C   UNL     1     -12.135  14.174  67.184  1.00  0.00    -0.432 A  
HETATM    5  C   UNL     1     -11.341  14.079  68.338  1.00  0.00    -0.291 A  
HETATM    6  C   UNL     1     -10.576  12.902  68.457  1.00  0.00    -0.270 A  
HETATM    7  C   UNL     1     -10.460  11.977  67.411  1.00  0.00    -0.239 A  
ENDROOT
BRANCH   5   8
HETATM    8  N   UNL     1     -11.237  15.096  69.329  1.00  0.00    -0.261 NA 
BRANCH   8   9
HETATM    9  C   UNL     1     -10.003  15.938  69.361  1.00  0.00    -0.274 C  
BRANCH   9  10
HETATM   10  C   UNL     1     -10.072  17.094  68.368  1.00  0.00    -0.314 C  
HETATM   11  C   UNL     1     -10.337  18.158  66.372  1.00  0.00    -0.394 C  
HETATM   12  N   UNL     1     -10.275  18.322  68.786  1.00  0.00    -0.367 NA 
HETATM   13  C   UNL     1     -10.260  19.143  67.543  1.00  0.00    -0.403 C  
HETATM   14  N   UNL     1      -9.918  16.933  67.011  1.00  0.00    -0.270 NA 
ENDBRANCH   9  10
ENDBRANCH   8   9
BRANCH   8  15
HETATM   15  C   UNL     1     -11.859  15.041  70.632  1.00  0.00    -0.313 A  
HETATM   16  C   UNL     1     -12.733  13.998  71.002  1.00  0.00    -0.431 A  
HETATM   17  C   UNL     1     -11.577  16.012  71.616  1.00  0.00    -0.538 A  
HETATM   18  C   UNL     1     -13.268  13.931  72.292  1.00  0.00    -0.473 A  
HETATM   19  C   UNL     1     -12.088  15.915  72.917  1.00  0.00    -0.612 A  
HETATM   20  O   UNL     1     -14.140  12.944  72.655  1.00  0.00    -0.709 OA 
HETATM   21  C   UNL     1     -12.931  14.866  73.258  1.00  0.00    -0.635 A  
HETATM   22  H   UNL     1     -14.504  12.898  73.532  1.00  0.00     0.000 HD 
ENDBRANCH   8  15
ENDBRANCH   5   8
TORSDOF 4
ENDMDL
MODEL        3
REMARK 921   NORMALIZED FREE ENERGY PREDICTED BY IDOCK:   -6.66 KCAL/MOL
REMARK 922        TOTAL FREE ENERGY PREDICTED BY IDOCK:   -8.97 KCAL/MOL
REMARK 923 INTER-LIGAND FREE ENERGY PREDICTED BY IDOCK:   -8.13 KCAL/MOL
REMARK 924 INTRA-LIGAND FREE ENERGY PREDICTED BY IDOCK:   -0.83 KCAL/MOL
REMARK 927      BINDING AFFINITY PREDICTED BY RF-SCORE:    0.00 PKD
ROOT
HETATM    1  C   UNL     1      -6.673  19.631  68.449  1.00  0.00    -0.323 C  
HETATM    2  C   UNL     1      -7.724  18.586  68.663  1.00  0.00    -0.332 A  
HETATM    3  C   UNL     1      -7.392  17.235  68.720  1.00  0.00    -0.250 A  
HETATM    4  C   UNL     1      -8.389  16.249  68.753  1.00  0.00    -0.235 A  
HETATM    5  C   UNL     1      -9.755  16.575  68.707  1.00  0.00    -0.251 A  
HETATM    6  C   UNL     1     -10.059  17.946  68.815  1.00  0.00    -0.384 A  
HETATM    7  C   UNL     1      -9.069  18.937  68.774  1.00  0.00    -0.352 A  
ENDROOT
BRANCH   5   8
HETATM    8  N   UNL     1     -10.801  15.629  68.513  1.00  0.00    -0.268 NA 
BRANCH   8   9
HETATM    9  C   UNL     1     -10.973  14.540  69.521  1.00  0.00    -0.224 C  
BRANCH   9  10
HETATM   10  C   UNL     1     -11.896  14.955  70.662  1.00  0.00    -0.301 C  
HETATM   11  C   UNL     1     -12.558  15.987  72.582  1.00  0.00    -0.463 C  
HETATM   12  N   UNL     1     -13.200  14.873  70.530  1.00  0.00    -0.263 NA 
HETATM   13  C   UNL     1     -13.735  15.344  71.840  1.00  0.00    -0.501 C  
HETATM   14  N   UNL     1     -11.437  15.416  71.874  1.00  0.00    -0.431 NA 
ENDBRANCH   9  10
ENDBRANCH   8   9
BRANCH   8  15
HETATM   15  C   UNL     1     -11.320  15.230  67.226  1.00  0.00    -0.269 A  
HETATM   16  C   UNL     1     -11.161  16.026  66.073  1.00  0.00     0.016 A  
HETATM   17  C   UNL     1     -11.972  13.991  67.055  1.00  0.00    -0.472 A  
HETATM   18  C   UNL     1     -11.612  15.585  64.825  1.00  0.00    -0.256 A  
HETATM   19  C   UNL     1     -12.386  13.541  65.795  1.00  0.00    -0.516 A  
HETATM   20  O   UNL     1     -11.491  16.359  63.706  1.00  0.00    -1.590 OA 
HETATM   21  C   UNL     1     -12.199  14.339  64.675  1.00  0.00    -0.470 A  
HETATM   22  H   UNL     1     -11.798  16.059  62.858  1.00  0.00     0.000 HD 
ENDBRANCH   8  15
ENDBRANCH   5   8
TORSDOF 4
ENDMDL
MODEL        4
REMARK 921   NORMALIZED FREE ENERGY PREDICTED BY IDOCK:   -6.64 KCAL/MOL
REMARK 922        TOTAL FREE ENERGY PREDICTED BY IDOCK:   -8.94 KCAL/MOL
REMARK 923 INTER-LIGAND FREE ENERGY PREDICTED BY IDOCK:   -8.20 KCAL/MOL
REMARK 924 INTRA-LIGAND FREE ENERGY PREDICTED BY IDOCK:   -0.74 KCAL/MOL
REMARK 927      BINDING AFFINITY PREDICTED BY RF-SCORE:    0.00 PKD
ROOT
HETATM    1  C   UNL     1     -12.658  14.978  73.624  1.00  0.00    -0.666 C  
HETATM    2  C   UNL     1     -12.292  14.944  72.171  1.00  0.00    -0.430 A  
HETATM    3  C   UNL     1     -12.629  13.854  71.372  1.00  0.00    -0.444 A  
HETATM    4  C   UNL     1     -12.144  13.746  70.061  1.00  0.00    -0.416 A  
HETATM    5  C   UNL     1     -11.286  14.711  69.506  1.00  0.00    -0.280 A  
HETATM    6  C   UNL     1     -11.097  15.875  70.277  1.00  0.00    -0.381 A  
HETATM    7  C   UNL     1     -11.572  15.987  71.591  1.00  0.00    -0.538 A  
ENDROOT
BRANCH   5   8
HETATM    8  N   UNL     1     -10.586  14.553  68.276  1.00  0.00    -0.236 NA 
BRANCH   8   9
HETATM    9  C   UNL     1      -9.198  15.094  68.171  1.00  0.00    -0.184 C  
BRANCH   9  10
HETATM   10  C   UNL     1      -8.169  13.991  67.938  1.00  0.00    -0.158 C  
HETATM   11  C   UNL     1      -6.128  13.034  67.615  1.00  0.00    -0.151 C  
HETATM   12  N   UNL     1      -8.452  12.742  68.227  1.00  0.00    -0.172 NA 
HETATM   13  C   UNL     1      -7.222  11.988  67.850  1.00  0.00    -0.102 C  
HETATM   14  N   UNL     1      -6.919  14.225  67.414  1.00  0.00    -0.212 NA 
ENDBRANCH   9  10
ENDBRANCH   8   9
BRANCH   8  15
HETATM   15  C   UNL     1     -11.214  14.482  66.977  1.00  0.00    -0.337 A  
HETATM   16  C   UNL     1     -11.077  15.508  66.021  1.00  0.00    -0.185 A  
HETATM   17  C   UNL     1     -11.958  13.348  66.588  1.00  0.00    -0.452 A  
HETATM   18  C   UNL     1     -11.637  15.385  64.746  1.00  0.00    -0.286 A  
HETATM   19  C   UNL     1     -12.483  13.217  65.296  1.00  0.00    -0.550 A  
HETATM   20  O   UNL     1     -11.537  16.384  63.820  1.00  0.00    -1.605 OA 
HETATM   21  C   UNL     1     -12.315  14.236  64.369  1.00  0.00    -0.417 A  
HETATM   22  H   UNL     1     -11.919  16.300  62.953  1.00  0.00     0.000 HD 
ENDBRANCH   8  15
ENDBRANCH   5   8
TORSDOF 4
ENDMDL
MODEL        5
REMARK 921   NORMALIZED FREE ENERGY PREDICTED BY IDOCK:   -6.62 KCAL/MOL
REMARK 922        TOTAL FREE ENERGY PREDICTED BY IDOCK:   -8.92 KCAL/MOL
REMARK 923 INTER-LIGAND FREE ENERGY PREDICTED BY IDOCK:   -8.11 KCAL/MOL
REMARK 924 INTRA-LIGAND FREE ENERGY PREDICTED BY IDOCK:   -0.81 KCAL/MOL
REMARK 927      BINDING AFFINITY PREDICTED BY RF-SCORE:    0.00 PKD
ROOT
HETATM    1  C   UNL     1     -13.572  13.488  72.220  1.00  0.00    -0.690 C  
HETATM    2  C   UNL     1     -12.735  13.880  71.041  1.00  0.00    -0.428 A  
HETATM    3  C   UNL     1     -12.568  15.218  70.692  1.00  0.00    -0.471 A  
HETATM    4  C   UNL     1     -11.927  15.575  69.498  1.00  0.00    -0.372 A  
HETATM    5  C   UNL     1     -11.447  14.610  68.596  1.00  0.00    -0.300 A  
HETATM    6  C   UNL     1     -11.484  13.278  69.052  1.00  0.00    -0.350 A  
HETATM    7  C   UNL     1     -12.131  12.912  70.241  1.00  0.00    -0.377 A  
ENDROOT
BRANCH   5   8
HETATM    8  N   UNL     1     -10.992  14.896  67.278  1.00  0.00    -0.314 NA 
BRANCH   8   9
HETATM    9  C   UNL     1     -10.779  16.323  66.891  1.00  0.00    -0.217 C  
BRANCH   9  10
HETATM   10  C   UNL     1      -9.311  16.730  66.987  1.00  0.00    -0.233 C  
HETATM   11  C   UNL     1      -7.260  17.053  67.923  1.00  0.00    -0.154 C  
HETATM   12  N   UNL     1      -8.579  16.849  65.903  1.00  0.00    -0.517 NA 
HETATM   13  C   UNL     1      -7.240  17.268  66.406  1.00  0.00    -0.292 C  
HETATM   14  N   UNL     1      -8.680  17.003  68.178  1.00  0.00    -0.225 NA 
ENDBRANCH   9  10
ENDBRANCH   8   9
BRANCH   8  15
HETATM   15  C   UNL     1     -11.270  14.082  66.118  1.00  0.00    -0.318 A  
HETATM   16  C   UNL     1     -10.245  13.595  65.280  1.00  0.00    -0.341 A  
HETATM   17  C   UNL     1     -12.588  13.694  65.798  1.00  0.00    -0.511 A  
HETATM   18  C   UNL     1     -10.535  12.753  64.202  1.00  0.00    -0.413 A  
HETATM   19  C   UNL     1     -12.864  12.819  64.739  1.00  0.00    -0.374 A  
HETATM   20  O   UNL     1      -9.556  12.298  63.365  1.00  0.00    -0.663 OA 
HETATM   21  C   UNL     1     -11.833  12.341  63.944  1.00  0.00    -0.553 A  
HETATM   22  H   UNL     1      -9.753  11.726  62.633  1.00  0.00     0.000 HD 
ENDBRANCH   8  15
ENDBRANCH   5   8
TORSDOF 4
ENDMDL
MODEL        6
REMARK 921   NORMALIZED FREE ENERGY PREDICTED BY IDOCK:   -6.58 KCAL/MOL
REMARK 922        TOTAL FREE ENERGY PREDICTED BY IDOCK:   -8.87 KCAL/MOL
REMARK 923 INTER-LIGAND FREE ENERGY PREDICTED BY IDOCK:   -8.12 KCAL/MOL
REMARK 924 INTRA-LIGAND FREE ENERGY PREDICTED BY IDOCK:   -0.75 KCAL/MOL
REMARK 927      BINDING AFFINITY PREDICTED BY RF-SCORE:    0.00 PKD
ROOT
HETATM    1  C   UNL     1      -9.880  20.685  67.111  1.00  0.00    -0.497 C  
HETATM    2  C   UNL     1     -10.008  19.230  67.445  1.00  0.00    -0.462 A  
HETATM    3  C   UNL     1     -10.176  18.277  66.444  1.00  0.00    -0.417 A  
HETATM    4  C   UNL     1     -10.462  16.942  66.762  1.00  0.00    -0.260 A  
HETATM    5  C   UNL     1     -10.613  16.514  68.092  1.00  0.00    -0.329 A  
HETATM    6  C   UNL     1     -10.277  17.459  69.080  1.00  0.00    -0.317 A  
HETATM    7  C   UNL     1      -9.998  18.797  68.770  1.00  0.00    -0.442 A  
ENDROOT
BRANCH   5   8
HETATM    8  N   UNL     1     -11.118  15.238  68.473  1.00  0.00    -0.267 NA 
BRANCH   8   9
HETATM    9  C   UNL     1     -10.942  14.795  69.889  1.00  0.00    -0.199 C  
BRANCH   9  10
HETATM   10  C   UNL     1     -12.277  14.648  70.614  1.00  0.00    -0.325 C  
HETATM   11  C   UNL     1     -13.822  13.792  72.051  1.00  0.00    -0.485 C  
HETATM   12  N   UNL     1     -13.122  15.651  70.668  1.00  0.00    -0.463 NA 
HETATM   13  C   UNL     1     -14.284  15.114  71.431  1.00  0.00    -0.498 C  
HETATM   14  N   UNL     1     -12.676  13.484  71.229  1.00  0.00    -0.358 NA 
ENDBRANCH   9  10
ENDBRANCH   8   9
BRANCH   8  15
HETATM   15  C   UNL     1     -11.237  14.103  67.588  1.00  0.00    -0.297 A  
HETATM   16  C   UNL     1     -12.227  14.033  66.586  1.00  0.00    -0.463 A  
HETATM   17  C   UNL     1     -10.328  13.027  67.656  1.00  0.00    -0.222 A  
HETATM   18  C   UNL     1     -12.279  12.955  65.697  1.00  0.00    -0.463 A  
HETATM   19  C   UNL     1     -10.364  11.970  66.737  1.00  0.00    -0.233 A  
HETATM   20  O   UNL     1     -13.250  12.861  64.742  1.00  0.00    -0.764 OA 
HETATM   21  C   UNL     1     -11.338  11.938  65.750  1.00  0.00    -0.354 A  
HETATM   22  H   UNL     1     -13.285  12.128  64.138  1.00  0.00     0.000 HD 
ENDBRANCH   8  15
ENDBRANCH   5   8
TORSDOF 4
ENDMDL
MODEL        7
REMARK 921   NORMALIZED FREE ENERGY PREDICTED BY IDOCK:   -6.57 KCAL/MOL
REMARK 922        TOTAL FREE ENERGY PREDICTED BY IDOCK:   -8.85 KCAL/MOL
REMARK 923 INTER-LIGAND FREE ENERGY PREDICTED BY IDOCK:   -7.99 KCAL/MOL
REMARK 924 INTRA-LIGAND FREE ENERGY PREDICTED BY IDOCK:   -0.86 KCAL/MOL
REMARK 927      BINDING AFFINITY PREDICTED BY RF-SCORE:    0.00 PKD
ROOT
HETATM    1  C   UNL     1     -13.092  15.007  73.149  1.00  0.00    -0.619 C  
HETATM    2  C   UNL     1     -12.676  14.703  71.742  1.00  0.00    -0.405 A  
HETATM    3  C   UNL     1     -12.543  13.389  71.301  1.00  0.00    -0.411 A  
HETATM    4  C   UNL     1     -11.996  13.104  70.042  1.00  0.00    -0.391 A  
HETATM    5  C   UNL     1     -11.540  14.120  69.186  1.00  0.00    -0.307 A  
HETATM    6  C   UNL     1     -11.837  15.436  69.588  1.00  0.00    -0.368 A  
HETATM    7  C   UNL     1     -12.377  15.729  70.847  1.00  0.00    -0.451 A  
ENDROOT
BRANCH   5   8
HETATM    8  N   UNL     1     -10.778  13.893  68.004  1.00  0.00    -0.242 NA 
BRANCH   8   9
HETATM    9  C   UNL     1      -9.311  14.168  68.038  1.00  0.00    -0.203 C  
BRANCH   9  10
HETATM   10  C   UNL     1      -8.485  12.909  67.788  1.00  0.00    -0.185 C  
HETATM   11  C   UNL     1      -8.043  10.704  67.428  1.00  0.00    -0.112 C  
HETATM   12  N   UNL     1      -7.266  12.994  67.309  1.00  0.00    -0.105 NA 
HETATM   13  C   UNL     1      -6.802  11.580  67.227  1.00  0.00    -0.118 C  
HETATM   14  N   UNL     1      -8.946  11.640  68.054  1.00  0.00    -0.169 NA 
ENDBRANCH   9  10
ENDBRANCH   8   9
BRANCH   8  15
HETATM   15  C   UNL     1     -11.295  14.005  66.659  1.00  0.00    -0.335 A  
HETATM   16  C   UNL     1     -11.139  15.177  65.891  1.00  0.00    -0.319 A  
HETATM   17  C   UNL     1     -11.941  12.919  66.034  1.00  0.00    -0.505 A  
HETATM   18  C   UNL     1     -11.588  15.237  64.568  1.00  0.00    -0.312 A  
HETATM   19  C   UNL     1     -12.352  12.974  64.696  1.00  0.00    -0.480 A  
HETATM   20  O   UNL     1     -11.470  16.375  63.822  1.00  0.00    -1.590 OA 
HETATM   21  C   UNL     1     -12.168  14.136  63.959  1.00  0.00    -0.369 A  
HETATM   22  H   UNL     1     -11.775  16.415  62.923  1.00  0.00     0.000 HD 
ENDBRANCH   8  15
ENDBRANCH   5   8
TORSDOF 4
ENDMDL
MODEL        8
REMARK 921   NORMALIZED FREE ENERGY PREDICTED BY IDOCK:   -6.55 KCAL/MOL
REMARK 922        TOTAL FREE ENERGY PREDICTED BY IDOCK:   -8.83 KCAL/MOL
REMARK 923 INTER-LIGAND FREE ENERGY PREDICTED BY IDOCK:   -8.13 KCAL/MOL
REMARK 924 INTRA-LIGAND FREE ENERGY PREDICTED BY IDOCK:   -0.70 KCAL/MOL
REMARK 927      BINDING AFFINITY PREDICTED BY RF-SCORE:    0.00 PKD
ROOT
HETATM    1  C   UNL     1     -13.960  13.774  72.287  1.00  0.00    -0.672 C  
HETATM    2  C   UNL     1     -12.998  14.152  71.202  1.00  0.00    -0.419 A  
HETATM    3  C   UNL     1     -12.787  15.486  70.863  1.00  0.00    -0.535 A  
HETATM    4  C   UNL     1     -12.018  15.831  69.743  1.00  0.00    -0.337 A  
HETATM    5  C   UNL     1     -11.449  14.856  68.906  1.00  0.00    -0.299 A  
HETATM    6  C   UNL     1     -11.542  13.528  69.365  1.00  0.00    -0.369 A  
HETATM    7  C   UNL     1     -12.316  13.175  70.479  1.00  0.00    -0.380 A  
ENDROOT
BRANCH   5   8
HETATM    8  N   UNL     1     -10.853  15.130  67.642  1.00  0.00    -0.287 NA 
BRANCH   8   9
HETATM    9  C   UNL     1     -10.706  16.554  67.216  1.00  0.00    -0.243 C  
BRANCH   9  10
HETATM   10  C   UNL     1      -9.244  16.979  67.127  1.00  0.00    -0.234 C  
HETATM   11  C   UNL     1      -7.291  17.660  66.173  1.00  0.00    -0.309 C  
HETATM   12  N   UNL     1      -8.613  17.426  68.188  1.00  0.00    -0.241 NA 
HETATM   13  C   UNL     1      -7.233  17.713  67.704  1.00  0.00    -0.178 C  
HETATM   14  N   UNL     1      -8.508  16.912  65.967  1.00  0.00    -0.503 NA 
ENDBRANCH   9  10
ENDBRANCH   8   9
BRANCH   8  15
HETATM   15  C   UNL     1     -10.912  14.250  66.498  1.00  0.00    -0.316 A  
HETATM   16  C   UNL     1     -11.773  14.495  65.408  1.00  0.00    -0.354 A  
HETATM   17  C   UNL     1     -10.068  13.125  66.398  1.00  0.00    -0.281 A  
HETATM   18  C   UNL     1     -11.763  13.667  64.282  1.00  0.00    -0.403 A  
HETATM   19  C   UNL     1     -10.038  12.323  65.250  1.00  0.00    -0.295 A  
HETATM   20  O   UNL     1     -12.612  13.874  63.232  1.00  0.00    -1.049 OA 
HETATM   21  C   UNL     1     -10.883  12.600  64.185  1.00  0.00    -0.431 A  
HETATM   22  H   UNL     1     -12.605  13.311  62.467  1.00  0.00     0.000 HD 
ENDBRANCH   8  15
ENDBRANCH   5   8
TORSDOF 4
ENDMDL
MODEL        9
REMARK 921   NORMALIZED FREE ENERGY PREDICTED BY IDOCK:   -6.54 KCAL/MOL
REMARK 922        TOTAL FREE ENERGY PREDICTED BY IDOCK:   -8.82 KCAL/MOL
REMARK 923 INTER-LIGAND FREE ENERGY PREDICTED BY IDOCK:   -8.15 KCAL/MOL
REMARK 924 INTRA-LIGAND FREE ENERGY PREDICTED BY IDOCK:   -0.67 KCAL/MOL
REMARK 927      BINDING AFFINITY PREDICTED BY RF-SCORE:    0.00 PKD
ROOT
HETATM    1  C   UNL     1     -11.666  11.725  63.583  1.00  0.00    -0.517 C  
HETATM    2  C   UNL     1     -11.810  12.319  64.951  1.00  0.00    -0.417 A  
HETATM    3  C   UNL     1     -12.576  13.463  65.159  1.00  0.00    -0.495 A  
HETATM    4  C   UNL     1     -12.575  14.113  66.402  1.00  0.00    -0.235 A  
HETATM    5  C   UNL     1     -11.792  13.657  67.476  1.00  0.00    -0.381 A  
HETATM    6  C   UNL     1     -11.160  12.413  67.286  1.00  0.00    -0.329 A  
HETATM    7  C   UNL     1     -11.149  11.762  66.045  1.00  0.00    -0.363 A  
ENDROOT
BRANCH   5   8
HETATM    8  N   UNL     1     -11.574  14.387  68.679  1.00  0.00    -0.296 NA 
BRANCH   8   9
HETATM    9  C   UNL     1     -10.249  15.043  68.885  1.00  0.00    -0.235 C  
BRANCH   9  10
HETATM   10  C   UNL     1     -10.202  16.444  68.281  1.00  0.00    -0.255 C  
HETATM   11  C   UNL     1     -10.363  18.073  66.698  1.00  0.00    -0.371 C  
HETATM   12  N   UNL     1     -10.277  17.506  69.050  1.00  0.00    -0.345 NA 
HETATM   13  C   UNL     1     -10.181  18.654  68.105  1.00  0.00    -0.382 C  
HETATM   14  N   UNL     1     -10.069  16.679  66.932  1.00  0.00    -0.273 NA 
ENDBRANCH   9  10
ENDBRANCH   8   9
BRANCH   8  15
HETATM   15  C   UNL     1     -12.209  14.095  69.943  1.00  0.00    -0.359 A  
HETATM   16  C   UNL     1     -12.872  15.086  70.696  1.00  0.00    -0.413 A  
HETATM   17  C   UNL     1     -12.234  12.784  70.461  1.00  0.00    -0.389 A  
HETATM   18  C   UNL     1     -13.538  14.765  71.883  1.00  0.00    -0.398 A  
HETATM   19  C   UNL     1     -12.936  12.465  71.631  1.00  0.00    -0.409 A  
HETATM   20  O   UNL     1     -14.159  15.720  72.637  1.00  0.00    -0.578 OA 
HETATM   21  C   UNL     1     -13.596  13.458  72.340  1.00  0.00    -0.708 A  
HETATM   22  H   UNL     1     -14.611  15.501  73.443  1.00  0.00     0.000 HD 
ENDBRANCH   8  15
ENDBRANCH   5   8
TORSDOF 4
ENDMDL
MODEL       10
REMARK 921   NORMALIZED FREE ENERGY PREDICTED BY IDOCK:   -6.49 KCAL/MOL
REMARK 922        TOTAL FREE ENERGY PREDICTED BY IDOCK:   -8.75 KCAL/MOL
REMARK 923 INTER-LIGAND FREE ENERGY PREDICTED BY IDOCK:   -7.99 KCAL/MOL
REMARK 924 INTRA-LIGAND FREE ENERGY PREDICTED BY IDOCK:   -0.76 KCAL/MOL
REMARK 927      BINDING AFFINITY PREDICTED BY RF-SCORE:    0.00 PKD
ROOT
HETATM    1  C   UNL     1      -7.868  19.474  68.142  1.00  0.00    -0.347 C  
HETATM    2  C   UNL     1      -8.712  18.242  68.263  1.00  0.00    -0.302 A  
HETATM    3  C   UNL     1     -10.067  18.266  67.941  1.00  0.00    -0.376 A  
HETATM    4  C   UNL     1     -10.891  17.164  68.211  1.00  0.00    -0.314 A  
HETATM    5  C   UNL     1     -10.397  16.006  68.834  1.00  0.00    -0.235 A  
HETATM    6  C   UNL     1      -9.000  15.948  68.997  1.00  0.00    -0.245 A  
HETATM    7  C   UNL     1      -8.171  17.048  68.737  1.00  0.00    -0.245 A  
ENDROOT
BRANCH   5   8
HETATM    8  N   UNL     1     -11.214  14.952  69.334  1.00  0.00    -0.268 NA 
BRANCH   8   9
HETATM    9  C   UNL     1     -12.010  14.143  68.363  1.00  0.00    -0.331 C  
BRANCH   9  10
HETATM   10  C   UNL     1     -11.314  12.835  68.000  1.00  0.00    -0.292 C  
HETATM   11  C   UNL     1      -9.602  11.390  67.590  1.00  0.00    -0.169 C  
HETATM   12  N   UNL     1     -11.949  11.690  68.103  1.00  0.00    -0.590 NA 
HETATM   13  C   UNL     1     -10.955  10.675  67.651  1.00  0.00    -0.310 C  
HETATM   14  N   UNL     1     -10.019  12.772  67.541  1.00  0.00    -0.207 NA 
ENDBRANCH   9  10
ENDBRANCH   8   9
BRANCH   8  15
HETATM   15  C   UNL     1     -11.825  14.936  70.643  1.00  0.00    -0.301 A  
HETATM   16  C   UNL     1     -12.654  13.880  71.072  1.00  0.00    -0.444 A  
HETATM   17  C   UNL     1     -11.577  15.965  71.576  1.00  0.00    -0.537 A  
HETATM   18  C   UNL     1     -13.179  13.855  72.367  1.00  0.00    -0.488 A  
HETATM   19  C   UNL     1     -12.075  15.912  72.884  1.00  0.00    -0.612 A  
HETATM   20  O   UNL     1     -14.007  12.853  72.786  1.00  0.00    -0.730 OA 
HETATM   21  C   UNL     1     -12.873  14.849  73.283  1.00  0.00    -0.646 A  
HETATM   22  H   UNL     1     -14.364  12.836  73.667  1.00  0.00     0.000 HD 
ENDBRANCH   8  15
ENDBRANCH   5   8
TORSDOF 4
ENDMDL
MODEL       11
REMARK 921   NORMALIZED FREE ENERGY PREDICTED BY IDOCK:   -6.47 KCAL/MOL
REMARK 922        TOTAL FREE ENERGY PREDICTED BY IDOCK:   -8.74 KCAL/MOL
REMARK 923 INTER-LIGAND FREE ENERGY PREDICTED BY IDOCK:   -8.02 KCAL/MOL
REMARK 924 INTRA-LIGAND FREE ENERGY PREDICTED BY IDOCK:   -0.72 KCAL/MOL
REMARK 927      BINDING AFFINITY PREDICTED BY RF-SCORE:    0.00 PKD
ROOT
HETATM    1  C   UNL     1      -7.938  18.788  66.432  1.00  0.00    -0.300 C  
HETATM    2  C   UNL     1      -8.759  17.595  66.814  1.00  0.00    -0.277 A  
HETATM    3  C   UNL     1      -8.268  16.302  66.649  1.00  0.00    -0.316 A  
HETATM    4  C   UNL     1      -9.094  15.187  66.849  1.00  0.00    -0.270 A  
HETATM    5  C   UNL     1     -10.448  15.321  67.199  1.00  0.00    -0.280 A  
HETATM    6  C   UNL     1     -10.870  16.627  67.517  1.00  0.00    -0.221 A  
HETATM    7  C   UNL     1     -10.053  17.747  67.312  1.00  0.00    -0.337 A  
ENDROOT
BRANCH   5   8
HETATM    8  N   UNL     1     -11.388  14.252  67.199  1.00  0.00    -0.322 NA 
BRANCH   8   9
HETATM    9  C   UNL     1     -12.503  14.282  66.205  1.00  0.00    -0.336 C  
BRANCH   9  10
HETATM   10  C   UNL     1     -12.231  13.372  65.010  1.00  0.00    -0.424 C  
HETATM   11  C   UNL     1     -11.029  12.222  63.455  1.00  0.00    -0.459 C  
HETATM   12  N   UNL     1     -13.141  12.519  64.601  1.00  0.00    -0.837 NA 
HETATM   13  C   UNL     1     -12.514  11.844  63.429  1.00  0.00    -0.463 C  
HETATM   14  N   UNL     1     -11.055  13.394  64.298  1.00  0.00    -0.382 NA 
ENDBRANCH   9  10
ENDBRANCH   8   9
BRANCH   8  15
HETATM   15  C   UNL     1     -11.755  13.480  68.363  1.00  0.00    -0.358 A  
HETATM   16  C   UNL     1     -11.742  12.070  68.362  1.00  0.00    -0.390 A  
HETATM   17  C   UNL     1     -12.098  14.110  69.577  1.00  0.00    -0.388 A  
HETATM   18  C   UNL     1     -12.035  11.346  69.522  1.00  0.00    -0.341 A  
HETATM   19  C   UNL     1     -12.352  13.377  70.744  1.00  0.00    -0.433 A  
HETATM   20  O   UNL     1     -12.056   9.980  69.528  1.00  0.00    -0.483 OA 
HETATM   21  C   UNL     1     -12.314  11.990  70.717  1.00  0.00    -0.403 A  
HETATM   22  H   UNL     1     -12.255   9.488  70.317  1.00  0.00     0.000 HD 
ENDBRANCH   8  15
ENDBRANCH   5   8
TORSDOF 4
ENDMDL
MODEL       12
REMARK 921   NORMALIZED FREE ENERGY PREDICTED BY IDOCK:   -6.47 KCAL/MOL
REMARK 922        TOTAL FREE ENERGY PREDICTED BY IDOCK:   -8.73 KCAL/MOL
REMARK 923 INTER-LIGAND FREE ENERGY PREDICTED BY IDOCK:   -8.08 KCAL/MOL
REMARK 924 INTRA-LIGAND FREE ENERGY PREDICTED BY IDOCK:   -0.65 KCAL/MOL
REMARK 927      BINDING AFFINITY PREDICTED BY RF-SCORE:    0.00 PKD
ROOT
HETATM    1  C   UNL     1     -11.365  11.581  63.457  1.00  0.00    -0.375 C  
HETATM    2  C   UNL     1     -11.351  12.333  64.753  1.00  0.00    -0.371 A  
HETATM    3  C   UNL     1     -12.474  13.031  65.190  1.00  0.00    -0.552 A  
HETATM    4  C   UNL     1     -12.410  13.867  66.313  1.00  0.00    -0.489 A  
HETATM    5  C   UNL     1     -11.216  14.055  67.029  1.00  0.00    -0.313 A  
HETATM    6  C   UNL     1     -10.147  13.214  66.665  1.00  0.00    -0.264 A  
HETATM    7  C   UNL     1     -10.201  12.382  65.539  1.00  0.00    -0.297 A  
ENDROOT
BRANCH   5   8
HETATM    8  N   UNL     1     -11.027  15.049  68.031  1.00  0.00    -0.274 NA 
BRANCH   8   9
HETATM    9  C   UNL     1      -9.824  15.930  67.944  1.00  0.00    -0.218 C  
BRANCH   9  10
HETATM   10  C   UNL     1     -10.152  17.293  67.342  1.00  0.00    -0.307 C  
HETATM   11  C   UNL     1     -10.332  19.559  67.203  1.00  0.00    -0.451 C  
HETATM   12  N   UNL     1     -10.282  17.435  66.043  1.00  0.00    -0.494 NA 
HETATM   13  C   UNL     1     -10.612  18.877  65.860  1.00  0.00    -0.373 C  
HETATM   14  N   UNL     1     -10.341  18.426  68.098  1.00  0.00    -0.375 NA 
ENDBRANCH   9  10
ENDBRANCH   8   9
BRANCH   8  15
HETATM   15  C   UNL     1     -11.491  14.940  69.395  1.00  0.00    -0.299 A  
HETATM   16  C   UNL     1     -11.404  16.014  70.305  1.00  0.00    -0.391 A  
HETATM   17  C   UNL     1     -12.101  13.759  69.865  1.00  0.00    -0.412 A  
HETATM   18  C   UNL     1     -11.922  15.905  71.599  1.00  0.00    -0.480 A  
HETATM   19  C   UNL     1     -12.651  13.673  71.150  1.00  0.00    -0.452 A  
HETATM   20  O   UNL     1     -11.818  16.927  72.500  1.00  0.00    -0.491 OA 
HETATM   21  C   UNL     1     -12.568  14.753  72.018  1.00  0.00    -0.401 A  
HETATM   22  H   UNL     1     -12.170  16.853  73.380  1.00  0.00     0.000 HD 
ENDBRANCH   8  15
ENDBRANCH   5   8
TORSDOF 4
ENDMDL
MODEL       13
REMARK 921   NORMALIZED FREE ENERGY PREDICTED BY IDOCK:   -6.41 KCAL/MOL
REMARK 922        TOTAL FREE ENERGY PREDICTED BY IDOCK:   -8.66 KCAL/MOL
REMARK 923 INTER-LIGAND FREE ENERGY PREDICTED BY IDOCK:   -7.80 KCAL/MOL
REMARK 924 INTRA-LIGAND FREE ENERGY PREDICTED BY IDOCK:   -0.86 KCAL/MOL
REMARK 927      BINDING AFFINITY PREDICTED BY RF-SCORE:    0.00 PKD
ROOT
HETATM    1  C   UNL     1     -13.079  11.042  71.722  1.00  0.00    -0.554 C  
HETATM    2  C   UNL     1     -12.369  11.784  70.631  1.00  0.00    -0.421 A  
HETATM    3  C   UNL     1     -12.341  13.176  70.611  1.00  0.00    -0.405 A  
HETATM    4  C   UNL     1     -11.823  13.869  69.507  1.00  0.00    -0.383 A  
HETATM    5  C   UNL     1     -11.334  13.198  68.374  1.00  0.00    -0.289 A  
HETATM    6  C   UNL     1     -11.225  11.799  68.492  1.00  0.00    -0.306 A  
HETATM    7  C   UNL     1     -11.748  11.098  69.588  1.00  0.00    -0.410 A  
ENDROOT
BRANCH   5   8
HETATM    8  N   UNL     1     -11.005  13.833  67.143  1.00  0.00    -0.286 NA 
BRANCH   8   9
HETATM    9  C   UNL     1     -11.027  15.326  67.082  1.00  0.00    -0.331 C  
BRANCH   9  10
HETATM   10  C   UNL     1      -9.634  15.912  66.875  1.00  0.00    -0.229 C  
HETATM   11  C   UNL     1      -7.360  16.039  66.928  1.00  0.00    -0.201 C  
HETATM   12  N   UNL     1      -9.435  16.868  65.996  1.00  0.00    -0.480 NA 
HETATM   13  C   UNL     1      -7.980  17.172  66.103  1.00  0.00    -0.262 C  
HETATM   14  N   UNL     1      -8.529  15.499  67.582  1.00  0.00    -0.161 NA 
ENDBRANCH   9  10
ENDBRANCH   8   9
BRANCH   8  15
HETATM   15  C   UNL     1     -11.228  13.259  65.836  1.00  0.00    -0.290 A  
HETATM   16  C   UNL     1     -10.166  12.829  65.014  1.00  0.00    -0.292 A  
HETATM   17  C   UNL     1     -12.534  13.058  65.342  1.00  0.00    -0.531 A  
HETATM   18  C   UNL     1     -10.412  12.214  63.783  1.00  0.00    -0.437 A  
HETATM   19  C   UNL     1     -12.770  12.406  64.124  1.00  0.00    -0.446 A  
HETATM   20  O   UNL     1      -9.392  11.819  62.964  1.00  0.00    -0.566 OA 
HETATM   21  C   UNL     1     -11.705  11.976  63.346  1.00  0.00    -0.519 A  
HETATM   22  H   UNL     1      -9.559  11.402  62.127  1.00  0.00     0.000 HD 
ENDBRANCH   8  15
ENDBRANCH   5   8
TORSDOF 4
ENDMDL
MODEL       14
REMARK 921   NORMALIZED FREE ENERGY PREDICTED BY IDOCK:   -6.39 KCAL/MOL
REMARK 922        TOTAL FREE ENERGY PREDICTED BY IDOCK:   -8.63 KCAL/MOL
REMARK 923 INTER-LIGAND FREE ENERGY PREDICTED BY IDOCK:   -8.41 KCAL/MOL
REMARK 924 INTRA-LIGAND FREE ENERGY PREDICTED BY IDOCK:   -0.22 KCAL/MOL
REMARK 927      BINDING AFFINITY PREDICTED BY RF-SCORE:    0.00 PKD
ROOT
HETATM    1  C   UNL     1     -13.104  10.184  71.710  1.00  0.00    -0.568 C  
HETATM    2  C   UNL     1     -12.520  11.331  70.943  1.00  0.00    -0.493 A  
HETATM    3  C   UNL     1     -12.836  12.647  71.269  1.00  0.00    -0.344 A  
HETATM    4  C   UNL     1     -12.425  13.709  70.451  1.00  0.00    -0.364 A  
HETATM    5  C   UNL     1     -11.702  13.495  69.265  1.00  0.00    -0.330 A  
HETATM    6  C   UNL     1     -11.259  12.175  69.051  1.00  0.00    -0.314 A  
HETATM    7  C   UNL     1     -11.672  11.107  69.859  1.00  0.00    -0.433 A  
ENDROOT
BRANCH   5   8
HETATM    8  N   UNL     1     -11.449  14.496  68.285  1.00  0.00    -0.295 NA 
BRANCH   8   9
HETATM    9  C   UNL     1     -11.489  15.929  68.702  1.00  0.00    -0.391 C  
BRANCH   9  10
HETATM   10  C   UNL     1     -10.097  16.554  68.745  1.00  0.00    -0.255 C  
HETATM   11  C   UNL     1      -7.822  16.656  68.757  1.00  0.00    -0.238 C  
HETATM   12  N   UNL     1      -9.922  17.816  68.427  1.00  0.00    -0.341 NA 
HETATM   13  C   UNL     1      -8.459  18.042  68.606  1.00  0.00    -0.267 C  
HETATM   14  N   UNL     1      -8.970  15.860  69.120  1.00  0.00    -0.244 NA 
ENDBRANCH   9  10
ENDBRANCH   8   9
BRANCH   8  15
HETATM   15  C   UNL     1     -11.740  14.359  66.877  1.00  0.00    -0.402 A  
HETATM   16  C   UNL     1     -11.518  15.406  65.959  1.00  0.00    -0.002 A  
HETATM   17  C   UNL     1     -12.218  13.143  66.346  1.00  0.00    -0.396 A  
HETATM   18  C   UNL     1     -11.743  15.226  64.591  1.00  0.00    -0.308 A  
HETATM   19  C   UNL     1     -12.404  12.960  64.970  1.00  0.00    -0.541 A  
HETATM   20  O   UNL     1     -11.560  16.241  63.696  1.00  0.00    -1.424 OA 
HETATM   21  C   UNL     1     -12.158  14.003  64.089  1.00  0.00    -0.456 A  
HETATM   22  H   UNL     1     -11.713  16.119  62.766  1.00  0.00     0.000 HD 
ENDBRANCH   8  15
ENDBRANCH   5   8
TORSDOF 4
ENDMDL
MODEL       15
REMARK 921   NORMALIZED FREE ENERGY PREDICTED BY IDOCK:   -6.36 KCAL/MOL
REMARK 922        TOTAL FREE ENERGY PREDICTED BY IDOCK:   -8.60 KCAL/MOL
REMARK 923 INTER-LIGAND FREE ENERGY PREDICTED BY IDOCK:   -7.92 KCAL/MOL
REMARK 924 INTRA-LIGAND FREE ENERGY PREDICTED BY IDOCK:   -0.67 KCAL/MOL
REMARK 927      BINDING AFFINITY PREDICTED BY RF-SCORE:    0.00 PKD
ROOT
HETATM    1  C   UNL     1     -11.493   7.988  72.148  1.00  0.00    -0.393 C  
HETATM    2  C   UNL     1     -11.776   9.292  71.468  1.00  0.00    -0.450 A  
HETATM    3  C   UNL     1     -11.024   9.708  70.372  1.00  0.00    -0.356 A  
HETATM    4  C   UNL     1     -11.177  10.997  69.841  1.00  0.00    -0.327 A  
HETATM    5  C   UNL     1     -12.072  11.926  70.398  1.00  0.00    -0.333 A  
HETATM    6  C   UNL     1     -12.931  11.424  71.395  1.00  0.00    -0.468 A  
HETATM    7  C   UNL     1     -12.779  10.140  71.936  1.00  0.00    -0.493 A  
ENDROOT
BRANCH   5   8
HETATM    8  N   UNL     1     -12.116  13.307  70.053  1.00  0.00    -0.328 NA 
BRANCH   8   9
HETATM    9  C   UNL     1     -13.232  14.141  70.590  1.00  0.00    -0.063 C  
BRANCH   9  10
HETATM   10  C   UNL     1     -12.828  14.897  71.852  1.00  0.00    -0.328 C  
HETATM   11  C   UNL     1     -12.336  15.239  74.049  1.00  0.00    -0.634 C  
HETATM   12  N   UNL     1     -12.184  16.039  71.769  1.00  0.00    -0.474 NA 
HETATM   13  C   UNL     1     -11.991  16.458  73.186  1.00  0.00    -0.439 C  
HETATM   14  N   UNL     1     -13.114  14.452  73.122  1.00  0.00    -0.585 NA 
ENDBRANCH   9  10
ENDBRANCH   8   9
BRANCH   8  15
HETATM   15  C   UNL     1     -11.598  13.864  68.825  1.00  0.00    -0.335 A  
HETATM   16  C   UNL     1     -12.145  13.542  67.566  1.00  0.00    -0.340 A  
HETATM   17  C   UNL     1     -10.544  14.800  68.837  1.00  0.00    -0.250 A  
HETATM   18  C   UNL     1     -11.671  14.147  66.398  1.00  0.00    -0.390 A  
HETATM   19  C   UNL     1     -10.101  15.430  67.666  1.00  0.00    -0.236 A  
HETATM   20  O   UNL     1     -12.172  13.822  65.169  1.00  0.00    -0.385 OA 
HETATM   21  C   UNL     1     -10.672  15.107  66.443  1.00  0.00    -0.317 A  
HETATM   22  H   UNL     1     -11.849  14.233  64.376  1.00  0.00     0.000 HD 
ENDBRANCH   8  15
ENDBRANCH   5   8
TORSDOF 4
ENDMDL
MODEL       16
REMARK 921   NORMALIZED FREE ENERGY PREDICTED BY IDOCK:   -6.35 KCAL/MOL
REMARK 922        TOTAL FREE ENERGY PREDICTED BY IDOCK:   -8.58 KCAL/MOL
REMARK 923 INTER-LIGAND FREE ENERGY PREDICTED BY IDOCK:   -8.27 KCAL/MOL
REMARK 924 INTRA-LIGAND FREE ENERGY PREDICTED BY IDOCK:   -0.31 KCAL/MOL
REMARK 927      BINDING AFFINITY PREDICTED BY RF-SCORE:    0.00 PKD
ROOT
HETATM    1  C   UNL     1     -11.121   7.054  72.460  1.00  0.00    -0.310 C  
HETATM    2  C   UNL     1     -11.387   8.300  71.672  1.00  0.00    -0.329 A  
HETATM    3  C   UNL     1     -10.440   8.803  70.783  1.00  0.00    -0.270 A  
HETATM    4  C   UNL     1     -10.617  10.053  70.173  1.00  0.00    -0.350 A  
HETATM    5  C   UNL     1     -11.737  10.858  70.445  1.00  0.00    -0.350 A  
HETATM    6  C   UNL     1     -12.750  10.254  71.215  1.00  0.00    -0.523 A  
HETATM    7  C   UNL     1     -12.576   9.009  71.835  1.00  0.00    -0.452 A  
ENDROOT
BRANCH   5   8
HETATM    8  N   UNL     1     -11.869  12.216  70.039  1.00  0.00    -0.330 NA 
BRANCH   8   9
HETATM    9  C   UNL     1     -10.912  12.754  69.026  1.00  0.00    -0.193 C  
BRANCH   9  10
HETATM   10  C   UNL     1     -11.571  12.956  67.665  1.00  0.00    -0.355 C  
HETATM   11  C   UNL     1     -12.351  14.063  65.834  1.00  0.00    -0.486 C  
HETATM   12  N   UNL     1     -11.678  11.957  66.820  1.00  0.00    -0.590 NA 
HETATM   13  C   UNL     1     -12.378  12.543  65.641  1.00  0.00    -0.224 C  
HETATM   14  N   UNL     1     -12.092  14.160  67.251  1.00  0.00    -0.413 NA 
ENDBRANCH   9  10
ENDBRANCH   8   9
BRANCH   8  15
HETATM   15  C   UNL     1     -12.391  13.276  70.870  1.00  0.00    -0.329 A  
HETATM   16  C   UNL     1     -11.792  14.550  70.926  1.00  0.00    -0.362 A  
HETATM   17  C   UNL     1     -13.564  13.093  71.633  1.00  0.00    -0.215 A  
HETATM   18  C   UNL     1     -12.356  15.580  71.686  1.00  0.00    -0.403 A  
HETATM   19  C   UNL     1     -14.143  14.141  72.360  1.00  0.00    -0.570 A  
HETATM   20  O   UNL     1     -11.770  16.810  71.772  1.00  0.00    -0.601 OA 
HETATM   21  C   UNL     1     -13.540  15.391  72.380  1.00  0.00    -0.618 A  
HETATM   22  H   UNL     1     -12.153  17.510  72.289  1.00  0.00     0.000 HD 
ENDBRANCH   8  15
ENDBRANCH   5   8
TORSDOF 4
ENDMDL
MODEL       17
REMARK 921   NORMALIZED FREE ENERGY PREDICTED BY IDOCK:   -6.33 KCAL/MOL
REMARK 922        TOTAL FREE ENERGY PREDICTED BY IDOCK:   -8.56 KCAL/MOL
REMARK 923 INTER-LIGAND FREE ENERGY PREDICTED BY IDOCK:   -7.94 KCAL/MOL
REMARK 924 INTRA-LIGAND FREE ENERGY PREDICTED BY IDOCK:   -0.62 KCAL/MOL
REMARK 927      BINDING AFFINITY PREDICTED BY RF-SCORE:    0.00 PKD
ROOT
HETATM    1  C   UNL     1     -13.783  13.679  72.484  1.00  0.00    -0.663 C  
HETATM    2  C   UNL     1     -12.807  14.232  71.492  1.00  0.00    -0.419 A  
HETATM    3  C   UNL     1     -12.413  15.567  71.541  1.00  0.00    -0.474 A  
HETATM    4  C   UNL     1     -11.633  16.125  70.517  1.00  0.00    -0.322 A  
HETATM    5  C   UNL     1     -11.236  15.376  69.396  1.00  0.00    -0.296 A  
HETATM    6  C   UNL     1     -11.510  13.996  69.456  1.00  0.00    -0.331 A  
HETATM    7  C   UNL     1     -12.295  13.433  70.471  1.00  0.00    -0.401 A  
ENDROOT
BRANCH   5   8
HETATM    8  N   UNL     1     -10.641  15.932  68.228  1.00  0.00    -0.266 NA 
BRANCH   8   9
HETATM    9  C   UNL     1      -9.971  15.011  67.262  1.00  0.00    -0.233 C  
BRANCH   9  10
HETATM   10  C   UNL     1     -10.926  14.528  66.174  1.00  0.00    -0.322 C  
HETATM   11  C   UNL     1     -12.519  13.246  65.171  1.00  0.00    -0.470 C  
HETATM   12  N   UNL     1     -11.285  15.329  65.197  1.00  0.00    -0.376 NA 
HETATM   13  C   UNL     1     -12.189  14.498  64.352  1.00  0.00    -0.458 C  
HETATM   14  N   UNL     1     -11.447  13.255  66.138  1.00  0.00    -0.317 NA 
ENDBRANCH   9  10
ENDBRANCH   8   9
BRANCH   8  15
HETATM   15  C   UNL     1     -10.088  17.264  68.142  1.00  0.00    -0.325 A  
HETATM   16  C   UNL     1      -8.823  17.587  68.674  1.00  0.00    -0.255 A  
HETATM   17  C   UNL     1     -10.776  18.296  67.472  1.00  0.00    -0.381 A  
HETATM   18  C   UNL     1      -8.280  18.866  68.517  1.00  0.00    -0.353 A  
HETATM   19  C   UNL     1     -10.208  19.563  67.286  1.00  0.00    -0.547 A  
HETATM   20  O   UNL     1      -7.069  19.201  69.053  1.00  0.00    -0.325 OA 
HETATM   21  C   UNL     1      -8.952  19.846  67.805  1.00  0.00    -0.402 A  
HETATM   22  H   UNL     1      -6.701  20.070  68.946  1.00  0.00     0.000 HD 
ENDBRANCH   8  15
ENDBRANCH   5   8
TORSDOF 4
ENDMDL
MODEL       18
REMARK 921   NORMALIZED FREE ENERGY PREDICTED BY IDOCK:   -6.31 KCAL/MOL
REMARK 922        TOTAL FREE ENERGY PREDICTED BY IDOCK:   -8.54 KCAL/MOL
REMARK 923 INTER-LIGAND FREE ENERGY PREDICTED BY IDOCK:   -8.10 KCAL/MOL
REMARK 924 INTRA-LIGAND FREE ENERGY PREDICTED BY IDOCK:   -0.44 KCAL/MOL
REMARK 927      BINDING AFFINITY PREDICTED BY RF-SCORE:    0.00 PKD
ROOT
HETATM    1  C   UNL     1     -13.279  10.112  71.986  1.00  0.00    -0.534 C  
HETATM    2  C   UNL     1     -12.607  11.084  71.066  1.00  0.00    -0.512 A  
HETATM    3  C   UNL     1     -12.761  12.457  71.236  1.00  0.00    -0.347 A  
HETATM    4  C   UNL     1     -12.272  13.360  70.281  1.00  0.00    -0.405 A  
HETATM    5  C   UNL     1     -11.632  12.925  69.109  1.00  0.00    -0.322 A  
HETATM    6  C   UNL     1     -11.348  11.547  69.045  1.00  0.00    -0.339 A  
HETATM    7  C   UNL     1     -11.840  10.637  69.991  1.00  0.00    -0.403 A  
ENDROOT
BRANCH   5   8
HETATM    8  N   UNL     1     -11.315  13.767  68.006  1.00  0.00    -0.272 NA 
BRANCH   8   9
HETATM    9  C   UNL     1     -11.728  15.201  68.061  1.00  0.00    -0.285 C  
BRANCH   9  10
HETATM   10  C   UNL     1     -10.536  16.135  68.243  1.00  0.00    -0.276 C  
HETATM   11  C   UNL     1      -8.399  16.776  68.702  1.00  0.00    -0.252 C  
HETATM   12  N   UNL     1     -10.526  17.323  67.683  1.00  0.00    -0.356 NA 
HETATM   13  C   UNL     1      -9.226  17.919  68.103  1.00  0.00    -0.278 C  
HETATM   14  N   UNL     1      -9.430  15.809  68.994  1.00  0.00    -0.230 NA 
ENDBRANCH   9  10
ENDBRANCH   8   9
BRANCH   8  15
HETATM   15  C   UNL     1     -11.189  13.317  66.638  1.00  0.00    -0.306 A  
HETATM   16  C   UNL     1     -11.952  13.873  65.592  1.00  0.00    -0.409 A  
HETATM   17  C   UNL     1     -10.251  12.326  66.281  1.00  0.00    -0.251 A  
HETATM   18  C   UNL     1     -11.762  13.469  64.267  1.00  0.00    -0.416 A  
HETATM   19  C   UNL     1     -10.041  11.954  64.947  1.00  0.00    -0.296 A  
HETATM   20  O   UNL     1     -12.516  13.978  63.248  1.00  0.00    -1.139 OA 
HETATM   21  C   UNL     1     -10.795  12.534  63.936  1.00  0.00    -0.472 A  
HETATM   22  H   UNL     1     -12.387  13.702  62.348  1.00  0.00     0.000 HD 
ENDBRANCH   8  15
ENDBRANCH   5   8
TORSDOF 4
ENDMDL
MODEL       19
REMARK 921   NORMALIZED FREE ENERGY PREDICTED BY IDOCK:   -6.28 KCAL/MOL
REMARK 922        TOTAL FREE ENERGY PREDICTED BY IDOCK:   -8.49 KCAL/MOL
REMARK 923 INTER-LIGAND FREE ENERGY PREDICTED BY IDOCK:   -7.71 KCAL/MOL
REMARK 924 INTRA-LIGAND FREE ENERGY PREDICTED BY IDOCK:   -0.78 KCAL/MOL
REMARK 927      BINDING AFFINITY PREDICTED BY RF-SCORE:    0.00 PKD
ROOT
HETATM    1  C   UNL     1      -8.018  18.805  68.237  1.00  0.00    -0.346 C  
HETATM    2  C   UNL     1      -8.836  17.557  68.373  1.00  0.00    -0.276 A  
HETATM    3  C   UNL     1      -8.229  16.306  68.442  1.00  0.00    -0.185 A  
HETATM    4  C   UNL     1      -8.995  15.132  68.400  1.00  0.00    -0.183 A  
HETATM    5  C   UNL     1     -10.393  15.163  68.267  1.00  0.00    -0.231 A  
HETATM    6  C   UNL     1     -10.987  16.437  68.366  1.00  0.00    -0.353 A  
HETATM    7  C   UNL     1     -10.229  17.615  68.399  1.00  0.00    -0.381 A  
ENDROOT
BRANCH   5   8
HETATM    8  N   UNL     1     -11.202  14.023  67.997  1.00  0.00    -0.268 NA 
BRANCH   8   9
HETATM    9  C   UNL     1     -12.256  14.128  66.945  1.00  0.00    -0.365 C  
BRANCH   9  10
HETATM   10  C   UNL     1     -11.912  13.310  65.703  1.00  0.00    -0.412 C  
HETATM   11  C   UNL     1     -12.221  12.265  63.704  1.00  0.00    -0.567 C  
HETATM   12  N   UNL     1     -10.663  13.171  65.321  1.00  0.00    -0.295 NA 
HETATM   13  C   UNL     1     -10.743  12.310  64.107  1.00  0.00    -0.372 C  
HETATM   14  N   UNL     1     -12.857  12.674  64.934  1.00  0.00    -0.842 NA 
ENDBRANCH   9  10
ENDBRANCH   8   9
BRANCH   8  15
HETATM   15  C   UNL     1     -11.539  13.006  68.967  1.00  0.00    -0.318 A  
HETATM   16  C   UNL     1     -12.257  13.301  70.144  1.00  0.00    -0.376 A  
HETATM   17  C   UNL     1     -11.202  11.654  68.752  1.00  0.00    -0.304 A  
HETATM   18  C   UNL     1     -12.631  12.289  71.033  1.00  0.00    -0.257 A  
HETATM   19  C   UNL     1     -11.614  10.642  69.629  1.00  0.00    -0.368 A  
HETATM   20  O   UNL     1     -13.301  12.564  72.191  1.00  0.00    -0.525 OA 
HETATM   21  C   UNL     1     -12.337  10.960  70.770  1.00  0.00    -0.487 A  
HETATM   22  H   UNL     1     -13.555  11.876  72.795  1.00  0.00     0.000 HD 
ENDBRANCH   8  15
ENDBRANCH   5   8
TORSDOF 4
ENDMDL
MODEL       20
REMARK 921   NORMALIZED FREE ENERGY PREDICTED BY IDOCK:   -6.27 KCAL/MOL
REMARK 922        TOTAL FREE ENERGY PREDICTED BY IDOCK:   -8.49 KCAL/MOL
REMARK 923 INTER-LIGAND FREE ENERGY PREDICTED BY IDOCK:   -7.73 KCAL/MOL
REMARK 924 INTRA-LIGAND FREE ENERGY PREDICTED BY IDOCK:   -0.76 KCAL/MOL
REMARK 927      BINDING AFFINITY PREDICTED BY RF-SCORE:    0.00 PKD
ROOT
HETATM    1  C   UNL     1      -7.413  18.565  66.010  1.00  0.00    -0.259 C  
HETATM    2  C   UNL     1      -8.301  17.462  66.499  1.00  0.00    -0.308 A  
HETATM    3  C   UNL     1      -7.870  16.138  66.493  1.00  0.00    -0.263 A  
HETATM    4  C   UNL     1      -8.755  15.092  66.792  1.00  0.00    -0.293 A  
HETATM    5  C   UNL     1     -10.108  15.328  67.086  1.00  0.00    -0.240 A  
HETATM    6  C   UNL     1     -10.472  16.679  67.245  1.00  0.00    -0.313 A  
HETATM    7  C   UNL     1      -9.596  17.730  66.941  1.00  0.00    -0.288 A  
ENDROOT
BRANCH   5   8
HETATM    8  N   UNL     1     -11.100  14.310  67.178  1.00  0.00    -0.302 NA 
BRANCH   8   9
HETATM    9  C   UNL     1     -12.267  14.365  66.247  1.00  0.00    -0.345 C  
BRANCH   9  10
HETATM   10  C   UNL     1     -12.084  13.444  65.044  1.00  0.00    -0.401 C  
HETATM   11  C   UNL     1     -10.998  12.216  63.463  1.00  0.00    -0.453 C  
HETATM   12  N   UNL     1     -13.063  12.665  64.645  1.00  0.00    -0.848 NA 
HETATM   13  C   UNL     1     -12.508  11.952  63.460  1.00  0.00    -0.492 C  
HETATM   14  N   UNL     1     -10.921  13.382  64.312  1.00  0.00    -0.388 NA 
ENDBRANCH   9  10
ENDBRANCH   8   9
BRANCH   8  15
HETATM   15  C   UNL     1     -11.439  13.599  68.389  1.00  0.00    -0.311 A  
HETATM   16  C   UNL     1     -11.842  14.267  69.564  1.00  0.00    -0.378 A  
HETATM   17  C   UNL     1     -11.426  12.189  68.434  1.00  0.00    -0.356 A  
HETATM   18  C   UNL     1     -12.229  13.553  70.702  1.00  0.00    -0.358 A  
HETATM   19  C   UNL     1     -11.853  11.483  69.566  1.00  0.00    -0.419 A  
HETATM   20  O   UNL     1     -12.594  14.187  71.856  1.00  0.00    -0.325 OA 
HETATM   21  C   UNL     1     -12.263  12.168  70.701  1.00  0.00    -0.392 A  
HETATM   22  H   UNL     1     -12.857  13.702  72.629  1.00  0.00     0.000 HD 
ENDBRANCH   8  15
ENDBRANCH   5   8
TORSDOF 4
ENDMDL
MODEL       21
REMARK 921   NORMALIZED FREE ENERGY PREDICTED BY IDOCK:   -6.27 KCAL/MOL
REMARK 922        TOTAL FREE ENERGY PREDICTED BY IDOCK:   -8.48 KCAL/MOL
REMARK 923 INTER-LIGAND FREE ENERGY PREDICTED BY IDOCK:   -7.87 KCAL/MOL
REMARK 924 INTRA-LIGAND FREE ENERGY PREDICTED BY IDOCK:   -0.61 KCAL/MOL
REMARK 927      BINDING AFFINITY PREDICTED BY RF-SCORE:    0.00 PKD
ROOT
HETATM    1  C   UNL     1     -10.388   8.670  72.029  1.00  0.00    -0.416 C  
HETATM    2  C   UNL     1     -10.642   9.498  70.807  1.00  0.00    -0.387 A  
HETATM    3  C   UNL     1      -9.611   9.813  69.927  1.00  0.00    -0.269 A  
HETATM    4  C   UNL     1      -9.812  10.723  68.878  1.00  0.00    -0.209 A  
HETATM    5  C   UNL     1     -11.044  11.368  68.684  1.00  0.00    -0.236 A  
HETATM    6  C   UNL     1     -12.108  10.908  69.484  1.00  0.00    -0.380 A  
HETATM    7  C   UNL     1     -11.913  10.005  70.539  1.00  0.00    -0.357 A  
ENDROOT
BRANCH   5   8
HETATM    8  N   UNL     1     -11.250  12.456  67.788  1.00  0.00    -0.256 NA 
BRANCH   8   9
HETATM    9  C   UNL     1     -12.033  13.635  68.265  1.00  0.00    -0.350 C  
BRANCH   9  10
HETATM   10  C   UNL     1     -11.133  14.808  68.640  1.00  0.00    -0.262 C  
HETATM   11  C   UNL     1      -9.208  15.984  68.953  1.00  0.00    -0.233 C  
HETATM   12  N   UNL     1     -11.615  16.028  68.696  1.00  0.00    -0.384 NA 
HETATM   13  C   UNL     1     -10.452  16.866  69.103  1.00  0.00    -0.335 C  
HETATM   14  N   UNL     1      -9.800  14.667  68.948  1.00  0.00    -0.224 NA 
ENDBRANCH   9  10
ENDBRANCH   8   9
BRANCH   8  15
HETATM   15  C   UNL     1     -11.323  12.334  66.350  1.00  0.00    -0.354 A  
HETATM   16  C   UNL     1     -11.925  13.321  65.544  1.00  0.00    -0.445 A  
HETATM   17  C   UNL     1     -10.746  11.234  65.682  1.00  0.00    -0.279 A  
HETATM   18  C   UNL     1     -11.922  13.213  64.150  1.00  0.00    -0.436 A  
HETATM   19  C   UNL     1     -10.714  11.154  64.284  1.00  0.00    -0.403 A  
HETATM   20  O   UNL     1     -12.528  14.147  63.357  1.00  0.00    -1.122 OA 
HETATM   21  C   UNL     1     -11.298  12.151  63.515  1.00  0.00    -0.535 A  
HETATM   22  H   UNL     1     -12.526  14.073  62.410  1.00  0.00     0.000 HD 
ENDBRANCH   8  15
ENDBRANCH   5   8
TORSDOF 4
ENDMDL
MODEL       22
REMARK 921   NORMALIZED FREE ENERGY PREDICTED BY IDOCK:   -6.27 KCAL/MOL
REMARK 922        TOTAL FREE ENERGY PREDICTED BY IDOCK:   -8.48 KCAL/MOL
REMARK 923 INTER-LIGAND FREE ENERGY PREDICTED BY IDOCK:   -7.99 KCAL/MOL
REMARK 924 INTRA-LIGAND FREE ENERGY PREDICTED BY IDOCK:   -0.49 KCAL/MOL
REMARK 927      BINDING AFFINITY PREDICTED BY RF-SCORE:    0.00 PKD
ROOT
HETATM    1  C   UNL     1     -10.992   9.139  71.638  1.00  0.00    -0.445 C  
HETATM    2  C   UNL     1     -11.186  10.175  70.574  1.00  0.00    -0.411 A  
HETATM    3  C   UNL     1     -10.338  10.239  69.471  1.00  0.00    -0.267 A  
HETATM    4  C   UNL     1     -10.415  11.306  68.564  1.00  0.00    -0.218 A  
HETATM    5  C   UNL     1     -11.326  12.361  68.737  1.00  0.00    -0.293 A  
HETATM    6  C   UNL     1     -12.274  12.186  69.764  1.00  0.00    -0.212 A  
HETATM    7  C   UNL     1     -12.199  11.127  70.679  1.00  0.00    -0.492 A  
ENDROOT
BRANCH   5   8
HETATM    8  N   UNL     1     -11.306  13.572  67.989  1.00  0.00    -0.269 NA 
BRANCH   8   9
HETATM    9  C   UNL     1     -11.547  14.859  68.707  1.00  0.00    -0.323 C  
BRANCH   9  10
HETATM   10  C   UNL     1     -10.285  15.711  68.798  1.00  0.00    -0.215 C  
HETATM   11  C   UNL     1      -8.063  16.198  68.912  1.00  0.00    -0.228 C  
HETATM   12  N   UNL     1     -10.310  16.979  68.460  1.00  0.00    -0.336 NA 
HETATM   13  C   UNL     1      -8.917  17.453  68.700  1.00  0.00    -0.255 C  
HETATM   14  N   UNL     1      -9.077  15.224  69.240  1.00  0.00    -0.241 NA 
ENDBRANCH   9  10
ENDBRANCH   8   9
BRANCH   8  15
HETATM   15  C   UNL     1     -11.667  13.682  66.594  1.00  0.00    -0.388 A  
HETATM   16  C   UNL     1     -11.511  14.883  65.872  1.00  0.00    -0.276 A  
HETATM   17  C   UNL     1     -12.151  12.569  65.877  1.00  0.00    -0.420 A  
HETATM   18  C   UNL     1     -11.804  14.945  64.506  1.00  0.00    -0.396 A  
HETATM   19  C   UNL     1     -12.405  12.631  64.500  1.00  0.00    -0.537 A  
HETATM   20  O   UNL     1     -11.685  16.109  63.801  1.00  0.00    -1.404 OA 
HETATM   21  C   UNL     1     -12.223  13.822  63.812  1.00  0.00    -0.364 A  
HETATM   22  H   UNL     1     -11.885  16.151  62.872  1.00  0.00     0.000 HD 
ENDBRANCH   8  15
ENDBRANCH   5   8
TORSDOF 4
ENDMDL
MODEL       23
REMARK 921   NORMALIZED FREE ENERGY PREDICTED BY IDOCK:   -6.19 KCAL/MOL
REMARK 922        TOTAL FREE ENERGY PREDICTED BY IDOCK:   -8.39 KCAL/MOL
REMARK 923 INTER-LIGAND FREE ENERGY PREDICTED BY IDOCK:   -7.70 KCAL/MOL
REMARK 924 INTRA-LIGAND FREE ENERGY PREDICTED BY IDOCK:   -0.69 KCAL/MOL
REMARK 927      BINDING AFFINITY PREDICTED BY RF-SCORE:    0.00 PKD
ROOT
HETATM    1  C   UNL     1      -9.555  20.083  67.210  1.00  0.00    -0.527 C  
HETATM    2  C   UNL     1     -10.116  18.694  67.168  1.00  0.00    -0.391 A  
HETATM    3  C   UNL     1     -10.519  18.047  68.333  1.00  0.00    -0.326 A  
HETATM    4  C   UNL     1     -10.886  16.694  68.315  1.00  0.00    -0.356 A  
HETATM    5  C   UNL     1     -10.843  15.930  67.137  1.00  0.00    -0.267 A  
HETATM    6  C   UNL     1     -10.591  16.650  65.952  1.00  0.00    -0.257 A  
HETATM    7  C   UNL     1     -10.216  18.000  65.963  1.00  0.00    -0.304 A  
ENDROOT
BRANCH   5   8
HETATM    8  N   UNL     1     -10.985  14.514  67.090  1.00  0.00    -0.296 NA 
BRANCH   8   9
HETATM    9  C   UNL     1     -10.273  13.692  68.114  1.00  0.00    -0.247 C  
BRANCH   9  10
HETATM   10  C   UNL     1     -11.228  13.129  69.163  1.00  0.00    -0.247 C  
HETATM   11  C   UNL     1     -12.215  11.586  70.517  1.00  0.00    -0.377 C  
HETATM   12  N   UNL     1     -11.810  13.924  70.031  1.00  0.00    -0.308 NA 
HETATM   13  C   UNL     1     -12.658  13.014  70.853  1.00  0.00    -0.280 C  
HETATM   14  N   UNL     1     -11.543  11.793  69.256  1.00  0.00    -0.289 NA 
ENDBRANCH   9  10
ENDBRANCH   8   9
BRANCH   8  15
HETATM   15  C   UNL     1     -11.220  13.751  65.887  1.00  0.00    -0.302 A  
HETATM   16  C   UNL     1     -10.165  13.239  65.104  1.00  0.00    -0.301 A  
HETATM   17  C   UNL     1     -12.530  13.441  65.465  1.00  0.00    -0.534 A  
HETATM   18  C   UNL     1     -10.419  12.445  63.982  1.00  0.00    -0.416 A  
HETATM   19  C   UNL     1     -12.774  12.614  64.361  1.00  0.00    -0.417 A  
HETATM   20  O   UNL     1      -9.407  11.967  63.198  1.00  0.00    -0.664 OA 
HETATM   21  C   UNL     1     -11.714  12.108  63.622  1.00  0.00    -0.588 A  
HETATM   22  H   UNL     1      -9.581  11.428  62.435  1.00  0.00     0.000 HD 
ENDBRANCH   8  15
ENDBRANCH   5   8
TORSDOF 4
ENDMDL
MODEL       24
REMARK 921   NORMALIZED FREE ENERGY PREDICTED BY IDOCK:   -6.19 KCAL/MOL
REMARK 922        TOTAL FREE ENERGY PREDICTED BY IDOCK:   -8.38 KCAL/MOL
REMARK 923 INTER-LIGAND FREE ENERGY PREDICTED BY IDOCK:   -8.12 KCAL/MOL
REMARK 924 INTRA-LIGAND FREE ENERGY PREDICTED BY IDOCK:   -0.27 KCAL/MOL
REMARK 927      BINDING AFFINITY PREDICTED BY RF-SCORE:    0.00 PKD
ROOT
HETATM    1  C   UNL     1     -12.069  13.162  63.991  1.00  0.00    -0.511 C  
HETATM    2  C   UNL     1     -11.855  12.957  65.460  1.00  0.00    -0.455 A  
HETATM    3  C   UNL     1     -11.337  11.761  65.950  1.00  0.00    -0.324 A  
HETATM    4  C   UNL     1     -11.294  11.506  67.328  1.00  0.00    -0.359 A  
HETATM    5  C   UNL     1     -11.786  12.428  68.267  1.00  0.00    -0.345 A  
HETATM    6  C   UNL     1     -12.148  13.688  67.754  1.00  0.00    -0.325 A  
HETATM    7  C   UNL     1     -12.202  13.948  66.377  1.00  0.00    -0.487 A  
ENDROOT
BRANCH   5   8
HETATM    8  N   UNL     1     -11.975  12.144  69.650  1.00  0.00    -0.303 NA 
BRANCH   8   9
HETATM    9  C   UNL     1     -12.478  10.793  70.038  1.00  0.00    -0.248 C  
BRANCH   9  10
HETATM   10  C   UNL     1     -11.384   9.929  70.659  1.00  0.00    -0.339 C  
HETATM   11  C   UNL     1      -9.287   9.145  71.076  1.00  0.00    -0.263 C  
HETATM   12  N   UNL     1     -11.597   9.292  71.787  1.00  0.00    -0.385 NA 
HETATM   13  C   UNL     1     -10.322   8.565  72.046  1.00  0.00    -0.338 C  
HETATM   14  N   UNL     1     -10.144   9.758  70.089  1.00  0.00    -0.253 NA 
ENDBRANCH   9  10
ENDBRANCH   8   9
BRANCH   8  15
HETATM   15  C   UNL     1     -12.310  13.129  70.653  1.00  0.00    -0.326 A  
HETATM   16  C   UNL     1     -11.751  14.423  70.649  1.00  0.00    -0.315 A  
HETATM   17  C   UNL     1     -13.256  12.849  71.660  1.00  0.00    -0.416 A  
HETATM   18  C   UNL     1     -12.143  15.380  71.591  1.00  0.00    -0.380 A  
HETATM   19  C   UNL     1     -13.671  13.826  72.575  1.00  0.00    -0.667 A  
HETATM   20  O   UNL     1     -11.589  16.628  71.617  1.00  0.00    -0.592 OA 
HETATM   21  C   UNL     1     -13.118  15.098  72.535  1.00  0.00    -0.488 A  
HETATM   22  H   UNL     1     -11.855  17.278  72.257  1.00  0.00     0.000 HD 
ENDBRANCH   8  15
ENDBRANCH   5   8
TORSDOF 4
ENDMDL
MODEL       25
REMARK 921   NORMALIZED FREE ENERGY PREDICTED BY IDOCK:   -6.17 KCAL/MOL
REMARK 922        TOTAL FREE ENERGY PREDICTED BY IDOCK:   -8.37 KCAL/MOL
REMARK 923 INTER-LIGAND FREE ENERGY PREDICTED BY IDOCK:   -7.77 KCAL/MOL
REMARK 924 INTRA-LIGAND FREE ENERGY PREDICTED BY IDOCK:   -0.59 KCAL/MOL
REMARK 927      BINDING AFFINITY PREDICTED BY RF-SCORE:    0.00 PKD
ROOT
HETATM    1  C   UNL     1     -13.815  13.725  72.349  1.00  0.00    -0.681 C  
HETATM    2  C   UNL     1     -12.832  14.235  71.340  1.00  0.00    -0.415 A  
HETATM    3  C   UNL     1     -12.574  15.598  71.214  1.00  0.00    -0.523 A  
HETATM    4  C   UNL     1     -11.785  16.087  70.163  1.00  0.00    -0.290 A  
HETATM    5  C   UNL     1     -11.241  15.235  69.186  1.00  0.00    -0.278 A  
HETATM    6  C   UNL     1     -11.382  13.856  69.433  1.00  0.00    -0.311 A  
HETATM    7  C   UNL     1     -12.176  13.360  70.475  1.00  0.00    -0.425 A  
ENDROOT
BRANCH   5   8
HETATM    8  N   UNL     1     -10.625  15.682  67.983  1.00  0.00    -0.263 NA 
BRANCH   8   9
HETATM    9  C   UNL     1      -9.878  14.691  67.153  1.00  0.00    -0.237 C  
BRANCH   9  10
HETATM   10  C   UNL     1     -10.744  14.100  66.045  1.00  0.00    -0.299 C  
HETATM   11  C   UNL     1     -12.253  12.716  65.048  1.00  0.00    -0.476 C  
HETATM   12  N   UNL     1     -11.029  14.803  64.973  1.00  0.00    -0.389 NA 
HETATM   13  C   UNL     1     -11.863  13.890  64.143  1.00  0.00    -0.385 C  
HETATM   14  N   UNL     1     -11.259  12.825  66.089  1.00  0.00    -0.287 NA 
ENDBRANCH   9  10
ENDBRANCH   8   9
BRANCH   8  15
HETATM   15  C   UNL     1     -10.128  17.021  67.762  1.00  0.00    -0.302 A  
HETATM   16  C   UNL     1     -10.631  17.848  66.738  1.00  0.00    -0.253 A  
HETATM   17  C   UNL     1      -9.142  17.579  68.602  1.00  0.00    -0.263 A  
HETATM   18  C   UNL     1     -10.182  19.164  66.588  1.00  0.00    -0.411 A  
HETATM   19  C   UNL     1      -8.726  18.910  68.468  1.00  0.00    -0.382 A  
HETATM   20  O   UNL     1     -10.639  19.967  65.582  1.00  0.00    -0.495 OA 
HETATM   21  C   UNL     1      -9.254  19.707  67.462  1.00  0.00    -0.409 A  
HETATM   22  H   UNL     1     -10.333  20.861  65.480  1.00  0.00     0.000 HD 
ENDBRANCH   8  15
ENDBRANCH   5   8
TORSDOF 4
ENDMDL
MODEL       26
REMARK 921   NORMALIZED FREE ENERGY PREDICTED BY IDOCK:   -6.14 KCAL/MOL
REMARK 922        TOTAL FREE ENERGY PREDICTED BY IDOCK:   -8.33 KCAL/MOL
REMARK 923 INTER-LIGAND FREE ENERGY PREDICTED BY IDOCK:   -7.63 KCAL/MOL
REMARK 924 INTRA-LIGAND FREE ENERGY PREDICTED BY IDOCK:   -0.70 KCAL/MOL
REMARK 927      BINDING AFFINITY PREDICTED BY RF-SCORE:    0.00 PKD
ROOT
HETATM    1  C   UNL     1      -8.339  19.954  67.606  1.00  0.00    -0.362 C  
HETATM    2  C   UNL     1      -8.942  18.628  67.958  1.00  0.00    -0.324 A  
HETATM    3  C   UNL     1     -10.306  18.397  67.802  1.00  0.00    -0.428 A  
HETATM    4  C   UNL     1     -10.896  17.220  68.286  1.00  0.00    -0.287 A  
HETATM    5  C   UNL     1     -10.150  16.241  68.962  1.00  0.00    -0.259 A  
HETATM    6  C   UNL     1      -8.754  16.427  68.958  1.00  0.00    -0.233 A  
HETATM    7  C   UNL     1      -8.157  17.603  68.485  1.00  0.00    -0.283 A  
ENDROOT
BRANCH   5   8
HETATM    8  N   UNL     1     -10.717  15.141  69.666  1.00  0.00    -0.267 NA 
BRANCH   8   9
HETATM    9  C   UNL     1     -10.744  13.804  69.000  1.00  0.00    -0.182 C  
BRANCH   9  10
HETATM   10  C   UNL     1     -10.930  13.920  67.490  1.00  0.00    -0.276 C  
HETATM   11  C   UNL     1     -11.935  14.442  65.514  1.00  0.00    -0.358 C  
HETATM   12  N   UNL     1      -9.894  13.869  66.684  1.00  0.00    -0.276 NA 
HETATM   13  C   UNL     1     -10.481  13.999  65.320  1.00  0.00    -0.382 C  
HETATM   14  N   UNL     1     -12.159  14.067  66.890  1.00  0.00    -0.439 NA 
ENDBRANCH   9  10
ENDBRANCH   8   9
BRANCH   8  15
HETATM   15  C   UNL     1     -11.769  15.250  70.650  1.00  0.00    -0.332 A  
HETATM   16  C   UNL     1     -11.540  15.771  71.940  1.00  0.00    -0.545 A  
HETATM   17  C   UNL     1     -13.095  14.880  70.343  1.00  0.00    -0.206 A  
HETATM   18  C   UNL     1     -12.589  15.930  72.850  1.00  0.00    -0.480 A  
HETATM   19  C   UNL     1     -14.146  15.078  71.248  1.00  0.00    -0.516 A  
HETATM   20  O   UNL     1     -12.376  16.406  74.113  1.00  0.00    -0.555 OA 
HETATM   21  C   UNL     1     -13.892  15.612  72.503  1.00  0.00    -0.642 A  
HETATM   22  H   UNL     1     -13.089  16.513  74.731  1.00  0.00     0.000 HD 
ENDBRANCH   8  15
ENDBRANCH   5   8
TORSDOF 4
ENDMDL
MODEL       27
REMARK 921   NORMALIZED FREE ENERGY PREDICTED BY IDOCK:   -6.08 KCAL/MOL
REMARK 922        TOTAL FREE ENERGY PREDICTED BY IDOCK:   -8.25 KCAL/MOL
REMARK 923 INTER-LIGAND FREE ENERGY PREDICTED BY IDOCK:   -7.49 KCAL/MOL
REMARK 924 INTRA-LIGAND FREE ENERGY PREDICTED BY IDOCK:   -0.77 KCAL/MOL
REMARK 927      BINDING AFFINITY PREDICTED BY RF-SCORE:    0.00 PKD
ROOT
HETATM    1  C   UNL     1     -13.484  13.972  72.578  1.00  0.00    -0.661 C  
HETATM    2  C   UNL     1     -12.834  14.043  71.231  1.00  0.00    -0.430 A  
HETATM    3  C   UNL     1     -12.370  12.893  70.596  1.00  0.00    -0.385 A  
HETATM    4  C   UNL     1     -11.615  12.977  69.417  1.00  0.00    -0.360 A  
HETATM    5  C   UNL     1     -11.277  14.212  68.840  1.00  0.00    -0.267 A  
HETATM    6  C   UNL     1     -11.895  15.342  69.410  1.00  0.00    -0.367 A  
HETATM    7  C   UNL     1     -12.644  15.268  70.593  1.00  0.00    -0.471 A  
ENDROOT
BRANCH   5   8
HETATM    8  N   UNL     1     -10.338  14.375  67.783  1.00  0.00    -0.236 NA 
BRANCH   8   9
HETATM    9  C   UNL     1      -9.992  13.187  66.946  1.00  0.00    -0.245 C  
BRANCH   9  10
HETATM   10  C   UNL     1     -10.938  13.024  65.761  1.00  0.00    -0.277 C  
HETATM   11  C   UNL     1     -11.612  12.923  63.588  1.00  0.00    -0.485 C  
HETATM   12  N   UNL     1     -12.089  12.407  65.905  1.00  0.00    -0.623 NA 
HETATM   13  C   UNL     1     -12.713  12.470  64.553  1.00  0.00    -0.354 C  
HETATM   14  N   UNL     1     -10.663  13.510  64.504  1.00  0.00    -0.411 NA 
ENDBRANCH   9  10
ENDBRANCH   8   9
BRANCH   8  15
HETATM   15  C   UNL     1      -9.263  15.341  67.779  1.00  0.00    -0.187 A  
HETATM   16  C   UNL     1      -8.967  16.130  66.649  1.00  0.00    -0.288 A  
HETATM   17  C   UNL     1      -8.487  15.572  68.935  1.00  0.00    -0.207 A  
HETATM   18  C   UNL     1      -7.966  17.106  66.694  1.00  0.00    -0.265 A  
HETATM   19  C   UNL     1      -7.513  16.577  68.981  1.00  0.00    -0.229 A  
HETATM   20  O   UNL     1      -7.649  17.857  65.598  1.00  0.00    -0.546 OA 
HETATM   21  C   UNL     1      -7.257  17.352  67.859  1.00  0.00    -0.193 A  
HETATM   22  H   UNL     1      -6.969  18.519  65.628  1.00  0.00     0.000 HD 
ENDBRANCH   8  15
ENDBRANCH   5   8
TORSDOF 4
ENDMDL
MODEL       28
REMARK 921   NORMALIZED FREE ENERGY PREDICTED BY IDOCK:   -6.08 KCAL/MOL
REMARK 922        TOTAL FREE ENERGY PREDICTED BY IDOCK:   -8.25 KCAL/MOL
REMARK 923 INTER-LIGAND FREE ENERGY PREDICTED BY IDOCK:   -7.41 KCAL/MOL
REMARK 924 INTRA-LIGAND FREE ENERGY PREDICTED BY IDOCK:   -0.84 KCAL/MOL
REMARK 927      BINDING AFFINITY PREDICTED BY RF-SCORE:    0.00 PKD
ROOT
HETATM    1  C   UNL     1     -13.204  14.309  72.655  1.00  0.00    -0.601 C  
HETATM    2  C   UNL     1     -12.709  14.194  71.246  1.00  0.00    -0.434 A  
HETATM    3  C   UNL     1     -12.378  12.956  70.701  1.00  0.00    -0.385 A  
HETATM    4  C   UNL     1     -11.759  12.865  69.446  1.00  0.00    -0.382 A  
HETATM    5  C   UNL     1     -11.426  14.008  68.699  1.00  0.00    -0.302 A  
HETATM    6  C   UNL     1     -11.918  15.229  69.200  1.00  0.00    -0.308 A  
HETATM    7  C   UNL     1     -12.531  15.329  70.456  1.00  0.00    -0.454 A  
ENDROOT
BRANCH   5   8
HETATM    8  N   UNL     1     -10.606  13.997  67.535  1.00  0.00    -0.258 NA 
BRANCH   8   9
HETATM    9  C   UNL     1      -9.675  15.143  67.309  1.00  0.00    -0.210 C  
BRANCH   9  10
HETATM   10  C   UNL     1      -8.227  14.777  67.625  1.00  0.00    -0.175 C  
HETATM   11  C   UNL     1      -6.397  13.459  67.939  1.00  0.00    -0.151 C  
HETATM   12  N   UNL     1      -7.277  15.679  67.540  1.00  0.00    -0.172 NA 
HETATM   13  C   UNL     1      -6.039  14.950  67.935  1.00  0.00    -0.154 C  
HETATM   14  N   UNL     1      -7.837  13.519  68.021  1.00  0.00    -0.132 NA 
ENDBRANCH   9  10
ENDBRANCH   8   9
BRANCH   8  15
HETATM   15  C   UNL     1     -10.959  13.363  66.287  1.00  0.00    -0.288 A  
HETATM   16  C   UNL     1     -11.623  14.057  65.254  1.00  0.00    -0.339 A  
HETATM   17  C   UNL     1     -10.608  12.022  66.025  1.00  0.00    -0.303 A  
HETATM   18  C   UNL     1     -11.893  13.440  64.029  1.00  0.00    -0.445 A  
HETATM   19  C   UNL     1     -10.849  11.425  64.781  1.00  0.00    -0.339 A  
HETATM   20  O   UNL     1     -12.562  14.091  63.031  1.00  0.00    -1.027 OA 
HETATM   21  C   UNL     1     -11.487  12.139  63.777  1.00  0.00    -0.548 A  
HETATM   22  H   UNL     1     -12.745  13.671  62.199  1.00  0.00     0.000 HD 
ENDBRANCH   8  15
ENDBRANCH   5   8
TORSDOF 4
ENDMDL
MODEL       29
REMARK 921   NORMALIZED FREE ENERGY PREDICTED BY IDOCK:   -6.02 KCAL/MOL
REMARK 922        TOTAL FREE ENERGY PREDICTED BY IDOCK:   -8.17 KCAL/MOL
REMARK 923 INTER-LIGAND FREE ENERGY PREDICTED BY IDOCK:   -7.29 KCAL/MOL
REMARK 924 INTRA-LIGAND FREE ENERGY PREDICTED BY IDOCK:   -0.88 KCAL/MOL
REMARK 927      BINDING AFFINITY PREDICTED BY RF-SCORE:    0.00 PKD
ROOT
HETATM    1  C   UNL     1      -7.678  18.743  68.702  1.00  0.00    -0.358 C  
HETATM    2  C   UNL     1      -8.648  17.619  68.504  1.00  0.00    -0.285 A  
HETATM    3  C   UNL     1      -9.942  17.860  68.048  1.00  0.00    -0.333 A  
HETATM    4  C   UNL     1     -10.898  16.834  68.022  1.00  0.00    -0.341 A  
HETATM    5  C   UNL     1     -10.604  15.535  68.470  1.00  0.00    -0.246 A  
HETATM    6  C   UNL     1      -9.251  15.284  68.768  1.00  0.00    -0.203 A  
HETATM    7  C   UNL     1      -8.291  16.305  68.804  1.00  0.00    -0.235 A  
ENDROOT
BRANCH   5   8
HETATM    8  N   UNL     1     -11.577  14.517  68.678  1.00  0.00    -0.298 NA 
BRANCH   8   9
HETATM    9  C   UNL     1     -12.515  14.189  67.563  1.00  0.00     0.135 C  
BRANCH   9  10
HETATM   10  C   UNL     1     -11.828  13.414  66.443  1.00  0.00    -0.396 C  
HETATM   11  C   UNL     1     -10.509  13.047  64.623  1.00  0.00    -0.380 C  
HETATM   12  N   UNL     1     -11.680  12.112  66.525  1.00  0.00    -0.564 NA 
HETATM   13  C   UNL     1     -10.993  11.738  65.256  1.00  0.00    -0.295 C  
HETATM   14  N   UNL     1     -11.344  14.010  65.301  1.00  0.00    -0.311 NA 
ENDBRANCH   9  10
ENDBRANCH   8   9
BRANCH   8  15
HETATM   15  C   UNL     1     -12.158  14.184  69.958  1.00  0.00    -0.346 A  
HETATM   16  C   UNL     1     -12.698  15.165  70.814  1.00  0.00    -0.463 A  
HETATM   17  C   UNL     1     -12.254  12.844  70.388  1.00  0.00    -0.381 A  
HETATM   18  C   UNL     1     -13.316  14.810  72.017  1.00  0.00    -0.363 A  
HETATM   19  C   UNL     1     -12.909  12.495  71.576  1.00  0.00    -0.367 A  
HETATM   20  O   UNL     1     -13.817  15.751  72.870  1.00  0.00    -0.575 OA 
HETATM   21  C   UNL     1     -13.448  13.481  72.390  1.00  0.00    -0.685 A  
HETATM   22  H   UNL     1     -14.236  15.510  73.688  1.00  0.00     0.000 HD 
ENDBRANCH   8  15
ENDBRANCH   5   8
TORSDOF 4
ENDMDL
MODEL       30
REMARK 921   NORMALIZED FREE ENERGY PREDICTED BY IDOCK:   -6.01 KCAL/MOL
REMARK 922        TOTAL FREE ENERGY PREDICTED BY IDOCK:   -8.16 KCAL/MOL
REMARK 923 INTER-LIGAND FREE ENERGY PREDICTED BY IDOCK:   -7.56 KCAL/MOL
REMARK 924 INTRA-LIGAND FREE ENERGY PREDICTED BY IDOCK:   -0.61 KCAL/MOL
REMARK 927      BINDING AFFINITY PREDICTED BY RF-SCORE:    0.00 PKD
ROOT
HETATM    1  C   UNL     1     -13.175  15.050  73.160  1.00  0.00    -0.587 C  
HETATM    2  C   UNL     1     -12.802  14.640  71.768  1.00  0.00    -0.402 A  
HETATM    3  C   UNL     1     -12.743  13.296  71.408  1.00  0.00    -0.401 A  
HETATM    4  C   UNL     1     -12.234  12.908  70.160  1.00  0.00    -0.336 A  
HETATM    5  C   UNL     1     -11.744  13.845  69.235  1.00  0.00    -0.334 A  
HETATM    6  C   UNL     1     -11.968  15.197  69.560  1.00  0.00    -0.351 A  
HETATM    7  C   UNL     1     -12.468  15.594  70.808  1.00  0.00    -0.484 A  
ENDROOT
BRANCH   5   8
HETATM    8  N   UNL     1     -11.017  13.509  68.058  1.00  0.00    -0.244 NA 
BRANCH   8   9
HETATM    9  C   UNL     1      -9.709  12.803  68.204  1.00  0.00    -0.223 C  
BRANCH   9  10
HETATM   10  C   UNL     1      -9.846  11.295  68.017  1.00  0.00    -0.178 C  
HETATM   11  C   UNL     1     -10.588   9.330  67.138  1.00  0.00    -0.216 C  
HETATM   12  N   UNL     1      -8.914  10.480  68.455  1.00  0.00    -0.140 NA 
HETATM   13  C   UNL     1      -9.416   9.122  68.103  1.00  0.00    -0.142 C  
HETATM   14  N   UNL     1     -10.929  10.706  67.406  1.00  0.00    -0.301 NA 
ENDBRANCH   9  10
ENDBRANCH   8   9
BRANCH   8  15
HETATM   15  C   UNL     1     -11.069  14.252  66.820  1.00  0.00    -0.314 A  
HETATM   16  C   UNL     1     -11.815  13.808  65.709  1.00  0.00    -0.392 A  
HETATM   17  C   UNL     1     -10.407  15.490  66.685  1.00  0.00    -0.287 A  
HETATM   18  C   UNL     1     -11.904  14.579  64.546  1.00  0.00    -0.446 A  
HETATM   19  C   UNL     1     -10.533  16.273  65.531  1.00  0.00    -0.383 A  
HETATM   20  O   UNL     1     -12.599  14.148  63.452  1.00  0.00    -1.070 OA 
HETATM   21  C   UNL     1     -11.290  15.819  64.461  1.00  0.00    -0.324 A  
HETATM   22  H   UNL     1     -12.658  14.672  62.662  1.00  0.00     0.000 HD 
ENDBRANCH   8  15
ENDBRANCH   5   8
TORSDOF 4
ENDMDL
MODEL       31
REMARK 921   NORMALIZED FREE ENERGY PREDICTED BY IDOCK:   -5.98 KCAL/MOL
REMARK 922        TOTAL FREE ENERGY PREDICTED BY IDOCK:   -8.12 KCAL/MOL
REMARK 923 INTER-LIGAND FREE ENERGY PREDICTED BY IDOCK:   -7.37 KCAL/MOL
REMARK 924 INTRA-LIGAND FREE ENERGY PREDICTED BY IDOCK:   -0.76 KCAL/MOL
REMARK 927      BINDING AFFINITY PREDICTED BY RF-SCORE:    0.00 PKD
ROOT
HETATM    1  C   UNL     1     -12.994  14.496  73.079  1.00  0.00    -0.596 C  
HETATM    2  C   UNL     1     -12.595  14.368  71.641  1.00  0.00    -0.429 A  
HETATM    3  C   UNL     1     -12.416  13.118  71.054  1.00  0.00    -0.406 A  
HETATM    4  C   UNL     1     -11.883  12.998  69.763  1.00  0.00    -0.381 A  
HETATM    5  C   UNL     1     -11.487  14.122  69.018  1.00  0.00    -0.285 A  
HETATM    6  C   UNL     1     -11.831  15.371  69.569  1.00  0.00    -0.370 A  
HETATM    7  C   UNL     1     -12.356  15.499  70.862  1.00  0.00    -0.474 A  
ENDROOT
BRANCH   5   8
HETATM    8  N   UNL     1     -10.741  14.061  67.807  1.00  0.00    -0.241 NA 
BRANCH   8   9
HETATM    9  C   UNL     1     -10.536  12.730  67.161  1.00  0.00    -0.237 C  
BRANCH   9  10
HETATM   10  C   UNL     1     -11.084  12.693  65.737  1.00  0.00    -0.297 C  
HETATM   11  C   UNL     1     -11.099  12.374  63.482  1.00  0.00    -0.458 C  
HETATM   12  N   UNL     1     -12.378  12.638  65.521  1.00  0.00    -0.632 NA 
HETATM   13  C   UNL     1     -12.504  12.633  64.036  1.00  0.00    -0.399 C  
HETATM   14  N   UNL     1     -10.282  12.726  64.620  1.00  0.00    -0.316 NA 
ENDBRANCH   9  10
ENDBRANCH   8   9
BRANCH   8  15
HETATM   15  C   UNL     1      -9.687  14.980  67.444  1.00  0.00    -0.216 A  
HETATM   16  C   UNL     1      -8.325  14.678  67.649  1.00  0.00    -0.186 A  
HETATM   17  C   UNL     1      -9.976  16.211  66.819  1.00  0.00    -0.264 A  
HETATM   18  C   UNL     1      -7.321  15.555  67.227  1.00  0.00    -0.214 A  
HETATM   19  C   UNL     1      -8.963  17.065  66.365  1.00  0.00    -0.308 A  
HETATM   20  O   UNL     1      -5.999  15.289  67.446  1.00  0.00    -0.325 OA 
HETATM   21  C   UNL     1      -7.630  16.732  66.563  1.00  0.00    -0.334 A  
HETATM   22  H   UNL     1      -5.317  15.885  67.159  1.00  0.00     0.000 HD 
ENDBRANCH   8  15
ENDBRANCH   5   8
TORSDOF 4
ENDMDL
MODEL       32
REMARK 921   NORMALIZED FREE ENERGY PREDICTED BY IDOCK:   -5.97 KCAL/MOL
REMARK 922        TOTAL FREE ENERGY PREDICTED BY IDOCK:   -8.12 KCAL/MOL
REMARK 923 INTER-LIGAND FREE ENERGY PREDICTED BY IDOCK:   -7.60 KCAL/MOL
REMARK 924 INTRA-LIGAND FREE ENERGY PREDICTED BY IDOCK:   -0.52 KCAL/MOL
REMARK 927      BINDING AFFINITY PREDICTED BY RF-SCORE:    0.00 PKD
ROOT
HETATM    1  C   UNL     1     -13.712  13.455  72.274  1.00  0.00    -0.705 C  
HETATM    2  C   UNL     1     -12.830  12.873  71.212  1.00  0.00    -0.361 A  
HETATM    3  C   UNL     1     -12.115  13.694  70.343  1.00  0.00    -0.421 A  
HETATM    4  C   UNL     1     -11.425  13.154  69.248  1.00  0.00    -0.348 A  
HETATM    5  C   UNL     1     -11.441  11.778  68.968  1.00  0.00    -0.297 A  
HETATM    6  C   UNL     1     -12.032  10.961  69.951  1.00  0.00    -0.430 A  
HETATM    7  C   UNL     1     -12.731  11.493  71.043  1.00  0.00    -0.426 A  
ENDROOT
BRANCH   5   8
HETATM    8  N   UNL     1     -10.954  11.197  67.762  1.00  0.00    -0.241 NA 
BRANCH   8   9
HETATM    9  C   UNL     1      -9.778  10.280  67.837  1.00  0.00    -0.145 C  
BRANCH   9  10
HETATM   10  C   UNL     1     -10.195   8.812  67.844  1.00  0.00    -0.219 C  
HETATM   11  C   UNL     1     -10.643   6.734  67.025  1.00  0.00    -0.335 C  
HETATM   12  N   UNL     1     -10.167   8.115  68.956  1.00  0.00    -0.216 NA 
HETATM   13  C   UNL     1     -10.651   6.763  68.558  1.00  0.00    -0.225 C  
HETATM   14  N   UNL     1     -10.627   8.145  66.720  1.00  0.00    -0.265 NA 
ENDBRANCH   9  10
ENDBRANCH   8   9
BRANCH   8  15
HETATM   15  C   UNL     1     -11.050  11.810  66.457  1.00  0.00    -0.310 A  
HETATM   16  C   UNL     1     -10.108  11.558  65.439  1.00  0.00    -0.304 A  
HETATM   17  C   UNL     1     -12.128  12.658  66.128  1.00  0.00    -0.399 A  
HETATM   18  C   UNL     1     -10.260  12.110  64.164  1.00  0.00    -0.343 A  
HETATM   19  C   UNL     1     -12.293  13.175  64.836  1.00  0.00    -0.494 A  
HETATM   20  O   UNL     1      -9.340  11.898  63.177  1.00  0.00    -0.625 OA 
HETATM   21  C   UNL     1     -11.359  12.894  63.849  1.00  0.00    -0.489 A  
HETATM   22  H   UNL     1      -9.444  12.274  62.310  1.00  0.00     0.000 HD 
ENDBRANCH   8  15
ENDBRANCH   5   8
TORSDOF 4
ENDMDL
MODEL       33
REMARK 921   NORMALIZED FREE ENERGY PREDICTED BY IDOCK:   -5.96 KCAL/MOL
REMARK 922        TOTAL FREE ENERGY PREDICTED BY IDOCK:   -8.10 KCAL/MOL
REMARK 923 INTER-LIGAND FREE ENERGY PREDICTED BY IDOCK:   -7.36 KCAL/MOL
REMARK 924 INTRA-LIGAND FREE ENERGY PREDICTED BY IDOCK:   -0.74 KCAL/MOL
REMARK 927      BINDING AFFINITY PREDICTED BY RF-SCORE:    0.00 PKD
ROOT
HETATM    1  C   UNL     1      -8.050   8.860  66.555  1.00  0.00    -0.107 C  
HETATM    2  C   UNL     1      -8.968   9.913  67.095  1.00  0.00    -0.150 A  
HETATM    3  C   UNL     1     -10.341   9.693  67.182  1.00  0.00    -0.319 A  
HETATM    4  C   UNL     1     -11.216  10.732  67.528  1.00  0.00    -0.346 A  
HETATM    5  C   UNL     1     -10.756  12.036  67.779  1.00  0.00    -0.210 A  
HETATM    6  C   UNL     1      -9.358  12.187  67.844  1.00  0.00    -0.192 A  
HETATM    7  C   UNL     1      -8.476  11.156  67.492  1.00  0.00    -0.126 A  
ENDROOT
BRANCH   5   8
HETATM    8  N   UNL     1     -11.600  13.174  67.914  1.00  0.00    -0.314 NA 
BRANCH   8   9
HETATM    9  C   UNL     1     -11.686  14.138  66.777  1.00  0.00    -0.410 C  
BRANCH   9  10
HETATM   10  C   UNL     1     -11.730  13.430  65.426  1.00  0.00    -0.331 C  
HETATM   11  C   UNL     1     -10.954  12.398  63.550  1.00  0.00    -0.450 C  
HETATM   12  N   UNL     1     -12.828  12.834  65.021  1.00  0.00    -0.821 NA 
HETATM   13  C   UNL     1     -12.477  12.289  63.678  1.00  0.00    -0.541 C  
HETATM   14  N   UNL     1     -10.659  13.382  64.564  1.00  0.00    -0.413 NA 
ENDBRANCH   9  10
ENDBRANCH   8   9
BRANCH   8  15
HETATM   15  C   UNL     1     -11.910  13.823  69.167  1.00  0.00    -0.354 A  
HETATM   16  C   UNL     1     -12.530  13.140  70.233  1.00  0.00    -0.233 A  
HETATM   17  C   UNL     1     -11.557  15.169  69.397  1.00  0.00    -0.343 A  
HETATM   18  C   UNL     1     -12.757  13.772  71.459  1.00  0.00    -0.346 A  
HETATM   19  C   UNL     1     -11.753  15.782  70.641  1.00  0.00    -0.412 A  
HETATM   20  O   UNL     1     -13.383  13.131  72.491  1.00  0.00    -0.534 OA 
HETATM   21  C   UNL     1     -12.348  15.078  71.678  1.00  0.00    -0.408 A  
HETATM   22  H   UNL     1     -13.537  13.561  73.324  1.00  0.00     0.000 HD 
ENDBRANCH   8  15
ENDBRANCH   5   8
TORSDOF 4
ENDMDL
MODEL       34
REMARK 921   NORMALIZED FREE ENERGY PREDICTED BY IDOCK:   -5.93 KCAL/MOL
REMARK 922        TOTAL FREE ENERGY PREDICTED BY IDOCK:   -8.07 KCAL/MOL
REMARK 923 INTER-LIGAND FREE ENERGY PREDICTED BY IDOCK:   -7.19 KCAL/MOL
REMARK 924 INTRA-LIGAND FREE ENERGY PREDICTED BY IDOCK:   -0.88 KCAL/MOL
REMARK 927      BINDING AFFINITY PREDICTED BY RF-SCORE:    0.00 PKD
ROOT
HETATM    1  C   UNL     1      -9.977  19.743  67.014  1.00  0.00    -0.532 C  
HETATM    2  C   UNL     1      -9.921  18.250  67.125  1.00  0.00    -0.345 A  
HETATM    3  C   UNL     1      -9.036  17.506  66.348  1.00  0.00    -0.264 A  
HETATM    4  C   UNL     1      -9.099  16.105  66.329  1.00  0.00    -0.373 A  
HETATM    5  C   UNL     1     -10.061  15.396  67.067  1.00  0.00    -0.249 A  
HETATM    6  C   UNL     1     -10.829  16.164  67.964  1.00  0.00    -0.333 A  
HETATM    7  C   UNL     1     -10.778  17.564  67.984  1.00  0.00    -0.342 A  
ENDROOT
BRANCH   5   8
HETATM    8  N   UNL     1     -10.321  14.004  66.922  1.00  0.00    -0.267 NA 
BRANCH   8   9
HETATM    9  C   UNL     1      -9.448  13.035  67.650  1.00  0.00    -0.201 C  
BRANCH   9  10
HETATM   10  C   UNL     1     -10.260  12.015  68.442  1.00  0.00    -0.209 C  
HETATM   11  C   UNL     1     -11.992  11.169  69.656  1.00  0.00    -0.359 C  
HETATM   12  N   UNL     1     -10.028  10.729  68.311  1.00  0.00    -0.163 NA 
HETATM   13  C   UNL     1     -10.995  10.082  69.242  1.00  0.00    -0.228 C  
HETATM   14  N   UNL     1     -11.252  12.365  69.329  1.00  0.00    -0.229 NA 
ENDBRANCH   9  10
ENDBRANCH   8   9
BRANCH   8  15
HETATM   15  C   UNL     1     -10.902  13.395  65.747  1.00  0.00    -0.275 A  
HETATM   16  C   UNL     1     -10.117  12.747  64.772  1.00  0.00    -0.240 A  
HETATM   17  C   UNL     1     -12.299  13.381  65.549  1.00  0.00    -0.528 A  
HETATM   18  C   UNL     1     -10.710  12.106  63.680  1.00  0.00    -0.467 A  
HETATM   19  C   UNL     1     -12.885  12.704  64.473  1.00  0.00    -0.356 A  
HETATM   20  O   UNL     1      -9.960  11.499  62.712  1.00  0.00    -0.599 OA 
HETATM   21  C   UNL     1     -12.088  12.057  63.539  1.00  0.00    -0.628 A  
HETATM   22  H   UNL     1     -10.363  11.064  61.970  1.00  0.00     0.000 HD 
ENDBRANCH   8  15
ENDBRANCH   5   8
TORSDOF 4
ENDMDL
MODEL       35
REMARK 921   NORMALIZED FREE ENERGY PREDICTED BY IDOCK:   -5.93 KCAL/MOL
REMARK 922        TOTAL FREE ENERGY PREDICTED BY IDOCK:   -8.06 KCAL/MOL
REMARK 923 INTER-LIGAND FREE ENERGY PREDICTED BY IDOCK:   -7.37 KCAL/MOL
REMARK 924 INTRA-LIGAND FREE ENERGY PREDICTED BY IDOCK:   -0.69 KCAL/MOL
REMARK 927      BINDING AFFINITY PREDICTED BY RF-SCORE:    0.00 PKD
ROOT
HETATM    1  C   UNL     1      -7.331  19.296  67.681  1.00  0.00    -0.265 C  
HETATM    2  C   UNL     1      -8.262  18.274  68.259  1.00  0.00    -0.312 A  
HETATM    3  C   UNL     1      -7.779  17.075  68.777  1.00  0.00    -0.249 A  
HETATM    4  C   UNL     1      -8.657  16.052  69.163  1.00  0.00    -0.247 A  
HETATM    5  C   UNL     1     -10.049  16.180  69.024  1.00  0.00    -0.247 A  
HETATM    6  C   UNL     1     -10.511  17.458  68.654  1.00  0.00    -0.355 A  
HETATM    7  C   UNL     1      -9.640  18.482  68.259  1.00  0.00    -0.370 A  
ENDROOT
BRANCH   5   8
HETATM    8  N   UNL     1     -10.975  15.110  69.185  1.00  0.00    -0.246 NA 
BRANCH   8   9
HETATM    9  C   UNL     1     -11.809  14.706  68.014  1.00  0.00    -0.311 C  
BRANCH   9  10
HETATM   10  C   UNL     1     -11.198  13.535  67.250  1.00  0.00    -0.298 C  
HETATM   11  C   UNL     1     -11.117  11.592  66.065  1.00  0.00    -0.230 C  
HETATM   12  N   UNL     1      -9.992  13.627  66.738  1.00  0.00    -0.263 NA 
HETATM   13  C   UNL     1      -9.759  12.300  66.102  1.00  0.00    -0.245 C  
HETATM   14  N   UNL     1     -11.846  12.336  67.065  1.00  0.00    -0.574 NA 
ENDBRANCH   9  10
ENDBRANCH   8   9
BRANCH   8  15
HETATM   15  C   UNL     1     -11.627  14.767  70.427  1.00  0.00    -0.279 A  
HETATM   16  C   UNL     1     -11.565  15.601  71.562  1.00  0.00    -0.507 A  
HETATM   17  C   UNL     1     -12.403  13.595  70.544  1.00  0.00    -0.425 A  
HETATM   18  C   UNL     1     -12.262  15.280  72.731  1.00  0.00    -0.408 A  
HETATM   19  C   UNL     1     -13.128  13.301  71.706  1.00  0.00    -0.472 A  
HETATM   20  O   UNL     1     -12.187  16.064  73.848  1.00  0.00    -0.494 OA 
HETATM   21  C   UNL     1     -13.063  14.151  72.801  1.00  0.00    -0.573 A  
HETATM   22  H   UNL     1     -12.660  15.845  74.642  1.00  0.00     0.000 HD 
ENDBRANCH   8  15
ENDBRANCH   5   8
TORSDOF 4
ENDMDL
MODEL       36
REMARK 921   NORMALIZED FREE ENERGY PREDICTED BY IDOCK:   -5.82 KCAL/MOL
REMARK 922        TOTAL FREE ENERGY PREDICTED BY IDOCK:   -7.93 KCAL/MOL
REMARK 923 INTER-LIGAND FREE ENERGY PREDICTED BY IDOCK:   -7.45 KCAL/MOL
REMARK 924 INTRA-LIGAND FREE ENERGY PREDICTED BY IDOCK:   -0.48 KCAL/MOL
REMARK 927      BINDING AFFINITY PREDICTED BY RF-SCORE:    0.00 PKD
ROOT
HETATM    1  C   UNL     1      -9.593  19.598  67.749  1.00  0.00    -0.460 C  
HETATM    2  C   UNL     1      -9.948  18.170  67.468  1.00  0.00    -0.338 A  
HETATM    3  C   UNL     1     -10.064  17.703  66.161  1.00  0.00    -0.307 A  
HETATM    4  C   UNL     1     -10.557  16.418  65.896  1.00  0.00    -0.294 A  
HETATM    5  C   UNL     1     -10.974  15.558  66.926  1.00  0.00    -0.268 A  
HETATM    6  C   UNL     1     -10.692  15.992  68.236  1.00  0.00    -0.298 A  
HETATM    7  C   UNL     1     -10.207  17.279  68.508  1.00  0.00    -0.358 A  
ENDROOT
BRANCH   5   8
HETATM    8  N   UNL     1     -11.683  14.341  66.720  1.00  0.00    -0.388 NA 
BRANCH   8   9
HETATM    9  C   UNL     1     -12.205  13.608  67.912  1.00  0.00    -0.150 C  
BRANCH   9  10
HETATM   10  C   UNL     1     -11.423  12.327  68.186  1.00  0.00    -0.316 C  
HETATM   11  C   UNL     1     -10.818  10.138  68.016  1.00  0.00    -0.270 C  
HETATM   12  N   UNL     1     -10.222  12.378  68.714  1.00  0.00    -0.145 NA 
HETATM   13  C   UNL     1      -9.811  10.951  68.836  1.00  0.00    -0.192 C  
HETATM   14  N   UNL     1     -11.916  11.071  67.919  1.00  0.00    -0.580 NA 
ENDBRANCH   9  10
ENDBRANCH   8   9
BRANCH   8  15
HETATM   15  C   UNL     1     -11.462  13.438  65.614  1.00  0.00    -0.316 A  
HETATM   16  C   UNL     1     -12.515  12.985  64.793  1.00  0.00    -0.485 A  
HETATM   17  C   UNL     1     -10.163  13.004  65.276  1.00  0.00    -0.294 A  
HETATM   18  C   UNL     1     -12.266  12.166  63.688  1.00  0.00    -0.562 A  
HETATM   19  C   UNL     1      -9.919  12.215  64.144  1.00  0.00    -0.279 A  
HETATM   20  O   UNL     1     -13.280  11.696  62.901  1.00  0.00    -0.691 OA 
HETATM   21  C   UNL     1     -10.974  11.801  63.343  1.00  0.00    -0.458 A  
HETATM   22  H   UNL     1     -13.110  11.139  62.150  1.00  0.00     0.000 HD 
ENDBRANCH   8  15
ENDBRANCH   5   8
TORSDOF 4
ENDMDL
MODEL       37
REMARK 921   NORMALIZED FREE ENERGY PREDICTED BY IDOCK:   -5.81 KCAL/MOL
REMARK 922        TOTAL FREE ENERGY PREDICTED BY IDOCK:   -7.92 KCAL/MOL
REMARK 923 INTER-LIGAND FREE ENERGY PREDICTED BY IDOCK:   -7.09 KCAL/MOL
REMARK 924 INTRA-LIGAND FREE ENERGY PREDICTED BY IDOCK:   -0.82 KCAL/MOL
REMARK 927      BINDING AFFINITY PREDICTED BY RF-SCORE:    0.00 PKD
ROOT
HETATM    1  C   UNL     1      -8.488  18.929  68.358  1.00  0.00    -0.385 C  
HETATM    2  C   UNL     1      -9.159  17.589  68.353  1.00  0.00    -0.276 A  
HETATM    3  C   UNL     1      -8.427  16.419  68.541  1.00  0.00    -0.211 A  
HETATM    4  C   UNL     1      -9.024  15.162  68.370  1.00  0.00    -0.183 A  
HETATM    5  C   UNL     1     -10.368  15.026  67.983  1.00  0.00    -0.236 A  
HETATM    6  C   UNL     1     -11.120  16.216  67.960  1.00  0.00    -0.317 A  
HETATM    7  C   UNL     1     -10.529  17.477  68.122  1.00  0.00    -0.386 A  
ENDROOT
BRANCH   5   8
HETATM    8  N   UNL     1     -10.968  13.800  67.579  1.00  0.00    -0.268 NA 
BRANCH   8   9
HETATM    9  C   UNL     1     -12.168  13.851  66.691  1.00  0.00    -0.424 C  
BRANCH   9  10
HETATM   10  C   UNL     1     -11.938  13.117  65.373  1.00  0.00    -0.406 C  
HETATM   11  C   UNL     1     -12.446  12.092  63.404  1.00  0.00    -0.512 C  
HETATM   12  N   UNL     1     -10.764  13.151  64.786  1.00  0.00    -0.343 NA 
HETATM   13  C   UNL     1     -10.939  12.318  63.562  1.00  0.00    -0.459 C  
HETATM   14  N   UNL     1     -12.913  12.383  64.739  1.00  0.00    -0.768 NA 
ENDBRANCH   9  10
ENDBRANCH   8   9
BRANCH   8  15
HETATM   15  C   UNL     1     -10.951  12.582  68.355  1.00  0.00    -0.248 A  
HETATM   16  C   UNL     1      -9.895  11.651  68.269  1.00  0.00    -0.199 A  
HETATM   17  C   UNL     1     -11.977  12.292  69.279  1.00  0.00    -0.308 A  
HETATM   18  C   UNL     1      -9.869  10.513  69.081  1.00  0.00    -0.218 A  
HETATM   19  C   UNL     1     -11.922  11.169  70.115  1.00  0.00    -0.449 A  
HETATM   20  O   UNL     1      -8.867   9.589  68.986  1.00  0.00    -0.134 OA 
HETATM   21  C   UNL     1     -10.860  10.281  70.021  1.00  0.00    -0.364 A  
HETATM   22  H   UNL     1      -8.850   8.816  69.538  1.00  0.00     0.000 HD 
ENDBRANCH   8  15
ENDBRANCH   5   8
TORSDOF 4
ENDMDL
MODEL       38
REMARK 921   NORMALIZED FREE ENERGY PREDICTED BY IDOCK:   -5.79 KCAL/MOL
REMARK 922        TOTAL FREE ENERGY PREDICTED BY IDOCK:   -7.89 KCAL/MOL
REMARK 923 INTER-LIGAND FREE ENERGY PREDICTED BY IDOCK:   -7.13 KCAL/MOL
REMARK 924 INTRA-LIGAND FREE ENERGY PREDICTED BY IDOCK:   -0.76 KCAL/MOL
REMARK 927      BINDING AFFINITY PREDICTED BY RF-SCORE:    0.00 PKD
ROOT
HETATM    1  C   UNL     1     -13.773  13.782  72.264  1.00  0.00    -0.673 C  
HETATM    2  C   UNL     1     -12.825  13.511  71.136  1.00  0.00    -0.387 A  
HETATM    3  C   UNL     1     -12.265  14.554  70.402  1.00  0.00    -0.394 A  
HETATM    4  C   UNL     1     -11.514  14.298  69.246  1.00  0.00    -0.330 A  
HETATM    5  C   UNL     1     -11.312  12.992  68.767  1.00  0.00    -0.289 A  
HETATM    6  C   UNL     1     -11.748  11.957  69.616  1.00  0.00    -0.413 A  
HETATM    7  C   UNL     1     -12.506  12.204  70.768  1.00  0.00    -0.362 A  
ENDROOT
BRANCH   5   8
HETATM    8  N   UNL     1     -10.756  12.680  67.494  1.00  0.00    -0.223 NA 
BRANCH   8   9
HETATM    9  C   UNL     1      -9.283  12.453  67.395  1.00  0.00    -0.184 C  
BRANCH   9  10
HETATM   10  C   UNL     1      -8.950  11.116  66.740  1.00  0.00    -0.165 C  
HETATM   11  C   UNL     1      -7.731   9.552  65.620  1.00  0.00    -0.101 C  
HETATM   12  N   UNL     1      -9.617  10.031  67.061  1.00  0.00    -0.166 NA 
HETATM   13  C   UNL     1      -9.017   8.964  66.210  1.00  0.00    -0.170 C  
HETATM   14  N   UNL     1      -7.968  10.966  65.788  1.00  0.00    -0.121 NA 
ENDBRANCH   9  10
ENDBRANCH   8   9
BRANCH   8  15
HETATM   15  C   UNL     1     -11.297  13.122  66.230  1.00  0.00    -0.315 A  
HETATM   16  C   UNL     1     -11.059  14.416  65.723  1.00  0.00    -0.316 A  
HETATM   17  C   UNL     1     -12.055  12.253  65.418  1.00  0.00    -0.343 A  
HETATM   18  C   UNL     1     -11.537  14.797  64.466  1.00  0.00    -0.361 A  
HETATM   19  C   UNL     1     -12.496  12.630  64.143  1.00  0.00    -0.488 A  
HETATM   20  O   UNL     1     -11.339  16.056  63.975  1.00  0.00    -1.093 OA 
HETATM   21  C   UNL     1     -12.230  13.905  63.663  1.00  0.00    -0.232 A  
HETATM   22  H   UNL     1     -11.664  16.315  63.121  1.00  0.00     0.000 HD 
ENDBRANCH   8  15
ENDBRANCH   5   8
TORSDOF 4
ENDMDL
MODEL       39
REMARK 921   NORMALIZED FREE ENERGY PREDICTED BY IDOCK:   -5.76 KCAL/MOL
REMARK 922        TOTAL FREE ENERGY PREDICTED BY IDOCK:   -7.86 KCAL/MOL
REMARK 923 INTER-LIGAND FREE ENERGY PREDICTED BY IDOCK:   -6.98 KCAL/MOL
REMARK 924 INTRA-LIGAND FREE ENERGY PREDICTED BY IDOCK:   -0.88 KCAL/MOL
REMARK 927      BINDING AFFINITY PREDICTED BY RF-SCORE:    0.00 PKD
ROOT
HETATM    1  C   UNL     1      -8.204   6.841  68.154  1.00  0.00    -0.114 C  
HETATM    2  C   UNL     1      -8.855   8.179  67.978  1.00  0.00    -0.131 A  
HETATM    3  C   UNL     1      -8.300   9.327  68.538  1.00  0.00    -0.119 A  
HETATM    4  C   UNL     1      -8.993  10.545  68.516  1.00  0.00    -0.147 A  
HETATM    5  C   UNL     1     -10.276  10.658  67.954  1.00  0.00    -0.177 A  
HETATM    6  C   UNL     1     -10.737   9.526  67.254  1.00  0.00    -0.269 A  
HETATM    7  C   UNL     1     -10.055   8.303  67.279  1.00  0.00    -0.315 A  
ENDROOT
BRANCH   5   8
HETATM    8  N   UNL     1     -11.118  11.797  68.095  1.00  0.00    -0.225 NA 
BRANCH   8   9
HETATM    9  C   UNL     1     -10.840  12.999  67.253  1.00  0.00    -0.252 C  
BRANCH   9  10
HETATM   10  C   UNL     1     -11.198  12.769  65.788  1.00  0.00    -0.307 C  
HETATM   11  C   UNL     1     -10.889  12.286  63.583  1.00  0.00    -0.469 C  
HETATM   12  N   UNL     1     -12.433  12.492  65.437  1.00  0.00    -0.647 NA 
HETATM   13  C   UNL     1     -12.374  12.357  63.954  1.00  0.00    -0.508 C  
HETATM   14  N   UNL     1     -10.280  12.847  64.766  1.00  0.00    -0.306 NA 
ENDBRANCH   9  10
ENDBRANCH   8   9
BRANCH   8  15
HETATM   15  C   UNL     1     -11.806  12.166  69.311  1.00  0.00    -0.313 A  
HETATM   16  C   UNL     1     -12.262  11.204  70.236  1.00  0.00    -0.436 A  
HETATM   17  C   UNL     1     -12.009  13.519  69.652  1.00  0.00    -0.397 A  
HETATM   18  C   UNL     1     -12.864  11.589  71.438  1.00  0.00    -0.384 A  
HETATM   19  C   UNL     1     -12.577  13.896  70.876  1.00  0.00    -0.431 A  
HETATM   20  O   UNL     1     -13.337  10.668  72.329  1.00  0.00    -0.616 OA 
HETATM   21  C   UNL     1     -12.999  12.926  71.775  1.00  0.00    -0.416 A  
HETATM   22  H   UNL     1     -13.746  10.930  73.146  1.00  0.00     0.000 HD 
ENDBRANCH   8  15
ENDBRANCH   5   8
TORSDOF 4
ENDMDL
MODEL       40
REMARK 921   NORMALIZED FREE ENERGY PREDICTED BY IDOCK:   -5.76 KCAL/MOL
REMARK 922        TOTAL FREE ENERGY PREDICTED BY IDOCK:   -7.86 KCAL/MOL
REMARK 923 INTER-LIGAND FREE ENERGY PREDICTED BY IDOCK:   -7.10 KCAL/MOL
REMARK 924 INTRA-LIGAND FREE ENERGY PREDICTED BY IDOCK:   -0.76 KCAL/MOL
REMARK 927      BINDING AFFINITY PREDICTED BY RF-SCORE:    0.00 PKD
ROOT
HETATM    1  C   UNL     1      -7.993   8.859  66.529  1.00  0.00    -0.103 C  
HETATM    2  C   UNL     1      -8.950   9.817  67.169  1.00  0.00    -0.148 A  
HETATM    3  C   UNL     1     -10.312   9.535  67.232  1.00  0.00    -0.319 A  
HETATM    4  C   UNL     1     -11.227  10.501  67.677  1.00  0.00    -0.338 A  
HETATM    5  C   UNL     1     -10.817  11.790  68.056  1.00  0.00    -0.213 A  
HETATM    6  C   UNL     1      -9.425  11.989  68.137  1.00  0.00    -0.200 A  
HETATM    7  C   UNL     1      -8.506  11.033  67.686  1.00  0.00    -0.121 A  
ENDROOT
BRANCH   5   8
HETATM    8  N   UNL     1     -11.705  12.876  68.302  1.00  0.00    -0.333 NA 
BRANCH   8   9
HETATM    9  C   UNL     1     -11.715  14.021  67.342  1.00  0.00    -0.388 C  
BRANCH   9  10
HETATM   10  C   UNL     1     -11.699  13.552  65.890  1.00  0.00    -0.352 C  
HETATM   11  C   UNL     1     -10.841  12.821  63.911  1.00  0.00    -0.411 C  
HETATM   12  N   UNL     1     -12.786  13.076  65.330  1.00  0.00    -0.713 NA 
HETATM   13  C   UNL     1     -12.372  12.752  63.935  1.00  0.00    -0.426 C  
HETATM   14  N   UNL     1     -10.579  13.609  65.093  1.00  0.00    -0.340 NA 
ENDBRANCH   9  10
ENDBRANCH   8   9
BRANCH   8  15
HETATM   15  C   UNL     1     -12.148  13.295  69.612  1.00  0.00    -0.270 A  
HETATM   16  C   UNL     1     -12.137  14.648  70.010  1.00  0.00    -0.383 A  
HETATM   17  C   UNL     1     -12.661  12.365  70.540  1.00  0.00    -0.169 A  
HETATM   18  C   UNL     1     -12.634  15.035  71.258  1.00  0.00    -0.339 A  
HETATM   19  C   UNL     1     -13.192  12.768  71.772  1.00  0.00    -0.471 A  
HETATM   20  O   UNL     1     -12.603  16.338  71.668  1.00  0.00    -0.550 OA 
HETATM   21  C   UNL     1     -13.186  14.109  72.128  1.00  0.00    -0.510 A  
HETATM   22  H   UNL     1     -12.941  16.601  72.516  1.00  0.00     0.000 HD 
ENDBRANCH   8  15
ENDBRANCH   5   8
TORSDOF 4
ENDMDL
MODEL       41
REMARK 921   NORMALIZED FREE ENERGY PREDICTED BY IDOCK:   -5.74 KCAL/MOL
REMARK 922        TOTAL FREE ENERGY PREDICTED BY IDOCK:   -7.83 KCAL/MOL
REMARK 923 INTER-LIGAND FREE ENERGY PREDICTED BY IDOCK:   -7.11 KCAL/MOL
REMARK 924 INTRA-LIGAND FREE ENERGY PREDICTED BY IDOCK:   -0.72 KCAL/MOL
REMARK 927      BINDING AFFINITY PREDICTED BY RF-SCORE:    0.00 PKD
ROOT
HETATM    1  C   UNL     1     -11.175   8.649  72.234  1.00  0.00    -0.399 C  
HETATM    2  C   UNL     1     -11.266   9.552  71.042  1.00  0.00    -0.432 A  
HETATM    3  C   UNL     1     -10.229   9.625  70.116  1.00  0.00    -0.313 A  
HETATM    4  C   UNL     1     -10.241  10.588  69.096  1.00  0.00    -0.241 A  
HETATM    5  C   UNL     1     -11.278  11.529  68.978  1.00  0.00    -0.262 A  
HETATM    6  C   UNL     1     -12.386  11.326  69.823  1.00  0.00    -0.277 A  
HETATM    7  C   UNL     1     -12.378  10.371  70.850  1.00  0.00    -0.480 A  
ENDROOT
BRANCH   5   8
HETATM    8  N   UNL     1     -11.242  12.660  68.115  1.00  0.00    -0.250 NA 
BRANCH   8   9
HETATM    9  C   UNL     1     -11.847  13.940  68.591  1.00  0.00    -0.372 C  
BRANCH   9  10
HETATM   10  C   UNL     1     -10.832  15.079  68.617  1.00  0.00    -0.249 C  
HETATM   11  C   UNL     1     -10.034  17.199  68.855  1.00  0.00    -0.304 C  
HETATM   12  N   UNL     1      -9.550  14.829  68.759  1.00  0.00    -0.213 NA 
HETATM   13  C   UNL     1      -8.905  16.172  68.720  1.00  0.00    -0.233 C  
HETATM   14  N   UNL     1     -11.180  16.403  68.485  1.00  0.00    -0.363 NA 
ENDBRANCH   9  10
ENDBRANCH   8   9
BRANCH   8  15
HETATM   15  C   UNL     1     -11.243  12.594  66.671  1.00  0.00    -0.300 A  
HETATM   16  C   UNL     1     -10.145  12.092  65.943  1.00  0.00    -0.270 A  
HETATM   17  C   UNL     1     -12.374  12.986  65.925  1.00  0.00    -0.432 A  
HETATM   18  C   UNL     1     -10.198  11.975  64.551  1.00  0.00    -0.286 A  
HETATM   19  C   UNL     1     -12.431  12.829  64.534  1.00  0.00    -0.501 A  
HETATM   20  O   UNL     1      -9.131  11.519  63.830  1.00  0.00    -0.433 OA 
HETATM   21  C   UNL     1     -11.342  12.314  63.846  1.00  0.00    -0.501 A  
HETATM   22  H   UNL     1      -9.167  11.439  62.883  1.00  0.00     0.000 HD 
ENDBRANCH   8  15
ENDBRANCH   5   8
TORSDOF 4
ENDMDL
MODEL       42
REMARK 921   NORMALIZED FREE ENERGY PREDICTED BY IDOCK:   -5.71 KCAL/MOL
REMARK 922        TOTAL FREE ENERGY PREDICTED BY IDOCK:   -7.80 KCAL/MOL
REMARK 923 INTER-LIGAND FREE ENERGY PREDICTED BY IDOCK:   -7.04 KCAL/MOL
REMARK 924 INTRA-LIGAND FREE ENERGY PREDICTED BY IDOCK:   -0.76 KCAL/MOL
REMARK 927      BINDING AFFINITY PREDICTED BY RF-SCORE:    0.00 PKD
ROOT
HETATM    1  C   UNL     1     -11.152  15.981  64.492  1.00  0.00    -0.269 C  
HETATM    2  C   UNL     1     -11.201  14.988  65.612  1.00  0.00    -0.327 A  
HETATM    3  C   UNL     1     -12.286  14.129  65.763  1.00  0.00    -0.481 A  
HETATM    4  C   UNL     1     -12.410  13.318  66.901  1.00  0.00    -0.220 A  
HETATM    5  C   UNL     1     -11.466  13.352  67.941  1.00  0.00    -0.315 A  
HETATM    6  C   UNL     1     -10.303  14.104  67.685  1.00  0.00    -0.241 A  
HETATM    7  C   UNL     1     -10.175  14.922  66.555  1.00  0.00    -0.281 A  
ENDROOT
BRANCH   5   8
HETATM    8  N   UNL     1     -11.644  12.729  69.209  1.00  0.00    -0.300 NA 
BRANCH   8   9
HETATM    9  C   UNL     1     -11.977  11.274  69.248  1.00  0.00    -0.342 C  
BRANCH   9  10
HETATM   10  C   UNL     1     -10.833  10.409  68.729  1.00  0.00    -0.232 C  
HETATM   11  C   UNL     1      -9.525   9.309  67.224  1.00  0.00    -0.144 C  
HETATM   12  N   UNL     1      -9.752  10.226  69.453  1.00  0.00    -0.223 NA 
HETATM   13  C   UNL     1      -8.899   9.329  68.623  1.00  0.00    -0.132 C  
HETATM   14  N   UNL     1     -10.862   9.772  67.510  1.00  0.00    -0.270 NA 
ENDBRANCH   9  10
ENDBRANCH   8   9
BRANCH   8  15
HETATM   15  C   UNL     1     -12.122  13.402  70.395  1.00  0.00    -0.333 A  
HETATM   16  C   UNL     1     -11.758  14.728  70.703  1.00  0.00    -0.353 A  
HETATM   17  C   UNL     1     -13.022  12.770  71.278  1.00  0.00    -0.310 A  
HETATM   18  C   UNL     1     -12.288  15.380  71.821  1.00  0.00    -0.381 A  
HETATM   19  C   UNL     1     -13.578  13.444  72.373  1.00  0.00    -0.708 A  
HETATM   20  O   UNL     1     -11.921  16.654  72.148  1.00  0.00    -0.629 OA 
HETATM   21  C   UNL     1     -13.215  14.756  72.641  1.00  0.00    -0.548 A  
HETATM   22  H   UNL     1     -12.282  17.097  72.908  1.00  0.00     0.000 HD 
ENDBRANCH   8  15
ENDBRANCH   5   8
TORSDOF 4
ENDMDL
MODEL       43
REMARK 921   NORMALIZED FREE ENERGY PREDICTED BY IDOCK:   -5.70 KCAL/MOL
REMARK 922        TOTAL FREE ENERGY PREDICTED BY IDOCK:   -7.78 KCAL/MOL
REMARK 923 INTER-LIGAND FREE ENERGY PREDICTED BY IDOCK:   -6.86 KCAL/MOL
REMARK 924 INTRA-LIGAND FREE ENERGY PREDICTED BY IDOCK:   -0.92 KCAL/MOL
REMARK 927      BINDING AFFINITY PREDICTED BY RF-SCORE:    0.00 PKD
ROOT
HETATM    1  C   UNL     1     -13.346  12.006  71.885  1.00  0.00    -0.408 C  
HETATM    2  C   UNL     1     -12.383  12.282  70.771  1.00  0.00    -0.383 A  
HETATM    3  C   UNL     1     -12.101  13.586  70.373  1.00  0.00    -0.415 A  
HETATM    4  C   UNL     1     -11.332  13.838  69.227  1.00  0.00    -0.325 A  
HETATM    5  C   UNL     1     -10.835  12.797  68.425  1.00  0.00    -0.249 A  
HETATM    6  C   UNL     1     -10.997  11.497  68.942  1.00  0.00    -0.279 A  
HETATM    7  C   UNL     1     -11.770  11.237  70.081  1.00  0.00    -0.429 A  
ENDROOT
BRANCH   5   8
HETATM    8  N   UNL     1     -10.245  12.982  67.142  1.00  0.00    -0.241 NA 
BRANCH   8   9
HETATM    9  C   UNL     1      -9.252  14.084  66.966  1.00  0.00    -0.254 C  
BRANCH   9  10
HETATM   10  C   UNL     1      -7.842  13.654  67.360  1.00  0.00    -0.149 C  
HETATM   11  C   UNL     1      -5.976  12.352  67.461  1.00  0.00    -0.144 C  
HETATM   12  N   UNL     1      -6.966  14.538  67.777  1.00  0.00    -0.164 NA 
HETATM   13  C   UNL     1      -5.744  13.738  68.072  1.00  0.00    -0.132 C  
HETATM   14  N   UNL     1      -7.413  12.347  67.318  1.00  0.00    -0.150 NA 
ENDBRANCH   9  10
ENDBRANCH   8   9
BRANCH   8  15
HETATM   15  C   UNL     1     -10.885  12.658  65.888  1.00  0.00    -0.270 A  
HETATM   16  C   UNL     1     -10.211  11.973  64.857  1.00  0.00    -0.302 A  
HETATM   17  C   UNL     1     -12.241  12.973  65.659  1.00  0.00    -0.521 A  
HETATM   18  C   UNL     1     -10.873  11.610  63.680  1.00  0.00    -0.432 A  
HETATM   19  C   UNL     1     -12.906  12.572  64.493  1.00  0.00    -0.352 A  
HETATM   20  O   UNL     1     -10.225  10.973  62.661  1.00  0.00    -0.670 OA 
HETATM   21  C   UNL     1     -12.221  11.882  63.504  1.00  0.00    -0.591 A  
HETATM   22  H   UNL     1     -10.675  10.727  61.861  1.00  0.00     0.000 HD 
ENDBRANCH   8  15
ENDBRANCH   5   8
TORSDOF 4
ENDMDL
MODEL       44
REMARK 921   NORMALIZED FREE ENERGY PREDICTED BY IDOCK:   -5.70 KCAL/MOL
REMARK 922        TOTAL FREE ENERGY PREDICTED BY IDOCK:   -7.78 KCAL/MOL
REMARK 923 INTER-LIGAND FREE ENERGY PREDICTED BY IDOCK:   -7.47 KCAL/MOL
REMARK 924 INTRA-LIGAND FREE ENERGY PREDICTED BY IDOCK:   -0.31 KCAL/MOL
REMARK 927      BINDING AFFINITY PREDICTED BY RF-SCORE:    0.00 PKD
ROOT
HETATM    1  C   UNL     1     -11.619   7.941  72.637  1.00  0.00    -0.435 C  
HETATM    2  C   UNL     1     -11.551   8.938  71.521  1.00  0.00    -0.388 A  
HETATM    3  C   UNL     1     -10.397   9.077  70.753  1.00  0.00    -0.305 A  
HETATM    4  C   UNL     1     -10.274  10.119  69.822  1.00  0.00    -0.286 A  
HETATM    5  C   UNL     1     -11.289  11.074  69.640  1.00  0.00    -0.292 A  
HETATM    6  C   UNL     1     -12.500  10.811  70.308  1.00  0.00    -0.395 A  
HETATM    7  C   UNL     1     -12.629   9.777  71.246  1.00  0.00    -0.460 A  
ENDROOT
BRANCH   5   8
HETATM    8  N   UNL     1     -11.140  12.271  68.884  1.00  0.00    -0.234 NA 
BRANCH   8   9
HETATM    9  C   UNL     1     -10.211  12.266  67.715  1.00  0.00    -0.202 C  
BRANCH   9  10
HETATM   10  C   UNL     1     -10.924  12.618  66.413  1.00  0.00    -0.272 C  
HETATM   11  C   UNL     1     -11.197  12.998  64.184  1.00  0.00    -0.399 C  
HETATM   12  N   UNL     1     -12.231  12.527  66.322  1.00  0.00    -0.584 NA 
HETATM   13  C   UNL     1     -12.535  12.963  64.930  1.00  0.00    -0.478 C  
HETATM   14  N   UNL     1     -10.266  13.052  65.286  1.00  0.00    -0.293 NA 
ENDBRANCH   9  10
ENDBRANCH   8   9
BRANCH   8  15
HETATM   15  C   UNL     1     -11.291  13.605  69.419  1.00  0.00    -0.245 A  
HETATM   16  C   UNL     1     -12.375  13.963  70.247  1.00  0.00    -0.413 A  
HETATM   17  C   UNL     1     -10.325  14.602  69.172  1.00  0.00    -0.222 A  
HETATM   18  C   UNL     1     -12.462  15.241  70.807  1.00  0.00    -0.402 A  
HETATM   19  C   UNL     1     -10.401  15.868  69.769  1.00  0.00    -0.290 A  
HETATM   20  O   UNL     1     -13.521  15.610  71.586  1.00  0.00    -0.490 OA 
HETATM   21  C   UNL     1     -11.470  16.185  70.595  1.00  0.00    -0.386 A  
HETATM   22  H   UNL     1     -13.580  16.479  71.967  1.00  0.00     0.000 HD 
ENDBRANCH   8  15
ENDBRANCH   5   8
TORSDOF 4
ENDMDL
MODEL       45
REMARK 921   NORMALIZED FREE ENERGY PREDICTED BY IDOCK:   -5.69 KCAL/MOL
REMARK 922        TOTAL FREE ENERGY PREDICTED BY IDOCK:   -7.77 KCAL/MOL
REMARK 923 INTER-LIGAND FREE ENERGY PREDICTED BY IDOCK:   -7.19 KCAL/MOL
REMARK 924 INTRA-LIGAND FREE ENERGY PREDICTED BY IDOCK:   -0.58 KCAL/MOL
REMARK 927      BINDING AFFINITY PREDICTED BY RF-SCORE:    0.00 PKD
ROOT
HETATM    1  C   UNL     1     -12.536  15.707  74.294  1.00  0.00    -0.804 C  
HETATM    2  C   UNL     1     -12.422  15.231  72.879  1.00  0.00    -0.510 A  
HETATM    3  C   UNL     1     -13.128  14.115  72.438  1.00  0.00    -0.525 A  
HETATM    4  C   UNL     1     -12.895  13.571  71.167  1.00  0.00    -0.387 A  
HETATM    5  C   UNL     1     -11.932  14.108  70.297  1.00  0.00    -0.334 A  
HETATM    6  C   UNL     1     -11.355  15.327  70.703  1.00  0.00    -0.345 A  
HETATM    7  C   UNL     1     -11.576  15.872  71.975  1.00  0.00    -0.525 A  
ENDROOT
BRANCH   5   8
HETATM    8  N   UNL     1     -11.492  13.480  69.097  1.00  0.00    -0.278 NA 
BRANCH   8   9
HETATM    9  C   UNL     1     -12.264  13.720  67.841  1.00  0.00    -0.159 C  
BRANCH   9  10
HETATM   10  C   UNL     1     -11.567  14.718  66.921  1.00  0.00    -0.327 C  
HETATM   11  C   UNL     1     -10.146  16.383  66.293  1.00  0.00    -0.331 C  
HETATM   12  N   UNL     1     -11.558  14.535  65.621  1.00  0.00    -0.344 NA 
HETATM   13  C   UNL     1     -10.810  15.708  65.088  1.00  0.00    -0.431 C  
HETATM   14  N   UNL     1     -10.932  15.849  67.379  1.00  0.00    -0.296 NA 
ENDBRANCH   9  10
ENDBRANCH   8   9
BRANCH   8  15
HETATM   15  C   UNL     1     -10.791  12.218  69.040  1.00  0.00    -0.150 A  
HETATM   16  C   UNL     1     -11.383  11.011  69.464  1.00  0.00    -0.356 A  
HETATM   17  C   UNL     1      -9.487  12.132  68.508  1.00  0.00    -0.125 A  
HETATM   18  C   UNL     1     -10.708   9.793  69.335  1.00  0.00    -0.228 A  
HETATM   19  C   UNL     1      -8.835  10.903  68.347  1.00  0.00    -0.147 A  
HETATM   20  O   UNL     1     -11.258   8.620  69.768  1.00  0.00    -0.433 OA 
HETATM   21  C   UNL     1      -9.451   9.728  68.755  1.00  0.00    -0.154 A  
HETATM   22  H   UNL     1     -10.800   7.792  69.681  1.00  0.00     0.000 HD 
ENDBRANCH   8  15
ENDBRANCH   5   8
TORSDOF 4
ENDMDL
MODEL       46
REMARK 921   NORMALIZED FREE ENERGY PREDICTED BY IDOCK:   -5.68 KCAL/MOL
REMARK 922        TOTAL FREE ENERGY PREDICTED BY IDOCK:   -7.76 KCAL/MOL
REMARK 923 INTER-LIGAND FREE ENERGY PREDICTED BY IDOCK:   -6.94 KCAL/MOL
REMARK 924 INTRA-LIGAND FREE ENERGY PREDICTED BY IDOCK:   -0.82 KCAL/MOL
REMARK 927      BINDING AFFINITY PREDICTED BY RF-SCORE:    0.00 PKD
ROOT
HETATM    1  C   UNL     1     -12.685  10.001  71.512  1.00  0.00    -0.532 C  
HETATM    2  C   UNL     1     -11.958  11.014  70.682  1.00  0.00    -0.464 A  
HETATM    3  C   UNL     1     -12.270  12.368  70.767  1.00  0.00    -0.336 A  
HETATM    4  C   UNL     1     -11.709  13.293  69.874  1.00  0.00    -0.330 A  
HETATM    5  C   UNL     1     -10.835  12.896  68.848  1.00  0.00    -0.200 A  
HETATM    6  C   UNL     1     -10.414  11.553  68.891  1.00  0.00    -0.212 A  
HETATM    7  C   UNL     1     -10.975  10.621  69.775  1.00  0.00    -0.340 A  
ENDROOT
BRANCH   5   8
HETATM    8  N   UNL     1     -10.410  13.739  67.782  1.00  0.00    -0.238 NA 
BRANCH   8   9
HETATM    9  C   UNL     1      -9.830  13.107  66.560  1.00  0.00    -0.265 C  
BRANCH   9  10
HETATM   10  C   UNL     1     -10.867  12.941  65.452  1.00  0.00    -0.283 C  
HETATM   11  C   UNL     1     -12.899  12.574  64.492  1.00  0.00    -0.262 C  
HETATM   12  N   UNL     1     -10.647  13.430  64.253  1.00  0.00    -0.402 NA 
HETATM   13  C   UNL     1     -11.860  13.054  63.473  1.00  0.00    -0.516 C  
HETATM   14  N   UNL     1     -12.059  12.278  65.628  1.00  0.00    -0.578 NA 
ENDBRANCH   9  10
ENDBRANCH   8   9
BRANCH   8  15
HETATM   15  C   UNL     1      -9.924  15.090  67.946  1.00  0.00    -0.222 A  
HETATM   16  C   UNL     1     -10.681  16.213  67.554  1.00  0.00    -0.304 A  
HETATM   17  C   UNL     1      -8.679  15.347  68.556  1.00  0.00    -0.178 A  
HETATM   18  C   UNL     1     -10.218  17.511  67.785  1.00  0.00    -0.349 A  
HETATM   19  C   UNL     1      -8.240  16.651  68.818  1.00  0.00    -0.249 A  
HETATM   20  O   UNL     1     -10.928  18.607  67.384  1.00  0.00    -0.399 OA 
HETATM   21  C   UNL     1      -9.016  17.737  68.438  1.00  0.00    -0.281 A  
HETATM   22  H   UNL     1     -10.612  19.490  67.542  1.00  0.00     0.000 HD 
ENDBRANCH   8  15
ENDBRANCH   5   8
TORSDOF 4
ENDMDL
MODEL       47
REMARK 921   NORMALIZED FREE ENERGY PREDICTED BY IDOCK:   -5.68 KCAL/MOL
REMARK 922        TOTAL FREE ENERGY PREDICTED BY IDOCK:   -7.76 KCAL/MOL
REMARK 923 INTER-LIGAND FREE ENERGY PREDICTED BY IDOCK:   -7.17 KCAL/MOL
REMARK 924 INTRA-LIGAND FREE ENERGY PREDICTED BY IDOCK:   -0.60 KCAL/MOL
REMARK 927      BINDING AFFINITY PREDICTED BY RF-SCORE:    0.00 PKD
ROOT
HETATM    1  C   UNL     1     -10.380   8.317  67.650  1.00  0.00    -0.313 C  
HETATM    2  C   UNL     1     -10.503   9.805  67.772  1.00  0.00    -0.297 A  
HETATM    3  C   UNL     1     -11.526  10.381  68.521  1.00  0.00    -0.231 A  
HETATM    4  C   UNL     1     -11.740  11.767  68.500  1.00  0.00    -0.390 A  
HETATM    5  C   UNL     1     -10.954  12.626  67.713  1.00  0.00    -0.234 A  
HETATM    6  C   UNL     1      -9.832  12.037  67.101  1.00  0.00    -0.205 A  
HETATM    7  C   UNL     1      -9.615  10.652  67.110  1.00  0.00    -0.189 A  
ENDROOT
BRANCH   5   8
HETATM    8  N   UNL     1     -11.255  13.997  67.475  1.00  0.00    -0.298 NA 
BRANCH   8   9
HETATM    9  C   UNL     1     -12.246  14.335  66.409  1.00  0.00    -0.401 C  
BRANCH   9  10
HETATM   10  C   UNL     1     -12.071  13.467  65.167  1.00  0.00    -0.404 C  
HETATM   11  C   UNL     1     -11.000  12.397  63.465  1.00  0.00    -0.450 C  
HETATM   12  N   UNL     1     -12.995  12.601  64.822  1.00  0.00    -0.867 NA 
HETATM   13  C   UNL     1     -12.470  11.978  63.573  1.00  0.00    -0.540 C  
HETATM   14  N   UNL     1     -10.972  13.543  64.343  1.00  0.00    -0.390 NA 
ENDBRANCH   9  10
ENDBRANCH   8   9
BRANCH   8  15
HETATM   15  C   UNL     1     -10.336  15.090  67.691  1.00  0.00    -0.243 A  
HETATM   16  C   UNL     1     -10.121  16.092  66.722  1.00  0.00    -0.275 A  
HETATM   17  C   UNL     1      -9.643  15.229  68.911  1.00  0.00    -0.220 A  
HETATM   18  C   UNL     1      -9.277  17.176  66.983  1.00  0.00    -0.241 A  
HETATM   19  C   UNL     1      -8.830  16.338  69.177  1.00  0.00    -0.217 A  
HETATM   20  O   UNL     1      -9.037  18.139  66.043  1.00  0.00    -0.513 OA 
HETATM   21  C   UNL     1      -8.653  17.319  68.212  1.00  0.00    -0.247 A  
HETATM   22  H   UNL     1      -8.463  18.875  66.220  1.00  0.00     0.000 HD 
ENDBRANCH   8  15
ENDBRANCH   5   8
TORSDOF 4
ENDMDL
MODEL       48
REMARK 921   NORMALIZED FREE ENERGY PREDICTED BY IDOCK:   -5.68 KCAL/MOL
REMARK 922        TOTAL FREE ENERGY PREDICTED BY IDOCK:   -7.76 KCAL/MOL
REMARK 923 INTER-LIGAND FREE ENERGY PREDICTED BY IDOCK:   -7.11 KCAL/MOL
REMARK 924 INTRA-LIGAND FREE ENERGY PREDICTED BY IDOCK:   -0.64 KCAL/MOL
REMARK 927      BINDING AFFINITY PREDICTED BY RF-SCORE:    0.00 PKD
ROOT
HETATM    1  C   UNL     1      -8.204  20.720  67.328  1.00  0.00    -0.239 C  
HETATM    2  C   UNL     1      -8.873  19.396  67.543  1.00  0.00    -0.352 A  
HETATM    3  C   UNL     1     -10.260  19.276  67.490  1.00  0.00    -0.514 A  
HETATM    4  C   UNL     1     -10.893  18.079  67.855  1.00  0.00    -0.227 A  
HETATM    5  C   UNL     1     -10.166  16.965  68.307  1.00  0.00    -0.318 A  
HETATM    6  C   UNL     1      -8.766  17.062  68.193  1.00  0.00    -0.233 A  
HETATM    7  C   UNL     1      -8.126  18.257  67.837  1.00  0.00    -0.260 A  
ENDROOT
BRANCH   5   8
HETATM    8  N   UNL     1     -10.751  15.809  68.898  1.00  0.00    -0.235 NA 
BRANCH   8   9
HETATM    9  C   UNL     1     -10.544  15.572  70.358  1.00  0.00    -0.271 C  
BRANCH   9  10
HETATM   10  C   UNL     1     -11.853  15.626  71.140  1.00  0.00    -0.408 C  
HETATM   11  C   UNL     1     -14.043  15.239  71.632  1.00  0.00    -0.541 C  
HETATM   12  N   UNL     1     -11.853  15.904  72.423  1.00  0.00    -0.477 NA 
HETATM   13  C   UNL     1     -13.293  15.877  72.807  1.00  0.00    -0.508 C  
HETATM   14  N   UNL     1     -13.084  15.407  70.566  1.00  0.00    -0.348 NA 
ENDBRANCH   9  10
ENDBRANCH   8   9
BRANCH   8  15
HETATM   15  C   UNL     1     -11.002  14.568  68.203  1.00  0.00    -0.251 A  
HETATM   16  C   UNL     1     -10.545  13.328  68.693  1.00  0.00    -0.264 A  
HETATM   17  C   UNL     1     -11.764  14.538  67.017  1.00  0.00    -0.412 A  
HETATM   18  C   UNL     1     -10.859  12.133  68.038  1.00  0.00    -0.222 A  
HETATM   19  C   UNL     1     -12.106  13.334  66.388  1.00  0.00    -0.454 A  
HETATM   20  O   UNL     1     -10.398  10.928  68.486  1.00  0.00    -0.171 OA 
HETATM   21  C   UNL     1     -11.658  12.127  66.906  1.00  0.00    -0.408 A  
HETATM   22  H   UNL     1     -10.611  10.116  68.040  1.00  0.00     0.000 HD 
ENDBRANCH   8  15
ENDBRANCH   5   8
TORSDOF 4
ENDMDL
MODEL       49
REMARK 921   NORMALIZED FREE ENERGY PREDICTED BY IDOCK:   -5.68 KCAL/MOL
REMARK 922        TOTAL FREE ENERGY PREDICTED BY IDOCK:   -7.76 KCAL/MOL
REMARK 923 INTER-LIGAND FREE ENERGY PREDICTED BY IDOCK:   -6.93 KCAL/MOL
REMARK 924 INTRA-LIGAND FREE ENERGY PREDICTED BY IDOCK:   -0.83 KCAL/MOL
REMARK 927      BINDING AFFINITY PREDICTED BY RF-SCORE:    0.00 PKD
ROOT
HETATM    1  C   UNL     1      -9.065   9.415  62.428  1.00  0.00    -0.207 C  
HETATM    2  C   UNL     1      -9.614  10.354  63.457  1.00  0.00    -0.361 A  
HETATM    3  C   UNL     1     -10.130  11.596  63.094  1.00  0.00    -0.409 A  
HETATM    4  C   UNL     1     -10.488  12.539  64.067  1.00  0.00    -0.449 A  
HETATM    5  C   UNL     1     -10.324  12.287  65.439  1.00  0.00    -0.269 A  
HETATM    6  C   UNL     1      -9.956  10.971  65.778  1.00  0.00    -0.294 A  
HETATM    7  C   UNL     1      -9.589  10.024  64.812  1.00  0.00    -0.374 A  
ENDROOT
BRANCH   5   8
HETATM    8  N   UNL     1     -10.456  13.272  66.459  1.00  0.00    -0.278 NA 
BRANCH   8   9
HETATM    9  C   UNL     1     -11.801  13.491  67.070  1.00  0.00    -0.402 C  
BRANCH   9  10
HETATM   10  C   UNL     1     -11.907  12.874  68.461  1.00  0.00    -0.313 C  
HETATM   11  C   UNL     1     -12.282  12.762  70.705  1.00  0.00    -0.288 C  
HETATM   12  N   UNL     1     -12.046  11.576  68.607  1.00  0.00    -0.505 NA 
HETATM   13  C   UNL     1     -12.095  11.374  70.083  1.00  0.00    -0.357 C  
HETATM   14  N   UNL     1     -11.854  13.613  69.620  1.00  0.00    -0.317 NA 
ENDBRANCH   9  10
ENDBRANCH   8   9
BRANCH   8  15
HETATM   15  C   UNL     1      -9.640  14.459  66.565  1.00  0.00    -0.293 A  
HETATM   16  C   UNL     1     -10.095  15.723  66.136  1.00  0.00    -0.337 A  
HETATM   17  C   UNL     1      -8.359  14.413  67.154  1.00  0.00    -0.214 A  
HETATM   18  C   UNL     1      -9.313  16.868  66.312  1.00  0.00    -0.262 A  
HETATM   19  C   UNL     1      -7.599  15.572  67.361  1.00  0.00    -0.231 A  
HETATM   20  O   UNL     1      -9.728  18.094  65.874  1.00  0.00    -0.521 OA 
HETATM   21  C   UNL     1      -8.081  16.805  66.945  1.00  0.00    -0.246 A  
HETATM   22  H   UNL     1      -9.196  18.872  65.993  1.00  0.00     0.000 HD 
ENDBRANCH   8  15
ENDBRANCH   5   8
TORSDOF 4
ENDMDL
MODEL       50
REMARK 921   NORMALIZED FREE ENERGY PREDICTED BY IDOCK:   -5.67 KCAL/MOL
REMARK 922        TOTAL FREE ENERGY PREDICTED BY IDOCK:   -7.75 KCAL/MOL
REMARK 923 INTER-LIGAND FREE ENERGY PREDICTED BY IDOCK:   -6.89 KCAL/MOL
REMARK 924 INTRA-LIGAND FREE ENERGY PREDICTED BY IDOCK:   -0.85 KCAL/MOL
REMARK 927      BINDING AFFINITY PREDICTED BY RF-SCORE:    0.00 PKD
ROOT
HETATM    1  C   UNL     1     -11.483  11.812  63.628  1.00  0.00    -0.524 C  
HETATM    2  C   UNL     1     -11.352  12.868  64.682  1.00  0.00    -0.361 A  
HETATM    3  C   UNL     1     -10.255  13.725  64.706  1.00  0.00    -0.362 A  
HETATM    4  C   UNL     1     -10.048  14.599  65.783  1.00  0.00    -0.364 A  
HETATM    5  C   UNL     1     -10.916  14.632  66.887  1.00  0.00    -0.324 A  
HETATM    6  C   UNL     1     -12.097  13.876  66.758  1.00  0.00    -0.476 A  
HETATM    7  C   UNL     1     -12.308  12.995  65.689  1.00  0.00    -0.504 A  
ENDROOT
BRANCH   5   8
HETATM    8  N   UNL     1     -10.646  15.326  68.101  1.00  0.00    -0.249 NA 
BRANCH   8   9
HETATM    9  C   UNL     1     -11.763  16.064  68.765  1.00  0.00    -0.299 C  
BRANCH   9  10
HETATM   10  C   UNL     1     -12.129  15.457  70.115  1.00  0.00    -0.369 C  
HETATM   11  C   UNL     1     -12.734  13.864  71.627  1.00  0.00    -0.330 C  
HETATM   12  N   UNL     1     -11.789  16.057  71.232  1.00  0.00    -0.443 NA 
HETATM   13  C   UNL     1     -12.332  15.177  72.306  1.00  0.00    -0.363 C  
HETATM   14  N   UNL     1     -12.832  14.281  70.248  1.00  0.00    -0.250 NA 
ENDBRANCH   9  10
ENDBRANCH   8   9
BRANCH   8  15
HETATM   15  C   UNL     1      -9.367  15.896  68.456  1.00  0.00    -0.206 A  
HETATM   16  C   UNL     1      -9.080  17.264  68.276  1.00  0.00    -0.262 A  
HETATM   17  C   UNL     1      -8.357  15.108  69.047  1.00  0.00    -0.209 A  
HETATM   18  C   UNL     1      -7.859  17.805  68.690  1.00  0.00    -0.278 A  
HETATM   19  C   UNL     1      -7.152  15.666  69.494  1.00  0.00    -0.195 A  
HETATM   20  O   UNL     1      -7.556  19.123  68.496  1.00  0.00    -0.305 OA 
HETATM   21  C   UNL     1      -6.906  17.021  69.321  1.00  0.00    -0.219 A  
HETATM   22  H   UNL     1      -6.726  19.490  68.777  1.00  0.00     0.000 HD 
ENDBRANCH   8  15
ENDBRANCH   5   8
TORSDOF 4
ENDMDL
MODEL       51
REMARK 921   NORMALIZED FREE ENERGY PREDICTED BY IDOCK:   -5.66 KCAL/MOL
REMARK 922        TOTAL FREE ENERGY PREDICTED BY IDOCK:   -7.73 KCAL/MOL
REMARK 923 INTER-LIGAND FREE ENERGY PREDICTED BY IDOCK:   -6.88 KCAL/MOL
REMARK 924 INTRA-LIGAND FREE ENERGY PREDICTED BY IDOCK:   -0.85 KCAL/MOL
REMARK 927      BINDING AFFINITY PREDICTED BY RF-SCORE:    0.00 PKD
ROOT
HETATM    1  C   UNL     1     -11.767  16.009  71.576  1.00  0.00    -0.554 C  
HETATM    2  C   UNL     1     -11.596  14.974  70.507  1.00  0.00    -0.343 A  
HETATM    3  C   UNL     1     -12.312  13.779  70.544  1.00  0.00    -0.429 A  
HETATM    4  C   UNL     1     -12.031  12.744  69.642  1.00  0.00    -0.354 A  
HETATM    5  C   UNL     1     -11.010  12.854  68.682  1.00  0.00    -0.261 A  
HETATM    6  C   UNL     1     -10.420  14.127  68.563  1.00  0.00    -0.252 A  
HETATM    7  C   UNL     1     -10.689  15.164  69.466  1.00  0.00    -0.273 A  
ENDROOT
BRANCH   5   8
HETATM    8  N   UNL     1     -10.529  11.771  67.892  1.00  0.00    -0.191 NA 
BRANCH   8   9
HETATM    9  C   UNL     1      -9.327  11.022  68.366  1.00  0.00    -0.179 C  
BRANCH   9  10
HETATM   10  C   UNL     1      -9.692   9.910  69.345  1.00  0.00    -0.214 C  
HETATM   11  C   UNL     1      -9.713   8.723  71.288  1.00  0.00    -0.265 C  
HETATM   12  N   UNL     1     -10.773   9.188  69.162  1.00  0.00    -0.207 NA 
HETATM   13  C   UNL     1     -10.768   8.222  70.297  1.00  0.00    -0.235 C  
HETATM   14  N   UNL     1      -8.928   9.593  70.444  1.00  0.00    -0.235 NA 
ENDBRANCH   9  10
ENDBRANCH   8   9
BRANCH   8  15
HETATM   15  C   UNL     1     -10.666  11.677  66.457  1.00  0.00    -0.272 A  
HETATM   16  C   UNL     1     -11.766  12.229  65.770  1.00  0.00    -0.445 A  
HETATM   17  C   UNL     1      -9.669  11.064  65.669  1.00  0.00    -0.276 A  
HETATM   18  C   UNL     1     -11.841  12.183  64.375  1.00  0.00    -0.358 A  
HETATM   19  C   UNL     1      -9.734  11.058  64.270  1.00  0.00    -0.333 A  
HETATM   20  O   UNL     1     -12.916  12.688  63.699  1.00  0.00    -0.704 OA 
HETATM   21  C   UNL     1     -10.821  11.626  63.621  1.00  0.00    -0.503 A  
HETATM   22  H   UNL     1     -12.966  12.657  62.750  1.00  0.00     0.000 HD 
ENDBRANCH   8  15
ENDBRANCH   5   8
TORSDOF 4
ENDMDL
MODEL       52
REMARK 921   NORMALIZED FREE ENERGY PREDICTED BY IDOCK:   -5.64 KCAL/MOL
REMARK 922        TOTAL FREE ENERGY PREDICTED BY IDOCK:   -7.71 KCAL/MOL
REMARK 923 INTER-LIGAND FREE ENERGY PREDICTED BY IDOCK:   -7.22 KCAL/MOL
REMARK 924 INTRA-LIGAND FREE ENERGY PREDICTED BY IDOCK:   -0.49 KCAL/MOL
REMARK 927      BINDING AFFINITY PREDICTED BY RF-SCORE:    0.00 PKD
ROOT
HETATM    1  C   UNL     1     -12.617  16.137  73.779  1.00  0.00    -0.698 C  
HETATM    2  C   UNL     1     -12.548  15.147  72.657  1.00  0.00    -0.466 A  
HETATM    3  C   UNL     1     -13.389  14.037  72.626  1.00  0.00    -0.643 A  
HETATM    4  C   UNL     1     -13.212  13.027  71.671  1.00  0.00    -0.426 A  
HETATM    5  C   UNL     1     -12.175  13.076  70.724  1.00  0.00    -0.272 A  
HETATM    6  C   UNL     1     -11.449  14.281  70.676  1.00  0.00    -0.125 A  
HETATM    7  C   UNL     1     -11.614  15.292  71.632  1.00  0.00    -0.473 A  
ENDROOT
BRANCH   5   8
HETATM    8  N   UNL     1     -11.805  11.990  69.879  1.00  0.00    -0.337 NA 
BRANCH   8   9
HETATM    9  C   UNL     1     -10.856  10.966  70.408  1.00  0.00     0.286 C  
BRANCH   9  10
HETATM   10  C   UNL     1     -11.577   9.842  71.147  1.00  0.00    -0.389 C  
HETATM   11  C   UNL     1     -13.207   8.323  71.618  1.00  0.00    -0.328 C  
HETATM   12  N   UNL     1     -10.915   9.032  71.940  1.00  0.00    -0.367 NA 
HETATM   13  C   UNL     1     -11.954   8.105  72.472  1.00  0.00    -0.350 C  
HETATM   14  N   UNL     1     -12.930   9.618  71.042  1.00  0.00    -0.291 NA 
ENDBRANCH   9  10
ENDBRANCH   8   9
BRANCH   8  15
HETATM   15  C   UNL     1     -11.746  12.054  68.437  1.00  0.00    -0.332 A  
HETATM   16  C   UNL     1     -12.246  13.157  67.714  1.00  0.00    -0.124 A  
HETATM   17  C   UNL     1     -11.136  11.028  67.687  1.00  0.00    -0.363 A  
HETATM   18  C   UNL     1     -12.116  13.225  66.324  1.00  0.00    -0.414 A  
HETATM   19  C   UNL     1     -10.976  11.123  66.298  1.00  0.00    -0.227 A  
HETATM   20  O   UNL     1     -12.621  14.273  65.608  1.00  0.00    -0.461 OA 
HETATM   21  C   UNL     1     -11.461  12.230  65.616  1.00  0.00    -0.416 A  
HETATM   22  H   UNL     1     -12.532  14.319  64.663  1.00  0.00     0.000 HD 
ENDBRANCH   8  15
ENDBRANCH   5   8
TORSDOF 4
ENDMDL
MODEL       53
REMARK 921   NORMALIZED FREE ENERGY PREDICTED BY IDOCK:   -5.62 KCAL/MOL
REMARK 922        TOTAL FREE ENERGY PREDICTED BY IDOCK:   -7.69 KCAL/MOL
REMARK 923 INTER-LIGAND FREE ENERGY PREDICTED BY IDOCK:   -6.88 KCAL/MOL
REMARK 924 INTRA-LIGAND FREE ENERGY PREDICTED BY IDOCK:   -0.81 KCAL/MOL
REMARK 927      BINDING AFFINITY PREDICTED BY RF-SCORE:    0.00 PKD
ROOT
HETATM    1  C   UNL     1      -5.185  12.918  69.824  1.00  0.00    -0.082 C  
HETATM    2  C   UNL     1      -6.235  13.753  69.156  1.00  0.00    -0.100 A  
HETATM    3  C   UNL     1      -6.835  14.818  69.823  1.00  0.00    -0.173 A  
HETATM    4  C   UNL     1      -7.929  15.493  69.263  1.00  0.00    -0.238 A  
HETATM    5  C   UNL     1      -8.480  15.113  68.028  1.00  0.00    -0.148 A  
HETATM    6  C   UNL     1      -7.754  14.145  67.307  1.00  0.00    -0.132 A  
HETATM    7  C   UNL     1      -6.664  13.462  67.862  1.00  0.00    -0.150 A  
ENDROOT
BRANCH   5   8
HETATM    8  N   UNL     1      -9.714  15.604  67.513  1.00  0.00    -0.221 NA 
BRANCH   8   9
HETATM    9  C   UNL     1     -10.389  16.728  68.228  1.00  0.00    -0.319 C  
BRANCH   9  10
HETATM   10  C   UNL     1      -9.989  18.089  67.664  1.00  0.00    -0.329 C  
HETATM   11  C   UNL     1      -8.694  19.922  67.276  1.00  0.00    -0.333 C  
HETATM   12  N   UNL     1     -10.592  18.576  66.604  1.00  0.00    -0.380 NA 
HETATM   13  C   UNL     1      -9.941  19.899  66.385  1.00  0.00    -0.479 C  
HETATM   14  N   UNL     1      -9.008  18.876  68.221  1.00  0.00    -0.316 NA 
ENDBRANCH   9  10
ENDBRANCH   8   9
BRANCH   8  15
HETATM   15  C   UNL     1     -10.671  14.810  66.778  1.00  0.00    -0.309 A  
HETATM   16  C   UNL     1     -11.105  15.165  65.484  1.00  0.00    -0.347 A  
HETATM   17  C   UNL     1     -11.181  13.607  67.309  1.00  0.00    -0.329 A  
HETATM   18  C   UNL     1     -11.980  14.344  64.766  1.00  0.00    -0.447 A  
HETATM   19  C   UNL     1     -12.027  12.772  66.567  1.00  0.00    -0.428 A  
HETATM   20  O   UNL     1     -12.431  14.691  63.525  1.00  0.00    -1.069 OA 
HETATM   21  C   UNL     1     -12.421  13.139  65.288  1.00  0.00    -0.550 A  
HETATM   22  H   UNL     1     -13.026  14.133  63.037  1.00  0.00     0.000 HD 
ENDBRANCH   8  15
ENDBRANCH   5   8
TORSDOF 4
ENDMDL
MODEL       54
REMARK 921   NORMALIZED FREE ENERGY PREDICTED BY IDOCK:   -5.60 KCAL/MOL
REMARK 922        TOTAL FREE ENERGY PREDICTED BY IDOCK:   -7.66 KCAL/MOL
REMARK 923 INTER-LIGAND FREE ENERGY PREDICTED BY IDOCK:   -6.85 KCAL/MOL
REMARK 924 INTRA-LIGAND FREE ENERGY PREDICTED BY IDOCK:   -0.81 KCAL/MOL
REMARK 927      BINDING AFFINITY PREDICTED BY RF-SCORE:    0.00 PKD
ROOT
HETATM    1  C   UNL     1     -11.386  15.882  64.492  1.00  0.00    -0.316 C  
HETATM    2  C   UNL     1     -11.176  14.764  65.466  1.00  0.00    -0.346 A  
HETATM    3  C   UNL     1     -12.058  13.688  65.524  1.00  0.00    -0.440 A  
HETATM    4  C   UNL     1     -11.958  12.729  66.542  1.00  0.00    -0.428 A  
HETATM    5  C   UNL     1     -10.987  12.822  67.554  1.00  0.00    -0.249 A  
HETATM    6  C   UNL     1     -10.014  13.824  67.376  1.00  0.00    -0.237 A  
HETATM    7  C   UNL     1     -10.111  14.790  66.366  1.00  0.00    -0.291 A  
ENDROOT
BRANCH   5   8
HETATM    8  N   UNL     1     -10.971  12.017  68.729  1.00  0.00    -0.228 NA 
BRANCH   8   9
HETATM    9  C   UNL     1     -10.547  10.590  68.610  1.00  0.00    -0.200 C  
BRANCH   9  10
HETATM   10  C   UNL     1      -9.204  10.332  69.286  1.00  0.00    -0.202 C  
HETATM   11  C   UNL     1      -7.613   9.223  70.480  1.00  0.00    -0.139 C  
HETATM   12  N   UNL     1      -8.135  11.005  68.927  1.00  0.00    -0.147 NA 
HETATM   13  C   UNL     1      -7.056  10.485  69.813  1.00  0.00    -0.150 C  
HETATM   14  N   UNL     1      -9.032   9.414  70.296  1.00  0.00    -0.223 NA 
ENDBRANCH   9  10
ENDBRANCH   8   9
BRANCH   8  15
HETATM   15  C   UNL     1     -11.842  12.205  69.866  1.00  0.00    -0.319 A  
HETATM   16  C   UNL     1     -12.334  11.121  70.621  1.00  0.00    -0.482 A  
HETATM   17  C   UNL     1     -12.202  13.497  70.302  1.00  0.00    -0.417 A  
HETATM   18  C   UNL     1     -13.120  11.333  71.758  1.00  0.00    -0.422 A  
HETATM   19  C   UNL     1     -12.957  13.701  71.464  1.00  0.00    -0.443 A  
HETATM   20  O   UNL     1     -13.628  10.292  72.482  1.00  0.00    -0.607 OA 
HETATM   21  C   UNL     1     -13.412  12.614  72.198  1.00  0.00    -0.561 A  
HETATM   22  H   UNL     1     -14.162  10.436  73.254  1.00  0.00     0.000 HD 
ENDBRANCH   8  15
ENDBRANCH   5   8
TORSDOF 4
ENDMDL
MODEL       55
REMARK 921   NORMALIZED FREE ENERGY PREDICTED BY IDOCK:   -5.59 KCAL/MOL
REMARK 922        TOTAL FREE ENERGY PREDICTED BY IDOCK:   -7.64 KCAL/MOL
REMARK 923 INTER-LIGAND FREE ENERGY PREDICTED BY IDOCK:   -6.89 KCAL/MOL
REMARK 924 INTRA-LIGAND FREE ENERGY PREDICTED BY IDOCK:   -0.76 KCAL/MOL
REMARK 927      BINDING AFFINITY PREDICTED BY RF-SCORE:    0.00 PKD
ROOT
HETATM    1  C   UNL     1     -12.007  13.031  63.459  1.00  0.00    -0.615 C  
HETATM    2  C   UNL     1     -11.456  12.288  64.638  1.00  0.00    -0.392 A  
HETATM    3  C   UNL     1     -10.510  11.280  64.473  1.00  0.00    -0.396 A  
HETATM    4  C   UNL     1     -10.120  10.475  65.553  1.00  0.00    -0.349 A  
HETATM    5  C   UNL     1     -10.678  10.633  66.833  1.00  0.00    -0.237 A  
HETATM    6  C   UNL     1     -11.505  11.760  67.005  1.00  0.00    -0.368 A  
HETATM    7  C   UNL     1     -11.905  12.564  65.929  1.00  0.00    -0.489 A  
ENDROOT
BRANCH   5   8
HETATM    8  N   UNL     1     -10.495   9.717  67.908  1.00  0.00    -0.231 NA 
BRANCH   8   9
HETATM    9  C   UNL     1     -10.085  10.253  69.240  1.00  0.00    -0.227 C  
BRANCH   9  10
HETATM   10  C   UNL     1     -11.216  10.177  70.262  1.00  0.00    -0.318 C  
HETATM   11  C   UNL     1     -12.430   9.394  72.023  1.00  0.00    -0.365 C  
HETATM   12  N   UNL     1     -11.955  11.232  70.520  1.00  0.00    -0.364 NA 
HETATM   13  C   UNL     1     -12.936  10.756  71.535  1.00  0.00    -0.456 C  
HETATM   14  N   UNL     1     -11.536   9.030  70.950  1.00  0.00    -0.281 NA 
ENDBRANCH   9  10
ENDBRANCH   8   9
BRANCH   8  15
HETATM   15  C   UNL     1     -10.081   8.341  67.754  1.00  0.00    -0.206 A  
HETATM   16  C   UNL     1     -10.854   7.399  67.046  1.00  0.00    -0.307 A  
HETATM   17  C   UNL     1      -8.848   7.890  68.270  1.00  0.00    -0.129 A  
HETATM   18  C   UNL     1     -10.399   6.092  66.852  1.00  0.00    -0.244 A  
HETATM   19  C   UNL     1      -8.382   6.589  68.038  1.00  0.00    -0.116 A  
HETATM   20  O   UNL     1     -11.151   5.161  66.194  1.00  0.00    -0.686 OA 
HETATM   21  C   UNL     1      -9.158   5.689  67.320  1.00  0.00    -0.110 A  
HETATM   22  H   UNL     1     -10.841   4.272  66.063  1.00  0.00     0.000 HD 
ENDBRANCH   8  15
ENDBRANCH   5   8
TORSDOF 4
ENDMDL
MODEL       56
REMARK 921   NORMALIZED FREE ENERGY PREDICTED BY IDOCK:   -5.56 KCAL/MOL
REMARK 922        TOTAL FREE ENERGY PREDICTED BY IDOCK:   -7.62 KCAL/MOL
REMARK 923 INTER-LIGAND FREE ENERGY PREDICTED BY IDOCK:   -6.82 KCAL/MOL
REMARK 924 INTRA-LIGAND FREE ENERGY PREDICTED BY IDOCK:   -0.79 KCAL/MOL
REMARK 927      BINDING AFFINITY PREDICTED BY RF-SCORE:    0.00 PKD
ROOT
HETATM    1  C   UNL     1     -11.861   8.094  71.909  1.00  0.00    -0.366 C  
HETATM    2  C   UNL     1     -11.481   9.321  71.138  1.00  0.00    -0.403 A  
HETATM    3  C   UNL     1     -12.324  10.429  71.092  1.00  0.00    -0.505 A  
HETATM    4  C   UNL     1     -12.049  11.508  70.239  1.00  0.00    -0.444 A  
HETATM    5  C   UNL     1     -10.933  11.511  69.385  1.00  0.00    -0.176 A  
HETATM    6  C   UNL     1     -10.018  10.457  69.573  1.00  0.00    -0.229 A  
HETATM    7  C   UNL     1     -10.289   9.372  70.417  1.00  0.00    -0.318 A  
ENDROOT
BRANCH   5   8
HETATM    8  N   UNL     1     -10.719  12.460  68.346  1.00  0.00    -0.228 NA 
BRANCH   8   9
HETATM    9  C   UNL     1     -10.013  12.015  67.107  1.00  0.00    -0.195 C  
BRANCH   9  10
HETATM   10  C   UNL     1     -10.851  12.248  65.854  1.00  0.00    -0.271 C  
HETATM   11  C   UNL     1     -11.362  12.346  63.636  1.00  0.00    -0.482 C  
HETATM   12  N   UNL     1     -12.163  12.260  65.920  1.00  0.00    -0.600 NA 
HETATM   13  C   UNL     1     -12.601  12.528  64.521  1.00  0.00    -0.421 C  
HETATM   14  N   UNL     1     -10.304  12.468  64.611  1.00  0.00    -0.310 NA 
ENDBRANCH   9  10
ENDBRANCH   8   9
BRANCH   8  15
HETATM   15  C   UNL     1     -10.556  13.881  68.551  1.00  0.00    -0.252 A  
HETATM   16  C   UNL     1      -9.286  14.489  68.619  1.00  0.00    -0.199 A  
HETATM   17  C   UNL     1     -11.674  14.736  68.646  1.00  0.00    -0.356 A  
HETATM   18  C   UNL     1      -9.156  15.875  68.750  1.00  0.00    -0.219 A  
HETATM   19  C   UNL     1     -11.534  16.127  68.739  1.00  0.00    -0.340 A  
HETATM   20  O   UNL     1      -7.932  16.474  68.846  1.00  0.00    -0.222 OA 
HETATM   21  C   UNL     1     -10.270  16.698  68.783  1.00  0.00    -0.288 A  
HETATM   22  H   UNL     1      -7.844  17.416  68.935  1.00  0.00     0.000 HD 
ENDBRANCH   8  15
ENDBRANCH   5   8
TORSDOF 4
ENDMDL
MODEL       57
REMARK 921   NORMALIZED FREE ENERGY PREDICTED BY IDOCK:   -5.54 KCAL/MOL
REMARK 922        TOTAL FREE ENERGY PREDICTED BY IDOCK:   -7.59 KCAL/MOL
REMARK 923 INTER-LIGAND FREE ENERGY PREDICTED BY IDOCK:   -7.00 KCAL/MOL
REMARK 924 INTRA-LIGAND FREE ENERGY PREDICTED BY IDOCK:   -0.59 KCAL/MOL
REMARK 927      BINDING AFFINITY PREDICTED BY RF-SCORE:    0.00 PKD
ROOT
HETATM    1  C   UNL     1     -10.383   8.614  67.114  1.00  0.00    -0.369 C  
HETATM    2  C   UNL     1     -10.462  10.042  67.561  1.00  0.00    -0.307 A  
HETATM    3  C   UNL     1     -11.115  10.390  68.741  1.00  0.00    -0.298 A  
HETATM    4  C   UNL     1     -11.334  11.734  69.073  1.00  0.00    -0.338 A  
HETATM    5  C   UNL     1     -10.928  12.782  68.229  1.00  0.00    -0.252 A  
HETATM    6  C   UNL     1     -10.131  12.406  67.130  1.00  0.00    -0.221 A  
HETATM    7  C   UNL     1      -9.915  11.065  66.787  1.00  0.00    -0.240 A  
ENDROOT
BRANCH   5   8
HETATM    8  N   UNL     1     -11.312  14.143  68.395  1.00  0.00    -0.271 NA 
BRANCH   8   9
HETATM    9  C   UNL     1     -12.647  14.439  68.994  1.00  0.00     0.270 C  
BRANCH   9  10
HETATM   10  C   UNL     1     -12.533  14.935  70.433  1.00  0.00    -0.350 C  
HETATM   11  C   UNL     1     -13.211  15.618  72.497  1.00  0.00    -0.497 C  
HETATM   12  N   UNL     1     -11.415  14.784  71.104  1.00  0.00    -0.263 NA 
HETATM   13  C   UNL     1     -11.696  15.399  72.433  1.00  0.00    -0.466 C  
HETATM   14  N   UNL     1     -13.560  15.565  71.097  1.00  0.00    -0.561 NA 
ENDBRANCH   9  10
ENDBRANCH   8   9
BRANCH   8  15
HETATM   15  C   UNL     1     -10.871  15.230  67.551  1.00  0.00    -0.304 A  
HETATM   16  C   UNL     1     -11.278  15.349  66.207  1.00  0.00    -0.162 A  
HETATM   17  C   UNL     1     -10.045  16.255  68.057  1.00  0.00    -0.245 A  
HETATM   18  C   UNL     1     -10.892  16.447  65.432  1.00  0.00    -0.239 A  
HETATM   19  C   UNL     1      -9.695  17.370  67.285  1.00  0.00    -0.267 A  
HETATM   20  O   UNL     1     -11.254  16.560  64.120  1.00  0.00    -1.355 OA 
HETATM   21  C   UNL     1     -10.126  17.469  65.970  1.00  0.00    -0.270 A  
HETATM   22  H   UNL     1     -10.991  17.306  63.593  1.00  0.00     0.000 HD 
ENDBRANCH   8  15
ENDBRANCH   5   8
TORSDOF 4
ENDMDL
MODEL       58
REMARK 921   NORMALIZED FREE ENERGY PREDICTED BY IDOCK:   -5.51 KCAL/MOL
REMARK 922        TOTAL FREE ENERGY PREDICTED BY IDOCK:   -7.55 KCAL/MOL
REMARK 923 INTER-LIGAND FREE ENERGY PREDICTED BY IDOCK:   -7.08 KCAL/MOL
REMARK 924 INTRA-LIGAND FREE ENERGY PREDICTED BY IDOCK:   -0.47 KCAL/MOL
REMARK 927      BINDING AFFINITY PREDICTED BY RF-SCORE:    0.00 PKD
ROOT
HETATM    1  C   UNL     1     -11.112   8.717  70.414  1.00  0.00    -0.261 C  
HETATM    2  C   UNL     1     -11.351   9.960  69.612  1.00  0.00    -0.212 A  
HETATM    3  C   UNL     1     -11.044  10.008  68.255  1.00  0.00    -0.247 A  
HETATM    4  C   UNL     1     -11.109  11.215  67.544  1.00  0.00    -0.353 A  
HETATM    5  C   UNL     1     -11.462  12.423  68.168  1.00  0.00    -0.318 A  
HETATM    6  C   UNL     1     -11.923  12.314  69.494  1.00  0.00    -0.333 A  
HETATM    7  C   UNL     1     -11.853  11.113  70.214  1.00  0.00    -0.455 A  
ENDROOT
BRANCH   5   8
HETATM    8  N   UNL     1     -11.333  13.707  67.565  1.00  0.00    -0.294 NA 
BRANCH   8   9
HETATM    9  C   UNL     1     -12.288  14.085  66.481  1.00  0.00    -0.404 C  
BRANCH   9  10
HETATM   10  C   UNL     1     -11.998  13.345  65.178  1.00  0.00    -0.378 C  
HETATM   11  C   UNL     1     -10.777  12.478  63.462  1.00  0.00    -0.376 C  
HETATM   12  N   UNL     1     -12.862  12.484  64.692  1.00  0.00    -0.807 NA 
HETATM   13  C   UNL     1     -12.232  12.000  63.431  1.00  0.00    -0.519 C  
HETATM   14  N   UNL     1     -10.852  13.537  64.441  1.00  0.00    -0.403 NA 
ENDBRANCH   9  10
ENDBRANCH   8   9
BRANCH   8  15
HETATM   15  C   UNL     1     -10.091  14.434  67.438  1.00  0.00    -0.243 A  
HETATM   16  C   UNL     1      -8.840  13.783  67.410  1.00  0.00    -0.211 A  
HETATM   17  C   UNL     1     -10.080  15.836  67.286  1.00  0.00    -0.247 A  
HETATM   18  C   UNL     1      -7.658  14.504  67.217  1.00  0.00    -0.121 A  
HETATM   19  C   UNL     1      -8.894  16.544  67.054  1.00  0.00    -0.217 A  
HETATM   20  O   UNL     1      -6.437  13.890  67.216  1.00  0.00    -0.409 OA 
HETATM   21  C   UNL     1      -7.679  15.874  67.012  1.00  0.00    -0.268 A  
HETATM   22  H   UNL     1      -5.634  14.380  67.086  1.00  0.00     0.000 HD 
ENDBRANCH   8  15
ENDBRANCH   5   8
TORSDOF 4
ENDMDL
MODEL       59
REMARK 921   NORMALIZED FREE ENERGY PREDICTED BY IDOCK:   -5.46 KCAL/MOL
REMARK 922        TOTAL FREE ENERGY PREDICTED BY IDOCK:   -7.48 KCAL/MOL
REMARK 923 INTER-LIGAND FREE ENERGY PREDICTED BY IDOCK:   -6.65 KCAL/MOL
REMARK 924 INTRA-LIGAND FREE ENERGY PREDICTED BY IDOCK:   -0.83 KCAL/MOL
REMARK 927      BINDING AFFINITY PREDICTED BY RF-SCORE:    0.00 PKD
ROOT
HETATM    1  C   UNL     1     -11.417  16.023  64.519  1.00  0.00    -0.274 C  
HETATM    2  C   UNL     1     -11.266  14.835  65.419  1.00  0.00    -0.347 A  
HETATM    3  C   UNL     1     -12.189  13.792  65.392  1.00  0.00    -0.465 A  
HETATM    4  C   UNL     1     -12.142  12.765  66.345  1.00  0.00    -0.370 A  
HETATM    5  C   UNL     1     -11.186  12.752  67.374  1.00  0.00    -0.294 A  
HETATM    6  C   UNL     1     -10.172  13.725  67.278  1.00  0.00    -0.253 A  
HETATM    7  C   UNL     1     -10.216  14.760  66.334  1.00  0.00    -0.299 A  
ENDROOT
BRANCH   5   8
HETATM    8  N   UNL     1     -11.220  11.871  68.492  1.00  0.00    -0.233 NA 
BRANCH   8   9
HETATM    9  C   UNL     1     -11.170  10.399  68.243  1.00  0.00    -0.267 C  
BRANCH   9  10
HETATM   10  C   UNL     1      -9.989  10.006  67.360  1.00  0.00    -0.197 C  
HETATM   11  C   UNL     1      -8.833   9.538  65.455  1.00  0.00    -0.178 C  
HETATM   12  N   UNL     1      -8.758  10.116  67.805  1.00  0.00    -0.122 NA 
HETATM   13  C   UNL     1      -7.914   9.628  66.677  1.00  0.00    -0.109 C  
HETATM   14  N   UNL     1     -10.132   9.514  66.084  1.00  0.00    -0.281 NA 
ENDBRANCH   9  10
ENDBRANCH   8   9
BRANCH   8  15
HETATM   15  C   UNL     1     -11.873  12.161  69.748  1.00  0.00    -0.327 A  
HETATM   16  C   UNL     1     -12.236  13.472  70.119  1.00  0.00    -0.400 A  
HETATM   17  C   UNL     1     -12.224  11.129  70.642  1.00  0.00    -0.492 A  
HETATM   18  C   UNL     1     -12.929  13.718  71.308  1.00  0.00    -0.334 A  
HETATM   19  C   UNL     1     -12.952  11.381  71.812  1.00  0.00    -0.519 A  
HETATM   20  O   UNL     1     -13.261  14.986  71.695  1.00  0.00    -0.323 OA 
HETATM   21  C   UNL     1     -13.312  12.679  72.142  1.00  0.00    -0.570 A  
HETATM   22  H   UNL     1     -13.732  15.153  72.503  1.00  0.00     0.000 HD 
ENDBRANCH   8  15
ENDBRANCH   5   8
TORSDOF 4
ENDMDL
MODEL       60
REMARK 921   NORMALIZED FREE ENERGY PREDICTED BY IDOCK:   -5.44 KCAL/MOL
REMARK 922        TOTAL FREE ENERGY PREDICTED BY IDOCK:   -7.46 KCAL/MOL
REMARK 923 INTER-LIGAND FREE ENERGY PREDICTED BY IDOCK:   -6.76 KCAL/MOL
REMARK 924 INTRA-LIGAND FREE ENERGY PREDICTED BY IDOCK:   -0.71 KCAL/MOL
REMARK 927      BINDING AFFINITY PREDICTED BY RF-SCORE:    0.00 PKD
ROOT
HETATM    1  C   UNL     1      -5.994  15.509  67.593  1.00  0.00    -0.147 C  
HETATM    2  C   UNL     1      -7.206  14.704  67.948  1.00  0.00    -0.171 A  
HETATM    3  C   UNL     1      -7.149  13.315  68.022  1.00  0.00    -0.122 A  
HETATM    4  C   UNL     1      -8.315  12.554  68.188  1.00  0.00    -0.175 A  
HETATM    5  C   UNL     1      -9.585  13.152  68.264  1.00  0.00    -0.218 A  
HETATM    6  C   UNL     1      -9.594  14.557  68.351  1.00  0.00    -0.213 A  
HETATM    7  C   UNL     1      -8.434  15.325  68.178  1.00  0.00    -0.151 A  
ENDROOT
BRANCH   5   8
HETATM    8  N   UNL     1     -10.815  12.436  68.209  1.00  0.00    -0.226 NA 
BRANCH   8   9
HETATM    9  C   UNL     1     -11.922  12.985  67.370  1.00  0.00    -0.316 C  
BRANCH   9  10
HETATM   10  C   UNL     1     -11.800  12.561  65.910  1.00  0.00    -0.430 C  
HETATM   11  C   UNL     1     -11.020  11.436  64.090  1.00  0.00    -0.341 C  
HETATM   12  N   UNL     1     -12.787  12.769  65.069  1.00  0.00    -0.821 NA 
HETATM   13  C   UNL     1     -12.284  12.241  63.770  1.00  0.00    -0.546 C  
HETATM   14  N   UNL     1     -10.676  11.962  65.390  1.00  0.00    -0.275 NA 
ENDBRANCH   9  10
ENDBRANCH   8   9
BRANCH   8  15
HETATM   15  C   UNL     1     -11.333  11.610  69.274  1.00  0.00    -0.290 A  
HETATM   16  C   UNL     1     -12.168  12.127  70.286  1.00  0.00    -0.344 A  
HETATM   17  C   UNL     1     -11.063  10.226  69.321  1.00  0.00    -0.293 A  
HETATM   18  C   UNL     1     -12.713  11.293  71.267  1.00  0.00    -0.405 A  
HETATM   19  C   UNL     1     -11.644   9.392  70.285  1.00  0.00    -0.181 A  
HETATM   20  O   UNL     1     -13.499  11.785  72.270  1.00  0.00    -0.611 OA 
HETATM   21  C   UNL     1     -12.478   9.927  71.257  1.00  0.00    -0.479 A  
HETATM   22  H   UNL     1     -13.869  11.218  72.937  1.00  0.00     0.000 HD 
ENDBRANCH   8  15
ENDBRANCH   5   8
TORSDOF 4
ENDMDL
MODEL       61
REMARK 921   NORMALIZED FREE ENERGY PREDICTED BY IDOCK:   -5.42 KCAL/MOL
REMARK 922        TOTAL FREE ENERGY PREDICTED BY IDOCK:   -7.44 KCAL/MOL
REMARK 923 INTER-LIGAND FREE ENERGY PREDICTED BY IDOCK:   -6.83 KCAL/MOL
REMARK 924 INTRA-LIGAND FREE ENERGY PREDICTED BY IDOCK:   -0.61 KCAL/MOL
REMARK 927      BINDING AFFINITY PREDICTED BY RF-SCORE:    0.00 PKD
ROOT
HETATM    1  C   UNL     1     -11.400   5.297  72.918  1.00  0.00    -0.368 C  
HETATM    2  C   UNL     1     -11.554   6.708  72.439  1.00  0.00    -0.281 A  
HETATM    3  C   UNL     1     -12.710   7.121  71.781  1.00  0.00    -0.374 A  
HETATM    4  C   UNL     1     -12.786   8.389  71.188  1.00  0.00    -0.121 A  
HETATM    5  C   UNL     1     -11.703   9.284  71.210  1.00  0.00    -0.346 A  
HETATM    6  C   UNL     1     -10.615   8.905  72.020  1.00  0.00    -0.388 A  
HETATM    7  C   UNL     1     -10.527   7.636  72.609  1.00  0.00    -0.343 A  
ENDROOT
BRANCH   5   8
HETATM    8  N   UNL     1     -11.634  10.483  70.446  1.00  0.00    -0.319 NA 
BRANCH   8   9
HETATM    9  C   UNL     1     -10.428  10.720  69.597  1.00  0.00    -0.140 C  
BRANCH   9  10
HETATM   10  C   UNL     1     -10.438   9.864  68.334  1.00  0.00    -0.208 C  
HETATM   11  C   UNL     1     -10.233   9.346  66.126  1.00  0.00    -0.194 C  
HETATM   12  N   UNL     1     -10.338   8.557  68.412  1.00  0.00    -0.210 NA 
HETATM   13  C   UNL     1     -10.402   8.096  66.996  1.00  0.00    -0.333 C  
HETATM   14  N   UNL     1     -10.563  10.389  67.068  1.00  0.00    -0.251 NA 
ENDBRANCH   9  10
ENDBRANCH   8   9
BRANCH   8  15
HETATM   15  C   UNL     1     -12.258  11.732  70.817  1.00  0.00    -0.326 A  
HETATM   16  C   UNL     1     -12.072  12.915  70.073  1.00  0.00    -0.357 A  
HETATM   17  C   UNL     1     -13.129  11.811  71.924  1.00  0.00    -0.482 A  
HETATM   18  C   UNL     1     -12.741  14.094  70.414  1.00  0.00    -0.279 A  
HETATM   19  C   UNL     1     -13.824  12.986  72.235  1.00  0.00    -0.529 A  
HETATM   20  O   UNL     1     -12.547  15.254  69.719  1.00  0.00    -0.577 OA 
HETATM   21  C   UNL     1     -13.635  14.130  71.472  1.00  0.00    -0.405 A  
HETATM   22  H   UNL     1     -13.002  16.056  69.951  1.00  0.00     0.000 HD 
ENDBRANCH   8  15
ENDBRANCH   5   8
TORSDOF 4
ENDMDL
MODEL       62
REMARK 921   NORMALIZED FREE ENERGY PREDICTED BY IDOCK:   -5.42 KCAL/MOL
REMARK 922        TOTAL FREE ENERGY PREDICTED BY IDOCK:   -7.43 KCAL/MOL
REMARK 923 INTER-LIGAND FREE ENERGY PREDICTED BY IDOCK:   -6.62 KCAL/MOL
REMARK 924 INTRA-LIGAND FREE ENERGY PREDICTED BY IDOCK:   -0.81 KCAL/MOL
REMARK 927      BINDING AFFINITY PREDICTED BY RF-SCORE:    0.00 PKD
ROOT
HETATM    1  C   UNL     1     -10.269  17.830  68.337  1.00  0.00    -0.384 C  
HETATM    2  C   UNL     1     -10.426  16.358  68.564  1.00  0.00    -0.291 A  
HETATM    3  C   UNL     1      -9.352  15.487  68.395  1.00  0.00    -0.192 A  
HETATM    4  C   UNL     1      -9.538  14.098  68.443  1.00  0.00    -0.225 A  
HETATM    5  C   UNL     1     -10.806  13.526  68.640  1.00  0.00    -0.259 A  
HETATM    6  C   UNL     1     -11.837  14.427  68.970  1.00  0.00    -0.358 A  
HETATM    7  C   UNL     1     -11.662  15.817  68.916  1.00  0.00    -0.404 A  
ENDROOT
BRANCH   5   8
HETATM    8  N   UNL     1     -11.098  12.142  68.479  1.00  0.00    -0.234 NA 
BRANCH   8   9
HETATM    9  C   UNL     1     -11.956  11.723  67.331  1.00  0.00     0.026 C  
BRANCH   9  10
HETATM   10  C   UNL     1     -11.172  11.652  66.024  1.00  0.00    -0.240 C  
HETATM   11  C   UNL     1      -9.981  10.727  64.317  1.00  0.00    -0.341 C  
HETATM   12  N   UNL     1     -11.293  12.597  65.120  1.00  0.00    -0.299 NA 
HETATM   13  C   UNL     1     -10.374  12.179  64.024  1.00  0.00    -0.385 C  
HETATM   14  N   UNL     1     -10.302  10.630  65.722  1.00  0.00    -0.244 NA 
ENDBRANCH   9  10
ENDBRANCH   8   9
BRANCH   8  15
HETATM   15  C   UNL     1     -11.179  11.188  69.561  1.00  0.00    -0.277 A  
HETATM   16  C   UNL     1     -12.271  11.156  70.453  1.00  0.00    -0.457 A  
HETATM   17  C   UNL     1     -10.183  10.207  69.743  1.00  0.00    -0.286 A  
HETATM   18  C   UNL     1     -12.359  10.180  71.450  1.00  0.00    -0.416 A  
HETATM   19  C   UNL     1     -10.299   9.209  70.720  1.00  0.00    -0.323 A  
HETATM   20  O   UNL     1     -13.395  10.155  72.339  1.00  0.00    -0.598 OA 
HETATM   21  C   UNL     1     -11.395   9.192  71.571  1.00  0.00    -0.439 A  
HETATM   22  H   UNL     1     -13.455   9.492  73.016  1.00  0.00     0.000 HD 
ENDBRANCH   8  15
ENDBRANCH   5   8
TORSDOF 4
ENDMDL
MODEL       63
REMARK 921   NORMALIZED FREE ENERGY PREDICTED BY IDOCK:   -5.41 KCAL/MOL
REMARK 922        TOTAL FREE ENERGY PREDICTED BY IDOCK:   -7.42 KCAL/MOL
REMARK 923 INTER-LIGAND FREE ENERGY PREDICTED BY IDOCK:   -6.87 KCAL/MOL
REMARK 924 INTRA-LIGAND FREE ENERGY PREDICTED BY IDOCK:   -0.55 KCAL/MOL
REMARK 927      BINDING AFFINITY PREDICTED BY RF-SCORE:    0.00 PKD
ROOT
HETATM    1  C   UNL     1     -13.484  13.543  72.377  1.00  0.00    -0.685 C  
HETATM    2  C   UNL     1     -12.763  12.889  71.238  1.00  0.00    -0.371 A  
HETATM    3  C   UNL     1     -12.026  13.643  70.328  1.00  0.00    -0.397 A  
HETATM    4  C   UNL     1     -11.492  13.056  69.172  1.00  0.00    -0.353 A  
HETATM    5  C   UNL     1     -11.694  11.698  68.870  1.00  0.00    -0.334 A  
HETATM    6  C   UNL     1     -12.299  10.931  69.884  1.00  0.00    -0.354 A  
HETATM    7  C   UNL     1     -12.842  11.512  71.039  1.00  0.00    -0.358 A  
ENDROOT
BRANCH   5   8
HETATM    8  N   UNL     1     -11.374  11.097  67.620  1.00  0.00    -0.410 NA 
BRANCH   8   9
HETATM    9  C   UNL     1     -10.343  10.016  67.591  1.00  0.00    -0.224 C  
BRANCH   9  10
HETATM   10  C   UNL     1      -9.049  10.440  68.278  1.00  0.00    -0.145 C  
HETATM   11  C   UNL     1      -7.288  11.770  68.842  1.00  0.00    -0.093 C  
HETATM   12  N   UNL     1      -8.645   9.836  69.372  1.00  0.00    -0.151 NA 
HETATM   13  C   UNL     1      -7.362  10.513  69.715  1.00  0.00    -0.134 C  
HETATM   14  N   UNL     1      -8.237  11.444  67.804  1.00  0.00    -0.121 NA 
ENDBRANCH   9  10
ENDBRANCH   8   9
BRANCH   8  15
HETATM   15  C   UNL     1     -11.462  11.763  66.341  1.00  0.00    -0.239 A  
HETATM   16  C   UNL     1     -10.706  11.348  65.226  1.00  0.00    -0.326 A  
HETATM   17  C   UNL     1     -12.353  12.837  66.139  1.00  0.00    -0.190 A  
HETATM   18  C   UNL     1     -10.860  11.966  63.981  1.00  0.00    -0.379 A  
HETATM   19  C   UNL     1     -12.528  13.425  64.879  1.00  0.00    -0.447 A  
HETATM   20  O   UNL     1     -10.113  11.594  62.900  1.00  0.00    -0.612 OA 
HETATM   21  C   UNL     1     -11.784  12.982  63.795  1.00  0.00    -0.547 A  
HETATM   22  H   UNL     1     -10.217  12.014  62.054  1.00  0.00     0.000 HD 
ENDBRANCH   8  15
ENDBRANCH   5   8
TORSDOF 4
ENDMDL
MODEL       64
REMARK 921   NORMALIZED FREE ENERGY PREDICTED BY IDOCK:   -5.40 KCAL/MOL
REMARK 922        TOTAL FREE ENERGY PREDICTED BY IDOCK:   -7.42 KCAL/MOL
REMARK 923 INTER-LIGAND FREE ENERGY PREDICTED BY IDOCK:   -6.76 KCAL/MOL
REMARK 924 INTRA-LIGAND FREE ENERGY PREDICTED BY IDOCK:   -0.65 KCAL/MOL
REMARK 927      BINDING AFFINITY PREDICTED BY RF-SCORE:    0.00 PKD
ROOT
HETATM    1  C   UNL     1     -12.742  13.990  65.638  1.00  0.00    -0.515 C  
HETATM    2  C   UNL     1     -11.974  13.149  66.612  1.00  0.00    -0.451 A  
HETATM    3  C   UNL     1     -11.492  11.894  66.251  1.00  0.00    -0.367 A  
HETATM    4  C   UNL     1     -10.922  11.040  67.207  1.00  0.00    -0.356 A  
HETATM    5  C   UNL     1     -10.832  11.400  68.562  1.00  0.00    -0.211 A  
HETATM    6  C   UNL     1     -11.176  12.732  68.864  1.00  0.00    -0.332 A  
HETATM    7  C   UNL     1     -11.754  13.588  67.916  1.00  0.00    -0.392 A  
ENDROOT
BRANCH   5   8
HETATM    8  N   UNL     1     -10.474  10.505  69.610  1.00  0.00    -0.236 NA 
BRANCH   8   9
HETATM    9  C   UNL     1      -9.312   9.591  69.401  1.00  0.00    -0.180 C  
BRANCH   9  10
HETATM   10  C   UNL     1      -7.978  10.303  69.604  1.00  0.00    -0.154 C  
HETATM   11  C   UNL     1      -6.364  11.888  69.345  1.00  0.00    -0.115 C  
HETATM   12  N   UNL     1      -7.252  10.069  70.672  1.00  0.00    -0.320 NA 
HETATM   13  C   UNL     1      -6.045  10.926  70.494  1.00  0.00    -0.102 C  
HETATM   14  N   UNL     1      -7.458  11.201  68.701  1.00  0.00    -0.110 NA 
ENDBRANCH   9  10
ENDBRANCH   8   9
BRANCH   8  15
HETATM   15  C   UNL     1     -11.401   9.952  70.571  1.00  0.00    -0.327 A  
HETATM   16  C   UNL     1     -11.009   8.988  71.522  1.00  0.00    -0.418 A  
HETATM   17  C   UNL     1     -12.739  10.395  70.631  1.00  0.00    -0.417 A  
HETATM   18  C   UNL     1     -11.907   8.519  72.485  1.00  0.00    -0.328 A  
HETATM   19  C   UNL     1     -13.620   9.948  71.624  1.00  0.00    -0.340 A  
HETATM   20  O   UNL     1     -11.549   7.564  73.394  1.00  0.00    -0.621 OA 
HETATM   21  C   UNL     1     -13.200   9.012  72.559  1.00  0.00    -0.467 A  
HETATM   22  H   UNL     1     -12.160   7.245  74.048  1.00  0.00     0.000 HD 
ENDBRANCH   8  15
ENDBRANCH   5   8
TORSDOF 4
ENDMDL
MODEL       65
REMARK 921   NORMALIZED FREE ENERGY PREDICTED BY IDOCK:   -5.39 KCAL/MOL
REMARK 922        TOTAL FREE ENERGY PREDICTED BY IDOCK:   -7.39 KCAL/MOL
REMARK 923 INTER-LIGAND FREE ENERGY PREDICTED BY IDOCK:   -6.57 KCAL/MOL
REMARK 924 INTRA-LIGAND FREE ENERGY PREDICTED BY IDOCK:   -0.83 KCAL/MOL
REMARK 927      BINDING AFFINITY PREDICTED BY RF-SCORE:    0.00 PKD
ROOT
HETATM    1  C   UNL     1      -8.317   8.568  70.629  1.00  0.00    -0.141 C  
HETATM    2  C   UNL     1      -8.980   9.508  69.669  1.00  0.00    -0.198 A  
HETATM    3  C   UNL     1      -8.313  10.634  69.193  1.00  0.00    -0.140 A  
HETATM    4  C   UNL     1      -8.986  11.600  68.430  1.00  0.00    -0.176 A  
HETATM    5  C   UNL     1     -10.355  11.488  68.134  1.00  0.00    -0.195 A  
HETATM    6  C   UNL     1     -10.958  10.266  68.488  1.00  0.00    -0.294 A  
HETATM    7  C   UNL     1     -10.295   9.299  69.257  1.00  0.00    -0.222 A  
ENDROOT
BRANCH   5   8
HETATM    8  N   UNL     1     -11.141  12.528  67.563  1.00  0.00    -0.254 NA 
BRANCH   8   9
HETATM    9  C   UNL     1     -12.279  13.081  68.357  1.00  0.00     0.010 C  
BRANCH   9  10
HETATM   10  C   UNL     1     -11.835  14.203  69.291  1.00  0.00    -0.338 C  
HETATM   11  C   UNL     1     -10.768  16.099  69.966  1.00  0.00    -0.318 C  
HETATM   12  N   UNL     1     -12.522  14.481  70.375  1.00  0.00    -0.334 NA 
HETATM   13  C   UNL     1     -11.772  15.601  71.011  1.00  0.00    -0.403 C  
HETATM   14  N   UNL     1     -10.711  14.966  69.073  1.00  0.00    -0.239 NA 
ENDBRANCH   9  10
ENDBRANCH   8   9
BRANCH   8  15
HETATM   15  C   UNL     1     -11.365  12.707  66.147  1.00  0.00    -0.330 A  
HETATM   16  C   UNL     1     -10.972  11.741  65.198  1.00  0.00    -0.351 A  
HETATM   17  C   UNL     1     -12.036  13.844  65.652  1.00  0.00    -0.442 A  
HETATM   18  C   UNL     1     -11.261  11.905  63.840  1.00  0.00    -0.420 A  
HETATM   19  C   UNL     1     -12.356  13.982  64.295  1.00  0.00    -0.393 A  
HETATM   20  O   UNL     1     -10.861  10.992  62.906  1.00  0.00    -0.797 OA 
HETATM   21  C   UNL     1     -11.973  13.005  63.387  1.00  0.00    -0.592 A  
HETATM   22  H   UNL     1     -11.057  11.104  61.983  1.00  0.00     0.000 HD 
ENDBRANCH   8  15
ENDBRANCH   5   8
TORSDOF 4
ENDMDL
MODEL       66
REMARK 921   NORMALIZED FREE ENERGY PREDICTED BY IDOCK:   -5.38 KCAL/MOL
REMARK 922        TOTAL FREE ENERGY PREDICTED BY IDOCK:   -7.38 KCAL/MOL
REMARK 923 INTER-LIGAND FREE ENERGY PREDICTED BY IDOCK:   -6.80 KCAL/MOL
REMARK 924 INTRA-LIGAND FREE ENERGY PREDICTED BY IDOCK:   -0.58 KCAL/MOL
REMARK 927      BINDING AFFINITY PREDICTED BY RF-SCORE:    0.00 PKD
ROOT
HETATM    1  C   UNL     1      -9.510  20.261  67.089  1.00  0.00    -0.557 C  
HETATM    2  C   UNL     1      -9.431  18.775  67.262  1.00  0.00    -0.326 A  
HETATM    3  C   UNL     1      -8.691  17.989  66.383  1.00  0.00    -0.249 A  
HETATM    4  C   UNL     1      -8.751  16.589  66.444  1.00  0.00    -0.357 A  
HETATM    5  C   UNL     1      -9.571  15.923  67.371  1.00  0.00    -0.221 A  
HETATM    6  C   UNL     1     -10.176  16.738  68.347  1.00  0.00    -0.296 A  
HETATM    7  C   UNL     1     -10.127  18.137  68.288  1.00  0.00    -0.398 A  
ENDROOT
BRANCH   5   8
HETATM    8  N   UNL     1      -9.848  14.526  67.341  1.00  0.00    -0.225 NA 
BRANCH   8   9
HETATM    9  C   UNL     1      -9.039  13.620  68.209  1.00  0.00    -0.193 C  
BRANCH   9  10
HETATM   10  C   UNL     1      -7.634  14.162  68.454  1.00  0.00    -0.130 C  
HETATM   11  C   UNL     1      -5.533  14.894  67.967  1.00  0.00    -0.129 C  
HETATM   12  N   UNL     1      -7.346  14.792  69.569  1.00  0.00    -0.170 NA 
HETATM   13  C   UNL     1      -5.903  15.141  69.434  1.00  0.00    -0.104 C  
HETATM   14  N   UNL     1      -6.604  14.018  67.553  1.00  0.00    -0.280 NA 
ENDBRANCH   9  10
ENDBRANCH   8   9
BRANCH   8  15
HETATM   15  C   UNL     1     -10.369  13.816  66.196  1.00  0.00    -0.301 A  
HETATM   16  C   UNL     1     -11.258  14.417  65.281  1.00  0.00    -0.345 A  
HETATM   17  C   UNL     1      -9.968  12.494  65.914  1.00  0.00    -0.269 A  
HETATM   18  C   UNL     1     -11.695  13.732  64.144  1.00  0.00    -0.364 A  
HETATM   19  C   UNL     1     -10.380  11.829  64.752  1.00  0.00    -0.333 A  
HETATM   20  O   UNL     1     -12.579  14.291  63.265  1.00  0.00    -1.069 OA 
HETATM   21  C   UNL     1     -11.241  12.453  63.860  1.00  0.00    -0.487 A  
HETATM   22  H   UNL     1     -12.876  13.824  62.492  1.00  0.00     0.000 HD 
ENDBRANCH   8  15
ENDBRANCH   5   8
TORSDOF 4
ENDMDL
MODEL       67
REMARK 921   NORMALIZED FREE ENERGY PREDICTED BY IDOCK:   -5.37 KCAL/MOL
REMARK 922        TOTAL FREE ENERGY PREDICTED BY IDOCK:   -7.38 KCAL/MOL
REMARK 923 INTER-LIGAND FREE ENERGY PREDICTED BY IDOCK:   -6.79 KCAL/MOL
REMARK 924 INTRA-LIGAND FREE ENERGY PREDICTED BY IDOCK:   -0.59 KCAL/MOL
REMARK 927      BINDING AFFINITY PREDICTED BY RF-SCORE:    0.00 PKD
ROOT
HETATM    1  C   UNL     1     -11.047  11.327  63.885  1.00  0.00    -0.317 C  
HETATM    2  C   UNL     1     -11.024  12.398  64.933  1.00  0.00    -0.341 A  
HETATM    3  C   UNL     1     -12.140  13.197  65.166  1.00  0.00    -0.463 A  
HETATM    4  C   UNL     1     -12.066  14.304  66.024  1.00  0.00    -0.423 A  
HETATM    5  C   UNL     1     -10.869  14.666  66.664  1.00  0.00    -0.312 A  
HETATM    6  C   UNL     1      -9.808  13.749  66.538  1.00  0.00    -0.294 A  
HETATM    7  C   UNL     1      -9.871  12.645  65.676  1.00  0.00    -0.213 A  
ENDROOT
BRANCH   5   8
HETATM    8  N   UNL     1     -10.669  15.891  67.362  1.00  0.00    -0.316 NA 
BRANCH   8   9
HETATM    9  C   UNL     1     -11.768  16.401  68.237  1.00  0.00     0.106 C  
BRANCH   9  10
HETATM   10  C   UNL     1     -11.845  15.645  69.560  1.00  0.00    -0.372 C  
HETATM   11  C   UNL     1     -12.202  13.907  70.988  1.00  0.00    -0.342 C  
HETATM   12  N   UNL     1     -11.187  16.073  70.613  1.00  0.00    -0.374 NA 
HETATM   13  C   UNL     1     -11.528  15.094  71.684  1.00  0.00    -0.380 C  
HETATM   14  N   UNL     1     -12.597  14.507  69.736  1.00  0.00    -0.209 NA 
ENDBRANCH   9  10
ENDBRANCH   8   9
BRANCH   8  15
HETATM   15  C   UNL     1      -9.831  16.973  66.901  1.00  0.00    -0.271 A  
HETATM   16  C   UNL     1     -10.264  18.315  66.912  1.00  0.00    -0.390 A  
HETATM   17  C   UNL     1      -8.513  16.736  66.460  1.00  0.00    -0.318 A  
HETATM   18  C   UNL     1      -9.410  19.351  66.524  1.00  0.00    -0.359 A  
HETATM   19  C   UNL     1      -7.651  17.785  66.110  1.00  0.00    -0.302 A  
HETATM   20  O   UNL     1      -9.826  20.652  66.502  1.00  0.00    -0.619 OA 
HETATM   21  C   UNL     1      -8.100  19.097  66.150  1.00  0.00    -0.277 A  
HETATM   22  H   UNL     1      -9.245  21.356  66.238  1.00  0.00     0.000 HD 
ENDBRANCH   8  15
ENDBRANCH   5   8
TORSDOF 4
ENDMDL
MODEL       68
REMARK 921   NORMALIZED FREE ENERGY PREDICTED BY IDOCK:   -5.37 KCAL/MOL
REMARK 922        TOTAL FREE ENERGY PREDICTED BY IDOCK:   -7.37 KCAL/MOL
REMARK 923 INTER-LIGAND FREE ENERGY PREDICTED BY IDOCK:   -6.70 KCAL/MOL
REMARK 924 INTRA-LIGAND FREE ENERGY PREDICTED BY IDOCK:   -0.68 KCAL/MOL
REMARK 927      BINDING AFFINITY PREDICTED BY RF-SCORE:    0.00 PKD
ROOT
HETATM    1  C   UNL     1      -7.055   9.696  65.073  1.00  0.00    -0.116 C  
HETATM    2  C   UNL     1      -8.164  10.477  65.709  1.00  0.00    -0.160 A  
HETATM    3  C   UNL     1      -7.903  11.412  66.707  1.00  0.00    -0.157 A  
HETATM    4  C   UNL     1      -8.949  12.018  67.417  1.00  0.00    -0.176 A  
HETATM    5  C   UNL     1     -10.295  11.697  67.172  1.00  0.00    -0.217 A  
HETATM    6  C   UNL     1     -10.532  10.876  66.053  1.00  0.00    -0.287 A  
HETATM    7  C   UNL     1      -9.492  10.260  65.344  1.00  0.00    -0.287 A  
ENDROOT
BRANCH   5   8
HETATM    8  N   UNL     1     -11.382  12.103  67.998  1.00  0.00    -0.272 NA 
BRANCH   8   9
HETATM    9  C   UNL     1     -11.813  13.532  67.958  1.00  0.00    -0.365 C  
BRANCH   9  10
HETATM   10  C   UNL     1     -11.726  14.119  66.552  1.00  0.00    -0.397 C  
HETATM   11  C   UNL     1     -12.403  14.707  64.458  1.00  0.00    -0.398 C  
HETATM   12  N   UNL     1     -10.808  15.009  66.255  1.00  0.00    -0.328 NA 
HETATM   13  C   UNL     1     -11.041  15.313  64.814  1.00  0.00    -0.394 C  
HETATM   14  N   UNL     1     -12.573  13.755  65.530  1.00  0.00    -0.510 NA 
ENDBRANCH   9  10
ENDBRANCH   8   9
BRANCH   8  15
HETATM   15  C   UNL     1     -11.726  11.494  69.262  1.00  0.00    -0.330 A  
HETATM   16  C   UNL     1     -12.458  12.182  70.251  1.00  0.00    -0.164 A  
HETATM   17  C   UNL     1     -11.382  10.155  69.543  1.00  0.00    -0.260 A  
HETATM   18  C   UNL     1     -12.837  11.548  71.438  1.00  0.00    -0.384 A  
HETATM   19  C   UNL     1     -11.800   9.517  70.718  1.00  0.00    -0.350 A  
HETATM   20  O   UNL     1     -13.521  12.211  72.417  1.00  0.00    -0.610 OA 
HETATM   21  C   UNL     1     -12.536  10.214  71.665  1.00  0.00    -0.533 A  
HETATM   22  H   UNL     1     -13.778  11.780  73.224  1.00  0.00     0.000 HD 
ENDBRANCH   8  15
ENDBRANCH   5   8
TORSDOF 4
ENDMDL
MODEL       69
REMARK 921   NORMALIZED FREE ENERGY PREDICTED BY IDOCK:   -5.34 KCAL/MOL
REMARK 922        TOTAL FREE ENERGY PREDICTED BY IDOCK:   -7.34 KCAL/MOL
REMARK 923 INTER-LIGAND FREE ENERGY PREDICTED BY IDOCK:   -6.81 KCAL/MOL
REMARK 924 INTRA-LIGAND FREE ENERGY PREDICTED BY IDOCK:   -0.53 KCAL/MOL
REMARK 927      BINDING AFFINITY PREDICTED BY RF-SCORE:    0.00 PKD
ROOT
HETATM    1  C   UNL     1      -9.764   8.292  73.080  1.00  0.00    -0.276 C  
HETATM    2  C   UNL     1     -10.119   8.964  71.789  1.00  0.00    -0.407 A  
HETATM    3  C   UNL     1      -9.171   9.132  70.783  1.00  0.00    -0.321 A  
HETATM    4  C   UNL     1      -9.456   9.905  69.648  1.00  0.00    -0.252 A  
HETATM    5  C   UNL     1     -10.690  10.557  69.486  1.00  0.00    -0.255 A  
HETATM    6  C   UNL     1     -11.679  10.236  70.435  1.00  0.00    -0.404 A  
HETATM    7  C   UNL     1     -11.401   9.471  71.576  1.00  0.00    -0.456 A  
ENDROOT
BRANCH   5   8
HETATM    8  N   UNL     1     -10.961  11.526  68.479  1.00  0.00    -0.207 NA 
BRANCH   8   9
HETATM    9  C   UNL     1     -12.150  12.415  68.645  1.00  0.00    -0.090 C  
BRANCH   9  10
HETATM   10  C   UNL     1     -11.831  13.650  69.482  1.00  0.00    -0.337 C  
HETATM   11  C   UNL     1     -11.312  15.819  69.942  1.00  0.00    -0.349 C  
HETATM   12  N   UNL     1     -12.171  13.704  70.749  1.00  0.00    -0.355 NA 
HETATM   13  C   UNL     1     -11.680  15.035  71.206  1.00  0.00    -0.347 C  
HETATM   14  N   UNL     1     -11.173  14.750  68.982  1.00  0.00    -0.255 NA 
ENDBRANCH   9  10
ENDBRANCH   8   9
BRANCH   8  15
HETATM   15  C   UNL     1     -10.615  11.381  67.083  1.00  0.00    -0.243 A  
HETATM   16  C   UNL     1     -10.484  12.490  66.223  1.00  0.00    -0.268 A  
HETATM   17  C   UNL     1     -10.345  10.113  66.528  1.00  0.00    -0.270 A  
HETATM   18  C   UNL     1     -10.082  12.328  64.894  1.00  0.00    -0.250 A  
HETATM   19  C   UNL     1      -9.905   9.963  65.206  1.00  0.00    -0.373 A  
HETATM   20  O   UNL     1      -9.979  13.390  64.042  1.00  0.00    -0.764 OA 
HETATM   21  C   UNL     1      -9.766  11.076  64.389  1.00  0.00    -0.330 A  
HETATM   22  H   UNL     1      -9.706  13.280  63.138  1.00  0.00     0.000 HD 
ENDBRANCH   8  15
ENDBRANCH   5   8
TORSDOF 4
ENDMDL
MODEL       70
REMARK 921   NORMALIZED FREE ENERGY PREDICTED BY IDOCK:   -5.32 KCAL/MOL
REMARK 922        TOTAL FREE ENERGY PREDICTED BY IDOCK:   -7.31 KCAL/MOL
REMARK 923 INTER-LIGAND FREE ENERGY PREDICTED BY IDOCK:   -6.53 KCAL/MOL
REMARK 924 INTRA-LIGAND FREE ENERGY PREDICTED BY IDOCK:   -0.78 KCAL/MOL
REMARK 927      BINDING AFFINITY PREDICTED BY RF-SCORE:    0.00 PKD
ROOT
HETATM    1  C   UNL     1      -7.801   7.626  67.668  1.00  0.00    -0.123 C  
HETATM    2  C   UNL     1      -8.583   8.901  67.747  1.00  0.00    -0.125 A  
HETATM    3  C   UNL     1      -9.904   8.905  68.187  1.00  0.00    -0.193 A  
HETATM    4  C   UNL     1     -10.687  10.066  68.103  1.00  0.00    -0.282 A  
HETATM    5  C   UNL     1     -10.186  11.259  67.555  1.00  0.00    -0.189 A  
HETATM    6  C   UNL     1      -8.807  11.269  67.271  1.00  0.00    -0.150 A  
HETATM    7  C   UNL     1      -8.020  10.111  67.345  1.00  0.00    -0.110 A  
ENDROOT
BRANCH   5   8
HETATM    8  N   UNL     1     -10.984  12.395  67.237  1.00  0.00    -0.249 NA 
BRANCH   8   9
HETATM    9  C   UNL     1     -11.898  12.940  68.285  1.00  0.00    -0.330 C  
BRANCH   9  10
HETATM   10  C   UNL     1     -11.309  14.164  68.980  1.00  0.00    -0.275 C  
HETATM   11  C   UNL     1     -11.076  15.804  70.543  1.00  0.00    -0.365 C  
HETATM   12  N   UNL     1     -10.073  14.539  68.739  1.00  0.00    -0.238 NA 
HETATM   13  C   UNL     1      -9.886  15.755  69.579  1.00  0.00    -0.283 C  
HETATM   14  N   UNL     1     -12.016  14.940  69.869  1.00  0.00    -0.311 NA 
ENDBRANCH   9  10
ENDBRANCH   8   9
BRANCH   8  15
HETATM   15  C   UNL     1     -11.464  12.718  65.913  1.00  0.00    -0.356 A  
HETATM   16  C   UNL     1     -11.726  14.044  65.513  1.00  0.00    -0.353 A  
HETATM   17  C   UNL     1     -11.646  11.715  64.939  1.00  0.00    -0.155 A  
HETATM   18  C   UNL     1     -12.124  14.338  64.206  1.00  0.00    -0.441 A  
HETATM   19  C   UNL     1     -12.007  12.022  63.621  1.00  0.00    -0.612 A  
HETATM   20  O   UNL     1     -12.409  15.614  63.813  1.00  0.00    -1.005 OA 
HETATM   21  C   UNL     1     -12.240  13.339  63.252  1.00  0.00    -0.387 A  
HETATM   22  H   UNL     1     -12.680  15.813  62.924  1.00  0.00     0.000 HD 
ENDBRANCH   8  15
ENDBRANCH   5   8
TORSDOF 4
ENDMDL
MODEL       71
REMARK 921   NORMALIZED FREE ENERGY PREDICTED BY IDOCK:   -5.30 KCAL/MOL
REMARK 922        TOTAL FREE ENERGY PREDICTED BY IDOCK:   -7.29 KCAL/MOL
REMARK 923 INTER-LIGAND FREE ENERGY PREDICTED BY IDOCK:   -6.41 KCAL/MOL
REMARK 924 INTRA-LIGAND FREE ENERGY PREDICTED BY IDOCK:   -0.88 KCAL/MOL
REMARK 927      BINDING AFFINITY PREDICTED BY RF-SCORE:    0.00 PKD
ROOT
HETATM    1  C   UNL     1      -7.877   9.989  65.299  1.00  0.00    -0.138 C  
HETATM    2  C   UNL     1      -8.598   9.267  66.396  1.00  0.00    -0.141 A  
HETATM    3  C   UNL     1      -9.890   8.782  66.208  1.00  0.00    -0.342 A  
HETATM    4  C   UNL     1     -10.625   8.257  67.280  1.00  0.00    -0.335 A  
HETATM    5  C   UNL     1     -10.106   8.217  68.585  1.00  0.00    -0.197 A  
HETATM    6  C   UNL     1      -8.746   8.560  68.712  1.00  0.00    -0.139 A  
HETATM    7  C   UNL     1      -8.007   9.093  67.647  1.00  0.00    -0.100 A  
ENDROOT
BRANCH   5   8
HETATM    8  N   UNL     1     -10.870   7.908  69.746  1.00  0.00    -0.235 NA 
BRANCH   8   9
HETATM    9  C   UNL     1     -11.383   6.515  69.912  1.00  0.00    -0.406 C  
BRANCH   9  10
HETATM   10  C   UNL     1     -10.358   5.603  70.580  1.00  0.00    -0.252 C  
HETATM   11  C   UNL     1      -9.074   4.720  72.241  1.00  0.00    -0.126 C  
HETATM   12  N   UNL     1     -10.021   4.460  70.028  1.00  0.00    -0.221 NA 
HETATM   13  C   UNL     1      -9.007   3.886  70.957  1.00  0.00    -0.101 C  
HETATM   14  N   UNL     1      -9.729   5.914  71.763  1.00  0.00    -0.155 NA 
ENDBRANCH   9  10
ENDBRANCH   8   9
BRANCH   8  15
HETATM   15  C   UNL     1     -11.698   8.853  70.460  1.00  0.00    -0.111 A  
HETATM   16  C   UNL     1     -12.499   8.470  71.556  1.00  0.00    -0.353 A  
HETATM   17  C   UNL     1     -11.703  10.221  70.119  1.00  0.00    -0.364 A  
HETATM   18  C   UNL     1     -13.238   9.415  72.273  1.00  0.00    -0.446 A  
HETATM   19  C   UNL     1     -12.416  11.166  70.868  1.00  0.00    -0.509 A  
HETATM   20  O   UNL     1     -14.041   9.054  73.318  1.00  0.00    -1.218 OA 
HETATM   21  C   UNL     1     -13.180  10.762  71.953  1.00  0.00    -0.524 A  
HETATM   22  H   UNL     1     -14.543   9.696  73.805  1.00  0.00     0.000 HD 
ENDBRANCH   8  15
ENDBRANCH   5   8
TORSDOF 4
ENDMDL
MODEL       72
REMARK 921   NORMALIZED FREE ENERGY PREDICTED BY IDOCK:   -5.30 KCAL/MOL
REMARK 922        TOTAL FREE ENERGY PREDICTED BY IDOCK:   -7.29 KCAL/MOL
REMARK 923 INTER-LIGAND FREE ENERGY PREDICTED BY IDOCK:   -7.18 KCAL/MOL
REMARK 924 INTRA-LIGAND FREE ENERGY PREDICTED BY IDOCK:   -0.11 KCAL/MOL
REMARK 927      BINDING AFFINITY PREDICTED BY RF-SCORE:    0.00 PKD
ROOT
HETATM    1  C   UNL     1      -8.355  17.197  67.288  1.00  0.00    -0.208 C  
HETATM    2  C   UNL     1      -9.414  16.569  68.142  1.00  0.00    -0.222 A  
HETATM    3  C   UNL     1      -9.076  15.786  69.243  1.00  0.00    -0.263 A  
HETATM    4  C   UNL     1     -10.056  15.064  69.940  1.00  0.00    -0.065 A  
HETATM    5  C   UNL     1     -11.406  15.079  69.549  1.00  0.00    -0.288 A  
HETATM    6  C   UNL     1     -11.739  16.003  68.540  1.00  0.00    -0.244 A  
HETATM    7  C   UNL     1     -10.765  16.722  67.834  1.00  0.00    -0.347 A  
ENDROOT
BRANCH   5   8
HETATM    8  N   UNL     1     -12.403  14.205  70.068  1.00  0.00    -0.346 NA 
BRANCH   8   9
HETATM    9  C   UNL     1     -13.443  14.770  70.979  1.00  0.00    -0.347 C  
BRANCH   9  10
HETATM   10  C   UNL     1     -12.843  15.295  72.280  1.00  0.00    -0.360 C  
HETATM   11  C   UNL     1     -11.942  16.787  73.746  1.00  0.00    -0.137 C  
HETATM   12  N   UNL     1     -13.028  14.649  73.409  1.00  0.00    -0.563 NA 
HETATM   13  C   UNL     1     -12.287  15.455  74.420  1.00  0.00    -0.616 C  
HETATM   14  N   UNL     1     -12.080  16.437  72.352  1.00  0.00    -0.492 NA 
ENDBRANCH   9  10
ENDBRANCH   8   9
BRANCH   8  15
HETATM   15  C   UNL     1     -12.212  12.794  70.313  1.00  0.00    -0.277 A  
HETATM   16  C   UNL     1     -12.917  12.106  71.322  1.00  0.00    -0.303 A  
HETATM   17  C   UNL     1     -11.340  12.027  69.513  1.00  0.00    -0.298 A  
HETATM   18  C   UNL     1     -12.765  10.727  71.494  1.00  0.00    -0.431 A  
HETATM   19  C   UNL     1     -11.223  10.640  69.668  1.00  0.00    -0.351 A  
HETATM   20  O   UNL     1     -13.420  10.053  72.486  1.00  0.00    -0.621 OA 
HETATM   21  C   UNL     1     -11.945   9.987  70.657  1.00  0.00    -0.401 A  
HETATM   22  H   UNL     1     -13.316   9.115  72.603  1.00  0.00     0.000 HD 
ENDBRANCH   8  15
ENDBRANCH   5   8
TORSDOF 4
ENDMDL
MODEL       73
REMARK 921   NORMALIZED FREE ENERGY PREDICTED BY IDOCK:   -5.28 KCAL/MOL
REMARK 922        TOTAL FREE ENERGY PREDICTED BY IDOCK:   -7.26 KCAL/MOL
REMARK 923 INTER-LIGAND FREE ENERGY PREDICTED BY IDOCK:   -6.98 KCAL/MOL
REMARK 924 INTRA-LIGAND FREE ENERGY PREDICTED BY IDOCK:   -0.28 KCAL/MOL
REMARK 927      BINDING AFFINITY PREDICTED BY RF-SCORE:    0.00 PKD
ROOT
HETATM    1  C   UNL     1     -12.089  12.128  63.781  1.00  0.00    -0.620 C  
HETATM    2  C   UNL     1     -11.511  13.293  64.525  1.00  0.00    -0.399 A  
HETATM    3  C   UNL     1     -11.879  14.599  64.211  1.00  0.00    -0.355 A  
HETATM    4  C   UNL     1     -11.217  15.692  64.789  1.00  0.00    -0.391 A  
HETATM    5  C   UNL     1     -10.147  15.521  65.684  1.00  0.00    -0.376 A  
HETATM    6  C   UNL     1      -9.908  14.199  66.104  1.00  0.00    -0.326 A  
HETATM    7  C   UNL     1     -10.560  13.101  65.526  1.00  0.00    -0.299 A  
ENDROOT
BRANCH   5   8
HETATM    8  N   UNL     1      -9.296  16.572  66.129  1.00  0.00    -0.351 NA 
BRANCH   8   9
HETATM    9  C   UNL     1      -7.945  16.220  66.659  1.00  0.00    -0.289 C  
BRANCH   9  10
HETATM   10  C   UNL     1      -6.940  17.352  66.468  1.00  0.00    -0.260 C  
HETATM   11  C   UNL     1      -6.051  19.274  65.632  1.00  0.00    -0.203 C  
HETATM   12  N   UNL     1      -6.042  17.611  67.390  1.00  0.00    -0.143 NA 
HETATM   13  C   UNL     1      -5.258  18.749  66.833  1.00  0.00    -0.134 C  
HETATM   14  N   UNL     1      -6.902  18.145  65.344  1.00  0.00    -0.473 NA 
ENDBRANCH   9  10
ENDBRANCH   8   9
BRANCH   8  15
HETATM   15  C   UNL     1      -9.757  17.826  66.679  1.00  0.00    -0.313 A  
HETATM   16  C   UNL     1      -9.746  18.086  68.065  1.00  0.00    -0.309 A  
HETATM   17  C   UNL     1     -10.196  18.872  65.841  1.00  0.00    -0.333 A  
HETATM   18  C   UNL     1     -10.133  19.332  68.567  1.00  0.00    -0.430 A  
HETATM   19  C   UNL     1     -10.545  20.130  66.351  1.00  0.00    -0.360 A  
HETATM   20  O   UNL     1     -10.156  19.588  69.909  1.00  0.00    -0.379 OA 
HETATM   21  C   UNL     1     -10.506  20.362  67.718  1.00  0.00    -0.235 A  
HETATM   22  H   UNL     1     -10.419  20.435  70.250  1.00  0.00     0.000 HD 
ENDBRANCH   8  15
ENDBRANCH   5   8
TORSDOF 4
ENDMDL
MODEL       74
REMARK 921   NORMALIZED FREE ENERGY PREDICTED BY IDOCK:   -5.27 KCAL/MOL
REMARK 922        TOTAL FREE ENERGY PREDICTED BY IDOCK:   -7.26 KCAL/MOL
REMARK 923 INTER-LIGAND FREE ENERGY PREDICTED BY IDOCK:   -6.49 KCAL/MOL
REMARK 924 INTRA-LIGAND FREE ENERGY PREDICTED BY IDOCK:   -0.76 KCAL/MOL
REMARK 927      BINDING AFFINITY PREDICTED BY RF-SCORE:    0.00 PKD
ROOT
HETATM    1  C   UNL     1     -10.417   8.906  67.290  1.00  0.00    -0.348 C  
HETATM    2  C   UNL     1     -10.479  10.295  67.846  1.00  0.00    -0.253 A  
HETATM    3  C   UNL     1     -11.411  10.636  68.823  1.00  0.00    -0.339 A  
HETATM    4  C   UNL     1     -11.580  11.970  69.222  1.00  0.00    -0.380 A  
HETATM    5  C   UNL     1     -10.842  13.016  68.644  1.00  0.00    -0.259 A  
HETATM    6  C   UNL     1      -9.799  12.623  67.782  1.00  0.00    -0.212 A  
HETATM    7  C   UNL     1      -9.629  11.293  67.372  1.00  0.00    -0.182 A  
ENDROOT
BRANCH   5   8
HETATM    8  N   UNL     1     -11.117  14.399  68.839  1.00  0.00    -0.248 NA 
BRANCH   8   9
HETATM    9  C   UNL     1     -12.496  14.800  69.249  1.00  0.00    -0.010 C  
BRANCH   9  10
HETATM   10  C   UNL     1     -12.566  15.188  70.723  1.00  0.00    -0.393 C  
HETATM   11  C   UNL     1     -13.494  15.606  72.761  1.00  0.00    -0.574 C  
HETATM   12  N   UNL     1     -11.495  15.132  71.480  1.00  0.00    -0.371 NA 
HETATM   13  C   UNL     1     -11.962  15.594  72.818  1.00  0.00    -0.484 C  
HETATM   14  N   UNL     1     -13.720  15.621  71.335  1.00  0.00    -0.548 NA 
ENDBRANCH   9  10
ENDBRANCH   8   9
BRANCH   8  15
HETATM   15  C   UNL     1     -10.450  15.476  68.145  1.00  0.00    -0.259 A  
HETATM   16  C   UNL     1      -9.379  16.190  68.720  1.00  0.00    -0.229 A  
HETATM   17  C   UNL     1     -10.814  15.831  66.829  1.00  0.00    -0.254 A  
HETATM   18  C   UNL     1      -8.706  17.182  68.002  1.00  0.00    -0.221 A  
HETATM   19  C   UNL     1     -10.109  16.800  66.103  1.00  0.00    -0.360 A  
HETATM   20  O   UNL     1      -7.686  17.901  68.557  1.00  0.00    -0.280 OA 
HETATM   21  C   UNL     1      -9.046  17.472  66.690  1.00  0.00    -0.287 A  
HETATM   22  H   UNL     1      -7.229  18.576  68.069  1.00  0.00     0.000 HD 
ENDBRANCH   8  15
ENDBRANCH   5   8
TORSDOF 4
ENDMDL
MODEL       75
REMARK 921   NORMALIZED FREE ENERGY PREDICTED BY IDOCK:   -5.27 KCAL/MOL
REMARK 922        TOTAL FREE ENERGY PREDICTED BY IDOCK:   -7.25 KCAL/MOL
REMARK 923 INTER-LIGAND FREE ENERGY PREDICTED BY IDOCK:   -6.50 KCAL/MOL
REMARK 924 INTRA-LIGAND FREE ENERGY PREDICTED BY IDOCK:   -0.75 KCAL/MOL
REMARK 927      BINDING AFFINITY PREDICTED BY RF-SCORE:    0.00 PKD
ROOT
HETATM    1  C   UNL     1     -13.531  12.769  72.104  1.00  0.00    -0.591 C  
HETATM    2  C   UNL     1     -12.959  11.517  71.512  1.00  0.00    -0.485 A  
HETATM    3  C   UNL     1     -13.278  10.266  72.034  1.00  0.00    -0.516 A  
HETATM    4  C   UNL     1     -12.616   9.111  71.590  1.00  0.00    -0.433 A  
HETATM    5  C   UNL     1     -11.596   9.166  70.625  1.00  0.00    -0.235 A  
HETATM    6  C   UNL     1     -11.413  10.416  70.002  1.00  0.00    -0.382 A  
HETATM    7  C   UNL     1     -12.064  11.575  70.445  1.00  0.00    -0.471 A  
ENDROOT
BRANCH   5   8
HETATM    8  N   UNL     1     -10.741   8.077  70.297  1.00  0.00    -0.236 NA 
BRANCH   8   9
HETATM    9  C   UNL     1      -9.720   7.644  71.298  1.00  0.00    -0.160 C  
BRANCH   9  10
HETATM   10  C   UNL     1     -10.062   6.293  71.919  1.00  0.00    -0.181 C  
HETATM   11  C   UNL     1     -11.193   4.765  73.172  1.00  0.00    -0.308 C  
HETATM   12  N   UNL     1      -9.611   5.181  71.387  1.00  0.00    -0.155 NA 
HETATM   13  C   UNL     1     -10.139   4.106  72.275  1.00  0.00    -0.178 C  
HETATM   14  N   UNL     1     -10.831   6.157  73.051  1.00  0.00    -0.249 NA 
ENDBRANCH   9  10
ENDBRANCH   8   9
BRANCH   8  15
HETATM   15  C   UNL     1     -10.329   7.730  68.956  1.00  0.00    -0.211 A  
HETATM   16  C   UNL     1     -11.025   6.780  68.180  1.00  0.00    -0.277 A  
HETATM   17  C   UNL     1      -9.232   8.369  68.342  1.00  0.00    -0.135 A  
HETATM   18  C   UNL     1     -10.648   6.512  66.861  1.00  0.00    -0.305 A  
HETATM   19  C   UNL     1      -8.885   8.122  67.008  1.00  0.00    -0.143 A  
HETATM   20  O   UNL     1     -11.294   5.574  66.107  1.00  0.00    -0.751 OA 
HETATM   21  C   UNL     1      -9.601   7.196  66.262  1.00  0.00    -0.098 A  
HETATM   22  H   UNL     1     -11.037   5.392  65.211  1.00  0.00     0.000 HD 
ENDBRANCH   8  15
ENDBRANCH   5   8
TORSDOF 4
ENDMDL
MODEL       76
REMARK 921   NORMALIZED FREE ENERGY PREDICTED BY IDOCK:   -5.27 KCAL/MOL
REMARK 922        TOTAL FREE ENERGY PREDICTED BY IDOCK:   -7.25 KCAL/MOL
REMARK 923 INTER-LIGAND FREE ENERGY PREDICTED BY IDOCK:   -7.49 KCAL/MOL
REMARK 924 INTRA-LIGAND FREE ENERGY PREDICTED BY IDOCK:    0.25 KCAL/MOL
REMARK 927      BINDING AFFINITY PREDICTED BY RF-SCORE:    0.00 PKD
ROOT
HETATM    1  C   UNL     1     -14.329  15.336  72.116  1.00  0.00    -0.651 C  
HETATM    2  C   UNL     1     -13.432  14.254  71.597  1.00  0.00    -0.456 A  
HETATM    3  C   UNL     1     -12.514  14.509  70.582  1.00  0.00    -0.409 A  
HETATM    4  C   UNL     1     -11.795  13.464  69.983  1.00  0.00    -0.364 A  
HETATM    5  C   UNL     1     -11.983  12.124  70.360  1.00  0.00    -0.272 A  
HETATM    6  C   UNL     1     -12.792  11.917  71.494  1.00  0.00    -0.421 A  
HETATM    7  C   UNL     1     -13.520  12.954  72.093  1.00  0.00    -0.619 A  
ENDROOT
BRANCH   5   8
HETATM    8  N   UNL     1     -11.459  11.007  69.650  1.00  0.00    -0.275 NA 
BRANCH   8   9
HETATM    9  C   UNL     1     -10.605  10.029  70.388  1.00  0.00    -0.280 C  
BRANCH   9  10
HETATM   10  C   UNL     1     -11.346   8.729  70.684  1.00  0.00    -0.254 C  
HETATM   11  C   UNL     1     -11.691   6.487  70.886  1.00  0.00    -0.356 C  
HETATM   12  N   UNL     1     -12.412   8.728  71.452  1.00  0.00    -0.309 NA 
HETATM   13  C   UNL     1     -12.844   7.302  71.481  1.00  0.00    -0.388 C  
HETATM   14  N   UNL     1     -10.967   7.510  70.171  1.00  0.00    -0.259 NA 
ENDBRANCH   9  10
ENDBRANCH   8   9
BRANCH   8  15
HETATM   15  C   UNL     1     -11.148  11.003  68.239  1.00  0.00    -0.257 A  
HETATM   16  C   UNL     1     -10.639   9.862  67.586  1.00  0.00    -0.325 A  
HETATM   17  C   UNL     1     -11.390  12.137  67.436  1.00  0.00    -0.393 A  
HETATM   18  C   UNL     1     -10.411   9.862  66.207  1.00  0.00    -0.163 A  
HETATM   19  C   UNL     1     -11.194  12.116  66.049  1.00  0.00    -0.382 A  
HETATM   20  O   UNL     1      -9.890   8.774  65.566  1.00  0.00    -0.436 OA 
HETATM   21  C   UNL     1     -10.710  10.971  65.431  1.00  0.00    -0.222 A  
HETATM   22  H   UNL     1      -9.734   8.774  64.629  1.00  0.00     0.000 HD 
ENDBRANCH   8  15
ENDBRANCH   5   8
TORSDOF 4
ENDMDL
MODEL       77
REMARK 921   NORMALIZED FREE ENERGY PREDICTED BY IDOCK:   -5.26 KCAL/MOL
REMARK 922        TOTAL FREE ENERGY PREDICTED BY IDOCK:   -7.24 KCAL/MOL
REMARK 923 INTER-LIGAND FREE ENERGY PREDICTED BY IDOCK:   -6.56 KCAL/MOL
REMARK 924 INTRA-LIGAND FREE ENERGY PREDICTED BY IDOCK:   -0.68 KCAL/MOL
REMARK 927      BINDING AFFINITY PREDICTED BY RF-SCORE:    0.00 PKD
ROOT
HETATM    1  C   UNL     1      -5.146  16.063  69.961  1.00  0.00    -0.132 C  
HETATM    2  C   UNL     1      -6.374  15.846  69.130  1.00  0.00    -0.146 A  
HETATM    3  C   UNL     1      -6.419  16.249  67.798  1.00  0.00    -0.161 A  
HETATM    4  C   UNL     1      -7.617  16.200  67.071  1.00  0.00    -0.260 A  
HETATM    5  C   UNL     1      -8.820  15.767  67.655  1.00  0.00    -0.175 A  
HETATM    6  C   UNL     1      -8.708  15.215  68.946  1.00  0.00    -0.205 A  
HETATM    7  C   UNL     1      -7.516  15.268  69.681  1.00  0.00    -0.181 A  
ENDROOT
BRANCH   5   8
HETATM    8  N   UNL     1     -10.101  15.902  67.049  1.00  0.00    -0.262 NA 
BRANCH   8   9
HETATM    9  C   UNL     1     -11.015  16.975  67.543  1.00  0.00    -0.119 C  
BRANCH   9  10
HETATM   10  C   UNL     1     -10.519  18.368  67.170  1.00  0.00    -0.404 C  
HETATM   11  C   UNL     1     -10.066  20.173  65.857  1.00  0.00    -0.331 C  
HETATM   12  N   UNL     1     -10.361  19.290  68.092  1.00  0.00    -0.406 NA 
HETATM   13  C   UNL     1      -9.858  20.477  67.344  1.00  0.00    -0.434 C  
HETATM   14  N   UNL     1     -10.202  18.736  65.883  1.00  0.00    -0.562 NA 
ENDBRANCH   9  10
ENDBRANCH   8   9
BRANCH   8  15
HETATM   15  C   UNL     1     -10.850  14.815  66.460  1.00  0.00    -0.319 A  
HETATM   16  C   UNL     1     -11.118  13.622  67.162  1.00  0.00    -0.311 A  
HETATM   17  C   UNL     1     -11.392  14.923  65.163  1.00  0.00    -0.379 A  
HETATM   18  C   UNL     1     -11.903  12.613  66.595  1.00  0.00    -0.380 A  
HETATM   19  C   UNL     1     -12.209  13.924  64.618  1.00  0.00    -0.449 A  
HETATM   20  O   UNL     1     -12.146  11.440  67.251  1.00  0.00    -0.464 OA 
HETATM   21  C   UNL     1     -12.471  12.768  65.340  1.00  0.00    -0.478 A  
HETATM   22  H   UNL     1     -12.679  10.755  66.865  1.00  0.00     0.000 HD 
ENDBRANCH   8  15
ENDBRANCH   5   8
TORSDOF 4
ENDMDL
MODEL       78
REMARK 921   NORMALIZED FREE ENERGY PREDICTED BY IDOCK:   -5.24 KCAL/MOL
REMARK 922        TOTAL FREE ENERGY PREDICTED BY IDOCK:   -7.21 KCAL/MOL
REMARK 923 INTER-LIGAND FREE ENERGY PREDICTED BY IDOCK:   -6.39 KCAL/MOL
REMARK 924 INTRA-LIGAND FREE ENERGY PREDICTED BY IDOCK:   -0.83 KCAL/MOL
REMARK 927      BINDING AFFINITY PREDICTED BY RF-SCORE:    0.00 PKD
ROOT
HETATM    1  C   UNL     1     -10.482   6.747  73.717  1.00  0.00    -0.383 C  
HETATM    2  C   UNL     1     -10.629   7.879  72.746  1.00  0.00    -0.418 A  
HETATM    3  C   UNL     1     -11.875   8.444  72.486  1.00  0.00    -0.427 A  
HETATM    4  C   UNL     1     -12.038   9.385  71.459  1.00  0.00    -0.456 A  
HETATM    5  C   UNL     1     -10.967   9.780  70.639  1.00  0.00    -0.331 A  
HETATM    6  C   UNL     1      -9.696   9.317  71.030  1.00  0.00    -0.341 A  
HETATM    7  C   UNL     1      -9.526   8.371  72.050  1.00  0.00    -0.339 A  
ENDROOT
BRANCH   5   8
HETATM    8  N   UNL     1     -11.107  10.552  69.451  1.00  0.00    -0.240 NA 
BRANCH   8   9
HETATM    9  C   UNL     1     -12.343  11.370  69.272  1.00  0.00    -0.082 C  
BRANCH   9  10
HETATM   10  C   UNL     1     -12.221  12.744  69.924  1.00  0.00    -0.175 C  
HETATM   11  C   UNL     1     -11.911  14.995  70.077  1.00  0.00    -0.319 C  
HETATM   12  N   UNL     1     -12.733  12.967  71.113  1.00  0.00    -0.336 NA 
HETATM   13  C   UNL     1     -12.396  14.391  71.399  1.00  0.00    -0.360 C  
HETATM   14  N   UNL     1     -11.574  13.804  69.333  1.00  0.00    -0.292 NA 
ENDBRANCH   9  10
ENDBRANCH   8   9
BRANCH   8  15
HETATM   15  C   UNL     1     -10.527  10.206  68.173  1.00  0.00    -0.206 A  
HETATM   16  C   UNL     1      -9.828  11.146  67.388  1.00  0.00    -0.195 A  
HETATM   17  C   UNL     1     -10.594   8.888  67.675  1.00  0.00    -0.292 A  
HETATM   18  C   UNL     1      -9.217  10.770  66.188  1.00  0.00    -0.180 A  
HETATM   19  C   UNL     1      -9.946   8.513  66.491  1.00  0.00    -0.350 A  
HETATM   20  O   UNL     1      -8.562  11.676  65.403  1.00  0.00    -0.389 OA 
HETATM   21  C   UNL     1      -9.249   9.455  65.749  1.00  0.00    -0.276 A  
HETATM   22  H   UNL     1      -8.147  11.420  64.587  1.00  0.00     0.000 HD 
ENDBRANCH   8  15
ENDBRANCH   5   8
TORSDOF 4
ENDMDL
MODEL       79
REMARK 921   NORMALIZED FREE ENERGY PREDICTED BY IDOCK:   -5.24 KCAL/MOL
REMARK 922        TOTAL FREE ENERGY PREDICTED BY IDOCK:   -7.21 KCAL/MOL
REMARK 923 INTER-LIGAND FREE ENERGY PREDICTED BY IDOCK:   -6.41 KCAL/MOL
REMARK 924 INTRA-LIGAND FREE ENERGY PREDICTED BY IDOCK:   -0.81 KCAL/MOL
REMARK 927      BINDING AFFINITY PREDICTED BY RF-SCORE:    0.00 PKD
ROOT
HETATM    1  C   UNL     1     -13.705   9.104  72.397  1.00  0.00    -0.543 C  
HETATM    2  C   UNL     1     -12.734   9.722  71.439  1.00  0.00    -0.483 A  
HETATM    3  C   UNL     1     -12.867  11.049  71.037  1.00  0.00    -0.442 A  
HETATM    4  C   UNL     1     -12.062  11.577  70.018  1.00  0.00    -0.408 A  
HETATM    5  C   UNL     1     -11.108  10.793  69.347  1.00  0.00    -0.268 A  
HETATM    6  C   UNL     1     -10.884   9.511  69.884  1.00  0.00    -0.272 A  
HETATM    7  C   UNL     1     -11.690   8.973  70.897  1.00  0.00    -0.327 A  
ENDROOT
BRANCH   5   8
HETATM    8  N   UNL     1     -10.421  11.198  68.167  1.00  0.00    -0.181 NA 
BRANCH   8   9
HETATM    9  C   UNL     1      -8.980  10.834  68.020  1.00  0.00    -0.139 C  
BRANCH   9  10
HETATM   10  C   UNL     1      -8.763   9.770  66.947  1.00  0.00    -0.135 C  
HETATM   11  C   UNL     1      -8.195   8.886  64.927  1.00  0.00    -0.160 C  
HETATM   12  N   UNL     1      -8.637   8.506  67.277  1.00  0.00    -0.122 NA 
HETATM   13  C   UNL     1      -8.462   7.800  65.976  1.00  0.00    -0.139 C  
HETATM   14  N   UNL     1      -8.701  10.057  65.603  1.00  0.00    -0.149 NA 
ENDBRANCH   9  10
ENDBRANCH   8   9
BRANCH   8  15
HETATM   15  C   UNL     1     -10.738  12.377  67.395  1.00  0.00    -0.229 A  
HETATM   16  C   UNL     1     -11.849  12.430  66.528  1.00  0.00    -0.407 A  
HETATM   17  C   UNL     1      -9.971  13.554  67.515  1.00  0.00    -0.230 A  
HETATM   18  C   UNL     1     -12.174  13.605  65.844  1.00  0.00    -0.461 A  
HETATM   19  C   UNL     1     -10.327  14.738  66.855  1.00  0.00    -0.267 A  
HETATM   20  O   UNL     1     -13.229  13.662  64.978  1.00  0.00    -0.729 OA 
HETATM   21  C   UNL     1     -11.437  14.765  66.023  1.00  0.00    -0.316 A  
HETATM   22  H   UNL     1     -13.449  14.461  64.513  1.00  0.00     0.000 HD 
ENDBRANCH   8  15
ENDBRANCH   5   8
TORSDOF 4
ENDMDL
MODEL       80
REMARK 921   NORMALIZED FREE ENERGY PREDICTED BY IDOCK:   -5.24 KCAL/MOL
REMARK 922        TOTAL FREE ENERGY PREDICTED BY IDOCK:   -7.21 KCAL/MOL
REMARK 923 INTER-LIGAND FREE ENERGY PREDICTED BY IDOCK:   -6.63 KCAL/MOL
REMARK 924 INTRA-LIGAND FREE ENERGY PREDICTED BY IDOCK:   -0.58 KCAL/MOL
REMARK 927      BINDING AFFINITY PREDICTED BY RF-SCORE:    0.00 PKD
ROOT
HETATM    1  C   UNL     1      -6.765  12.272  67.313  1.00  0.00    -0.143 C  
HETATM    2  C   UNL     1      -7.721  13.313  67.809  1.00  0.00    -0.159 A  
HETATM    3  C   UNL     1      -7.357  14.200  68.819  1.00  0.00    -0.128 A  
HETATM    4  C   UNL     1      -8.301  15.061  69.397  1.00  0.00    -0.141 A  
HETATM    5  C   UNL     1      -9.650  15.052  69.003  1.00  0.00    -0.225 A  
HETATM    6  C   UNL     1      -9.951  14.266  67.874  1.00  0.00    -0.230 A  
HETATM    7  C   UNL     1      -9.015  13.398  67.296  1.00  0.00    -0.221 A  
ENDROOT
BRANCH   5   8
HETATM    8  N   UNL     1     -10.693  15.731  69.694  1.00  0.00    -0.265 NA 
BRANCH   8   9
HETATM    9  C   UNL     1     -10.562  17.202  69.916  1.00  0.00     0.200 C  
BRANCH   9  10
HETATM   10  C   UNL     1     -10.042  17.926  68.677  1.00  0.00    -0.394 C  
HETATM   11  C   UNL     1     -10.101  18.964  66.651  1.00  0.00    -0.388 C  
HETATM   12  N   UNL     1      -8.885  18.546  68.702  1.00  0.00    -0.321 NA 
HETATM   13  C   UNL     1      -8.732  19.099  67.327  1.00  0.00    -0.286 C  
HETATM   14  N   UNL     1     -10.726  17.964  67.484  1.00  0.00    -0.371 NA 
ENDBRANCH   9  10
ENDBRANCH   8   9
BRANCH   8  15
HETATM   15  C   UNL     1     -11.542  15.130  70.697  1.00  0.00    -0.309 A  
HETATM   16  C   UNL     1     -11.909  15.812  71.875  1.00  0.00    -0.568 A  
HETATM   17  C   UNL     1     -12.085  13.841  70.515  1.00  0.00    -0.416 A  
HETATM   18  C   UNL     1     -12.787  15.235  72.798  1.00  0.00    -0.413 A  
HETATM   19  C   UNL     1     -12.994  13.287  71.426  1.00  0.00    -0.398 A  
HETATM   20  O   UNL     1     -13.128  15.872  73.957  1.00  0.00    -0.819 OA 
HETATM   21  C   UNL     1     -13.351  13.990  72.568  1.00  0.00    -0.639 A  
HETATM   22  H   UNL     1     -13.724  15.479  74.584  1.00  0.00     0.000 HD 
ENDBRANCH   8  15
ENDBRANCH   5   8
TORSDOF 4
ENDMDL
MODEL       81
REMARK 921   NORMALIZED FREE ENERGY PREDICTED BY IDOCK:   -5.23 KCAL/MOL
REMARK 922        TOTAL FREE ENERGY PREDICTED BY IDOCK:   -7.20 KCAL/MOL
REMARK 923 INTER-LIGAND FREE ENERGY PREDICTED BY IDOCK:   -6.96 KCAL/MOL
REMARK 924 INTRA-LIGAND FREE ENERGY PREDICTED BY IDOCK:   -0.24 KCAL/MOL
REMARK 927      BINDING AFFINITY PREDICTED BY RF-SCORE:    0.00 PKD
ROOT
HETATM    1  C   UNL     1     -13.523  15.836  73.045  1.00  0.00    -0.672 C  
HETATM    2  C   UNL     1     -12.730  15.384  71.858  1.00  0.00    -0.462 A  
HETATM    3  C   UNL     1     -11.551  16.031  71.494  1.00  0.00    -0.529 A  
HETATM    4  C   UNL     1     -10.900  15.717  70.292  1.00  0.00    -0.363 A  
HETATM    5  C   UNL     1     -11.413  14.761  69.399  1.00  0.00    -0.301 A  
HETATM    6  C   UNL     1     -12.509  14.013  69.869  1.00  0.00    -0.301 A  
HETATM    7  C   UNL     1     -13.170  14.325  71.065  1.00  0.00    -0.367 A  
ENDROOT
BRANCH   5   8
HETATM    8  N   UNL     1     -10.929  14.557  68.075  1.00  0.00    -0.254 NA 
BRANCH   8   9
HETATM    9  C   UNL     1     -11.300  15.547  67.020  1.00  0.00    -0.106 C  
BRANCH   9  10
HETATM   10  C   UNL     1     -10.408  16.784  67.054  1.00  0.00    -0.300 C  
HETATM   11  C   UNL     1      -9.688  18.859  67.658  1.00  0.00    -0.314 C  
HETATM   12  N   UNL     1      -9.156  16.716  66.665  1.00  0.00    -0.233 NA 
HETATM   13  C   UNL     1      -8.641  18.105  66.831  1.00  0.00    -0.258 C  
HETATM   14  N   UNL     1     -10.848  18.019  67.472  1.00  0.00    -0.325 NA 
ENDBRANCH   9  10
ENDBRANCH   8   9
BRANCH   8  15
HETATM   15  C   UNL     1     -10.642  13.265  67.495  1.00  0.00    -0.246 A  
HETATM   16  C   UNL     1     -11.056  12.062  68.102  1.00  0.00    -0.294 A  
HETATM   17  C   UNL     1      -9.971  13.154  66.260  1.00  0.00    -0.285 A  
HETATM   18  C   UNL     1     -10.826  10.828  67.486  1.00  0.00    -0.288 A  
HETATM   19  C   UNL     1      -9.779  11.917  65.632  1.00  0.00    -0.248 A  
HETATM   20  O   UNL     1     -11.195   9.653  68.077  1.00  0.00    -0.513 OA 
HETATM   21  C   UNL     1     -10.214  10.750  66.245  1.00  0.00    -0.301 A  
HETATM   22  H   UNL     1     -11.038   8.814  67.658  1.00  0.00     0.000 HD 
ENDBRANCH   8  15
ENDBRANCH   5   8
TORSDOF 4
ENDMDL
MODEL       82
REMARK 921   NORMALIZED FREE ENERGY PREDICTED BY IDOCK:   -5.22 KCAL/MOL
REMARK 922        TOTAL FREE ENERGY PREDICTED BY IDOCK:   -7.19 KCAL/MOL
REMARK 923 INTER-LIGAND FREE ENERGY PREDICTED BY IDOCK:   -6.48 KCAL/MOL
REMARK 924 INTRA-LIGAND FREE ENERGY PREDICTED BY IDOCK:   -0.71 KCAL/MOL
REMARK 927      BINDING AFFINITY PREDICTED BY RF-SCORE:    0.00 PKD
ROOT
HETATM    1  C   UNL     1     -13.449   9.723  72.070  1.00  0.00    -0.498 C  
HETATM    2  C   UNL     1     -12.427  10.234  71.101  1.00  0.00    -0.495 A  
HETATM    3  C   UNL     1     -12.420  11.568  70.703  1.00  0.00    -0.405 A  
HETATM    4  C   UNL     1     -11.573  12.007  69.674  1.00  0.00    -0.371 A  
HETATM    5  C   UNL     1     -10.720  11.126  68.990  1.00  0.00    -0.225 A  
HETATM    6  C   UNL     1     -10.631   9.825  69.523  1.00  0.00    -0.253 A  
HETATM    7  C   UNL     1     -11.479   9.376  70.544  1.00  0.00    -0.317 A  
ENDROOT
BRANCH   5   8
HETATM    8  N   UNL     1     -10.007  11.456  67.802  1.00  0.00    -0.175 NA 
BRANCH   8   9
HETATM    9  C   UNL     1      -8.728  12.218  67.926  1.00  0.00    -0.177 C  
BRANCH   9  10
HETATM   10  C   UNL     1      -7.543  11.304  68.221  1.00  0.00    -0.114 C  
HETATM   11  C   UNL     1      -5.803   9.893  67.809  1.00  0.00    -0.039 C  
HETATM   12  N   UNL     1      -6.898  11.394  69.361  1.00  0.00    -0.118 NA 
HETATM   13  C   UNL     1      -5.842  10.346  69.273  1.00  0.00    -0.037 C  
HETATM   14  N   UNL     1      -7.093  10.345  67.343  1.00  0.00    -0.085 NA 
ENDBRANCH   9  10
ENDBRANCH   8   9
BRANCH   8  15
HETATM   15  C   UNL     1     -10.619  11.678  66.512  1.00  0.00    -0.253 A  
HETATM   16  C   UNL     1     -11.607  12.662  66.310  1.00  0.00    -0.440 A  
HETATM   17  C   UNL     1     -10.213  10.944  65.378  1.00  0.00    -0.339 A  
HETATM   18  C   UNL     1     -12.134  12.904  65.037  1.00  0.00    -0.435 A  
HETATM   19  C   UNL     1     -10.719  11.219  64.101  1.00  0.00    -0.436 A  
HETATM   20  O   UNL     1     -13.113  13.834  64.832  1.00  0.00    -0.716 OA 
HETATM   21  C   UNL     1     -11.677  12.208  63.929  1.00  0.00    -0.546 A  
HETATM   22  H   UNL     1     -13.472  13.997  63.967  1.00  0.00     0.000 HD 
ENDBRANCH   8  15
ENDBRANCH   5   8
TORSDOF 4
ENDMDL
MODEL       83
REMARK 921   NORMALIZED FREE ENERGY PREDICTED BY IDOCK:   -5.21 KCAL/MOL
REMARK 922        TOTAL FREE ENERGY PREDICTED BY IDOCK:   -7.18 KCAL/MOL
REMARK 923 INTER-LIGAND FREE ENERGY PREDICTED BY IDOCK:   -6.37 KCAL/MOL
REMARK 924 INTRA-LIGAND FREE ENERGY PREDICTED BY IDOCK:   -0.81 KCAL/MOL
REMARK 927      BINDING AFFINITY PREDICTED BY RF-SCORE:    0.00 PKD
ROOT
HETATM    1  C   UNL     1      -8.784  17.943  66.639  1.00  0.00    -0.280 C  
HETATM    2  C   UNL     1      -9.169  16.504  66.482  1.00  0.00    -0.300 A  
HETATM    3  C   UNL     1     -10.178  16.123  65.600  1.00  0.00    -0.390 A  
HETATM    4  C   UNL     1     -10.652  14.804  65.575  1.00  0.00    -0.374 A  
HETATM    5  C   UNL     1     -10.151  13.820  66.444  1.00  0.00    -0.295 A  
HETATM    6  C   UNL     1      -9.026  14.193  67.204  1.00  0.00    -0.236 A  
HETATM    7  C   UNL     1      -8.552  15.511  67.241  1.00  0.00    -0.215 A  
ENDROOT
BRANCH   5   8
HETATM    8  N   UNL     1     -10.734  12.533  66.624  1.00  0.00    -0.234 NA 
BRANCH   8   9
HETATM    9  C   UNL     1     -11.478  11.922  65.482  1.00  0.00    -0.252 C  
BRANCH   9  10
HETATM   10  C   UNL     1     -10.543  11.247  64.483  1.00  0.00    -0.336 C  
HETATM   11  C   UNL     1      -9.258   9.610  63.558  1.00  0.00    -0.098 C  
HETATM   12  N   UNL     1     -10.429  11.708  63.259  1.00  0.00    -0.395 NA 
HETATM   13  C   UNL     1      -9.430  10.807  62.617  1.00  0.00    -0.300 C  
HETATM   14  N   UNL     1      -9.771  10.152  64.794  1.00  0.00    -0.315 NA 
ENDBRANCH   9  10
ENDBRANCH   8   9
BRANCH   8  15
HETATM   15  C   UNL     1     -11.206  12.014  67.887  1.00  0.00    -0.264 A  
HETATM   16  C   UNL     1     -11.167  10.639  68.194  1.00  0.00    -0.366 A  
HETATM   17  C   UNL     1     -11.687  12.876  68.895  1.00  0.00    -0.370 A  
HETATM   18  C   UNL     1     -11.566  10.169  69.449  1.00  0.00    -0.087 A  
HETATM   19  C   UNL     1     -12.048  12.400  70.162  1.00  0.00    -0.366 A  
HETATM   20  O   UNL     1     -11.561   8.837  69.750  1.00  0.00    -0.437 OA 
HETATM   21  C   UNL     1     -11.981  11.043  70.442  1.00  0.00    -0.459 A  
HETATM   22  H   UNL     1     -11.833   8.518  70.603  1.00  0.00     0.000 HD 
ENDBRANCH   8  15
ENDBRANCH   5   8
TORSDOF 4
ENDMDL
MODEL       84
REMARK 921   NORMALIZED FREE ENERGY PREDICTED BY IDOCK:   -5.21 KCAL/MOL
REMARK 922        TOTAL FREE ENERGY PREDICTED BY IDOCK:   -7.18 KCAL/MOL
REMARK 923 INTER-LIGAND FREE ENERGY PREDICTED BY IDOCK:   -6.41 KCAL/MOL
REMARK 924 INTRA-LIGAND FREE ENERGY PREDICTED BY IDOCK:   -0.77 KCAL/MOL
REMARK 927      BINDING AFFINITY PREDICTED BY RF-SCORE:    0.00 PKD
ROOT
HETATM    1  C   UNL     1      -9.602   3.839  66.261  1.00  0.00    -0.176 C  
HETATM    2  C   UNL     1      -9.990   4.561  67.515  1.00  0.00    -0.152 A  
HETATM    3  C   UNL     1     -10.764   5.718  67.466  1.00  0.00    -0.320 A  
HETATM    4  C   UNL     1     -10.987   6.483  68.620  1.00  0.00    -0.363 A  
HETATM    5  C   UNL     1     -10.426   6.134  69.860  1.00  0.00    -0.233 A  
HETATM    6  C   UNL     1      -9.790   4.879  69.911  1.00  0.00    -0.295 A  
HETATM    7  C   UNL     1      -9.556   4.112  68.761  1.00  0.00    -0.210 A  
ENDROOT
BRANCH   5   8
HETATM    8  N   UNL     1     -10.427   6.976  71.008  1.00  0.00    -0.212 NA 
BRANCH   8   9
HETATM    9  C   UNL     1      -9.956   6.411  72.308  1.00  0.00    -0.164 C  
BRANCH   9  10
HETATM   10  C   UNL     1      -8.764   7.181  72.870  1.00  0.00    -0.122 C  
HETATM   11  C   UNL     1      -6.757   8.257  72.888  1.00  0.00    -0.096 C  
HETATM   12  N   UNL     1      -8.870   7.847  73.996  1.00  0.00    -0.258 NA 
HETATM   13  C   UNL     1      -7.517   8.434  74.207  1.00  0.00    -0.179 C  
HETATM   14  N   UNL     1      -7.532   7.215  72.258  1.00  0.00    -0.084 NA 
ENDBRANCH   9  10
ENDBRANCH   8   9
BRANCH   8  15
HETATM   15  C   UNL     1     -11.343   8.073  71.223  1.00  0.00    -0.264 A  
HETATM   16  C   UNL     1     -12.417   7.986  72.133  1.00  0.00    -0.335 A  
HETATM   17  C   UNL     1     -11.172   9.306  70.560  1.00  0.00    -0.315 A  
HETATM   18  C   UNL     1     -13.248   9.084  72.374  1.00  0.00    -0.447 A  
HETATM   19  C   UNL     1     -11.987  10.412  70.836  1.00  0.00    -0.478 A  
HETATM   20  O   UNL     1     -14.309   9.005  73.230  1.00  0.00    -1.131 OA 
HETATM   21  C   UNL     1     -13.024  10.302  71.752  1.00  0.00    -0.574 A  
HETATM   22  H   UNL     1     -14.874   9.751  73.393  1.00  0.00     0.000 HD 
ENDBRANCH   8  15
ENDBRANCH   5   8
TORSDOF 4
ENDMDL
MODEL       85
REMARK 921   NORMALIZED FREE ENERGY PREDICTED BY IDOCK:   -5.21 KCAL/MOL
REMARK 922        TOTAL FREE ENERGY PREDICTED BY IDOCK:   -7.18 KCAL/MOL
REMARK 923 INTER-LIGAND FREE ENERGY PREDICTED BY IDOCK:   -6.43 KCAL/MOL
REMARK 924 INTRA-LIGAND FREE ENERGY PREDICTED BY IDOCK:   -0.74 KCAL/MOL
REMARK 927      BINDING AFFINITY PREDICTED BY RF-SCORE:    0.00 PKD
ROOT
HETATM    1  C   UNL     1     -10.485   5.402  69.330  1.00  0.00    -0.331 C  
HETATM    2  C   UNL     1     -10.588   6.792  68.781  1.00  0.00    -0.258 A  
HETATM    3  C   UNL     1     -10.573   7.024  67.408  1.00  0.00    -0.372 A  
HETATM    4  C   UNL     1     -10.500   8.329  66.900  1.00  0.00    -0.365 A  
HETATM    5  C   UNL     1     -10.417   9.449  67.744  1.00  0.00    -0.254 A  
HETATM    6  C   UNL     1     -10.599   9.194  69.117  1.00  0.00    -0.224 A  
HETATM    7  C   UNL     1     -10.664   7.893  69.633  1.00  0.00    -0.218 A  
ENDROOT
BRANCH   5   8
HETATM    8  N   UNL     1     -10.120  10.770  67.301  1.00  0.00    -0.190 NA 
BRANCH   8   9
HETATM    9  C   UNL     1      -9.673  11.777  68.310  1.00  0.00    -0.199 C  
BRANCH   9  10
HETATM   10  C   UNL     1      -8.175  12.051  68.222  1.00  0.00    -0.161 C  
HETATM   11  C   UNL     1      -5.939  11.701  68.483  1.00  0.00    -0.049 C  
HETATM   12  N   UNL     1      -7.703  12.913  67.350  1.00  0.00    -0.168 NA 
HETATM   13  C   UNL     1      -6.232  12.909  67.586  1.00  0.00    -0.157 C  
HETATM   14  N   UNL     1      -7.248  11.442  69.035  1.00  0.00    -0.117 NA 
ENDBRANCH   9  10
ENDBRANCH   8   9
BRANCH   8  15
HETATM   15  C   UNL     1     -10.737  11.414  66.165  1.00  0.00    -0.267 A  
HETATM   16  C   UNL     1     -11.713  12.421  66.312  1.00  0.00    -0.457 A  
HETATM   17  C   UNL     1     -10.350  11.094  64.847  1.00  0.00    -0.375 A  
HETATM   18  C   UNL     1     -12.245  13.077  65.198  1.00  0.00    -0.459 A  
HETATM   19  C   UNL     1     -10.861  11.784  63.739  1.00  0.00    -0.490 A  
HETATM   20  O   UNL     1     -13.212  14.033  65.325  1.00  0.00    -0.782 OA 
HETATM   21  C   UNL     1     -11.806  12.784  63.917  1.00  0.00    -0.541 A  
HETATM   22  H   UNL     1     -13.574  14.479  64.568  1.00  0.00     0.000 HD 
ENDBRANCH   8  15
ENDBRANCH   5   8
TORSDOF 4
ENDMDL
MODEL       86
REMARK 921   NORMALIZED FREE ENERGY PREDICTED BY IDOCK:   -5.21 KCAL/MOL
REMARK 922        TOTAL FREE ENERGY PREDICTED BY IDOCK:   -7.18 KCAL/MOL
REMARK 923 INTER-LIGAND FREE ENERGY PREDICTED BY IDOCK:   -6.31 KCAL/MOL
REMARK 924 INTRA-LIGAND FREE ENERGY PREDICTED BY IDOCK:   -0.87 KCAL/MOL
REMARK 927      BINDING AFFINITY PREDICTED BY RF-SCORE:    0.00 PKD
ROOT
HETATM    1  C   UNL     1      -6.926  11.297  68.280  1.00  0.00    -0.071 C  
HETATM    2  C   UNL     1      -7.733  12.557  68.220  1.00  0.00    -0.141 A  
HETATM    3  C   UNL     1      -7.237  13.753  68.734  1.00  0.00    -0.106 A  
HETATM    4  C   UNL     1      -8.053  14.889  68.830  1.00  0.00    -0.162 A  
HETATM    5  C   UNL     1      -9.401  14.868  68.435  1.00  0.00    -0.197 A  
HETATM    6  C   UNL     1      -9.825  13.700  67.772  1.00  0.00    -0.232 A  
HETATM    7  C   UNL     1      -9.018  12.558  67.680  1.00  0.00    -0.185 A  
ENDROOT
BRANCH   5   8
HETATM    8  N   UNL     1     -10.335  15.907  68.709  1.00  0.00    -0.219 NA 
BRANCH   8   9
HETATM    9  C   UNL     1     -11.772  15.544  68.896  1.00  0.00    -0.370 C  
BRANCH   9  10
HETATM   10  C   UNL     1     -12.110  15.277  70.360  1.00  0.00    -0.348 C  
HETATM   11  C   UNL     1     -12.574  15.731  72.543  1.00  0.00    -0.450 C  
HETATM   12  N   UNL     1     -12.651  14.136  70.722  1.00  0.00    -0.344 NA 
HETATM   13  C   UNL     1     -12.809  14.256  72.200  1.00  0.00    -0.344 C  
HETATM   14  N   UNL     1     -11.867  16.181  71.367  1.00  0.00    -0.451 NA 
ENDBRANCH   9  10
ENDBRANCH   8   9
BRANCH   8  15
HETATM   15  C   UNL     1     -10.202  17.273  68.256  1.00  0.00    -0.348 A  
HETATM   16  C   UNL     1     -10.524  17.661  66.940  1.00  0.00    -0.290 A  
HETATM   17  C   UNL     1      -9.784  18.294  69.135  1.00  0.00    -0.123 A  
HETATM   18  C   UNL     1     -10.451  19.001  66.546  1.00  0.00    -0.443 A  
HETATM   19  C   UNL     1      -9.751  19.638  68.742  1.00  0.00    -0.488 A  
HETATM   20  O   UNL     1     -10.733  19.387  65.266  1.00  0.00    -0.432 OA 
HETATM   21  C   UNL     1     -10.094  19.993  67.445  1.00  0.00    -0.568 A  
HETATM   22  H   UNL     1     -10.683  20.298  64.999  1.00  0.00     0.000 HD 
ENDBRANCH   8  15
ENDBRANCH   5   8
TORSDOF 4
ENDMDL
MODEL       87
REMARK 921   NORMALIZED FREE ENERGY PREDICTED BY IDOCK:   -5.20 KCAL/MOL
REMARK 922        TOTAL FREE ENERGY PREDICTED BY IDOCK:   -7.16 KCAL/MOL
REMARK 923 INTER-LIGAND FREE ENERGY PREDICTED BY IDOCK:   -6.94 KCAL/MOL
REMARK 924 INTRA-LIGAND FREE ENERGY PREDICTED BY IDOCK:   -0.23 KCAL/MOL
REMARK 927      BINDING AFFINITY PREDICTED BY RF-SCORE:    0.00 PKD
ROOT
HETATM    1  C   UNL     1     -13.464   9.545  71.820  1.00  0.00    -0.480 C  
HETATM    2  C   UNL     1     -12.747  10.712  71.213  1.00  0.00    -0.537 A  
HETATM    3  C   UNL     1     -12.981  12.010  71.661  1.00  0.00    -0.439 A  
HETATM    4  C   UNL     1     -12.439  13.113  70.986  1.00  0.00    -0.406 A  
HETATM    5  C   UNL     1     -11.662  12.963  69.825  1.00  0.00    -0.281 A  
HETATM    6  C   UNL     1     -11.309  11.640  69.494  1.00  0.00    -0.328 A  
HETATM    7  C   UNL     1     -11.853  10.532  70.159  1.00  0.00    -0.404 A  
ENDROOT
BRANCH   5   8
HETATM    8  N   UNL     1     -11.272  14.035  68.974  1.00  0.00    -0.265 NA 
BRANCH   8   9
HETATM    9  C   UNL     1     -12.257  14.545  67.973  1.00  0.00    -0.092 C  
BRANCH   9  10
HETATM   10  C   UNL     1     -12.041  13.932  66.593  1.00  0.00    -0.448 C  
HETATM   11  C   UNL     1     -12.294  12.476  64.860  1.00  0.00    -0.470 C  
HETATM   12  N   UNL     1     -11.544  14.651  65.613  1.00  0.00    -0.345 NA 
HETATM   13  C   UNL     1     -11.475  13.708  64.461  1.00  0.00    -0.379 C  
HETATM   14  N   UNL     1     -12.334  12.621  66.296  1.00  0.00    -0.501 NA 
ENDBRANCH   9  10
ENDBRANCH   8   9
BRANCH   8  15
HETATM   15  C   UNL     1      -9.917  14.293  68.545  1.00  0.00    -0.235 A  
HETATM   16  C   UNL     1      -9.119  13.299  67.944  1.00  0.00    -0.203 A  
HETATM   17  C   UNL     1      -9.347  15.578  68.665  1.00  0.00    -0.201 A  
HETATM   18  C   UNL     1      -7.834  13.592  67.475  1.00  0.00    -0.178 A  
HETATM   19  C   UNL     1      -8.075  15.871  68.157  1.00  0.00    -0.145 A  
HETATM   20  O   UNL     1      -7.039  12.631  66.918  1.00  0.00    -0.372 OA 
HETATM   21  C   UNL     1      -7.319  14.876  67.554  1.00  0.00    -0.229 A  
HETATM   22  H   UNL     1      -6.166  12.830  66.600  1.00  0.00     0.000 HD 
ENDBRANCH   8  15
ENDBRANCH   5   8
TORSDOF 4
ENDMDL
MODEL       88
REMARK 921   NORMALIZED FREE ENERGY PREDICTED BY IDOCK:   -5.20 KCAL/MOL
REMARK 922        TOTAL FREE ENERGY PREDICTED BY IDOCK:   -7.16 KCAL/MOL
REMARK 923 INTER-LIGAND FREE ENERGY PREDICTED BY IDOCK:   -7.24 KCAL/MOL
REMARK 924 INTRA-LIGAND FREE ENERGY PREDICTED BY IDOCK:    0.08 KCAL/MOL
REMARK 927      BINDING AFFINITY PREDICTED BY RF-SCORE:    0.00 PKD
ROOT
HETATM    1  C   UNL     1     -10.295   9.530  66.709  1.00  0.00    -0.298 C  
HETATM    2  C   UNL     1     -10.895  10.798  67.234  1.00  0.00    -0.344 A  
HETATM    3  C   UNL     1     -11.231  11.841  66.375  1.00  0.00    -0.382 A  
HETATM    4  C   UNL     1     -11.635  13.086  66.878  1.00  0.00    -0.419 A  
HETATM    5  C   UNL     1     -11.696  13.343  68.258  1.00  0.00    -0.356 A  
HETATM    6  C   UNL     1     -11.510  12.226  69.095  1.00  0.00    -0.352 A  
HETATM    7  C   UNL     1     -11.098  10.981  68.601  1.00  0.00    -0.294 A  
ENDROOT
BRANCH   5   8
HETATM    8  N   UNL     1     -11.880  14.634  68.829  1.00  0.00    -0.321 NA 
BRANCH   8   9
HETATM    9  C   UNL     1     -11.147  15.790  68.229  1.00  0.00    -0.342 C  
BRANCH   9  10
HETATM   10  C   UNL     1      -9.644  15.536  68.148  1.00  0.00    -0.199 C  
HETATM   11  C   UNL     1      -7.607  14.685  68.708  1.00  0.00    -0.138 C  
HETATM   12  N   UNL     1      -8.991  15.746  67.028  1.00  0.00    -0.211 NA 
HETATM   13  C   UNL     1      -7.578  15.406  67.356  1.00  0.00    -0.203 C  
HETATM   14  N   UNL     1      -8.895  15.097  69.215  1.00  0.00    -0.224 NA 
ENDBRANCH   9  10
ENDBRANCH   8   9
BRANCH   8  15
HETATM   15  C   UNL     1     -12.190  14.883  70.218  1.00  0.00    -0.335 A  
HETATM   16  C   UNL     1     -12.832  13.923  71.026  1.00  0.00    -0.394 A  
HETATM   17  C   UNL     1     -11.815  16.091  70.843  1.00  0.00    -0.409 A  
HETATM   18  C   UNL     1     -13.059  14.162  72.385  1.00  0.00    -0.434 A  
HETATM   19  C   UNL     1     -12.013  16.305  72.213  1.00  0.00    -0.605 A  
HETATM   20  O   UNL     1     -13.707  13.253  73.173  1.00  0.00    -0.442 OA 
HETATM   21  C   UNL     1     -12.630  15.333  72.988  1.00  0.00    -0.539 A  
HETATM   22  H   UNL     1     -13.862  13.416  74.096  1.00  0.00     0.000 HD 
ENDBRANCH   8  15
ENDBRANCH   5   8
TORSDOF 4
ENDMDL
MODEL       89
REMARK 921   NORMALIZED FREE ENERGY PREDICTED BY IDOCK:   -5.20 KCAL/MOL
REMARK 922        TOTAL FREE ENERGY PREDICTED BY IDOCK:   -7.16 KCAL/MOL
REMARK 923 INTER-LIGAND FREE ENERGY PREDICTED BY IDOCK:   -6.75 KCAL/MOL
REMARK 924 INTRA-LIGAND FREE ENERGY PREDICTED BY IDOCK:   -0.41 KCAL/MOL
REMARK 927      BINDING AFFINITY PREDICTED BY RF-SCORE:    0.00 PKD
ROOT
HETATM    1  C   UNL     1      -6.919  18.216  66.348  1.00  0.00    -0.270 C  
HETATM    2  C   UNL     1      -7.988  17.170  66.425  1.00  0.00    -0.346 A  
HETATM    3  C   UNL     1      -7.701  15.882  66.869  1.00  0.00    -0.268 A  
HETATM    4  C   UNL     1      -8.659  14.861  66.783  1.00  0.00    -0.256 A  
HETATM    5  C   UNL     1      -9.932  15.084  66.231  1.00  0.00    -0.281 A  
HETATM    6  C   UNL     1     -10.246  16.426  65.944  1.00  0.00    -0.379 A  
HETATM    7  C   UNL     1      -9.292  17.450  66.019  1.00  0.00    -0.101 A  
ENDROOT
BRANCH   5   8
HETATM    8  N   UNL     1     -10.861  14.054  65.912  1.00  0.00    -0.285 NA 
BRANCH   8   9
HETATM    9  C   UNL     1     -12.205  14.079  66.564  1.00  0.00    -0.451 C  
BRANCH   9  10
HETATM   10  C   UNL     1     -12.105  14.176  68.083  1.00  0.00    -0.262 C  
HETATM   11  C   UNL     1     -12.225  15.108  70.158  1.00  0.00    -0.352 C  
HETATM   12  N   UNL     1     -12.107  13.091  68.823  1.00  0.00    -0.244 NA 
HETATM   13  C   UNL     1     -11.979  13.596  70.220  1.00  0.00    -0.327 C  
HETATM   14  N   UNL     1     -11.995  15.370  68.757  1.00  0.00    -0.302 NA 
ENDBRANCH   9  10
ENDBRANCH   8   9
BRANCH   8  15
HETATM   15  C   UNL     1     -10.499  12.709  65.527  1.00  0.00    -0.281 A  
HETATM   16  C   UNL     1     -10.587  12.261  64.194  1.00  0.00    -0.408 A  
HETATM   17  C   UNL     1      -9.989  11.793  66.471  1.00  0.00    -0.229 A  
HETATM   18  C   UNL     1     -10.166  10.977  63.835  1.00  0.00    -0.364 A  
HETATM   19  C   UNL     1      -9.533  10.523  66.096  1.00  0.00    -0.222 A  
HETATM   20  O   UNL     1     -10.274  10.519  62.553  1.00  0.00    -0.749 OA 
HETATM   21  C   UNL     1      -9.615  10.117  64.772  1.00  0.00    -0.378 A  
HETATM   22  H   UNL     1      -9.987   9.646  62.310  1.00  0.00     0.000 HD 
ENDBRANCH   8  15
ENDBRANCH   5   8
TORSDOF 4
ENDMDL
MODEL       90
REMARK 921   NORMALIZED FREE ENERGY PREDICTED BY IDOCK:   -5.18 KCAL/MOL
REMARK 922        TOTAL FREE ENERGY PREDICTED BY IDOCK:   -7.14 KCAL/MOL
REMARK 923 INTER-LIGAND FREE ENERGY PREDICTED BY IDOCK:   -6.38 KCAL/MOL
REMARK 924 INTRA-LIGAND FREE ENERGY PREDICTED BY IDOCK:   -0.75 KCAL/MOL
REMARK 927      BINDING AFFINITY PREDICTED BY RF-SCORE:    0.00 PKD
ROOT
HETATM    1  C   UNL     1      -8.594   5.577  65.421  1.00  0.00    -0.151 C  
HETATM    2  C   UNL     1      -9.221   6.135  66.662  1.00  0.00    -0.155 A  
HETATM    3  C   UNL     1      -8.524   7.016  67.485  1.00  0.00    -0.122 A  
HETATM    4  C   UNL     1      -9.045   7.405  68.727  1.00  0.00    -0.131 A  
HETATM    5  C   UNL     1     -10.271   6.912  69.204  1.00  0.00    -0.187 A  
HETATM    6  C   UNL     1     -11.024   6.157  68.285  1.00  0.00    -0.397 A  
HETATM    7  C   UNL     1     -10.507   5.757  67.045  1.00  0.00    -0.342 A  
ENDROOT
BRANCH   5   8
HETATM    8  N   UNL     1     -10.746   7.089  70.535  1.00  0.00    -0.231 NA 
BRANCH   8   9
HETATM    9  C   UNL     1     -10.970   5.877  71.379  1.00  0.00    -0.263 C  
BRANCH   9  10
HETATM   10  C   UNL     1      -9.896   5.718  72.451  1.00  0.00    -0.163 C  
HETATM   11  C   UNL     1      -8.926   5.016  74.388  1.00  0.00    -0.111 C  
HETATM   12  N   UNL     1      -8.632   5.932  72.167  1.00  0.00    -0.129 NA 
HETATM   13  C   UNL     1      -7.918   5.694  73.453  1.00  0.00    -0.110 C  
HETATM   14  N   UNL     1     -10.174   5.361  73.750  1.00  0.00    -0.203 NA 
ENDBRANCH   9  10
ENDBRANCH   8   9
BRANCH   8  15
HETATM   15  C   UNL     1     -11.580   8.185  70.971  1.00  0.00    -0.279 A  
HETATM   16  C   UNL     1     -12.580   8.022  71.951  1.00  0.00    -0.359 A  
HETATM   17  C   UNL     1     -11.394   9.488  70.465  1.00  0.00    -0.343 A  
HETATM   18  C   UNL     1     -13.328   9.113  72.405  1.00  0.00    -0.463 A  
HETATM   19  C   UNL     1     -12.121  10.581  70.954  1.00  0.00    -0.487 A  
HETATM   20  O   UNL     1     -14.320   8.965  73.332  1.00  0.00    -1.192 OA 
HETATM   21  C   UNL     1     -13.086  10.393  71.933  1.00  0.00    -0.563 A  
HETATM   22  H   UNL     1     -14.828   9.706  73.641  1.00  0.00     0.000 HD 
ENDBRANCH   8  15
ENDBRANCH   5   8
TORSDOF 4
ENDMDL
MODEL       91
REMARK 921   NORMALIZED FREE ENERGY PREDICTED BY IDOCK:   -5.16 KCAL/MOL
REMARK 922        TOTAL FREE ENERGY PREDICTED BY IDOCK:   -7.11 KCAL/MOL
REMARK 923 INTER-LIGAND FREE ENERGY PREDICTED BY IDOCK:   -6.90 KCAL/MOL
REMARK 924 INTRA-LIGAND FREE ENERGY PREDICTED BY IDOCK:   -0.21 KCAL/MOL
REMARK 927      BINDING AFFINITY PREDICTED BY RF-SCORE:    0.00 PKD
ROOT
HETATM    1  C   UNL     1      -9.909  10.915  62.978  1.00  0.00    -0.358 C  
HETATM    2  C   UNL     1     -10.481  11.099  64.350  1.00  0.00    -0.418 A  
HETATM    3  C   UNL     1     -11.441  12.076  64.602  1.00  0.00    -0.371 A  
HETATM    4  C   UNL     1     -11.852  12.361  65.912  1.00  0.00    -0.467 A  
HETATM    5  C   UNL     1     -11.304  11.695  67.021  1.00  0.00    -0.305 A  
HETATM    6  C   UNL     1     -10.462  10.606  66.725  1.00  0.00    -0.303 A  
HETATM    7  C   UNL     1     -10.040  10.321  65.419  1.00  0.00    -0.354 A  
ENDROOT
BRANCH   5   8
HETATM    8  N   UNL     1     -11.510  12.085  68.375  1.00  0.00    -0.276 NA 
BRANCH   8   9
HETATM    9  C   UNL     1     -11.134  13.472  68.783  1.00  0.00    -0.264 C  
BRANCH   9  10
HETATM   10  C   UNL     1      -9.866  13.952  68.083  1.00  0.00    -0.240 C  
HETATM   11  C   UNL     1      -8.476  15.355  66.950  1.00  0.00    -0.252 C  
HETATM   12  N   UNL     1      -8.711  13.376  68.325  1.00  0.00    -0.179 NA 
HETATM   13  C   UNL     1      -7.746  14.106  67.454  1.00  0.00    -0.169 C  
HETATM   14  N   UNL     1      -9.853  14.982  67.171  1.00  0.00    -0.231 NA 
ENDBRANCH   9  10
ENDBRANCH   8   9
BRANCH   8  15
HETATM   15  C   UNL     1     -11.472  11.185  69.504  1.00  0.00    -0.303 A  
HETATM   16  C   UNL     1     -12.589  10.981  70.339  1.00  0.00    -0.349 A  
HETATM   17  C   UNL     1     -10.317  10.428  69.794  1.00  0.00    -0.252 A  
HETATM   18  C   UNL     1     -12.548  10.053  71.385  1.00  0.00    -0.415 A  
HETATM   19  C   UNL     1     -10.298   9.473  70.819  1.00  0.00    -0.377 A  
HETATM   20  O   UNL     1     -13.613   9.867  72.220  1.00  0.00    -0.552 OA 
HETATM   21  C   UNL     1     -11.420   9.280  71.612  1.00  0.00    -0.468 A  
HETATM   22  H   UNL     1     -13.584   9.236  72.930  1.00  0.00     0.000 HD 
ENDBRANCH   8  15
ENDBRANCH   5   8
TORSDOF 4
ENDMDL
MODEL       92
REMARK 921   NORMALIZED FREE ENERGY PREDICTED BY IDOCK:   -5.15 KCAL/MOL
REMARK 922        TOTAL FREE ENERGY PREDICTED BY IDOCK:   -7.11 KCAL/MOL
REMARK 923 INTER-LIGAND FREE ENERGY PREDICTED BY IDOCK:   -6.80 KCAL/MOL
REMARK 924 INTRA-LIGAND FREE ENERGY PREDICTED BY IDOCK:   -0.31 KCAL/MOL
REMARK 927      BINDING AFFINITY PREDICTED BY RF-SCORE:    0.00 PKD
ROOT
HETATM    1  C   UNL     1     -13.673  14.704  72.418  1.00  0.00    -0.575 C  
HETATM    2  C   UNL     1     -12.977  14.138  71.218  1.00  0.00    -0.426 A  
HETATM    3  C   UNL     1     -12.582  12.804  71.181  1.00  0.00    -0.365 A  
HETATM    4  C   UNL     1     -11.787  12.318  70.133  1.00  0.00    -0.352 A  
HETATM    5  C   UNL     1     -11.338  13.152  69.096  1.00  0.00    -0.281 A  
HETATM    6  C   UNL     1     -11.886  14.448  69.074  1.00  0.00    -0.358 A  
HETATM    7  C   UNL     1     -12.675  14.944  70.121  1.00  0.00    -0.262 A  
ENDROOT
BRANCH   5   8
HETATM    8  N   UNL     1     -10.356  12.780  68.133  1.00  0.00    -0.232 NA 
BRANCH   8   9
HETATM    9  C   UNL     1     -10.190  13.633  66.918  1.00  0.00    -0.261 C  
BRANCH   9  10
HETATM   10  C   UNL     1     -10.967  13.087  65.724  1.00  0.00    -0.277 C  
HETATM   11  C   UNL     1     -12.765  12.562  64.429  1.00  0.00    -0.358 C  
HETATM   12  N   UNL     1     -10.373  12.907  64.567  1.00  0.00    -0.363 NA 
HETATM   13  C   UNL     1     -11.441  12.359  63.684  1.00  0.00    -0.489 C  
HETATM   14  N   UNL     1     -12.298  12.746  65.782  1.00  0.00    -0.594 NA 
ENDBRANCH   9  10
ENDBRANCH   8   9
BRANCH   8  15
HETATM   15  C   UNL     1      -9.929  11.425  67.876  1.00  0.00    -0.177 A  
HETATM   16  C   UNL     1     -10.838  10.348  67.828  1.00  0.00    -0.351 A  
HETATM   17  C   UNL     1      -8.576  11.125  67.612  1.00  0.00    -0.126 A  
HETATM   18  C   UNL     1     -10.409   9.056  67.510  1.00  0.00    -0.264 A  
HETATM   19  C   UNL     1      -8.162   9.834  67.256  1.00  0.00    -0.117 A  
HETATM   20  O   UNL     1     -11.273   7.999  67.488  1.00  0.00    -0.417 OA 
HETATM   21  C   UNL     1      -9.083   8.798  67.198  1.00  0.00    -0.155 A  
HETATM   22  H   UNL     1     -10.981   7.121  67.272  1.00  0.00     0.000 HD 
ENDBRANCH   8  15
ENDBRANCH   5   8
TORSDOF 4
ENDMDL
MODEL       93
REMARK 921   NORMALIZED FREE ENERGY PREDICTED BY IDOCK:   -5.15 KCAL/MOL
REMARK 922        TOTAL FREE ENERGY PREDICTED BY IDOCK:   -7.10 KCAL/MOL
REMARK 923 INTER-LIGAND FREE ENERGY PREDICTED BY IDOCK:   -6.28 KCAL/MOL
REMARK 924 INTRA-LIGAND FREE ENERGY PREDICTED BY IDOCK:   -0.82 KCAL/MOL
REMARK 927      BINDING AFFINITY PREDICTED BY RF-SCORE:    0.00 PKD
ROOT
HETATM    1  C   UNL     1     -13.503   9.073  72.588  1.00  0.00    -0.400 C  
HETATM    2  C   UNL     1     -12.715   9.974  71.687  1.00  0.00    -0.535 A  
HETATM    3  C   UNL     1     -12.980  11.339  71.627  1.00  0.00    -0.537 A  
HETATM    4  C   UNL     1     -12.359  12.151  70.667  1.00  0.00    -0.385 A  
HETATM    5  C   UNL     1     -11.468  11.625  69.717  1.00  0.00    -0.264 A  
HETATM    6  C   UNL     1     -11.097  10.280  69.906  1.00  0.00    -0.362 A  
HETATM    7  C   UNL     1     -11.718   9.460  70.858  1.00  0.00    -0.378 A  
ENDROOT
BRANCH   5   8
HETATM    8  N   UNL     1     -10.981  12.343  68.587  1.00  0.00    -0.237 NA 
BRANCH   8   9
HETATM    9  C   UNL     1     -11.875  13.352  67.944  1.00  0.00    -0.357 C  
BRANCH   9  10
HETATM   10  C   UNL     1     -11.338  14.773  68.094  1.00  0.00    -0.307 C  
HETATM   11  C   UNL     1     -10.361  16.741  67.495  1.00  0.00    -0.301 C  
HETATM   12  N   UNL     1     -11.751  15.542  69.074  1.00  0.00    -0.367 NA 
HETATM   13  C   UNL     1     -10.997  16.814  68.888  1.00  0.00    -0.259 C  
HETATM   14  N   UNL     1     -10.405  15.320  67.244  1.00  0.00    -0.260 NA 
ENDBRANCH   9  10
ENDBRANCH   8   9
BRANCH   8  15
HETATM   15  C   UNL     1     -10.013  11.833  67.644  1.00  0.00    -0.194 A  
HETATM   16  C   UNL     1      -8.624  11.944  67.860  1.00  0.00    -0.162 A  
HETATM   17  C   UNL     1     -10.421  11.152  66.478  1.00  0.00    -0.305 A  
HETATM   18  C   UNL     1      -7.709  11.381  66.966  1.00  0.00    -0.154 A  
HETATM   19  C   UNL     1      -9.497  10.558  65.608  1.00  0.00    -0.259 A  
HETATM   20  O   UNL     1      -6.361  11.507  67.147  1.00  0.00    -0.096 OA 
HETATM   21  C   UNL     1      -8.136  10.668  65.857  1.00  0.00    -0.159 A  
HETATM   22  H   UNL     1      -5.738  11.125  66.539  1.00  0.00     0.000 HD 
ENDBRANCH   8  15
ENDBRANCH   5   8
TORSDOF 4
ENDMDL
MODEL       94
REMARK 921   NORMALIZED FREE ENERGY PREDICTED BY IDOCK:   -5.15 KCAL/MOL
REMARK 922        TOTAL FREE ENERGY PREDICTED BY IDOCK:   -7.10 KCAL/MOL
REMARK 923 INTER-LIGAND FREE ENERGY PREDICTED BY IDOCK:   -6.49 KCAL/MOL
REMARK 924 INTRA-LIGAND FREE ENERGY PREDICTED BY IDOCK:   -0.61 KCAL/MOL
REMARK 927      BINDING AFFINITY PREDICTED BY RF-SCORE:    0.00 PKD
ROOT
HETATM    1  C   UNL     1     -12.394  11.917  63.807  1.00  0.00    -0.541 C  
HETATM    2  C   UNL     1     -12.209  12.621  65.116  1.00  0.00    -0.539 A  
HETATM    3  C   UNL     1     -12.824  13.846  65.365  1.00  0.00    -0.466 A  
HETATM    4  C   UNL     1     -12.520  14.583  66.518  1.00  0.00    -0.036 A  
HETATM    5  C   UNL     1     -11.574  14.135  67.455  1.00  0.00    -0.367 A  
HETATM    6  C   UNL     1     -11.094  12.826  67.260  1.00  0.00    -0.314 A  
HETATM    7  C   UNL     1     -11.387  12.086  66.106  1.00  0.00    -0.407 A  
ENDROOT
BRANCH   5   8
HETATM    8  N   UNL     1     -11.059  14.928  68.520  1.00  0.00    -0.255 NA 
BRANCH   8   9
HETATM    9  C   UNL     1     -11.974  15.898  69.194  1.00  0.00    -0.255 C  
BRANCH   9  10
HETATM   10  C   UNL     1     -12.351  15.447  70.602  1.00  0.00    -0.403 C  
HETATM   11  C   UNL     1     -12.773  15.607  72.834  1.00  0.00    -0.453 C  
HETATM   12  N   UNL     1     -13.025  14.336  70.789  1.00  0.00    -0.334 NA 
HETATM   13  C   UNL     1     -13.178  14.242  72.269  1.00  0.00    -0.417 C  
HETATM   14  N   UNL     1     -12.010  16.149  71.735  1.00  0.00    -0.500 NA 
ENDBRANCH   9  10
ENDBRANCH   8   9
BRANCH   8  15
HETATM   15  C   UNL     1      -9.682  15.346  68.642  1.00  0.00    -0.210 A  
HETATM   16  C   UNL     1      -8.622  14.420  68.728  1.00  0.00    -0.125 A  
HETATM   17  C   UNL     1      -9.331  16.712  68.632  1.00  0.00    -0.247 A  
HETATM   18  C   UNL     1      -7.292  14.849  68.777  1.00  0.00    -0.127 A  
HETATM   19  C   UNL     1      -7.994  17.131  68.642  1.00  0.00    -0.265 A  
HETATM   20  O   UNL     1      -6.257  13.965  68.890  1.00  0.00    -0.082 OA 
HETATM   21  C   UNL     1      -6.971  16.196  68.707  1.00  0.00    -0.148 A  
HETATM   22  H   UNL     1      -5.354  14.257  68.924  1.00  0.00     0.000 HD 
ENDBRANCH   8  15
ENDBRANCH   5   8
TORSDOF 4
ENDMDL
MODEL       95
REMARK 921   NORMALIZED FREE ENERGY PREDICTED BY IDOCK:   -5.11 KCAL/MOL
REMARK 922        TOTAL FREE ENERGY PREDICTED BY IDOCK:   -7.06 KCAL/MOL
REMARK 923 INTER-LIGAND FREE ENERGY PREDICTED BY IDOCK:   -6.30 KCAL/MOL
REMARK 924 INTRA-LIGAND FREE ENERGY PREDICTED BY IDOCK:   -0.76 KCAL/MOL
REMARK 927      BINDING AFFINITY PREDICTED BY RF-SCORE:    0.00 PKD
ROOT
HETATM    1  C   UNL     1     -12.107   8.774  72.196  1.00  0.00    -0.441 C  
HETATM    2  C   UNL     1     -11.640   9.652  71.075  1.00  0.00    -0.436 A  
HETATM    3  C   UNL     1     -12.373  10.771  70.687  1.00  0.00    -0.465 A  
HETATM    4  C   UNL     1     -12.028  11.494  69.536  1.00  0.00    -0.402 A  
HETATM    5  C   UNL     1     -10.952  11.113  68.717  1.00  0.00    -0.219 A  
HETATM    6  C   UNL     1     -10.135  10.083  69.222  1.00  0.00    -0.226 A  
HETATM    7  C   UNL     1     -10.478   9.351  70.367  1.00  0.00    -0.311 A  
ENDROOT
BRANCH   5   8
HETATM    8  N   UNL     1     -10.687  11.662  67.430  1.00  0.00    -0.222 NA 
BRANCH   8   9
HETATM    9  C   UNL     1     -11.784  12.390  66.726  1.00  0.00    -0.362 C  
BRANCH   9  10
HETATM   10  C   UNL     1     -11.308  13.712  66.131  1.00  0.00    -0.312 C  
HETATM   11  C   UNL     1      -9.958  15.514  65.787  1.00  0.00    -0.359 C  
HETATM   12  N   UNL     1     -11.777  14.134  64.980  1.00  0.00    -0.357 NA 
HETATM   13  C   UNL     1     -11.092  15.440  64.759  1.00  0.00    -0.403 C  
HETATM   14  N   UNL     1     -10.391  14.530  66.750  1.00  0.00    -0.266 NA 
ENDBRANCH   9  10
ENDBRANCH   8   9
BRANCH   8  15
HETATM   15  C   UNL     1      -9.734  11.124  66.487  1.00  0.00    -0.198 A  
HETATM   16  C   UNL     1      -8.358  11.419  66.560  1.00  0.00    -0.164 A  
HETATM   17  C   UNL     1     -10.139  10.232  65.472  1.00  0.00    -0.351 A  
HETATM   18  C   UNL     1      -7.447  10.831  65.677  1.00  0.00    -0.034 A  
HETATM   19  C   UNL     1      -9.214   9.618  64.617  1.00  0.00    -0.293 A  
HETATM   20  O   UNL     1      -6.115  11.130  65.717  1.00  0.00    -0.340 OA 
HETATM   21  C   UNL     1      -7.863   9.913  64.725  1.00  0.00    -0.141 A  
HETATM   22  H   UNL     1      -5.496  10.730  65.117  1.00  0.00     0.000 HD 
ENDBRANCH   8  15
ENDBRANCH   5   8
TORSDOF 4
ENDMDL
MODEL       96
REMARK 921   NORMALIZED FREE ENERGY PREDICTED BY IDOCK:   -5.10 KCAL/MOL
REMARK 922        TOTAL FREE ENERGY PREDICTED BY IDOCK:   -7.05 KCAL/MOL
REMARK 923 INTER-LIGAND FREE ENERGY PREDICTED BY IDOCK:   -6.64 KCAL/MOL
REMARK 924 INTRA-LIGAND FREE ENERGY PREDICTED BY IDOCK:   -0.41 KCAL/MOL
REMARK 927      BINDING AFFINITY PREDICTED BY RF-SCORE:    0.00 PKD
ROOT
HETATM    1  C   UNL     1      -9.710  20.098  66.729  1.00  0.00    -0.577 C  
HETATM    2  C   UNL     1      -9.860  18.619  66.915  1.00  0.00    -0.356 A  
HETATM    3  C   UNL     1      -9.244  17.721  66.047  1.00  0.00    -0.045 A  
HETATM    4  C   UNL     1      -9.519  16.347  66.119  1.00  0.00    -0.363 A  
HETATM    5  C   UNL     1     -10.435  15.823  67.046  1.00  0.00    -0.309 A  
HETATM    6  C   UNL     1     -10.913  16.730  68.011  1.00  0.00    -0.296 A  
HETATM    7  C   UNL     1     -10.650  18.104  67.941  1.00  0.00    -0.389 A  
ENDROOT
BRANCH   5   8
HETATM    8  N   UNL     1     -10.922  14.485  67.025  1.00  0.00    -0.305 NA 
BRANCH   8   9
HETATM    9  C   UNL     1     -10.540  13.569  68.142  1.00  0.00    -0.245 C  
BRANCH   9  10
HETATM   10  C   UNL     1      -9.027  13.411  68.261  1.00  0.00    -0.176 C  
HETATM   11  C   UNL     1      -6.929  12.677  67.764  1.00  0.00    -0.125 C  
HETATM   12  N   UNL     1      -8.312  14.301  68.910  1.00  0.00    -0.094 NA 
HETATM   13  C   UNL     1      -6.914  13.791  68.816  1.00  0.00    -0.109 C  
HETATM   14  N   UNL     1      -8.335  12.351  67.724  1.00  0.00    -0.153 NA 
ENDBRANCH   9  10
ENDBRANCH   8   9
BRANCH   8  15
HETATM   15  C   UNL     1     -11.227  13.740  65.826  1.00  0.00    -0.297 A  
HETATM   16  C   UNL     1     -10.220  13.282  64.951  1.00  0.00    -0.313 A  
HETATM   17  C   UNL     1     -12.555  13.392  65.501  1.00  0.00    -0.520 A  
HETATM   18  C   UNL     1     -10.536  12.504  63.833  1.00  0.00    -0.440 A  
HETATM   19  C   UNL     1     -12.858  12.580  64.401  1.00  0.00    -0.366 A  
HETATM   20  O   UNL     1      -9.574  12.079  62.961  1.00  0.00    -0.563 OA 
HETATM   21  C   UNL     1     -11.844  12.128  63.568  1.00  0.00    -0.597 A  
HETATM   22  H   UNL     1      -9.789  11.550  62.202  1.00  0.00     0.000 HD 
ENDBRANCH   8  15
ENDBRANCH   5   8
TORSDOF 4
ENDMDL
MODEL       97
REMARK 921   NORMALIZED FREE ENERGY PREDICTED BY IDOCK:   -5.07 KCAL/MOL
REMARK 922        TOTAL FREE ENERGY PREDICTED BY IDOCK:   -7.00 KCAL/MOL
REMARK 923 INTER-LIGAND FREE ENERGY PREDICTED BY IDOCK:   -6.20 KCAL/MOL
REMARK 924 INTRA-LIGAND FREE ENERGY PREDICTED BY IDOCK:   -0.80 KCAL/MOL
REMARK 927      BINDING AFFINITY PREDICTED BY RF-SCORE:    0.00 PKD
ROOT
HETATM    1  C   UNL     1      -9.075   2.209  71.042  1.00  0.00    -0.164 C  
HETATM    2  C   UNL     1      -9.500   3.643  71.127  1.00  0.00    -0.234 A  
HETATM    3  C   UNL     1      -9.807   4.369  69.979  1.00  0.00    -0.294 A  
HETATM    4  C   UNL     1     -10.041   5.750  70.042  1.00  0.00    -0.279 A  
HETATM    5  C   UNL     1      -9.957   6.462  71.251  1.00  0.00    -0.182 A  
HETATM    6  C   UNL     1      -9.808   5.677  72.411  1.00  0.00    -0.189 A  
HETATM    7  C   UNL     1      -9.565   4.298  72.355  1.00  0.00    -0.194 A  
ENDROOT
BRANCH   5   8
HETATM    8  N   UNL     1      -9.962   7.882  71.350  1.00  0.00    -0.170 NA 
BRANCH   8   9
HETATM    9  C   UNL     1      -8.821   8.554  72.041  1.00  0.00    -0.216 C  
BRANCH   9  10
HETATM   10  C   UNL     1      -7.757   9.033  71.058  1.00  0.00    -0.125 C  
HETATM   11  C   UNL     1      -6.834   9.636  69.066  1.00  0.00    -0.050 C  
HETATM   12  N   UNL     1      -6.705   9.694  71.482  1.00  0.00    -0.312 NA 
HETATM   13  C   UNL     1      -5.915   9.963  70.248  1.00  0.00    -0.064 C  
HETATM   14  N   UNL     1      -7.822   8.800  69.704  1.00  0.00    -0.088 NA 
ENDBRANCH   9  10
ENDBRANCH   8   9
BRANCH   8  15
HETATM   15  C   UNL     1     -11.154   8.697  71.408  1.00  0.00    -0.274 A  
HETATM   16  C   UNL     1     -12.227   8.397  72.273  1.00  0.00    -0.449 A  
HETATM   17  C   UNL     1     -11.275   9.867  70.629  1.00  0.00    -0.416 A  
HETATM   18  C   UNL     1     -13.339   9.239  72.360  1.00  0.00    -0.449 A  
HETATM   19  C   UNL     1     -12.376  10.724  70.752  1.00  0.00    -0.480 A  
HETATM   20  O   UNL     1     -14.398   8.945  73.171  1.00  0.00    -1.143 OA 
HETATM   21  C   UNL     1     -13.408  10.413  71.626  1.00  0.00    -0.432 A  
HETATM   22  H   UNL     1     -15.154   9.518  73.230  1.00  0.00     0.000 HD 
ENDBRANCH   8  15
ENDBRANCH   5   8
TORSDOF 4
ENDMDL
MODEL       98
REMARK 921   NORMALIZED FREE ENERGY PREDICTED BY IDOCK:   -5.06 KCAL/MOL
REMARK 922        TOTAL FREE ENERGY PREDICTED BY IDOCK:   -6.99 KCAL/MOL
REMARK 923 INTER-LIGAND FREE ENERGY PREDICTED BY IDOCK:   -6.20 KCAL/MOL
REMARK 924 INTRA-LIGAND FREE ENERGY PREDICTED BY IDOCK:   -0.79 KCAL/MOL
REMARK 927      BINDING AFFINITY PREDICTED BY RF-SCORE:    0.00 PKD
ROOT
HETATM    1  C   UNL     1      -6.939   9.539  63.788  1.00  0.00    -0.105 C  
HETATM    2  C   UNL     1      -7.791   9.791  64.994  1.00  0.00    -0.128 A  
HETATM    3  C   UNL     1      -9.038   9.187  65.131  1.00  0.00    -0.234 A  
HETATM    4  C   UNL     1      -9.903   9.550  66.173  1.00  0.00    -0.343 A  
HETATM    5  C   UNL     1      -9.564  10.545  67.105  1.00  0.00    -0.168 A  
HETATM    6  C   UNL     1      -8.239  11.017  67.038  1.00  0.00    -0.138 A  
HETATM    7  C   UNL     1      -7.371  10.666  65.996  1.00  0.00    -0.132 A  
ENDROOT
BRANCH   5   8
HETATM    8  N   UNL     1     -10.474  11.113  68.042  1.00  0.00    -0.181 NA 
BRANCH   8   9
HETATM    9  C   UNL     1     -10.631  12.598  68.073  1.00  0.00    -0.221 C  
BRANCH   9  10
HETATM   10  C   UNL     1     -11.372  13.122  66.846  1.00  0.00    -0.318 C  
HETATM   11  C   UNL     1     -11.788  14.409  65.013  1.00  0.00    -0.400 C  
HETATM   12  N   UNL     1     -12.278  12.384  66.247  1.00  0.00    -0.583 NA 
HETATM   13  C   UNL     1     -12.770  13.238  65.129  1.00  0.00    -0.402 C  
HETATM   14  N   UNL     1     -11.155  14.371  66.310  1.00  0.00    -0.325 NA 
ENDBRANCH   9  10
ENDBRANCH   8   9
BRANCH   8  15
HETATM   15  C   UNL     1     -10.806  10.531  69.321  1.00  0.00    -0.243 A  
HETATM   16  C   UNL     1     -12.027  10.799  69.973  1.00  0.00    -0.427 A  
HETATM   17  C   UNL     1      -9.934   9.623  69.957  1.00  0.00    -0.288 A  
HETATM   18  C   UNL     1     -12.354  10.169  71.178  1.00  0.00    -0.385 A  
HETATM   19  C   UNL     1     -10.286   8.969  71.145  1.00  0.00    -0.362 A  
HETATM   20  O   UNL     1     -13.520  10.441  71.835  1.00  0.00    -0.372 OA 
HETATM   21  C   UNL     1     -11.504   9.238  71.753  1.00  0.00    -0.448 A  
HETATM   22  H   UNL     1     -13.742  10.014  72.654  1.00  0.00     0.000 HD 
ENDBRANCH   8  15
ENDBRANCH   5   8
TORSDOF 4
ENDMDL
MODEL       99
REMARK 921   NORMALIZED FREE ENERGY PREDICTED BY IDOCK:   -5.05 KCAL/MOL
REMARK 922        TOTAL FREE ENERGY PREDICTED BY IDOCK:   -6.98 KCAL/MOL
REMARK 923 INTER-LIGAND FREE ENERGY PREDICTED BY IDOCK:   -6.52 KCAL/MOL
REMARK 924 INTRA-LIGAND FREE ENERGY PREDICTED BY IDOCK:   -0.45 KCAL/MOL
REMARK 927      BINDING AFFINITY PREDICTED BY RF-SCORE:    0.00 PKD
ROOT
HETATM    1  C   UNL     1     -10.373  11.935  63.586  1.00  0.00    -0.477 C  
HETATM    2  C   UNL     1     -10.408  12.944  64.693  1.00  0.00    -0.366 A  
HETATM    3  C   UNL     1     -10.954  14.209  64.494  1.00  0.00    -0.340 A  
HETATM    4  C   UNL     1     -10.837  15.206  65.474  1.00  0.00    -0.373 A  
HETATM    5  C   UNL     1     -10.150  14.983  66.679  1.00  0.00    -0.261 A  
HETATM    6  C   UNL     1      -9.754  13.653  66.919  1.00  0.00    -0.262 A  
HETATM    7  C   UNL     1      -9.861  12.653  65.942  1.00  0.00    -0.251 A  
ENDROOT
BRANCH   5   8
HETATM    8  N   UNL     1      -9.804  16.004  67.609  1.00  0.00    -0.233 NA 
BRANCH   8   9
HETATM    9  C   UNL     1     -10.850  16.996  68.000  1.00  0.00    -0.330 C  
BRANCH   9  10
HETATM   10  C   UNL     1     -10.611  18.363  67.366  1.00  0.00    -0.413 C  
HETATM   11  C   UNL     1      -9.908  20.523  67.192  1.00  0.00    -0.426 C  
HETATM   12  N   UNL     1     -10.624  18.505  66.060  1.00  0.00    -0.438 NA 
HETATM   13  C   UNL     1     -10.372  19.958  65.845  1.00  0.00    -0.464 C  
HETATM   14  N   UNL     1     -10.384  19.505  68.099  1.00  0.00    -0.437 NA 
ENDBRANCH   9  10
ENDBRANCH   8   9
BRANCH   8  15
HETATM   15  C   UNL     1      -8.480  16.561  67.764  1.00  0.00    -0.175 A  
HETATM   16  C   UNL     1      -7.572  16.646  66.689  1.00  0.00    -0.314 A  
HETATM   17  C   UNL     1      -8.053  17.092  68.999  1.00  0.00    -0.137 A  
HETATM   18  C   UNL     1      -6.321  17.251  66.849  1.00  0.00    -0.190 A  
HETATM   19  C   UNL     1      -6.814  17.730  69.139  1.00  0.00    -0.227 A  
HETATM   20  O   UNL     1      -5.420  17.314  65.824  1.00  0.00    -0.245 OA 
HETATM   21  C   UNL     1      -5.948  17.816  68.058  1.00  0.00    -0.163 A  
HETATM   22  H   UNL     1      -4.570  17.725  65.933  1.00  0.00     0.000 HD 
ENDBRANCH   8  15
ENDBRANCH   5   8
TORSDOF 4
ENDMDL
MODEL      100
REMARK 921   NORMALIZED FREE ENERGY PREDICTED BY IDOCK:   -5.04 KCAL/MOL
REMARK 922        TOTAL FREE ENERGY PREDICTED BY IDOCK:   -6.97 KCAL/MOL
REMARK 923 INTER-LIGAND FREE ENERGY PREDICTED BY IDOCK:   -6.59 KCAL/MOL
REMARK 924 INTRA-LIGAND FREE ENERGY PREDICTED BY IDOCK:   -0.38 KCAL/MOL
REMARK 927      BINDING AFFINITY PREDICTED BY RF-SCORE:    0.00 PKD
ROOT
HETATM    1  C   UNL     1      -7.947  18.224  66.476  1.00  0.00    -0.294 C  
HETATM    2  C   UNL     1      -8.804  16.998  66.398  1.00  0.00    -0.313 A  
HETATM    3  C   UNL     1      -8.358  15.778  66.900  1.00  0.00    -0.283 A  
HETATM    4  C   UNL     1      -9.085  14.600  66.679  1.00  0.00    -0.285 A  
HETATM    5  C   UNL     1     -10.274  14.592  65.929  1.00  0.00    -0.326 A  
HETATM    6  C   UNL     1     -10.781  15.858  65.577  1.00  0.00    -0.386 A  
HETATM    7  C   UNL     1     -10.056  17.039  65.787  1.00  0.00    -0.219 A  
ENDROOT
BRANCH   5   8
HETATM    8  N   UNL     1     -10.935  13.413  65.483  1.00  0.00    -0.281 NA 
BRANCH   8   9
HETATM    9  C   UNL     1     -12.202  13.006  66.161  1.00  0.00    -0.360 C  
BRANCH   9  10
HETATM   10  C   UNL     1     -12.022  12.851  67.668  1.00  0.00    -0.289 C  
HETATM   11  C   UNL     1     -12.114  13.393  69.878  1.00  0.00    -0.322 C  
HETATM   12  N   UNL     1     -11.869  11.662  68.203  1.00  0.00    -0.546 NA 
HETATM   13  C   UNL     1     -11.711  11.930  69.661  1.00  0.00    -0.343 C  
HETATM   14  N   UNL     1     -11.995  13.916  68.538  1.00  0.00    -0.365 NA 
ENDBRANCH   9  10
ENDBRANCH   8   9
BRANCH   8  15
HETATM   15  C   UNL     1     -10.273  12.272  64.895  1.00  0.00    -0.281 A  
HETATM   16  C   UNL     1      -9.483  11.388  65.658  1.00  0.00    -0.253 A  
HETATM   17  C   UNL     1     -10.430  11.963  63.527  1.00  0.00    -0.505 A  
HETATM   18  C   UNL     1      -8.909  10.252  65.079  1.00  0.00    -0.187 A  
HETATM   19  C   UNL     1      -9.882  10.803  62.965  1.00  0.00    -0.344 A  
HETATM   20  O   UNL     1      -8.118   9.403  65.799  1.00  0.00    -0.111 OA 
HETATM   21  C   UNL     1      -9.125   9.940  63.746  1.00  0.00    -0.293 A  
HETATM   22  H   UNL     1      -7.727   8.631  65.406  1.00  0.00     0.000 HD 
ENDBRANCH   8  15
ENDBRANCH   5   8
TORSDOF 4
ENDMDL
MODEL      101
REMARK 921   NORMALIZED FREE ENERGY PREDICTED BY IDOCK:   -5.04 KCAL/MOL
REMARK 922        TOTAL FREE ENERGY PREDICTED BY IDOCK:   -6.96 KCAL/MOL
REMARK 923 INTER-LIGAND FREE ENERGY PREDICTED BY IDOCK:   -6.26 KCAL/MOL
REMARK 924 INTRA-LIGAND FREE ENERGY PREDICTED BY IDOCK:   -0.70 KCAL/MOL
REMARK 927      BINDING AFFINITY PREDICTED BY RF-SCORE:    0.00 PKD
ROOT
HETATM    1  C   UNL     1     -13.414   9.590  72.218  1.00  0.00    -0.521 C  
HETATM    2  C   UNL     1     -12.442  10.184  71.245  1.00  0.00    -0.510 A  
HETATM    3  C   UNL     1     -12.682  11.424  70.658  1.00  0.00    -0.282 A  
HETATM    4  C   UNL     1     -11.861  11.903  69.627  1.00  0.00    -0.406 A  
HETATM    5  C   UNL     1     -10.783  11.152  69.129  1.00  0.00    -0.221 A  
HETATM    6  C   UNL     1     -10.469   9.983  69.849  1.00  0.00    -0.317 A  
HETATM    7  C   UNL     1     -11.289   9.494  70.875  1.00  0.00    -0.410 A  
ENDROOT
BRANCH   5   8
HETATM    8  N   UNL     1     -10.055  11.475  67.948  1.00  0.00    -0.184 NA 
BRANCH   8   9
HETATM    9  C   UNL     1     -10.325  10.691  66.706  1.00  0.00    -0.245 C  
BRANCH   9  10
HETATM   10  C   UNL     1     -11.029  11.527  65.641  1.00  0.00    -0.236 C  
HETATM   11  C   UNL     1     -12.185  13.270  64.740  1.00  0.00    -0.417 C  
HETATM   12  N   UNL     1     -10.771  11.340  64.367  1.00  0.00    -0.348 NA 
HETATM   13  C   UNL     1     -11.652  12.317  63.665  1.00  0.00    -0.496 C  
HETATM   14  N   UNL     1     -11.963  12.493  65.937  1.00  0.00    -0.544 NA 
ENDBRANCH   9  10
ENDBRANCH   8   9
BRANCH   8  15
HETATM   15  C   UNL     1      -8.720  12.027  67.931  1.00  0.00    -0.170 A  
HETATM   16  C   UNL     1      -8.443  13.304  67.400  1.00  0.00    -0.206 A  
HETATM   17  C   UNL     1      -7.634  11.326  68.495  1.00  0.00    -0.123 A  
HETATM   18  C   UNL     1      -7.155  13.844  67.457  1.00  0.00    -0.158 A  
HETATM   19  C   UNL     1      -6.356  11.891  68.582  1.00  0.00    -0.058 A  
HETATM   20  O   UNL     1      -6.866  15.066  66.920  1.00  0.00    -0.293 OA 
HETATM   21  C   UNL     1      -6.117  13.158  68.068  1.00  0.00    -0.118 A  
HETATM   22  H   UNL     1      -5.990  15.433  66.958  1.00  0.00     0.000 HD 
ENDBRANCH   8  15
ENDBRANCH   5   8
TORSDOF 4
ENDMDL
MODEL      102
REMARK 921   NORMALIZED FREE ENERGY PREDICTED BY IDOCK:   -5.02 KCAL/MOL
REMARK 922        TOTAL FREE ENERGY PREDICTED BY IDOCK:   -6.94 KCAL/MOL
REMARK 923 INTER-LIGAND FREE ENERGY PREDICTED BY IDOCK:   -6.24 KCAL/MOL
REMARK 924 INTRA-LIGAND FREE ENERGY PREDICTED BY IDOCK:   -0.70 KCAL/MOL
REMARK 927      BINDING AFFINITY PREDICTED BY RF-SCORE:    0.00 PKD
ROOT
HETATM    1  C   UNL     1      -9.209   4.758  66.559  1.00  0.00    -0.133 C  
HETATM    2  C   UNL     1      -9.411   6.210  66.865  1.00  0.00    -0.151 A  
HETATM    3  C   UNL     1     -10.690   6.759  66.928  1.00  0.00    -0.394 A  
HETATM    4  C   UNL     1     -10.873   8.144  67.048  1.00  0.00    -0.086 A  
HETATM    5  C   UNL     1      -9.786   9.035  67.088  1.00  0.00    -0.203 A  
HETATM    6  C   UNL     1      -8.514   8.440  67.188  1.00  0.00    -0.123 A  
HETATM    7  C   UNL     1      -8.322   7.058  67.060  1.00  0.00    -0.121 A  
ENDROOT
BRANCH   5   8
HETATM    8  N   UNL     1      -9.902  10.450  66.985  1.00  0.00    -0.184 NA 
BRANCH   8   9
HETATM    9  C   UNL     1      -9.879  11.261  68.239  1.00  0.00    -0.197 C  
BRANCH   9  10
HETATM   10  C   UNL     1     -10.596  10.559  69.389  1.00  0.00    -0.240 C  
HETATM   11  C   UNL     1     -10.866   9.533  71.404  1.00  0.00    -0.312 C  
HETATM   12  N   UNL     1     -11.897  10.669  69.532  1.00  0.00    -0.287 NA 
HETATM   13  C   UNL     1     -12.208   9.845  70.734  1.00  0.00    -0.291 C  
HETATM   14  N   UNL     1      -9.948   9.779  70.318  1.00  0.00    -0.261 NA 
ENDBRANCH   9  10
ENDBRANCH   8   9
BRANCH   8  15
HETATM   15  C   UNL     1     -10.613  11.142  65.935  1.00  0.00    -0.234 A  
HETATM   16  C   UNL     1     -11.518  12.189  66.205  1.00  0.00    -0.433 A  
HETATM   17  C   UNL     1     -10.393  10.829  64.577  1.00  0.00    -0.401 A  
HETATM   18  C   UNL     1     -12.141  12.889  65.167  1.00  0.00    -0.445 A  
HETATM   19  C   UNL     1     -10.993  11.561  63.544  1.00  0.00    -0.453 A  
HETATM   20  O   UNL     1     -13.042  13.886  65.415  1.00  0.00    -0.752 OA 
HETATM   21  C   UNL     1     -11.864  12.599  63.841  1.00  0.00    -0.544 A  
HETATM   22  H   UNL     1     -13.466  14.361  64.710  1.00  0.00     0.000 HD 
ENDBRANCH   8  15
ENDBRANCH   5   8
TORSDOF 4
ENDMDL
MODEL      103
REMARK 921   NORMALIZED FREE ENERGY PREDICTED BY IDOCK:   -5.01 KCAL/MOL
REMARK 922        TOTAL FREE ENERGY PREDICTED BY IDOCK:   -6.93 KCAL/MOL
REMARK 923 INTER-LIGAND FREE ENERGY PREDICTED BY IDOCK:   -6.41 KCAL/MOL
REMARK 924 INTRA-LIGAND FREE ENERGY PREDICTED BY IDOCK:   -0.52 KCAL/MOL
REMARK 927      BINDING AFFINITY PREDICTED BY RF-SCORE:    0.00 PKD
ROOT
HETATM    1  C   UNL     1      -9.437   7.217  74.074  1.00  0.00    -0.303 C  
HETATM    2  C   UNL     1      -9.939   7.937  72.860  1.00  0.00    -0.360 A  
HETATM    3  C   UNL     1      -9.056   8.475  71.928  1.00  0.00    -0.314 A  
HETATM    4  C   UNL     1      -9.518   9.290  70.885  1.00  0.00    -0.330 A  
HETATM    5  C   UNL     1     -10.878   9.616  70.747  1.00  0.00    -0.330 A  
HETATM    6  C   UNL     1     -11.761   8.928  71.602  1.00  0.00    -0.411 A  
HETATM    7  C   UNL     1     -11.306   8.118  72.652  1.00  0.00    -0.450 A  
ENDROOT
BRANCH   5   8
HETATM    8  N   UNL     1     -11.381  10.605  69.855  1.00  0.00    -0.290 NA 
BRANCH   8   9
HETATM    9  C   UNL     1     -12.782  11.088  70.042  1.00  0.00    -0.093 C  
BRANCH   9  10
HETATM   10  C   UNL     1     -12.846  12.339  70.913  1.00  0.00    -0.092 C  
HETATM   11  C   UNL     1     -13.131  13.603  72.787  1.00  0.00    -0.268 C  
HETATM   12  N   UNL     1     -12.243  13.445  70.540  1.00  0.00    -0.365 NA 
HETATM   13  C   UNL     1     -12.549  14.418  71.627  1.00  0.00    -0.353 C  
HETATM   14  N   UNL     1     -13.531  12.394  72.105  1.00  0.00    -0.492 NA 
ENDBRANCH   9  10
ENDBRANCH   8   9
BRANCH   8  15
HETATM   15  C   UNL     1     -10.957  10.768  68.484  1.00  0.00    -0.243 A  
HETATM   16  C   UNL     1     -10.632   9.668  67.664  1.00  0.00    -0.334 A  
HETATM   17  C   UNL     1     -10.897  12.044  67.886  1.00  0.00    -0.254 A  
HETATM   18  C   UNL     1     -10.291   9.847  66.320  1.00  0.00    -0.163 A  
HETATM   19  C   UNL     1     -10.591  12.210  66.529  1.00  0.00    -0.269 A  
HETATM   20  O   UNL     1      -9.945   8.793  65.522  1.00  0.00    -0.387 OA 
HETATM   21  C   UNL     1     -10.294  11.107  65.742  1.00  0.00    -0.316 A  
HETATM   22  H   UNL     1      -9.712   8.915  64.609  1.00  0.00     0.000 HD 
ENDBRANCH   8  15
ENDBRANCH   5   8
TORSDOF 4
ENDMDL
MODEL      104
REMARK 921   NORMALIZED FREE ENERGY PREDICTED BY IDOCK:   -5.00 KCAL/MOL
REMARK 922        TOTAL FREE ENERGY PREDICTED BY IDOCK:   -6.92 KCAL/MOL
REMARK 923 INTER-LIGAND FREE ENERGY PREDICTED BY IDOCK:   -6.20 KCAL/MOL
REMARK 924 INTRA-LIGAND FREE ENERGY PREDICTED BY IDOCK:   -0.72 KCAL/MOL
REMARK 927      BINDING AFFINITY PREDICTED BY RF-SCORE:    0.00 PKD
ROOT
HETATM    1  C   UNL     1      -8.544   9.243  64.269  1.00  0.00    -0.214 C  
HETATM    2  C   UNL     1      -9.254  10.324  65.025  1.00  0.00    -0.259 A  
HETATM    3  C   UNL     1      -8.780  10.768  66.257  1.00  0.00    -0.175 A  
HETATM    4  C   UNL     1      -9.532  11.656  67.039  1.00  0.00    -0.191 A  
HETATM    5  C   UNL     1     -10.795  12.117  66.631  1.00  0.00    -0.268 A  
HETATM    6  C   UNL     1     -11.171  11.781  65.316  1.00  0.00    -0.315 A  
HETATM    7  C   UNL     1     -10.430  10.888  64.531  1.00  0.00    -0.393 A  
ENDROOT
BRANCH   5   8
HETATM    8  N   UNL     1     -11.698  12.833  67.467  1.00  0.00    -0.358 NA 
BRANCH   8   9
HETATM    9  C   UNL     1     -11.862  14.301  67.246  1.00  0.00    -0.413 C  
BRANCH   9  10
HETATM   10  C   UNL     1     -10.529  14.993  66.977  1.00  0.00    -0.278 C  
HETATM   11  C   UNL     1      -8.989  16.274  65.892  1.00  0.00    -0.186 C  
HETATM   12  N   UNL     1      -9.679  15.210  67.954  1.00  0.00    -0.207 NA 
HETATM   13  C   UNL     1      -8.520  15.876  67.296  1.00  0.00    -0.184 C  
HETATM   14  N   UNL     1     -10.136  15.412  65.727  1.00  0.00    -0.334 NA 
ENDBRANCH   9  10
ENDBRANCH   8   9
BRANCH   8  15
HETATM   15  C   UNL     1     -12.016  12.476  68.830  1.00  0.00    -0.236 A  
HETATM   16  C   UNL     1     -12.263  13.448  69.822  1.00  0.00    -0.307 A  
HETATM   17  C   UNL     1     -12.141  11.127  69.220  1.00  0.00    -0.377 A  
HETATM   18  C   UNL     1     -12.635  13.076  71.117  1.00  0.00    -0.297 A  
HETATM   19  C   UNL     1     -12.552  10.765  70.509  1.00  0.00    -0.421 A  
HETATM   20  O   UNL     1     -12.849  14.006  72.095  1.00  0.00    -0.340 OA 
HETATM   21  C   UNL     1     -12.807  11.744  71.459  1.00  0.00    -0.450 A  
HETATM   22  H   UNL     1     -13.101  13.753  72.976  1.00  0.00     0.000 HD 
ENDBRANCH   8  15
ENDBRANCH   5   8
TORSDOF 4
ENDMDL
MODEL      105
REMARK 921   NORMALIZED FREE ENERGY PREDICTED BY IDOCK:   -4.97 KCAL/MOL
REMARK 922        TOTAL FREE ENERGY PREDICTED BY IDOCK:   -6.89 KCAL/MOL
REMARK 923 INTER-LIGAND FREE ENERGY PREDICTED BY IDOCK:   -6.46 KCAL/MOL
REMARK 924 INTRA-LIGAND FREE ENERGY PREDICTED BY IDOCK:   -0.43 KCAL/MOL
REMARK 927      BINDING AFFINITY PREDICTED BY RF-SCORE:    0.00 PKD
ROOT
HETATM    1  C   UNL     1     -11.669   9.107  71.848  1.00  0.00    -0.436 C  
HETATM    2  C   UNL     1     -10.997   9.885  70.759  1.00  0.00    -0.407 A  
HETATM    3  C   UNL     1     -11.669  10.898  70.080  1.00  0.00    -0.433 A  
HETATM    4  C   UNL     1     -11.101  11.511  68.955  1.00  0.00    -0.288 A  
HETATM    5  C   UNL     1      -9.848  11.120  68.452  1.00  0.00    -0.185 A  
HETATM    6  C   UNL     1      -9.125  10.214  69.252  1.00  0.00    -0.208 A  
HETATM    7  C   UNL     1      -9.690   9.591  70.373  1.00  0.00    -0.328 A  
ENDROOT
BRANCH   5   8
HETATM    8  N   UNL     1      -9.318  11.539  67.199  1.00  0.00    -0.170 NA 
BRANCH   8   9
HETATM    9  C   UNL     1      -8.112  12.419  67.193  1.00  0.00    -0.167 C  
BRANCH   9  10
HETATM   10  C   UNL     1      -8.321  13.685  68.019  1.00  0.00    -0.170 C  
HETATM   11  C   UNL     1      -9.388  15.513  68.858  1.00  0.00    -0.222 C  
HETATM   12  N   UNL     1      -7.569  13.930  69.067  1.00  0.00    -0.058 NA 
HETATM   13  C   UNL     1      -8.064  15.239  69.580  1.00  0.00    -0.196 C  
HETATM   14  N   UNL     1      -9.274  14.631  67.721  1.00  0.00    -0.192 NA 
ENDBRANCH   9  10
ENDBRANCH   8   9
BRANCH   8  15
HETATM   15  C   UNL     1     -10.098  11.723  65.997  1.00  0.00    -0.231 A  
HETATM   16  C   UNL     1     -11.216  12.582  65.952  1.00  0.00    -0.356 A  
HETATM   17  C   UNL     1      -9.743  11.082  64.792  1.00  0.00    -0.311 A  
HETATM   18  C   UNL     1     -11.913  12.795  64.759  1.00  0.00    -0.402 A  
HETATM   19  C   UNL     1     -10.424  11.332  63.593  1.00  0.00    -0.464 A  
HETATM   20  O   UNL     1     -13.015  13.601  64.707  1.00  0.00    -0.685 OA 
HETATM   21  C   UNL     1     -11.508  12.198  63.576  1.00  0.00    -0.544 A  
HETATM   22  H   UNL     1     -13.489  13.746  63.896  1.00  0.00     0.000 HD 
ENDBRANCH   8  15
ENDBRANCH   5   8
TORSDOF 4
ENDMDL
MODEL      106
REMARK 921   NORMALIZED FREE ENERGY PREDICTED BY IDOCK:   -4.97 KCAL/MOL
REMARK 922        TOTAL FREE ENERGY PREDICTED BY IDOCK:   -6.88 KCAL/MOL
REMARK 923 INTER-LIGAND FREE ENERGY PREDICTED BY IDOCK:   -6.78 KCAL/MOL
REMARK 924 INTRA-LIGAND FREE ENERGY PREDICTED BY IDOCK:   -0.10 KCAL/MOL
REMARK 927      BINDING AFFINITY PREDICTED BY RF-SCORE:    0.00 PKD
ROOT
HETATM    1  C   UNL     1     -13.110  13.018  72.095  1.00  0.00    -0.465 C  
HETATM    2  C   UNL     1     -12.613  13.642  70.827  1.00  0.00    -0.397 A  
HETATM    3  C   UNL     1     -12.013  12.870  69.835  1.00  0.00    -0.377 A  
HETATM    4  C   UNL     1     -11.400  13.472  68.727  1.00  0.00    -0.329 A  
HETATM    5  C   UNL     1     -11.343  14.868  68.579  1.00  0.00    -0.298 A  
HETATM    6  C   UNL     1     -12.097  15.611  69.508  1.00  0.00    -0.307 A  
HETATM    7  C   UNL     1     -12.705  15.018  70.623  1.00  0.00    -0.428 A  
ENDROOT
BRANCH   5   8
HETATM    8  N   UNL     1     -10.552  15.542  67.606  1.00  0.00    -0.283 NA 
BRANCH   8   9
HETATM    9  C   UNL     1      -9.314  14.874  67.105  1.00  0.00    -0.218 C  
BRANCH   9  10
HETATM   10  C   UNL     1      -8.061  15.383  67.812  1.00  0.00    -0.140 C  
HETATM   11  C   UNL     1      -6.392  15.474  69.358  1.00  0.00    -0.138 C  
HETATM   12  N   UNL     1      -7.202  16.148  67.179  1.00  0.00    -0.200 NA 
HETATM   13  C   UNL     1      -6.150  16.440  68.193  1.00  0.00    -0.119 C  
HETATM   14  N   UNL     1      -7.764  15.092  69.123  1.00  0.00    -0.180 NA 
ENDBRANCH   9  10
ENDBRANCH   8   9
BRANCH   8  15
HETATM   15  C   UNL     1     -10.452  16.978  67.480  1.00  0.00    -0.334 A  
HETATM   16  C   UNL     1     -10.417  17.829  68.603  1.00  0.00    -0.295 A  
HETATM   17  C   UNL     1     -10.334  17.592  66.216  1.00  0.00    -0.342 A  
HETATM   18  C   UNL     1     -10.250  19.210  68.457  1.00  0.00    -0.367 A  
HETATM   19  C   UNL     1     -10.129  18.971  66.081  1.00  0.00    -0.462 A  
HETATM   20  O   UNL     1     -10.244  20.049  69.535  1.00  0.00    -0.550 OA 
HETATM   21  C   UNL     1     -10.079  19.782  67.206  1.00  0.00    -0.549 A  
HETATM   22  H   UNL     1     -10.131  20.987  69.435  1.00  0.00     0.000 HD 
ENDBRANCH   8  15
ENDBRANCH   5   8
TORSDOF 4
ENDMDL
MODEL      107
REMARK 921   NORMALIZED FREE ENERGY PREDICTED BY IDOCK:   -4.97 KCAL/MOL
REMARK 922        TOTAL FREE ENERGY PREDICTED BY IDOCK:   -6.88 KCAL/MOL
REMARK 923 INTER-LIGAND FREE ENERGY PREDICTED BY IDOCK:   -6.13 KCAL/MOL
REMARK 924 INTRA-LIGAND FREE ENERGY PREDICTED BY IDOCK:   -0.75 KCAL/MOL
REMARK 927      BINDING AFFINITY PREDICTED BY RF-SCORE:    0.00 PKD
ROOT
HETATM    1  C   UNL     1     -10.940   7.890  72.785  1.00  0.00    -0.456 C  
HETATM    2  C   UNL     1     -10.671   8.878  71.691  1.00  0.00    -0.418 A  
HETATM    3  C   UNL     1     -11.677   9.716  71.217  1.00  0.00    -0.458 A  
HETATM    4  C   UNL     1     -11.471  10.519  70.086  1.00  0.00    -0.405 A  
HETATM    5  C   UNL     1     -10.261  10.497  69.372  1.00  0.00    -0.221 A  
HETATM    6  C   UNL     1      -9.214   9.768  69.968  1.00  0.00    -0.266 A  
HETATM    7  C   UNL     1      -9.413   8.957  71.094  1.00  0.00    -0.335 A  
ENDROOT
BRANCH   5   8
HETATM    8  N   UNL     1     -10.066  11.110  68.102  1.00  0.00    -0.173 NA 
BRANCH   8   9
HETATM    9  C   UNL     1      -8.679  11.183  67.551  1.00  0.00    -0.129 C  
BRANCH   9  10
HETATM   10  C   UNL     1      -8.466  10.200  66.404  1.00  0.00    -0.131 C  
HETATM   11  C   UNL     1      -8.311   8.195  65.336  1.00  0.00    -0.155 C  
HETATM   12  N   UNL     1      -8.579  10.594  65.157  1.00  0.00    -0.182 NA 
HETATM   13  C   UNL     1      -8.286   9.372  64.355  1.00  0.00    -0.167 C  
HETATM   14  N   UNL     1      -8.138   8.878  66.596  1.00  0.00    -0.106 NA 
ENDBRANCH   9  10
ENDBRANCH   8   9
BRANCH   8  15
HETATM   15  C   UNL     1     -10.893  12.165  67.563  1.00  0.00    -0.243 A  
HETATM   16  C   UNL     1     -10.962  13.442  68.157  1.00  0.00    -0.277 A  
HETATM   17  C   UNL     1     -11.636  11.975  66.379  1.00  0.00    -0.381 A  
HETATM   18  C   UNL     1     -11.717  14.466  67.577  1.00  0.00    -0.387 A  
HETATM   19  C   UNL     1     -12.358  13.018  65.785  1.00  0.00    -0.477 A  
HETATM   20  O   UNL     1     -11.817  15.699  68.157  1.00  0.00    -0.387 OA 
HETATM   21  C   UNL     1     -12.392  14.270  66.382  1.00  0.00    -0.378 A  
HETATM   22  H   UNL     1     -12.330  16.395  67.762  1.00  0.00     0.000 HD 
ENDBRANCH   8  15
ENDBRANCH   5   8
TORSDOF 4
ENDMDL
MODEL      108
REMARK 921   NORMALIZED FREE ENERGY PREDICTED BY IDOCK:   -4.96 KCAL/MOL
REMARK 922        TOTAL FREE ENERGY PREDICTED BY IDOCK:   -6.87 KCAL/MOL
REMARK 923 INTER-LIGAND FREE ENERGY PREDICTED BY IDOCK:   -6.02 KCAL/MOL
REMARK 924 INTRA-LIGAND FREE ENERGY PREDICTED BY IDOCK:   -0.85 KCAL/MOL
REMARK 927      BINDING AFFINITY PREDICTED BY RF-SCORE:    0.00 PKD
ROOT
HETATM    1  C   UNL     1     -13.484  13.611  72.382  1.00  0.00    -0.685 C  
HETATM    2  C   UNL     1     -12.770  13.272  71.110  1.00  0.00    -0.404 A  
HETATM    3  C   UNL     1     -12.483  11.951  70.778  1.00  0.00    -0.384 A  
HETATM    4  C   UNL     1     -11.672  11.646  69.675  1.00  0.00    -0.418 A  
HETATM    5  C   UNL     1     -11.099  12.650  68.876  1.00  0.00    -0.259 A  
HETATM    6  C   UNL     1     -11.539  13.962  69.137  1.00  0.00    -0.359 A  
HETATM    7  C   UNL     1     -12.343  14.276  70.241  1.00  0.00    -0.418 A  
ENDROOT
BRANCH   5   8
HETATM    8  N   UNL     1     -10.098  12.419  67.890  1.00  0.00    -0.203 NA 
BRANCH   8   9
HETATM    9  C   UNL     1     -10.284  11.285  66.936  1.00  0.00    -0.219 C  
BRANCH   9  10
HETATM   10  C   UNL     1     -10.595  11.769  65.523  1.00  0.00    -0.276 C  
HETATM   11  C   UNL     1     -10.679  11.746  63.248  1.00  0.00    -0.346 C  
HETATM   12  N   UNL     1     -11.522  12.677  65.317  1.00  0.00    -0.318 NA 
HETATM   13  C   UNL     1     -11.512  12.887  63.842  1.00  0.00    -0.446 C  
HETATM   14  N   UNL     1      -9.937  11.310  64.407  1.00  0.00    -0.267 NA 
ENDBRANCH   9  10
ENDBRANCH   8   9
BRANCH   8  15
HETATM   15  C   UNL     1      -8.698  12.735  68.052  1.00  0.00    -0.194 A  
HETATM   16  C   UNL     1      -8.117  13.884  67.477  1.00  0.00    -0.191 A  
HETATM   17  C   UNL     1      -7.854  11.925  68.839  1.00  0.00     0.015 A  
HETATM   18  C   UNL     1      -6.775  14.204  67.705  1.00  0.00    -0.171 A  
HETATM   19  C   UNL     1      -6.521  12.273  69.093  1.00  0.00    -0.100 A  
HETATM   20  O   UNL     1      -6.192  15.298  67.131  1.00  0.00    -0.293 OA 
HETATM   21  C   UNL     1      -5.982  13.421  68.529  1.00  0.00    -0.088 A  
HETATM   22  H   UNL     1      -5.280  15.515  67.285  1.00  0.00     0.000 HD 
ENDBRANCH   8  15
ENDBRANCH   5   8
TORSDOF 4
ENDMDL
MODEL      109
REMARK 921   NORMALIZED FREE ENERGY PREDICTED BY IDOCK:   -4.95 KCAL/MOL
REMARK 922        TOTAL FREE ENERGY PREDICTED BY IDOCK:   -6.86 KCAL/MOL
REMARK 923 INTER-LIGAND FREE ENERGY PREDICTED BY IDOCK:   -6.81 KCAL/MOL
REMARK 924 INTRA-LIGAND FREE ENERGY PREDICTED BY IDOCK:   -0.05 KCAL/MOL
REMARK 927      BINDING AFFINITY PREDICTED BY RF-SCORE:    0.00 PKD
ROOT
HETATM    1  C   UNL     1     -10.492  18.452  67.674  1.00  0.00    -0.445 C  
HETATM    2  C   UNL     1     -10.485  16.967  67.873  1.00  0.00    -0.354 A  
HETATM    3  C   UNL     1     -10.640  16.098  66.796  1.00  0.00    -0.277 A  
HETATM    4  C   UNL     1     -10.800  14.720  67.000  1.00  0.00    -0.315 A  
HETATM    5  C   UNL     1     -10.835  14.162  68.289  1.00  0.00    -0.247 A  
HETATM    6  C   UNL     1     -10.513  15.038  69.343  1.00  0.00    -0.254 A  
HETATM    7  C   UNL     1     -10.359  16.418  69.148  1.00  0.00    -0.289 A  
ENDROOT
BRANCH   5   8
HETATM    8  N   UNL     1     -11.214  12.819  68.573  1.00  0.00    -0.259 NA 
BRANCH   8   9
HETATM    9  C   UNL     1     -11.516  11.906  67.431  1.00  0.00    -0.323 C  
BRANCH   9  10
HETATM   10  C   UNL     1     -10.267  11.193  66.920  1.00  0.00    -0.222 C  
HETATM   11  C   UNL     1      -8.899  10.102  65.462  1.00  0.00    -0.169 C  
HETATM   12  N   UNL     1      -9.112  11.354  67.523  1.00  0.00    -0.155 NA 
HETATM   13  C   UNL     1      -8.169  10.498  66.750  1.00  0.00    -0.126 C  
HETATM   14  N   UNL     1     -10.272  10.348  65.834  1.00  0.00    -0.251 NA 
ENDBRANCH   9  10
ENDBRANCH   8   9
BRANCH   8  15
HETATM   15  C   UNL     1     -11.903  12.395  69.770  1.00  0.00    -0.317 A  
HETATM   16  C   UNL     1     -12.405  13.316  70.712  1.00  0.00    -0.425 A  
HETATM   17  C   UNL     1     -12.148  11.030  70.026  1.00  0.00    -0.441 A  
HETATM   18  C   UNL     1     -13.128  12.884  71.828  1.00  0.00    -0.360 A  
HETATM   19  C   UNL     1     -12.906  10.609  71.126  1.00  0.00    -0.518 A  
HETATM   20  O   UNL     1     -13.595  13.763  72.764  1.00  0.00    -0.666 OA 
HETATM   21  C   UNL     1     -13.404  11.540  72.026  1.00  0.00    -0.397 A  
HETATM   22  H   UNL     1     -14.086  13.468  73.522  1.00  0.00     0.000 HD 
ENDBRANCH   8  15
ENDBRANCH   5   8
TORSDOF 4
ENDMDL
MODEL      110
REMARK 921   NORMALIZED FREE ENERGY PREDICTED BY IDOCK:   -4.95 KCAL/MOL
REMARK 922        TOTAL FREE ENERGY PREDICTED BY IDOCK:   -6.85 KCAL/MOL
REMARK 923 INTER-LIGAND FREE ENERGY PREDICTED BY IDOCK:   -6.23 KCAL/MOL
REMARK 924 INTRA-LIGAND FREE ENERGY PREDICTED BY IDOCK:   -0.62 KCAL/MOL
REMARK 927      BINDING AFFINITY PREDICTED BY RF-SCORE:    0.00 PKD
ROOT
HETATM    1  C   UNL     1      -6.989   8.593  65.264  1.00  0.00    -0.075 C  
HETATM    2  C   UNL     1      -8.002   8.989  66.294  1.00  0.00    -0.103 A  
HETATM    3  C   UNL     1      -9.320   8.547  66.212  1.00  0.00    -0.287 A  
HETATM    4  C   UNL     1     -10.303   9.050  67.076  1.00  0.00    -0.339 A  
HETATM    5  C   UNL     1     -10.011  10.030  68.040  1.00  0.00    -0.150 A  
HETATM    6  C   UNL     1      -8.646  10.334  68.207  1.00  0.00    -0.122 A  
HETATM    7  C   UNL     1      -7.659   9.842  67.342  1.00  0.00    -0.091 A  
ENDROOT
BRANCH   5   8
HETATM    8  N   UNL     1     -10.993  10.738  68.789  1.00  0.00    -0.228 NA 
BRANCH   8   9
HETATM    9  C   UNL     1     -10.921  12.229  68.830  1.00  0.00    -0.236 C  
BRANCH   9  10
HETATM   10  C   UNL     1     -11.454  12.864  67.549  1.00  0.00    -0.335 C  
HETATM   11  C   UNL     1     -11.709  14.418  65.903  1.00  0.00    -0.369 C  
HETATM   12  N   UNL     1     -12.006  12.123  66.615  1.00  0.00    -0.629 NA 
HETATM   13  C   UNL     1     -12.402  13.095  65.558  1.00  0.00    -0.474 C  
HETATM   14  N   UNL     1     -11.404  14.216  67.300  1.00  0.00    -0.316 NA 
ENDBRANCH   9  10
ENDBRANCH   8   9
BRANCH   8  15
HETATM   15  C   UNL     1     -11.665  10.220  69.959  1.00  0.00    -0.254 A  
HETATM   16  C   UNL     1     -11.346   8.963  70.513  1.00  0.00    -0.268 A  
HETATM   17  C   UNL     1     -12.644  10.980  70.633  1.00  0.00    -0.427 A  
HETATM   18  C   UNL     1     -11.963   8.515  71.685  1.00  0.00    -0.316 A  
HETATM   19  C   UNL     1     -13.228  10.539  71.828  1.00  0.00    -0.522 A  
HETATM   20  O   UNL     1     -11.685   7.287  72.215  1.00  0.00    -0.275 OA 
HETATM   21  C   UNL     1     -12.880   9.305  72.359  1.00  0.00    -0.418 A  
HETATM   22  H   UNL     1     -12.105   6.982  73.012  1.00  0.00     0.000 HD 
ENDBRANCH   8  15
ENDBRANCH   5   8
TORSDOF 4
ENDMDL
MODEL      111
REMARK 921   NORMALIZED FREE ENERGY PREDICTED BY IDOCK:   -4.90 KCAL/MOL
REMARK 922        TOTAL FREE ENERGY PREDICTED BY IDOCK:   -6.79 KCAL/MOL
REMARK 923 INTER-LIGAND FREE ENERGY PREDICTED BY IDOCK:   -6.08 KCAL/MOL
REMARK 924 INTRA-LIGAND FREE ENERGY PREDICTED BY IDOCK:   -0.72 KCAL/MOL
REMARK 927      BINDING AFFINITY PREDICTED BY RF-SCORE:    0.00 PKD
ROOT
HETATM    1  C   UNL     1     -12.588   9.908  71.660  1.00  0.00    -0.519 C  
HETATM    2  C   UNL     1     -11.667  10.374  70.575  1.00  0.00    -0.434 A  
HETATM    3  C   UNL     1     -11.701  11.691  70.122  1.00  0.00    -0.381 A  
HETATM    4  C   UNL     1     -10.960  12.085  68.998  1.00  0.00    -0.260 A  
HETATM    5  C   UNL     1     -10.176  11.173  68.271  1.00  0.00    -0.182 A  
HETATM    6  C   UNL     1     -10.033   9.896  68.847  1.00  0.00    -0.188 A  
HETATM    7  C   UNL     1     -10.776   9.493  69.965  1.00  0.00    -0.278 A  
ENDROOT
BRANCH   5   8
HETATM    8  N   UNL     1      -9.584  11.452  67.007  1.00  0.00    -0.175 NA 
BRANCH   8   9
HETATM    9  C   UNL     1      -8.098  11.588  66.929  1.00  0.00    -0.164 C  
BRANCH   9  10
HETATM   10  C   UNL     1      -7.438  10.344  66.340  1.00  0.00    -0.120 C  
HETATM   11  C   UNL     1      -6.853   8.153  66.138  1.00  0.00    -0.058 C  
HETATM   12  N   UNL     1      -7.053  10.324  65.085  1.00  0.00    -0.136 NA 
HETATM   13  C   UNL     1      -6.455   8.970  64.905  1.00  0.00    -0.066 C  
HETATM   14  N   UNL     1      -7.199   9.202  67.068  1.00  0.00    -0.089 NA 
ENDBRANCH   9  10
ENDBRANCH   8   9
BRANCH   8  15
HETATM   15  C   UNL     1     -10.227  12.187  65.942  1.00  0.00    -0.244 A  
HETATM   16  C   UNL     1     -10.969  11.545  64.930  1.00  0.00    -0.319 A  
HETATM   17  C   UNL     1     -10.180  13.595  65.898  1.00  0.00    -0.318 A  
HETATM   18  C   UNL     1     -11.639  12.283  63.949  1.00  0.00    -0.444 A  
HETATM   19  C   UNL     1     -10.886  14.328  64.934  1.00  0.00    -0.429 A  
HETATM   20  O   UNL     1     -12.337  11.674  62.946  1.00  0.00    -0.923 OA 
HETATM   21  C   UNL     1     -11.624  13.669  63.961  1.00  0.00    -0.353 A  
HETATM   22  H   UNL     1     -12.792  12.176  62.279  1.00  0.00     0.000 HD 
ENDBRANCH   8  15
ENDBRANCH   5   8
TORSDOF 4
ENDMDL
MODEL      112
REMARK 921   NORMALIZED FREE ENERGY PREDICTED BY IDOCK:   -4.90 KCAL/MOL
REMARK 922        TOTAL FREE ENERGY PREDICTED BY IDOCK:   -6.79 KCAL/MOL
REMARK 923 INTER-LIGAND FREE ENERGY PREDICTED BY IDOCK:   -5.92 KCAL/MOL
REMARK 924 INTRA-LIGAND FREE ENERGY PREDICTED BY IDOCK:   -0.87 KCAL/MOL
REMARK 927      BINDING AFFINITY PREDICTED BY RF-SCORE:    0.00 PKD
ROOT
HETATM    1  C   UNL     1      -9.779   8.801  71.605  1.00  0.00    -0.366 C  
HETATM    2  C   UNL     1      -9.644   9.229  70.176  1.00  0.00    -0.254 A  
HETATM    3  C   UNL     1      -8.608  10.067  69.772  1.00  0.00    -0.192 A  
HETATM    4  C   UNL     1      -8.577  10.601  68.476  1.00  0.00    -0.137 A  
HETATM    5  C   UNL     1      -9.592  10.337  67.542  1.00  0.00    -0.156 A  
HETATM    6  C   UNL     1     -10.534   9.361  67.923  1.00  0.00    -0.296 A  
HETATM    7  C   UNL     1     -10.576   8.829  69.219  1.00  0.00    -0.210 A  
ENDROOT
BRANCH   5   8
HETATM    8  N   UNL     1      -9.738  11.016  66.299  1.00  0.00    -0.200 NA 
BRANCH   8   9
HETATM    9  C   UNL     1      -8.542  11.151  65.415  1.00  0.00    -0.009 C  
BRANCH   9  10
HETATM   10  C   UNL     1      -8.377   9.951  64.487  1.00  0.00    -0.166 C  
HETATM   11  C   UNL     1      -8.001   7.793  63.864  1.00  0.00    -0.103 C  
HETATM   12  N   UNL     1      -8.875   9.972  63.272  1.00  0.00    -0.214 NA 
HETATM   13  C   UNL     1      -8.495   8.651  62.694  1.00  0.00    -0.163 C  
HETATM   14  N   UNL     1      -7.703   8.807  64.847  1.00  0.00    -0.099 NA 
ENDBRANCH   9  10
ENDBRANCH   8   9
BRANCH   8  15
HETATM   15  C   UNL     1     -10.689  12.075  66.048  1.00  0.00    -0.279 A  
HETATM   16  C   UNL     1     -11.111  12.411  64.745  1.00  0.00    -0.345 A  
HETATM   17  C   UNL     1     -11.279  12.792  67.110  1.00  0.00    -0.336 A  
HETATM   18  C   UNL     1     -12.083  13.393  64.534  1.00  0.00    -0.409 A  
HETATM   19  C   UNL     1     -12.280  13.747  66.890  1.00  0.00    -0.408 A  
HETATM   20  O   UNL     1     -12.479  13.750  63.276  1.00  0.00    -1.065 OA 
HETATM   21  C   UNL     1     -12.688  14.043  65.598  1.00  0.00    -0.515 A  
HETATM   22  H   UNL     1     -13.139  14.417  63.132  1.00  0.00     0.000 HD 
ENDBRANCH   8  15
ENDBRANCH   5   8
TORSDOF 4
ENDMDL
MODEL      113
REMARK 921   NORMALIZED FREE ENERGY PREDICTED BY IDOCK:   -4.87 KCAL/MOL
REMARK 922        TOTAL FREE ENERGY PREDICTED BY IDOCK:   -6.76 KCAL/MOL
REMARK 923 INTER-LIGAND FREE ENERGY PREDICTED BY IDOCK:   -5.97 KCAL/MOL
REMARK 924 INTRA-LIGAND FREE ENERGY PREDICTED BY IDOCK:   -0.79 KCAL/MOL
REMARK 927      BINDING AFFINITY PREDICTED BY RF-SCORE:    0.00 PKD
ROOT
HETATM    1  C   UNL     1     -12.314  13.886  65.452  1.00  0.00    -0.494 C  
HETATM    2  C   UNL     1     -11.706  12.737  66.197  1.00  0.00    -0.458 A  
HETATM    3  C   UNL     1     -10.969  11.760  65.532  1.00  0.00    -0.344 A  
HETATM    4  C   UNL     1     -10.544  10.602  66.198  1.00  0.00    -0.211 A  
HETATM    5  C   UNL     1     -10.858  10.365  67.547  1.00  0.00    -0.301 A  
HETATM    6  C   UNL     1     -11.458  11.439  68.231  1.00  0.00    -0.369 A  
HETATM    7  C   UNL     1     -11.893  12.597  67.571  1.00  0.00    -0.396 A  
ENDROOT
BRANCH   5   8
HETATM    8  N   UNL     1     -10.652   9.124  68.214  1.00  0.00    -0.202 NA 
BRANCH   8   9
HETATM    9  C   UNL     1     -10.312   9.144  69.668  1.00  0.00    -0.219 C  
BRANCH   9  10
HETATM   10  C   UNL     1     -11.473   8.666  70.536  1.00  0.00    -0.188 C  
HETATM   11  C   UNL     1     -13.483   8.727  71.604  1.00  0.00    -0.369 C  
HETATM   12  N   UNL     1     -11.650   7.385  70.768  1.00  0.00    -0.294 NA 
HETATM   13  C   UNL     1     -12.851   7.332  71.649  1.00  0.00    -0.375 C  
HETATM   14  N   UNL     1     -12.376   9.520  71.125  1.00  0.00    -0.319 NA 
ENDBRANCH   9  10
ENDBRANCH   8   9
BRANCH   8  15
HETATM   15  C   UNL     1     -10.154   7.924  67.583  1.00  0.00    -0.203 A  
HETATM   16  C   UNL     1      -8.775   7.665  67.447  1.00  0.00    -0.124 A  
HETATM   17  C   UNL     1     -11.036   6.927  67.115  1.00  0.00    -0.427 A  
HETATM   18  C   UNL     1      -8.318   6.465  66.894  1.00  0.00    -0.110 A  
HETATM   19  C   UNL     1     -10.568   5.712  66.598  1.00  0.00    -0.361 A  
HETATM   20  O   UNL     1      -6.986   6.214  66.729  1.00  0.00    -0.067 OA 
HETATM   21  C   UNL     1      -9.205   5.477  66.494  1.00  0.00    -0.144 A  
HETATM   22  H   UNL     1      -6.676   5.398  66.352  1.00  0.00     0.000 HD 
ENDBRANCH   8  15
ENDBRANCH   5   8
TORSDOF 4
ENDMDL
MODEL      114
REMARK 921   NORMALIZED FREE ENERGY PREDICTED BY IDOCK:   -4.86 KCAL/MOL
REMARK 922        TOTAL FREE ENERGY PREDICTED BY IDOCK:   -6.75 KCAL/MOL
REMARK 923 INTER-LIGAND FREE ENERGY PREDICTED BY IDOCK:   -5.95 KCAL/MOL
REMARK 924 INTRA-LIGAND FREE ENERGY PREDICTED BY IDOCK:   -0.80 KCAL/MOL
REMARK 927      BINDING AFFINITY PREDICTED BY RF-SCORE:    0.00 PKD
ROOT
HETATM    1  C   UNL     1     -12.902  14.090  70.761  1.00  0.00    -0.355 C  
HETATM    2  C   UNL     1     -12.563  12.631  70.709  1.00  0.00    -0.302 A  
HETATM    3  C   UNL     1     -13.093  11.738  71.637  1.00  0.00    -0.443 A  
HETATM    4  C   UNL     1     -12.649  10.409  71.692  1.00  0.00    -0.521 A  
HETATM    5  C   UNL     1     -11.642   9.929  70.838  1.00  0.00    -0.373 A  
HETATM    6  C   UNL     1     -11.246  10.805  69.809  1.00  0.00    -0.365 A  
HETATM    7  C   UNL     1     -11.680  12.136  69.751  1.00  0.00    -0.381 A  
ENDROOT
BRANCH   5   8
HETATM    8  N   UNL     1     -10.994   8.670  70.987  1.00  0.00    -0.248 NA 
BRANCH   8   9
HETATM    9  C   UNL     1     -11.807   7.426  70.835  1.00  0.00    -0.290 C  
BRANCH   9  10
HETATM   10  C   UNL     1     -11.153   6.426  69.886  1.00  0.00    -0.381 C  
HETATM   11  C   UNL     1     -10.269   5.607  67.954  1.00  0.00    -0.187 C  
HETATM   12  N   UNL     1     -10.481   5.400  70.357  1.00  0.00    -0.280 NA 
HETATM   13  C   UNL     1     -10.024   4.670  69.141  1.00  0.00    -0.138 C  
HETATM   14  N   UNL     1     -11.233   6.523  68.516  1.00  0.00    -0.259 NA 
ENDBRANCH   9  10
ENDBRANCH   8   9
BRANCH   8  15
HETATM   15  C   UNL     1      -9.840   8.434  71.824  1.00  0.00    -0.243 A  
HETATM   16  C   UNL     1      -8.524   8.632  71.358  1.00  0.00    -0.240 A  
HETATM   17  C   UNL     1      -9.984   8.039  73.170  1.00  0.00    -0.316 A  
HETATM   18  C   UNL     1      -7.426   8.462  72.208  1.00  0.00    -0.102 A  
HETATM   19  C   UNL     1      -8.881   7.909  74.024  1.00  0.00    -0.270 A  
HETATM   20  O   UNL     1      -6.144   8.622  71.763  1.00  0.00    -0.052 OA 
HETATM   21  C   UNL     1      -7.598   8.129  73.542  1.00  0.00    -0.205 A  
HETATM   22  H   UNL     1      -5.399   8.506  72.341  1.00  0.00     0.000 HD 
ENDBRANCH   8  15
ENDBRANCH   5   8
TORSDOF 4
ENDMDL
MODEL      115
REMARK 921   NORMALIZED FREE ENERGY PREDICTED BY IDOCK:   -4.85 KCAL/MOL
REMARK 922        TOTAL FREE ENERGY PREDICTED BY IDOCK:   -6.73 KCAL/MOL
REMARK 923 INTER-LIGAND FREE ENERGY PREDICTED BY IDOCK:   -6.12 KCAL/MOL
REMARK 924 INTRA-LIGAND FREE ENERGY PREDICTED BY IDOCK:   -0.61 KCAL/MOL
REMARK 927      BINDING AFFINITY PREDICTED BY RF-SCORE:    0.00 PKD
ROOT
HETATM    1  C   UNL     1      -5.659  12.749  69.851  1.00  0.00    -0.114 C  
HETATM    2  C   UNL     1      -6.488  13.817  69.206  1.00  0.00    -0.112 A  
HETATM    3  C   UNL     1      -7.500  14.463  69.911  1.00  0.00     0.257 A  
HETATM    4  C   UNL     1      -8.383  15.339  69.263  1.00  0.00    -0.243 A  
HETATM    5  C   UNL     1      -8.301  15.586  67.882  1.00  0.00    -0.143 A  
HETATM    6  C   UNL     1      -7.173  15.049  67.232  1.00  0.00    -0.175 A  
HETATM    7  C   UNL     1      -6.291  14.166  67.871  1.00  0.00    -0.173 A  
ENDROOT
BRANCH   5   8
HETATM    8  N   UNL     1      -9.290  16.281  67.129  1.00  0.00    -0.219 NA 
BRANCH   8   9
HETATM    9  C   UNL     1      -9.553  15.847  65.725  1.00  0.00    -0.304 C  
BRANCH   9  10
HETATM   10  C   UNL     1     -10.658  14.797  65.646  1.00  0.00    -0.340 C  
HETATM   11  C   UNL     1     -12.557  13.676  66.215  1.00  0.00    -0.291 C  
HETATM   12  N   UNL     1     -10.892  14.157  64.524  1.00  0.00    -0.372 NA 
HETATM   13  C   UNL     1     -12.010  13.228  64.855  1.00  0.00    -0.378 C  
HETATM   14  N   UNL     1     -11.450  14.455  66.717  1.00  0.00    -0.357 NA 
ENDBRANCH   9  10
ENDBRANCH   8   9
BRANCH   8  15
HETATM   15  C   UNL     1      -9.637  17.671  67.315  1.00  0.00    -0.271 A  
HETATM   16  C   UNL     1      -9.882  18.219  68.590  1.00  0.00    -0.400 A  
HETATM   17  C   UNL     1      -9.700  18.558  66.220  1.00  0.00    -0.315 A  
HETATM   18  C   UNL     1     -10.150  19.582  68.749  1.00  0.00    -0.430 A  
HETATM   19  C   UNL     1      -9.931  19.929  66.394  1.00  0.00    -0.593 A  
HETATM   20  O   UNL     1     -10.417  20.121  69.976  1.00  0.00    -0.673 OA 
HETATM   21  C   UNL     1     -10.149  20.444  67.664  1.00  0.00    -0.476 A  
HETATM   22  H   UNL     1     -10.600  21.048  70.084  1.00  0.00     0.000 HD 
ENDBRANCH   8  15
ENDBRANCH   5   8
TORSDOF 4
ENDMDL
MODEL      116
REMARK 921   NORMALIZED FREE ENERGY PREDICTED BY IDOCK:   -4.83 KCAL/MOL
REMARK 922        TOTAL FREE ENERGY PREDICTED BY IDOCK:   -6.71 KCAL/MOL
REMARK 923 INTER-LIGAND FREE ENERGY PREDICTED BY IDOCK:   -5.98 KCAL/MOL
REMARK 924 INTRA-LIGAND FREE ENERGY PREDICTED BY IDOCK:   -0.73 KCAL/MOL
REMARK 927      BINDING AFFINITY PREDICTED BY RF-SCORE:    0.00 PKD
ROOT
HETATM    1  C   UNL     1     -10.626  13.752  64.890  1.00  0.00    -0.427 C  
HETATM    2  C   UNL     1     -10.357  12.808  66.021  1.00  0.00    -0.291 A  
HETATM    3  C   UNL     1     -11.140  11.672  66.210  1.00  0.00    -0.345 A  
HETATM    4  C   UNL     1     -10.996  10.881  67.358  1.00  0.00    -0.353 A  
HETATM    5  C   UNL     1     -10.079  11.206  68.372  1.00  0.00    -0.184 A  
HETATM    6  C   UNL     1      -9.192  12.260  68.077  1.00  0.00    -0.195 A  
HETATM    7  C   UNL     1      -9.335  13.061  66.936  1.00  0.00    -0.241 A  
ENDROOT
BRANCH   5   8
HETATM    8  N   UNL     1     -10.038  10.581  69.650  1.00  0.00    -0.186 NA 
BRANCH   8   9
HETATM    9  C   UNL     1      -8.886   9.685  69.970  1.00  0.00    -0.232 C  
BRANCH   9  10
HETATM   10  C   UNL     1      -8.499   8.804  68.786  1.00  0.00    -0.129 C  
HETATM   11  C   UNL     1      -7.164   7.833  67.217  1.00  0.00    -0.090 C  
HETATM   12  N   UNL     1      -9.265   7.802  68.420  1.00  0.00    -0.137 NA 
HETATM   13  C   UNL     1      -8.566   7.213  67.243  1.00  0.00    -0.121 C  
HETATM   14  N   UNL     1      -7.362   9.004  68.037  1.00  0.00    -0.083 NA 
ENDBRANCH   9  10
ENDBRANCH   8   9
BRANCH   8  15
HETATM   15  C   UNL     1     -11.202  10.225  70.429  1.00  0.00    -0.332 A  
HETATM   16  C   UNL     1     -11.428   8.909  70.881  1.00  0.00    -0.339 A  
HETATM   17  C   UNL     1     -12.146  11.199  70.815  1.00  0.00    -0.458 A  
HETATM   18  C   UNL     1     -12.526   8.604  71.691  1.00  0.00    -0.335 A  
HETATM   19  C   UNL     1     -13.222  10.892  71.657  1.00  0.00    -0.471 A  
HETATM   20  O   UNL     1     -12.774   7.328  72.111  1.00  0.00    -0.484 OA 
HETATM   21  C   UNL     1     -13.408   9.591  72.103  1.00  0.00    -0.545 A  
HETATM   22  H   UNL     1     -13.520   7.121  72.661  1.00  0.00     0.000 HD 
ENDBRANCH   8  15
ENDBRANCH   5   8
TORSDOF 4
ENDMDL
MODEL      117
REMARK 921   NORMALIZED FREE ENERGY PREDICTED BY IDOCK:   -4.82 KCAL/MOL
REMARK 922        TOTAL FREE ENERGY PREDICTED BY IDOCK:   -6.70 KCAL/MOL
REMARK 923 INTER-LIGAND FREE ENERGY PREDICTED BY IDOCK:   -5.88 KCAL/MOL
REMARK 924 INTRA-LIGAND FREE ENERGY PREDICTED BY IDOCK:   -0.82 KCAL/MOL
REMARK 927      BINDING AFFINITY PREDICTED BY RF-SCORE:    0.00 PKD
ROOT
HETATM    1  C   UNL     1     -13.546  13.037  72.508  1.00  0.00    -0.537 C  
HETATM    2  C   UNL     1     -12.897  13.185  71.166  1.00  0.00    -0.349 A  
HETATM    3  C   UNL     1     -12.360  12.084  70.504  1.00  0.00    -0.369 A  
HETATM    4  C   UNL     1     -11.608  12.246  69.331  1.00  0.00    -0.378 A  
HETATM    5  C   UNL     1     -11.345  13.515  68.789  1.00  0.00    -0.290 A  
HETATM    6  C   UNL     1     -12.035  14.588  69.385  1.00  0.00    -0.362 A  
HETATM    7  C   UNL     1     -12.782  14.436  70.562  1.00  0.00    -0.401 A  
ENDROOT
BRANCH   5   8
HETATM    8  N   UNL     1     -10.414  13.765  67.741  1.00  0.00    -0.237 NA 
BRANCH   8   9
HETATM    9  C   UNL     1     -10.191  15.176  67.306  1.00  0.00    -0.243 C  
BRANCH   9  10
HETATM   10  C   UNL     1      -8.827  15.703  67.744  1.00  0.00    -0.171 C  
HETATM   11  C   UNL     1      -6.603  16.176  67.624  1.00  0.00    -0.155 C  
HETATM   12  N   UNL     1      -8.733  16.608  68.690  1.00  0.00    -0.241 NA 
HETATM   13  C   UNL     1      -7.268  16.842  68.833  1.00  0.00    -0.225 C  
HETATM   14  N   UNL     1      -7.641  15.267  67.200  1.00  0.00    -0.208 NA 
ENDBRANCH   9  10
ENDBRANCH   8   9
BRANCH   8  15
HETATM   15  C   UNL     1     -10.112  12.841  66.673  1.00  0.00    -0.243 A  
HETATM   16  C   UNL     1      -8.987  11.992  66.711  1.00  0.00    -0.198 A  
HETATM   17  C   UNL     1     -10.965  12.712  65.557  1.00  0.00    -0.313 A  
HETATM   18  C   UNL     1      -8.754  11.058  65.696  1.00  0.00    -0.157 A  
HETATM   19  C   UNL     1     -10.745  11.748  64.565  1.00  0.00    -0.369 A  
HETATM   20  O   UNL     1      -7.652  10.251  65.706  1.00  0.00    -0.131 OA 
HETATM   21  C   UNL     1      -9.639  10.913  64.640  1.00  0.00    -0.305 A  
HETATM   22  H   UNL     1      -7.494   9.616  65.016  1.00  0.00     0.000 HD 
ENDBRANCH   8  15
ENDBRANCH   5   8
TORSDOF 4
ENDMDL
MODEL      118
REMARK 921   NORMALIZED FREE ENERGY PREDICTED BY IDOCK:   -4.79 KCAL/MOL
REMARK 922        TOTAL FREE ENERGY PREDICTED BY IDOCK:   -6.66 KCAL/MOL
REMARK 923 INTER-LIGAND FREE ENERGY PREDICTED BY IDOCK:   -6.62 KCAL/MOL
REMARK 924 INTRA-LIGAND FREE ENERGY PREDICTED BY IDOCK:   -0.03 KCAL/MOL
REMARK 927      BINDING AFFINITY PREDICTED BY RF-SCORE:    0.00 PKD
ROOT
HETATM    1  C   UNL     1      -9.785  11.435  62.908  1.00  0.00    -0.344 C  
HETATM    2  C   UNL     1     -10.425  11.499  64.261  1.00  0.00    -0.393 A  
HETATM    3  C   UNL     1     -11.415  12.437  64.543  1.00  0.00    -0.394 A  
HETATM    4  C   UNL     1     -11.893  12.608  65.850  1.00  0.00    -0.499 A  
HETATM    5  C   UNL     1     -11.385  11.863  66.928  1.00  0.00    -0.330 A  
HETATM    6  C   UNL     1     -10.508  10.815  66.586  1.00  0.00    -0.302 A  
HETATM    7  C   UNL     1     -10.019  10.644  65.284  1.00  0.00    -0.356 A  
ENDROOT
BRANCH   5   8
HETATM    8  N   UNL     1     -11.662  12.139  68.297  1.00  0.00    -0.331 NA 
BRANCH   8   9
HETATM    9  C   UNL     1     -11.480  13.535  68.795  1.00  0.00    -0.311 C  
BRANCH   9  10
HETATM   10  C   UNL     1     -10.267  14.215  68.166  1.00  0.00    -0.241 C  
HETATM   11  C   UNL     1      -9.000  15.887  67.280  1.00  0.00    -0.195 C  
HETATM   12  N   UNL     1      -9.073  13.679  68.269  1.00  0.00    -0.194 NA 
HETATM   13  C   UNL     1      -8.183  14.615  67.526  1.00  0.00    -0.188 C  
HETATM   14  N   UNL     1     -10.345  15.393  67.460  1.00  0.00    -0.259 NA 
ENDBRANCH   9  10
ENDBRANCH   8   9
BRANCH   8  15
HETATM   15  C   UNL     1     -11.522  11.184  69.372  1.00  0.00    -0.298 A  
HETATM   16  C   UNL     1     -10.315  10.496  69.612  1.00  0.00    -0.231 A  
HETATM   17  C   UNL     1     -12.584  10.933  70.266  1.00  0.00    -0.342 A  
HETATM   18  C   UNL     1     -10.185   9.628  70.700  1.00  0.00    -0.278 A  
HETATM   19  C   UNL     1     -12.431  10.092  71.376  1.00  0.00    -0.524 A  
HETATM   20  O   UNL     1      -9.031   8.933  70.927  1.00  0.00    -0.181 OA 
HETATM   21  C   UNL     1     -11.224   9.443  71.598  1.00  0.00    -0.431 A  
HETATM   22  H   UNL     1      -8.943   8.343  71.667  1.00  0.00     0.000 HD 
ENDBRANCH   8  15
ENDBRANCH   5   8
TORSDOF 4
ENDMDL
MODEL      119
REMARK 921   NORMALIZED FREE ENERGY PREDICTED BY IDOCK:   -4.78 KCAL/MOL
REMARK 922        TOTAL FREE ENERGY PREDICTED BY IDOCK:   -6.65 KCAL/MOL
REMARK 923 INTER-LIGAND FREE ENERGY PREDICTED BY IDOCK:   -6.20 KCAL/MOL
REMARK 924 INTRA-LIGAND FREE ENERGY PREDICTED BY IDOCK:   -0.45 KCAL/MOL
REMARK 927      BINDING AFFINITY PREDICTED BY RF-SCORE:    0.00 PKD
ROOT
HETATM    1  C   UNL     1     -10.168   6.257  71.419  1.00  0.00    -0.237 C  
HETATM    2  C   UNL     1     -10.418   7.712  71.169  1.00  0.00    -0.220 A  
HETATM    3  C   UNL     1     -11.583   8.328  71.619  1.00  0.00    -0.337 A  
HETATM    4  C   UNL     1     -11.894   9.643  71.243  1.00  0.00    -0.460 A  
HETATM    5  C   UNL     1     -11.064  10.384  70.385  1.00  0.00    -0.296 A  
HETATM    6  C   UNL     1      -9.821   9.797  70.082  1.00  0.00    -0.306 A  
HETATM    7  C   UNL     1      -9.506   8.481  70.447  1.00  0.00    -0.181 A  
ENDROOT
BRANCH   5   8
HETATM    8  N   UNL     1     -11.426  11.626  69.792  1.00  0.00    -0.282 NA 
BRANCH   8   9
HETATM    9  C   UNL     1     -12.771  12.199  70.099  1.00  0.00     0.239 C  
BRANCH   9  10
HETATM   10  C   UNL     1     -12.698  13.302  71.151  1.00  0.00    -0.320 C  
HETATM   11  C   UNL     1     -12.250  15.348  72.046  1.00  0.00    -0.383 C  
HETATM   12  N   UNL     1     -13.462  13.259  72.218  1.00  0.00    -0.561 NA 
HETATM   13  C   UNL     1     -13.089  14.478  72.989  1.00  0.00    -0.510 C  
HETATM   14  N   UNL     1     -11.842  14.375  71.060  1.00  0.00    -0.304 NA 
ENDBRANCH   9  10
ENDBRANCH   8   9
BRANCH   8  15
HETATM   15  C   UNL     1     -10.942  12.099  68.515  1.00  0.00    -0.238 A  
HETATM   16  C   UNL     1      -9.573  12.331  68.271  1.00  0.00    -0.212 A  
HETATM   17  C   UNL     1     -11.823  12.304  67.433  1.00  0.00    -0.327 A  
HETATM   18  C   UNL     1      -9.123  12.723  67.007  1.00  0.00    -0.220 A  
HETATM   19  C   UNL     1     -11.358  12.659  66.160  1.00  0.00    -0.375 A  
HETATM   20  O   UNL     1      -7.803  12.980  66.764  1.00  0.00    -0.398 OA 
HETATM   21  C   UNL     1     -10.002  12.862  65.945  1.00  0.00    -0.273 A  
HETATM   22  H   UNL     1      -7.498  13.247  65.905  1.00  0.00     0.000 HD 
ENDBRANCH   8  15
ENDBRANCH   5   8
TORSDOF 4
ENDMDL
MODEL      120
REMARK 921   NORMALIZED FREE ENERGY PREDICTED BY IDOCK:   -4.78 KCAL/MOL
REMARK 922        TOTAL FREE ENERGY PREDICTED BY IDOCK:   -6.64 KCAL/MOL
REMARK 923 INTER-LIGAND FREE ENERGY PREDICTED BY IDOCK:   -6.09 KCAL/MOL
REMARK 924 INTRA-LIGAND FREE ENERGY PREDICTED BY IDOCK:   -0.55 KCAL/MOL
REMARK 927      BINDING AFFINITY PREDICTED BY RF-SCORE:    0.00 PKD
ROOT
HETATM    1  C   UNL     1      -8.594   8.825  71.116  1.00  0.00    -0.244 C  
HETATM    2  C   UNL     1      -8.915   9.815  70.038  1.00  0.00    -0.255 A  
HETATM    3  C   UNL     1      -7.903  10.480  69.350  1.00  0.00    -0.151 A  
HETATM    4  C   UNL     1      -8.203  11.523  68.462  1.00  0.00    -0.148 A  
HETATM    5  C   UNL     1      -9.522  11.955  68.244  1.00  0.00    -0.197 A  
HETATM    6  C   UNL     1     -10.528  11.160  68.825  1.00  0.00    -0.227 A  
HETATM    7  C   UNL     1     -10.237  10.121  69.720  1.00  0.00    -0.286 A  
ENDROOT
BRANCH   5   8
HETATM    8  N   UNL     1      -9.874  13.139  67.536  1.00  0.00    -0.212 NA 
BRANCH   8   9
HETATM    9  C   UNL     1     -10.008  14.415  68.302  1.00  0.00    -0.232 C  
BRANCH   9  10
HETATM   10  C   UNL     1      -9.030  15.481  67.817  1.00  0.00    -0.173 C  
HETATM   11  C   UNL     1      -7.454  17.121  67.938  1.00  0.00    -0.177 C  
HETATM   12  N   UNL     1      -8.594  15.473  66.578  1.00  0.00    -0.289 NA 
HETATM   13  C   UNL     1      -7.692  16.657  66.497  1.00  0.00    -0.302 C  
HETATM   14  N   UNL     1      -8.565  16.498  68.618  1.00  0.00    -0.233 NA 
ENDBRANCH   9  10
ENDBRANCH   8   9
BRANCH   8  15
HETATM   15  C   UNL     1     -10.674  13.171  66.334  1.00  0.00    -0.284 A  
HETATM   16  C   UNL     1     -10.280  12.509  65.153  1.00  0.00    -0.299 A  
HETATM   17  C   UNL     1     -11.919  13.833  66.305  1.00  0.00    -0.462 A  
HETATM   18  C   UNL     1     -11.105  12.498  64.024  1.00  0.00    -0.397 A  
HETATM   19  C   UNL     1     -12.755  13.784  65.182  1.00  0.00    -0.439 A  
HETATM   20  O   UNL     1     -10.723  11.885  62.864  1.00  0.00    -0.657 OA 
HETATM   21  C   UNL     1     -12.349  13.107  64.040  1.00  0.00    -0.425 A  
HETATM   22  H   UNL     1     -11.284  11.878  62.097  1.00  0.00     0.000 HD 
ENDBRANCH   8  15
ENDBRANCH   5   8
TORSDOF 4
ENDMDL
MODEL      121
REMARK 921   NORMALIZED FREE ENERGY PREDICTED BY IDOCK:   -4.78 KCAL/MOL
REMARK 922        TOTAL FREE ENERGY PREDICTED BY IDOCK:   -6.64 KCAL/MOL
REMARK 923 INTER-LIGAND FREE ENERGY PREDICTED BY IDOCK:   -5.83 KCAL/MOL
REMARK 924 INTRA-LIGAND FREE ENERGY PREDICTED BY IDOCK:   -0.81 KCAL/MOL
REMARK 927      BINDING AFFINITY PREDICTED BY RF-SCORE:    0.00 PKD
ROOT
HETATM    1  C   UNL     1     -11.999  12.875  67.396  1.00  0.00    -0.360 C  
HETATM    2  C   UNL     1     -11.466  11.678  68.121  1.00  0.00    -0.382 A  
HETATM    3  C   UNL     1     -10.669  10.740  67.469  1.00  0.00    -0.312 A  
HETATM    4  C   UNL     1     -10.309   9.539  68.098  1.00  0.00    -0.251 A  
HETATM    5  C   UNL     1     -10.751   9.220  69.393  1.00  0.00    -0.208 A  
HETATM    6  C   UNL     1     -11.414  10.253  70.083  1.00  0.00    -0.383 A  
HETATM    7  C   UNL     1     -11.784  11.453  69.459  1.00  0.00    -0.417 A  
ENDROOT
BRANCH   5   8
HETATM    8  N   UNL     1     -10.611   7.939  69.997  1.00  0.00    -0.239 NA 
BRANCH   8   9
HETATM    9  C   UNL     1     -11.500   6.831  69.535  1.00  0.00    -0.190 C  
BRANCH   9  10
HETATM   10  C   UNL     1     -10.825   5.953  68.486  1.00  0.00    -0.248 C  
HETATM   11  C   UNL     1     -10.027   5.322  66.448  1.00  0.00    -0.203 C  
HETATM   12  N   UNL     1     -10.005   4.992  68.847  1.00  0.00    -0.174 NA 
HETATM   13  C   UNL     1      -9.577   4.370  67.562  1.00  0.00    -0.172 C  
HETATM   14  N   UNL     1     -11.034   6.097  67.134  1.00  0.00    -0.349 NA 
ENDBRANCH   9  10
ENDBRANCH   8   9
BRANCH   8  15
HETATM   15  C   UNL     1     -10.167   7.714  71.353  1.00  0.00    -0.185 A  
HETATM   16  C   UNL     1      -9.013   8.331  71.877  1.00  0.00    -0.249 A  
HETATM   17  C   UNL     1     -10.903   6.895  72.235  1.00  0.00    -0.262 A  
HETATM   18  C   UNL     1      -8.642   8.151  73.213  1.00  0.00    -0.242 A  
HETATM   19  C   UNL     1     -10.545   6.752  73.582  1.00  0.00    -0.347 A  
HETATM   20  O   UNL     1      -7.511   8.720  73.725  1.00  0.00    -0.393 OA 
HETATM   21  C   UNL     1      -9.415   7.388  74.074  1.00  0.00    -0.264 A  
HETATM   22  H   UNL     1      -7.259   8.597  74.633  1.00  0.00     0.000 HD 
ENDBRANCH   8  15
ENDBRANCH   5   8
TORSDOF 4
ENDMDL
MODEL      122
REMARK 921   NORMALIZED FREE ENERGY PREDICTED BY IDOCK:   -4.76 KCAL/MOL
REMARK 922        TOTAL FREE ENERGY PREDICTED BY IDOCK:   -6.63 KCAL/MOL
REMARK 923 INTER-LIGAND FREE ENERGY PREDICTED BY IDOCK:   -5.80 KCAL/MOL
REMARK 924 INTRA-LIGAND FREE ENERGY PREDICTED BY IDOCK:   -0.82 KCAL/MOL
REMARK 927      BINDING AFFINITY PREDICTED BY RF-SCORE:    0.00 PKD
ROOT
HETATM    1  C   UNL     1     -12.200  13.513  66.226  1.00  0.00    -0.468 C  
HETATM    2  C   UNL     1     -11.518  12.340  66.862  1.00  0.00    -0.418 A  
HETATM    3  C   UNL     1     -10.680  11.510  66.123  1.00  0.00    -0.324 A  
HETATM    4  C   UNL     1     -10.176  10.322  66.673  1.00  0.00    -0.294 A  
HETATM    5  C   UNL     1     -10.509   9.908  67.974  1.00  0.00    -0.222 A  
HETATM    6  C   UNL     1     -11.221  10.845  68.748  1.00  0.00    -0.329 A  
HETATM    7  C   UNL     1     -11.734  12.030  68.204  1.00  0.00    -0.398 A  
ENDROOT
BRANCH   5   8
HETATM    8  N   UNL     1     -10.218   8.621  68.507  1.00  0.00    -0.192 NA 
BRANCH   8   9
HETATM    9  C   UNL     1      -9.536   8.536  69.833  1.00  0.00    -0.163 C  
BRANCH   9  10
HETATM   10  C   UNL     1     -10.437   7.929  70.904  1.00  0.00    -0.203 C  
HETATM   11  C   UNL     1     -11.335   6.337  72.263  1.00  0.00    -0.294 C  
HETATM   12  N   UNL     1     -11.005   8.692  71.810  1.00  0.00    -0.300 NA 
HETATM   13  C   UNL     1     -11.799   7.747  72.644  1.00  0.00    -0.262 C  
HETATM   14  N   UNL     1     -10.716   6.585  70.982  1.00  0.00    -0.234 NA 
ENDBRANCH   9  10
ENDBRANCH   8   9
BRANCH   8  15
HETATM   15  C   UNL     1      -9.954   7.443  67.714  1.00  0.00    -0.167 A  
HETATM   16  C   UNL     1     -10.969   6.783  66.990  1.00  0.00    -0.439 A  
HETATM   17  C   UNL     1      -8.648   6.925  67.589  1.00  0.00    -0.121 A  
HETATM   18  C   UNL     1     -10.676   5.685  66.175  1.00  0.00     0.032 A  
HETATM   19  C   UNL     1      -8.358   5.849  66.740  1.00  0.00    -0.109 A  
HETATM   20  O   UNL     1     -11.654   5.019  65.493  1.00  0.00    -0.730 OA 
HETATM   21  C   UNL     1      -9.375   5.232  66.025  1.00  0.00    -0.167 A  
HETATM   22  H   UNL     1     -11.454   4.273  64.939  1.00  0.00     0.000 HD 
ENDBRANCH   8  15
ENDBRANCH   5   8
TORSDOF 4
ENDMDL
MODEL      123
REMARK 921   NORMALIZED FREE ENERGY PREDICTED BY IDOCK:   -4.76 KCAL/MOL
REMARK 922        TOTAL FREE ENERGY PREDICTED BY IDOCK:   -6.62 KCAL/MOL
REMARK 923 INTER-LIGAND FREE ENERGY PREDICTED BY IDOCK:   -5.79 KCAL/MOL
REMARK 924 INTRA-LIGAND FREE ENERGY PREDICTED BY IDOCK:   -0.83 KCAL/MOL
REMARK 927      BINDING AFFINITY PREDICTED BY RF-SCORE:    0.00 PKD
ROOT
HETATM    1  C   UNL     1     -13.835  13.426  72.369  1.00  0.00    -0.665 C  
HETATM    2  C   UNL     1     -12.831  13.143  71.294  1.00  0.00    -0.384 A  
HETATM    3  C   UNL     1     -12.207  14.179  70.604  1.00  0.00    -0.432 A  
HETATM    4  C   UNL     1     -11.396  13.915  69.490  1.00  0.00    -0.293 A  
HETATM    5  C   UNL     1     -11.196  12.610  69.011  1.00  0.00    -0.269 A  
HETATM    6  C   UNL     1     -11.704  11.577  69.824  1.00  0.00    -0.426 A  
HETATM    7  C   UNL     1     -12.522  11.832  70.933  1.00  0.00    -0.416 A  
ENDROOT
BRANCH   5   8
HETATM    8  N   UNL     1     -10.576  12.295  67.769  1.00  0.00    -0.214 NA 
BRANCH   8   9
HETATM    9  C   UNL     1     -11.427  11.775  66.658  1.00  0.00    -0.267 C  
BRANCH   9  10
HETATM   10  C   UNL     1     -11.721  12.845  65.611  1.00  0.00    -0.387 C  
HETATM   11  C   UNL     1     -11.536  14.820  64.492  1.00  0.00    -0.329 C  
HETATM   12  N   UNL     1     -12.333  12.534  64.491  1.00  0.00    -0.462 NA 
HETATM   13  C   UNL     1     -12.446  13.828  63.761  1.00  0.00    -0.159 C  
HETATM   14  N   UNL     1     -11.387  14.170  65.773  1.00  0.00    -0.312 NA 
ENDBRANCH   9  10
ENDBRANCH   8   9
BRANCH   8  15
HETATM   15  C   UNL     1      -9.207  11.855  67.622  1.00  0.00    -0.183 A  
HETATM   16  C   UNL     1      -8.825  10.513  67.826  1.00  0.00    -0.125 A  
HETATM   17  C   UNL     1      -8.194  12.748  67.218  1.00  0.00    -0.181 A  
HETATM   18  C   UNL     1      -7.507  10.099  67.611  1.00  0.00    -0.090 A  
HETATM   19  C   UNL     1      -6.885  12.316  66.968  1.00  0.00    -0.034 A  
HETATM   20  O   UNL     1      -7.117   8.809  67.833  1.00  0.00    -0.077 OA 
HETATM   21  C   UNL     1      -6.543  10.985  67.158  1.00  0.00    -0.089 A  
HETATM   22  H   UNL     1      -6.221   8.528  67.687  1.00  0.00     0.000 HD 
ENDBRANCH   8  15
ENDBRANCH   5   8
TORSDOF 4
ENDMDL
MODEL      124
REMARK 921   NORMALIZED FREE ENERGY PREDICTED BY IDOCK:   -4.76 KCAL/MOL
REMARK 922        TOTAL FREE ENERGY PREDICTED BY IDOCK:   -6.62 KCAL/MOL
REMARK 923 INTER-LIGAND FREE ENERGY PREDICTED BY IDOCK:   -6.66 KCAL/MOL
REMARK 924 INTRA-LIGAND FREE ENERGY PREDICTED BY IDOCK:    0.05 KCAL/MOL
REMARK 927      BINDING AFFINITY PREDICTED BY RF-SCORE:    0.00 PKD
ROOT
HETATM    1  C   UNL     1      -9.739  10.731  62.859  1.00  0.00    -0.337 C  
HETATM    2  C   UNL     1     -10.240  11.061  64.232  1.00  0.00    -0.414 A  
HETATM    3  C   UNL     1     -10.884  12.268  64.490  1.00  0.00    -0.355 A  
HETATM    4  C   UNL     1     -11.203  12.648  65.802  1.00  0.00    -0.347 A  
HETATM    5  C   UNL     1     -10.870  11.846  66.907  1.00  0.00    -0.263 A  
HETATM    6  C   UNL     1     -10.370  10.565  66.603  1.00  0.00    -0.295 A  
HETATM    7  C   UNL     1     -10.041  10.181  65.295  1.00  0.00    -0.344 A  
ENDROOT
BRANCH   5   8
HETATM    8  N   UNL     1     -10.961  12.268  68.263  1.00  0.00    -0.218 NA 
BRANCH   8   9
HETATM    9  C   UNL     1     -10.301  13.548  68.659  1.00  0.00    -0.214 C  
BRANCH   9  10
HETATM   10  C   UNL     1     -11.196  14.406  69.548  1.00  0.00    -0.254 C  
HETATM   11  C   UNL     1     -13.118  15.225  70.455  1.00  0.00    -0.289 C  
HETATM   12  N   UNL     1     -10.716  14.971  70.631  1.00  0.00    -0.112 NA 
HETATM   13  C   UNL     1     -11.873  15.719  71.201  1.00  0.00    -0.425 C  
HETATM   14  N   UNL     1     -12.523  14.645  69.274  1.00  0.00    -0.107 NA 
ENDBRANCH   9  10
ENDBRANCH   8   9
BRANCH   8  15
HETATM   15  C   UNL     1     -11.083  11.378  69.395  1.00  0.00    -0.241 A  
HETATM   16  C   UNL     1     -12.146  11.476  70.315  1.00  0.00    -0.444 A  
HETATM   17  C   UNL     1     -10.160  10.332  69.601  1.00  0.00    -0.257 A  
HETATM   18  C   UNL     1     -12.279  10.559  71.363  1.00  0.00    -0.327 A  
HETATM   19  C   UNL     1     -10.322   9.396  70.631  1.00  0.00    -0.349 A  
HETATM   20  O   UNL     1     -13.287  10.660  72.279  1.00  0.00    -0.616 OA 
HETATM   21  C   UNL     1     -11.390   9.506  71.510  1.00  0.00    -0.456 A  
HETATM   22  H   UNL     1     -13.377  10.037  72.991  1.00  0.00     0.000 HD 
ENDBRANCH   8  15
ENDBRANCH   5   8
TORSDOF 4
ENDMDL
MODEL      125
REMARK 921   NORMALIZED FREE ENERGY PREDICTED BY IDOCK:   -4.71 KCAL/MOL
REMARK 922        TOTAL FREE ENERGY PREDICTED BY IDOCK:   -6.56 KCAL/MOL
REMARK 923 INTER-LIGAND FREE ENERGY PREDICTED BY IDOCK:   -5.78 KCAL/MOL
REMARK 924 INTRA-LIGAND FREE ENERGY PREDICTED BY IDOCK:   -0.78 KCAL/MOL
REMARK 927      BINDING AFFINITY PREDICTED BY RF-SCORE:    0.00 PKD
ROOT
HETATM    1  C   UNL     1     -10.600  12.042  64.256  1.00  0.00    -0.377 C  
HETATM    2  C   UNL     1     -10.370  11.038  65.344  1.00  0.00    -0.330 A  
HETATM    3  C   UNL     1      -9.682   9.853  65.093  1.00  0.00    -0.376 A  
HETATM    4  C   UNL     1      -9.612   8.843  66.062  1.00  0.00    -0.320 A  
HETATM    5  C   UNL     1     -10.245   8.968  67.310  1.00  0.00    -0.256 A  
HETATM    6  C   UNL     1     -10.789  10.235  67.594  1.00  0.00    -0.363 A  
HETATM    7  C   UNL     1     -10.871  11.247  66.628  1.00  0.00    -0.325 A  
ENDROOT
BRANCH   5   8
HETATM    8  N   UNL     1     -10.400   7.904  68.243  1.00  0.00    -0.203 NA 
BRANCH   8   9
HETATM    9  C   UNL     1     -11.279   6.754  67.875  1.00  0.00    -0.079 C  
BRANCH   9  10
HETATM   10  C   UNL     1     -10.474   5.532  67.441  1.00  0.00    -0.219 C  
HETATM   11  C   UNL     1      -9.338   3.568  67.635  1.00  0.00    -0.204 C  
HETATM   12  N   UNL     1     -10.482   5.137  66.189  1.00  0.00    -0.265 NA 
HETATM   13  C   UNL     1      -9.582   3.949  66.171  1.00  0.00    -0.183 C  
HETATM   14  N   UNL     1      -9.701   4.794  68.306  1.00  0.00    -0.148 NA 
ENDBRANCH   9  10
ENDBRANCH   8   9
BRANCH   8  15
HETATM   15  C   UNL     1     -10.314   8.050  69.678  1.00  0.00    -0.220 A  
HETATM   16  C   UNL     1     -11.313   7.557  70.543  1.00  0.00    -0.279 A  
HETATM   17  C   UNL     1      -9.193   8.654  70.284  1.00  0.00    -0.178 A  
HETATM   18  C   UNL     1     -11.174   7.650  71.931  1.00  0.00    -0.257 A  
HETATM   19  C   UNL     1      -9.045   8.708  71.676  1.00  0.00    -0.318 A  
HETATM   20  O   UNL     1     -12.147   7.204  72.780  1.00  0.00    -0.507 OA 
HETATM   21  C   UNL     1     -10.036   8.198  72.502  1.00  0.00    -0.372 A  
HETATM   22  H   UNL     1     -12.052   7.268  73.724  1.00  0.00     0.000 HD 
ENDBRANCH   8  15
ENDBRANCH   5   8
TORSDOF 4
ENDMDL
MODEL      126
REMARK 921   NORMALIZED FREE ENERGY PREDICTED BY IDOCK:   -4.66 KCAL/MOL
REMARK 922        TOTAL FREE ENERGY PREDICTED BY IDOCK:   -6.50 KCAL/MOL
REMARK 923 INTER-LIGAND FREE ENERGY PREDICTED BY IDOCK:   -5.75 KCAL/MOL
REMARK 924 INTRA-LIGAND FREE ENERGY PREDICTED BY IDOCK:   -0.75 KCAL/MOL
REMARK 927      BINDING AFFINITY PREDICTED BY RF-SCORE:    0.00 PKD
ROOT
HETATM    1  C   UNL     1      -8.597  10.175  62.485  1.00  0.00    -0.208 C  
HETATM    2  C   UNL     1      -9.077  10.428  63.881  1.00  0.00    -0.272 A  
HETATM    3  C   UNL     1     -10.385  10.840  64.127  1.00  0.00    -0.382 A  
HETATM    4  C   UNL     1     -10.785  11.237  65.411  1.00  0.00    -0.291 A  
HETATM    5  C   UNL     1      -9.889  11.258  66.492  1.00  0.00    -0.208 A  
HETATM    6  C   UNL     1      -8.626  10.684  66.250  1.00  0.00    -0.156 A  
HETATM    7  C   UNL     1      -8.216  10.293  64.969  1.00  0.00    -0.154 A  
ENDROOT
BRANCH   5   8
HETATM    8  N   UNL     1     -10.167  11.855  67.755  1.00  0.00    -0.196 NA 
BRANCH   8   9
HETATM    9  C   UNL     1      -9.351  13.030  68.184  1.00  0.00    -0.217 C  
BRANCH   9  10
HETATM   10  C   UNL     1      -9.640  14.268  67.340  1.00  0.00    -0.214 C  
HETATM   11  C   UNL     1      -9.229  16.035  65.964  1.00  0.00    -0.340 C  
HETATM   12  N   UNL     1     -10.857  14.517  66.915  1.00  0.00    -0.299 NA 
HETATM   13  C   UNL     1     -10.730  15.794  66.157  1.00  0.00    -0.290 C  
HETATM   14  N   UNL     1      -8.675  15.184  66.990  1.00  0.00    -0.221 NA 
ENDBRANCH   9  10
ENDBRANCH   8   9
BRANCH   8  15
HETATM   15  C   UNL     1     -10.698  11.149  68.898  1.00  0.00    -0.207 A  
HETATM   16  C   UNL     1      -9.941  10.195  69.609  1.00  0.00    -0.262 A  
HETATM   17  C   UNL     1     -11.992  11.423  69.387  1.00  0.00    -0.407 A  
HETATM   18  C   UNL     1     -10.453   9.575  70.753  1.00  0.00    -0.314 A  
HETATM   19  C   UNL     1     -12.482  10.826  70.556  1.00  0.00    -0.447 A  
HETATM   20  O   UNL     1      -9.743   8.628  71.433  1.00  0.00    -0.196 OA 
HETATM   21  C   UNL     1     -11.706   9.904  71.245  1.00  0.00    -0.472 A  
HETATM   22  H   UNL     1     -10.091   8.207  72.211  1.00  0.00     0.000 HD 
ENDBRANCH   8  15
ENDBRANCH   5   8
TORSDOF 4
ENDMDL
MODEL      127
REMARK 921   NORMALIZED FREE ENERGY PREDICTED BY IDOCK:   -4.66 KCAL/MOL
REMARK 922        TOTAL FREE ENERGY PREDICTED BY IDOCK:   -6.49 KCAL/MOL
REMARK 923 INTER-LIGAND FREE ENERGY PREDICTED BY IDOCK:   -5.65 KCAL/MOL
REMARK 924 INTRA-LIGAND FREE ENERGY PREDICTED BY IDOCK:   -0.85 KCAL/MOL
REMARK 927      BINDING AFFINITY PREDICTED BY RF-SCORE:    0.00 PKD
ROOT
HETATM    1  C   UNL     1     -13.154  11.045  71.576  1.00  0.00    -0.500 C  
HETATM    2  C   UNL     1     -12.203   9.900  71.406  1.00  0.00    -0.499 A  
HETATM    3  C   UNL     1     -11.046  10.036  70.644  1.00  0.00    -0.408 A  
HETATM    4  C   UNL     1     -10.244   8.924  70.348  1.00  0.00    -0.236 A  
HETATM    5  C   UNL     1     -10.582   7.631  70.783  1.00  0.00    -0.221 A  
HETATM    6  C   UNL     1     -11.662   7.552  71.683  1.00  0.00    -0.313 A  
HETATM    7  C   UNL     1     -12.472   8.657  71.978  1.00  0.00    -0.433 A  
ENDROOT
BRANCH   5   8
HETATM    8  N   UNL     1      -9.942   6.440  70.336  1.00  0.00    -0.182 NA 
BRANCH   8   9
HETATM    9  C   UNL     1      -8.949   5.782  71.237  1.00  0.00    -0.140 C  
BRANCH   9  10
HETATM   10  C   UNL     1      -9.570   4.642  72.040  1.00  0.00    -0.151 C  
HETATM   11  C   UNL     1     -10.788   3.618  73.669  1.00  0.00    -0.239 C  
HETATM   12  N   UNL     1      -9.710   3.449  71.508  1.00  0.00    -0.163 NA 
HETATM   13  C   UNL     1     -10.325   2.632  72.592  1.00  0.00    -0.147 C  
HETATM   14  N   UNL     1      -9.999   4.781  73.339  1.00  0.00    -0.150 NA 
ENDBRANCH   9  10
ENDBRANCH   8   9
BRANCH   8  15
HETATM   15  C   UNL     1      -9.678   6.119  68.953  1.00  0.00    -0.130 A  
HETATM   16  C   UNL     1     -10.700   5.725  68.065  1.00  0.00    -0.290 A  
HETATM   17  C   UNL     1      -8.380   6.233  68.414  1.00  0.00    -0.115 A  
HETATM   18  C   UNL     1     -10.429   5.486  66.715  1.00  0.00    -0.296 A  
HETATM   19  C   UNL     1      -8.125   6.029  67.051  1.00  0.00    -0.106 A  
HETATM   20  O   UNL     1     -11.404   5.076  65.850  1.00  0.00    -0.769 OA 
HETATM   21  C   UNL     1      -9.156   5.661  66.198  1.00  0.00    -0.158 A  
HETATM   22  H   UNL     1     -11.220   4.913  64.932  1.00  0.00     0.000 HD 
ENDBRANCH   8  15
ENDBRANCH   5   8
TORSDOF 4
ENDMDL
MODEL      128
REMARK 921   NORMALIZED FREE ENERGY PREDICTED BY IDOCK:   -4.64 KCAL/MOL
REMARK 922        TOTAL FREE ENERGY PREDICTED BY IDOCK:   -6.48 KCAL/MOL
REMARK 923 INTER-LIGAND FREE ENERGY PREDICTED BY IDOCK:   -5.88 KCAL/MOL
REMARK 924 INTRA-LIGAND FREE ENERGY PREDICTED BY IDOCK:   -0.60 KCAL/MOL
REMARK 927      BINDING AFFINITY PREDICTED BY RF-SCORE:    0.00 PKD
ROOT
HETATM    1  C   UNL     1      -8.670   2.048  70.637  1.00  0.00    -0.109 C  
HETATM    2  C   UNL     1      -9.382   3.365  70.576  1.00  0.00    -0.231 A  
HETATM    3  C   UNL     1      -9.554   4.032  69.367  1.00  0.00    -0.257 A  
HETATM    4  C   UNL     1     -10.069   5.336  69.331  1.00  0.00    -0.311 A  
HETATM    5  C   UNL     1     -10.411   6.030  70.504  1.00  0.00    -0.221 A  
HETATM    6  C   UNL     1     -10.380   5.274  71.691  1.00  0.00    -0.281 A  
HETATM    7  C   UNL     1      -9.859   3.973  71.737  1.00  0.00    -0.249 A  
ENDROOT
BRANCH   5   8
HETATM    8  N   UNL     1     -10.724   7.418  70.554  1.00  0.00    -0.229 NA 
BRANCH   8   9
HETATM    9  C   UNL     1      -9.601   8.401  70.625  1.00  0.00    -0.171 C  
BRANCH   9  10
HETATM   10  C   UNL     1      -9.252   8.972  69.253  1.00  0.00    -0.145 C  
HETATM   11  C   UNL     1      -9.566   9.998  67.245  1.00  0.00    -0.156 C  
HETATM   12  N   UNL     1      -8.010   9.275  68.953  1.00  0.00    -0.097 NA 
HETATM   13  C   UNL     1      -8.081   9.776  67.551  1.00  0.00    -0.114 C  
HETATM   14  N   UNL     1     -10.185   9.187  68.266  1.00  0.00    -0.198 NA 
ENDBRANCH   9  10
ENDBRANCH   8   9
BRANCH   8  15
HETATM   15  C   UNL     1     -11.929   7.968  71.130  1.00  0.00    -0.277 A  
HETATM   16  C   UNL     1     -12.045   9.332  71.467  1.00  0.00    -0.435 A  
HETATM   17  C   UNL     1     -13.070   7.165  71.337  1.00  0.00    -0.408 A  
HETATM   18  C   UNL     1     -13.245   9.854  71.959  1.00  0.00    -0.456 A  
HETATM   19  C   UNL     1     -14.280   7.704  71.794  1.00  0.00    -0.549 A  
HETATM   20  O   UNL     1     -13.363  11.167  72.318  1.00  0.00    -0.633 OA 
HETATM   21  C   UNL     1     -14.369   9.055  72.099  1.00  0.00    -0.350 A  
HETATM   22  H   UNL     1     -14.179  11.521  72.652  1.00  0.00     0.000 HD 
ENDBRANCH   8  15
ENDBRANCH   5   8
TORSDOF 4
ENDMDL
MODEL      129
REMARK 921   NORMALIZED FREE ENERGY PREDICTED BY IDOCK:   -4.64 KCAL/MOL
REMARK 922        TOTAL FREE ENERGY PREDICTED BY IDOCK:   -6.47 KCAL/MOL
REMARK 923 INTER-LIGAND FREE ENERGY PREDICTED BY IDOCK:   -5.78 KCAL/MOL
REMARK 924 INTRA-LIGAND FREE ENERGY PREDICTED BY IDOCK:   -0.70 KCAL/MOL
REMARK 927      BINDING AFFINITY PREDICTED BY RF-SCORE:    0.00 PKD
ROOT
HETATM    1  C   UNL     1      -9.104   4.184  65.999  1.00  0.00    -0.136 C  
HETATM    2  C   UNL     1      -9.394   5.546  66.551  1.00  0.00    -0.154 A  
HETATM    3  C   UNL     1     -10.704   5.979  66.743  1.00  0.00    -0.374 A  
HETATM    4  C   UNL     1     -10.978   7.308  67.099  1.00  0.00    -0.285 A  
HETATM    5  C   UNL     1      -9.955   8.258  67.256  1.00  0.00    -0.224 A  
HETATM    6  C   UNL     1      -8.641   7.754  67.217  1.00  0.00    -0.128 A  
HETATM    7  C   UNL     1      -8.359   6.430  66.854  1.00  0.00    -0.110 A  
ENDROOT
BRANCH   5   8
HETATM    8  N   UNL     1     -10.174   9.658  67.395  1.00  0.00    -0.211 NA 
BRANCH   8   9
HETATM    9  C   UNL     1     -10.686  10.174  68.700  1.00  0.00    -0.222 C  
BRANCH   9  10
HETATM   10  C   UNL     1     -10.132   9.388  69.885  1.00  0.00    -0.218 C  
HETATM   11  C   UNL     1      -9.932   7.696  71.396  1.00  0.00    -0.181 C  
HETATM   12  N   UNL     1      -8.918   9.619  70.330  1.00  0.00    -0.235 NA 
HETATM   13  C   UNL     1      -8.762   8.682  71.479  1.00  0.00    -0.202 C  
HETATM   14  N   UNL     1     -10.850   8.424  70.553  1.00  0.00    -0.229 NA 
ENDBRANCH   9  10
ENDBRANCH   8   9
BRANCH   8  15
HETATM   15  C   UNL     1     -10.529  10.547  66.313  1.00  0.00    -0.183 A  
HETATM   16  C   UNL     1     -10.219  10.254  64.969  1.00  0.00    -0.277 A  
HETATM   17  C   UNL     1     -11.253  11.734  66.552  1.00  0.00    -0.380 A  
HETATM   18  C   UNL     1     -10.634  11.096  63.934  1.00  0.00    -0.364 A  
HETATM   19  C   UNL     1     -11.697  12.551  65.505  1.00  0.00    -0.457 A  
HETATM   20  O   UNL     1     -10.315  10.840  62.630  1.00  0.00    -0.761 OA 
HETATM   21  C   UNL     1     -11.393  12.227  64.191  1.00  0.00    -0.442 A  
HETATM   22  H   UNL     1     -10.597  11.413  61.927  1.00  0.00     0.000 HD 
ENDBRANCH   8  15
ENDBRANCH   5   8
TORSDOF 4
ENDMDL
MODEL      130
REMARK 921   NORMALIZED FREE ENERGY PREDICTED BY IDOCK:   -4.64 KCAL/MOL
REMARK 922        TOTAL FREE ENERGY PREDICTED BY IDOCK:   -6.47 KCAL/MOL
REMARK 923 INTER-LIGAND FREE ENERGY PREDICTED BY IDOCK:   -5.72 KCAL/MOL
REMARK 924 INTRA-LIGAND FREE ENERGY PREDICTED BY IDOCK:   -0.75 KCAL/MOL
REMARK 927      BINDING AFFINITY PREDICTED BY RF-SCORE:    0.00 PKD
ROOT
HETATM    1  C   UNL     1      -9.422  10.039  64.257  1.00  0.00    -0.336 C  
HETATM    2  C   UNL     1      -9.383   9.815  65.738  1.00  0.00    -0.278 A  
HETATM    3  C   UNL     1     -10.283   8.952  66.357  1.00  0.00    -0.273 A  
HETATM    4  C   UNL     1     -10.356   8.870  67.755  1.00  0.00    -0.301 A  
HETATM    5  C   UNL     1      -9.548   9.664  68.587  1.00  0.00    -0.150 A  
HETATM    6  C   UNL     1      -8.541  10.401  67.936  1.00  0.00    -0.118 A  
HETATM    7  C   UNL     1      -8.466  10.495  66.539  1.00  0.00    -0.139 A  
ENDROOT
BRANCH   5   8
HETATM    8  N   UNL     1      -9.725   9.792  69.994  1.00  0.00    -0.243 NA 
BRANCH   8   9
HETATM    9  C   UNL     1      -8.806   9.040  70.900  1.00  0.00    -0.240 C  
BRANCH   9  10
HETATM   10  C   UNL     1      -8.477   7.652  70.360  1.00  0.00    -0.136 C  
HETATM   11  C   UNL     1      -8.838   5.534  69.603  1.00  0.00    -0.111 C  
HETATM   12  N   UNL     1      -7.330   7.422  69.763  1.00  0.00    -0.081 NA 
HETATM   13  C   UNL     1      -7.384   5.976  69.404  1.00  0.00    -0.079 C  
HETATM   14  N   UNL     1      -9.330   6.578  70.471  1.00  0.00    -0.162 NA 
ENDBRANCH   9  10
ENDBRANCH   8   9
BRANCH   8  15
HETATM   15  C   UNL     1     -10.988  10.058  70.643  1.00  0.00    -0.322 A  
HETATM   16  C   UNL     1     -11.581   9.141  71.534  1.00  0.00    -0.439 A  
HETATM   17  C   UNL     1     -11.665  11.279  70.447  1.00  0.00    -0.398 A  
HETATM   18  C   UNL     1     -12.770   9.450  72.202  1.00  0.00    -0.382 A  
HETATM   19  C   UNL     1     -12.835  11.596  71.149  1.00  0.00    -0.392 A  
HETATM   20  O   UNL     1     -13.370   8.559  73.046  1.00  0.00    -0.725 OA 
HETATM   21  C   UNL     1     -13.385  10.681  72.035  1.00  0.00    -0.409 A  
HETATM   22  H   UNL     1     -14.178   8.770  73.499  1.00  0.00     0.000 HD 
ENDBRANCH   8  15
ENDBRANCH   5   8
TORSDOF 4
ENDMDL
MODEL      131
REMARK 921   NORMALIZED FREE ENERGY PREDICTED BY IDOCK:   -4.62 KCAL/MOL
REMARK 922        TOTAL FREE ENERGY PREDICTED BY IDOCK:   -6.45 KCAL/MOL
REMARK 923 INTER-LIGAND FREE ENERGY PREDICTED BY IDOCK:   -5.62 KCAL/MOL
REMARK 924 INTRA-LIGAND FREE ENERGY PREDICTED BY IDOCK:   -0.83 KCAL/MOL
REMARK 927      BINDING AFFINITY PREDICTED BY RF-SCORE:    0.00 PKD
ROOT
HETATM    1  C   UNL     1     -11.063  12.394  63.641  1.00  0.00    -0.535 C  
HETATM    2  C   UNL     1     -10.855  11.514  64.836  1.00  0.00    -0.345 A  
HETATM    3  C   UNL     1     -11.402  11.844  66.073  1.00  0.00    -0.375 A  
HETATM    4  C   UNL     1     -11.071  11.114  67.224  1.00  0.00    -0.366 A  
HETATM    5  C   UNL     1     -10.163  10.042  67.185  1.00  0.00    -0.228 A  
HETATM    6  C   UNL     1      -9.757   9.632  65.901  1.00  0.00    -0.343 A  
HETATM    7  C   UNL     1     -10.077  10.361  64.747  1.00  0.00    -0.387 A  
ENDROOT
BRANCH   5   8
HETATM    8  N   UNL     1      -9.618   9.408  68.338  1.00  0.00    -0.145 NA 
BRANCH   8   9
HETATM    9  C   UNL     1      -8.171   9.036  68.330  1.00  0.00    -0.116 C  
BRANCH   9  10
HETATM   10  C   UNL     1      -7.312  10.058  69.069  1.00  0.00    -0.083 C  
HETATM   11  C   UNL     1      -5.772  10.858  70.543  1.00  0.00    -0.129 C  
HETATM   12  N   UNL     1      -7.093  11.245  68.552  1.00  0.00    -0.076 NA 
HETATM   13  C   UNL     1      -6.243  11.937  69.561  1.00  0.00    -0.117 C  
HETATM   14  N   UNL     1      -6.738   9.815  70.295  1.00  0.00    -0.095 NA 
ENDBRANCH   9  10
ENDBRANCH   8   9
BRANCH   8  15
HETATM   15  C   UNL     1     -10.364   8.564  69.242  1.00  0.00    -0.221 A  
HETATM   16  C   UNL     1     -10.912   9.054  70.445  1.00  0.00    -0.283 A  
HETATM   17  C   UNL     1     -10.619   7.212  68.934  1.00  0.00    -0.218 A  
HETATM   18  C   UNL     1     -11.688   8.234  71.270  1.00  0.00    -0.283 A  
HETATM   19  C   UNL     1     -11.430   6.409  69.747  1.00  0.00    -0.468 A  
HETATM   20  O   UNL     1     -12.201   8.687  72.452  1.00  0.00    -0.374 OA 
HETATM   21  C   UNL     1     -11.972   6.925  70.915  1.00  0.00    -0.430 A  
HETATM   22  H   UNL     1     -12.728   8.129  73.013  1.00  0.00     0.000 HD 
ENDBRANCH   8  15
ENDBRANCH   5   8
TORSDOF 4
ENDMDL
MODEL      132
REMARK 921   NORMALIZED FREE ENERGY PREDICTED BY IDOCK:   -4.61 KCAL/MOL
REMARK 922        TOTAL FREE ENERGY PREDICTED BY IDOCK:   -6.44 KCAL/MOL
REMARK 923 INTER-LIGAND FREE ENERGY PREDICTED BY IDOCK:   -6.16 KCAL/MOL
REMARK 924 INTRA-LIGAND FREE ENERGY PREDICTED BY IDOCK:   -0.28 KCAL/MOL
REMARK 927      BINDING AFFINITY PREDICTED BY RF-SCORE:    0.00 PKD
ROOT
HETATM    1  C   UNL     1      -5.884  13.786  70.020  1.00  0.00    -0.137 C  
HETATM    2  C   UNL     1      -6.839  13.956  68.878  1.00  0.00    -0.109 A  
HETATM    3  C   UNL     1      -6.845  15.121  68.115  1.00  0.00    -0.135 A  
HETATM    4  C   UNL     1      -7.845  15.348  67.158  1.00  0.00    -0.249 A  
HETATM    5  C   UNL     1      -8.887  14.431  66.943  1.00  0.00    -0.223 A  
HETATM    6  C   UNL     1      -8.761  13.197  67.609  1.00  0.00    -0.192 A  
HETATM    7  C   UNL     1      -7.770  12.965  68.573  1.00  0.00    -0.109 A  
ENDROOT
BRANCH   5   8
HETATM    8  N   UNL     1     -10.044  14.699  66.157  1.00  0.00    -0.286 NA 
BRANCH   8   9
HETATM    9  C   UNL     1     -11.096  15.598  66.718  1.00  0.00    -0.169 C  
BRANCH   9  10
HETATM   10  C   UNL     1     -11.524  15.174  68.120  1.00  0.00    -0.342 C  
HETATM   11  C   UNL     1     -12.086  13.782  69.832  1.00  0.00    -0.348 C  
HETATM   12  N   UNL     1     -11.373  15.989  69.139  1.00  0.00    -0.342 NA 
HETATM   13  C   UNL     1     -11.914  15.231  70.302  1.00  0.00    -0.330 C  
HETATM   14  N   UNL     1     -12.091  13.953  68.399  1.00  0.00    -0.349 NA 
ENDBRANCH   9  10
ENDBRANCH   8   9
BRANCH   8  15
HETATM   15  C   UNL     1     -10.605  13.789  65.185  1.00  0.00    -0.374 A  
HETATM   16  C   UNL     1     -10.124  12.473  65.024  1.00  0.00    -0.258 A  
HETATM   17  C   UNL     1     -11.701  14.166  64.382  1.00  0.00    -0.409 A  
HETATM   18  C   UNL     1     -10.729  11.590  64.125  1.00  0.00    -0.368 A  
HETATM   19  C   UNL     1     -12.325  13.262  63.512  1.00  0.00    -0.442 A  
HETATM   20  O   UNL     1     -10.255  10.323  63.937  1.00  0.00    -0.450 OA 
HETATM   21  C   UNL     1     -11.841  11.967  63.389  1.00  0.00    -0.542 A  
HETATM   22  H   UNL     1     -10.667   9.723  63.325  1.00  0.00     0.000 HD 
ENDBRANCH   8  15
ENDBRANCH   5   8
TORSDOF 4
ENDMDL
MODEL      133
REMARK 921   NORMALIZED FREE ENERGY PREDICTED BY IDOCK:   -4.61 KCAL/MOL
REMARK 922        TOTAL FREE ENERGY PREDICTED BY IDOCK:   -6.44 KCAL/MOL
REMARK 923 INTER-LIGAND FREE ENERGY PREDICTED BY IDOCK:   -6.54 KCAL/MOL
REMARK 924 INTRA-LIGAND FREE ENERGY PREDICTED BY IDOCK:    0.10 KCAL/MOL
REMARK 927      BINDING AFFINITY PREDICTED BY RF-SCORE:    0.00 PKD
ROOT
HETATM    1  C   UNL     1      -8.657   9.209  62.386  1.00  0.00    -0.226 C  
HETATM    2  C   UNL     1      -9.056  10.037  63.569  1.00  0.00    -0.303 A  
HETATM    3  C   UNL     1     -10.251  10.753  63.573  1.00  0.00    -0.315 A  
HETATM    4  C   UNL     1     -10.545  11.656  64.605  1.00  0.00    -0.366 A  
HETATM    5  C   UNL     1      -9.647  11.894  65.659  1.00  0.00    -0.204 A  
HETATM    6  C   UNL     1      -8.529  11.040  65.713  1.00  0.00    -0.119 A  
HETATM    7  C   UNL     1      -8.224  10.141  64.683  1.00  0.00    -0.165 A  
ENDROOT
BRANCH   5   8
HETATM    8  N   UNL     1      -9.782  12.948  66.607  1.00  0.00    -0.248 NA 
BRANCH   8   9
HETATM    9  C   UNL     1     -10.418  12.646  67.924  1.00  0.00    -0.218 C  
BRANCH   9  10
HETATM   10  C   UNL     1     -10.294  11.172  68.297  1.00  0.00    -0.180 C  
HETATM   11  C   UNL     1     -10.613   8.921  68.166  1.00  0.00    -0.157 C  
HETATM   12  N   UNL     1      -9.300  10.754  69.046  1.00  0.00    -0.181 NA 
HETATM   13  C   UNL     1      -9.538   9.290  69.194  1.00  0.00    -0.161 C  
HETATM   14  N   UNL     1     -11.195  10.214  67.895  1.00  0.00    -0.246 NA 
ENDBRANCH   9  10
ENDBRANCH   8   9
BRANCH   8  15
HETATM   15  C   UNL     1      -9.933  14.344  66.268  1.00  0.00    -0.306 A  
HETATM   16  C   UNL     1     -10.687  14.769  65.155  1.00  0.00    -0.433 A  
HETATM   17  C   UNL     1      -9.366  15.355  67.072  1.00  0.00    -0.238 A  
HETATM   18  C   UNL     1     -10.874  16.128  64.888  1.00  0.00    -0.334 A  
HETATM   19  C   UNL     1      -9.591  16.714  66.819  1.00  0.00    -0.270 A  
HETATM   20  O   UNL     1     -11.578  16.553  63.796  1.00  0.00    -1.617 OA 
HETATM   21  C   UNL     1     -10.354  17.102  65.726  1.00  0.00    -0.253 A  
HETATM   22  H   UNL     1     -11.705  17.478  63.615  1.00  0.00     0.000 HD 
ENDBRANCH   8  15
ENDBRANCH   5   8
TORSDOF 4
ENDMDL
MODEL      134
REMARK 921   NORMALIZED FREE ENERGY PREDICTED BY IDOCK:   -4.58 KCAL/MOL
REMARK 922        TOTAL FREE ENERGY PREDICTED BY IDOCK:   -6.40 KCAL/MOL
REMARK 923 INTER-LIGAND FREE ENERGY PREDICTED BY IDOCK:   -5.57 KCAL/MOL
REMARK 924 INTRA-LIGAND FREE ENERGY PREDICTED BY IDOCK:   -0.84 KCAL/MOL
REMARK 927      BINDING AFFINITY PREDICTED BY RF-SCORE:    0.00 PKD
ROOT
HETATM    1  C   UNL     1     -11.791  14.960  64.927  1.00  0.00    -0.337 C  
HETATM    2  C   UNL     1     -11.346  13.912  65.900  1.00  0.00    -0.314 A  
HETATM    3  C   UNL     1     -11.797  12.598  65.796  1.00  0.00    -0.497 A  
HETATM    4  C   UNL     1     -11.515  11.659  66.798  1.00  0.00    -0.299 A  
HETATM    5  C   UNL     1     -10.791  12.002  67.953  1.00  0.00    -0.215 A  
HETATM    6  C   UNL     1     -10.212  13.285  67.951  1.00  0.00    -0.233 A  
HETATM    7  C   UNL     1     -10.495  14.232  66.957  1.00  0.00    -0.271 A  
ENDROOT
BRANCH   5   8
HETATM    8  N   UNL     1     -10.663  11.167  69.099  1.00  0.00    -0.222 NA 
BRANCH   8   9
HETATM    9  C   UNL     1      -9.912   9.883  68.966  1.00  0.00    -0.187 C  
BRANCH   9  10
HETATM   10  C   UNL     1      -8.507  10.095  68.412  1.00  0.00    -0.118 C  
HETATM   11  C   UNL     1      -6.835  10.217  66.870  1.00  0.00    -0.086 C  
HETATM   12  N   UNL     1      -7.619  10.787  69.088  1.00  0.00    -0.124 NA 
HETATM   13  C   UNL     1      -6.396  10.751  68.238  1.00  0.00    -0.057 C  
HETATM   14  N   UNL     1      -8.085   9.579  67.208  1.00  0.00    -0.109 NA 
ENDBRANCH   9  10
ENDBRANCH   8   9
BRANCH   8  15
HETATM   15  C   UNL     1     -11.625  11.095  70.175  1.00  0.00    -0.323 A  
HETATM   16  C   UNL     1     -12.229  12.246  70.720  1.00  0.00    -0.354 A  
HETATM   17  C   UNL     1     -12.041   9.853  70.698  1.00  0.00    -0.343 A  
HETATM   18  C   UNL     1     -13.207  12.145  71.713  1.00  0.00    -0.320 A  
HETATM   19  C   UNL     1     -13.050   9.760  71.666  1.00  0.00    -0.516 A  
HETATM   20  O   UNL     1     -13.779  13.253  72.271  1.00  0.00    -0.548 OA 
HETATM   21  C   UNL     1     -13.640  10.910  72.170  1.00  0.00    -0.092 A  
HETATM   22  H   UNL     1     -14.443  13.184  72.947  1.00  0.00     0.000 HD 
ENDBRANCH   8  15
ENDBRANCH   5   8
TORSDOF 4
ENDMDL
MODEL      135
REMARK 921   NORMALIZED FREE ENERGY PREDICTED BY IDOCK:   -4.58 KCAL/MOL
REMARK 922        TOTAL FREE ENERGY PREDICTED BY IDOCK:   -6.40 KCAL/MOL
REMARK 923 INTER-LIGAND FREE ENERGY PREDICTED BY IDOCK:   -5.72 KCAL/MOL
REMARK 924 INTRA-LIGAND FREE ENERGY PREDICTED BY IDOCK:   -0.68 KCAL/MOL
REMARK 927      BINDING AFFINITY PREDICTED BY RF-SCORE:    0.00 PKD
ROOT
HETATM    1  C   UNL     1      -6.232  19.549  65.182  1.00  0.00    -0.300 C  
HETATM    2  C   UNL     1      -7.185  18.660  65.921  1.00  0.00    -0.267 A  
HETATM    3  C   UNL     1      -6.826  17.363  66.278  1.00  0.00    -0.307 A  
HETATM    4  C   UNL     1      -7.770  16.477  66.818  1.00  0.00    -0.294 A  
HETATM    5  C   UNL     1      -9.113  16.847  67.001  1.00  0.00    -0.226 A  
HETATM    6  C   UNL     1      -9.406  18.208  66.785  1.00  0.00    -0.286 A  
HETATM    7  C   UNL     1      -8.470  19.096  66.238  1.00  0.00    -0.311 A  
ENDROOT
BRANCH   5   8
HETATM    8  N   UNL     1     -10.159  15.940  67.330  1.00  0.00    -0.248 NA 
BRANCH   8   9
HETATM    9  C   UNL     1     -11.160  15.592  66.278  1.00  0.00    -0.127 C  
BRANCH   9  10
HETATM   10  C   UNL     1     -10.989  14.163  65.773  1.00  0.00    -0.301 C  
HETATM   11  C   UNL     1     -10.651  12.467  64.291  1.00  0.00    -0.363 C  
HETATM   12  N   UNL     1     -10.653  13.199  66.599  1.00  0.00    -0.277 NA 
HETATM   13  C   UNL     1     -10.605  11.979  65.743  1.00  0.00    -0.263 C  
HETATM   14  N   UNL     1     -11.184  13.798  64.461  1.00  0.00    -0.374 NA 
ENDBRANCH   9  10
ENDBRANCH   8   9
BRANCH   8  15
HETATM   15  C   UNL     1     -10.720  15.778  68.652  1.00  0.00    -0.263 A  
HETATM   16  C   UNL     1     -12.109  15.664  68.868  1.00  0.00    -0.183 A  
HETATM   17  C   UNL     1      -9.891  15.676  69.788  1.00  0.00    -0.260 A  
HETATM   18  C   UNL     1     -12.623  15.439  70.149  1.00  0.00    -0.293 A  
HETATM   19  C   UNL     1     -10.413  15.413  71.062  1.00  0.00     0.249 A  
HETATM   20  O   UNL     1     -13.967  15.357  70.377  1.00  0.00    -0.603 OA 
HETATM   21  C   UNL     1     -11.783  15.286  71.241  1.00  0.00    -0.425 A  
HETATM   22  H   UNL     1     -14.316  15.204  71.248  1.00  0.00     0.000 HD 
ENDBRANCH   8  15
ENDBRANCH   5   8
TORSDOF 4
ENDMDL
MODEL      136
REMARK 921   NORMALIZED FREE ENERGY PREDICTED BY IDOCK:   -4.58 KCAL/MOL
REMARK 922        TOTAL FREE ENERGY PREDICTED BY IDOCK:   -6.39 KCAL/MOL
REMARK 923 INTER-LIGAND FREE ENERGY PREDICTED BY IDOCK:   -5.93 KCAL/MOL
REMARK 924 INTRA-LIGAND FREE ENERGY PREDICTED BY IDOCK:   -0.47 KCAL/MOL
REMARK 927      BINDING AFFINITY PREDICTED BY RF-SCORE:    0.00 PKD
ROOT
HETATM    1  C   UNL     1      -5.350  15.010  68.052  1.00  0.00    -0.131 C  
HETATM    2  C   UNL     1      -6.765  14.770  68.482  1.00  0.00    -0.097 A  
HETATM    3  C   UNL     1      -7.467  13.649  68.046  1.00  0.00    -0.133 A  
HETATM    4  C   UNL     1      -8.837  13.511  68.311  1.00  0.00    -0.179 A  
HETATM    5  C   UNL     1      -9.561  14.496  69.003  1.00  0.00    -0.102 A  
HETATM    6  C   UNL     1      -8.794  15.532  69.570  1.00  0.00    -0.229 A  
HETATM    7  C   UNL     1      -7.427  15.682  69.303  1.00  0.00    -0.216 A  
ENDROOT
BRANCH   5   8
HETATM    8  N   UNL     1     -10.981  14.524  69.110  1.00  0.00    -0.261 NA 
BRANCH   8   9
HETATM    9  C   UNL     1     -11.769  15.124  67.993  1.00  0.00    -0.285 C  
BRANCH   9  10
HETATM   10  C   UNL     1     -11.053  16.314  67.359  1.00  0.00    -0.095 C  
HETATM   11  C   UNL     1     -10.105  18.379  67.209  1.00  0.00    -0.352 C  
HETATM   12  N   UNL     1     -10.335  16.159  66.271  1.00  0.00    -0.315 NA 
HETATM   13  C   UNL     1      -9.826  17.526  65.967  1.00  0.00    -0.179 C  
HETATM   14  N   UNL     1     -11.122  17.591  67.865  1.00  0.00    -0.127 NA 
ENDBRANCH   9  10
ENDBRANCH   8   9
BRANCH   8  15
HETATM   15  C   UNL     1     -11.710  14.599  70.355  1.00  0.00    -0.295 A  
HETATM   16  C   UNL     1     -12.304  13.465  70.946  1.00  0.00    -0.436 A  
HETATM   17  C   UNL     1     -11.817  15.812  71.065  1.00  0.00    -0.460 A  
HETATM   18  C   UNL     1     -12.945  13.550  72.185  1.00  0.00    -0.311 A  
HETATM   19  C   UNL     1     -12.427  15.880  72.325  1.00  0.00    -0.543 A  
HETATM   20  O   UNL     1     -13.551  12.466  72.755  1.00  0.00    -0.597 OA 
HETATM   21  C   UNL     1     -12.987  14.743  72.889  1.00  0.00    -0.583 A  
HETATM   22  H   UNL     1     -13.987  12.524  73.597  1.00  0.00     0.000 HD 
ENDBRANCH   8  15
ENDBRANCH   5   8
TORSDOF 4
ENDMDL
MODEL      137
REMARK 921   NORMALIZED FREE ENERGY PREDICTED BY IDOCK:   -4.57 KCAL/MOL
REMARK 922        TOTAL FREE ENERGY PREDICTED BY IDOCK:   -6.39 KCAL/MOL
REMARK 923 INTER-LIGAND FREE ENERGY PREDICTED BY IDOCK:   -5.51 KCAL/MOL
REMARK 924 INTRA-LIGAND FREE ENERGY PREDICTED BY IDOCK:   -0.88 KCAL/MOL
REMARK 927      BINDING AFFINITY PREDICTED BY RF-SCORE:    0.00 PKD
ROOT
HETATM    1  C   UNL     1     -10.982   6.967  73.117  1.00  0.00    -0.315 C  
HETATM    2  C   UNL     1     -11.098   7.785  71.867  1.00  0.00    -0.302 A  
HETATM    3  C   UNL     1     -10.618   7.308  70.650  1.00  0.00    -0.240 A  
HETATM    4  C   UNL     1     -10.575   8.136  69.519  1.00  0.00    -0.215 A  
HETATM    5  C   UNL     1     -10.988   9.478  69.567  1.00  0.00    -0.195 A  
HETATM    6  C   UNL     1     -11.618   9.880  70.761  1.00  0.00    -0.430 A  
HETATM    7  C   UNL     1     -11.657   9.061  71.898  1.00  0.00    -0.441 A  
ENDROOT
BRANCH   5   8
HETATM    8  N   UNL     1     -10.765  10.425  68.528  1.00  0.00    -0.206 NA 
BRANCH   8   9
HETATM    9  C   UNL     1     -11.920  11.240  68.045  1.00  0.00    -0.057 C  
BRANCH   9  10
HETATM   10  C   UNL     1     -11.712  12.732  68.289  1.00  0.00    -0.344 C  
HETATM   11  C   UNL     1     -11.469  14.943  67.800  1.00  0.00    -0.338 C  
HETATM   12  N   UNL     1     -11.954  13.256  69.468  1.00  0.00    -0.317 NA 
HETATM   13  C   UNL     1     -11.621  14.700  69.306  1.00  0.00    -0.302 C  
HETATM   14  N   UNL     1     -11.258  13.597  67.321  1.00  0.00    -0.300 NA 
ENDBRANCH   9  10
ENDBRANCH   8   9
BRANCH   8  15
HETATM   15  C   UNL     1      -9.758  10.297  67.501  1.00  0.00    -0.169 A  
HETATM   16  C   UNL     1     -10.068   9.861  66.196  1.00  0.00    -0.315 A  
HETATM   17  C   UNL     1      -8.415  10.651  67.748  1.00  0.00    -0.116 A  
HETATM   18  C   UNL     1      -9.087   9.810  65.201  1.00  0.00    -0.222 A  
HETATM   19  C   UNL     1      -7.448  10.634  66.735  1.00  0.00    -0.120 A  
HETATM   20  O   UNL     1      -9.368   9.363  63.941  1.00  0.00    -0.414 OA 
HETATM   21  C   UNL     1      -7.788  10.219  65.455  1.00  0.00    -0.152 A  
HETATM   22  H   UNL     1      -8.701   9.328  63.265  1.00  0.00     0.000 HD 
ENDBRANCH   8  15
ENDBRANCH   5   8
TORSDOF 4
ENDMDL
MODEL      138
REMARK 921   NORMALIZED FREE ENERGY PREDICTED BY IDOCK:   -4.57 KCAL/MOL
REMARK 922        TOTAL FREE ENERGY PREDICTED BY IDOCK:   -6.39 KCAL/MOL
REMARK 923 INTER-LIGAND FREE ENERGY PREDICTED BY IDOCK:   -5.83 KCAL/MOL
REMARK 924 INTRA-LIGAND FREE ENERGY PREDICTED BY IDOCK:   -0.56 KCAL/MOL
REMARK 927      BINDING AFFINITY PREDICTED BY RF-SCORE:    0.00 PKD
ROOT
HETATM    1  C   UNL     1     -13.345  13.988  72.099  1.00  0.00    -0.545 C  
HETATM    2  C   UNL     1     -12.990  12.658  71.509  1.00  0.00    -0.380 A  
HETATM    3  C   UNL     1     -13.451  11.474  72.080  1.00  0.00    -0.298 A  
HETATM    4  C   UNL     1     -12.985  10.230  71.631  1.00  0.00    -0.570 A  
HETATM    5  C   UNL     1     -12.025  10.122  70.610  1.00  0.00    -0.332 A  
HETATM    6  C   UNL     1     -11.704  11.321  69.946  1.00  0.00    -0.430 A  
HETATM    7  C   UNL     1     -12.159  12.569  70.393  1.00  0.00    -0.380 A  
ENDROOT
BRANCH   5   8
HETATM    8  N   UNL     1     -11.352   8.916  70.264  1.00  0.00    -0.210 NA 
BRANCH   8   9
HETATM    9  C   UNL     1     -11.925   7.619  70.732  1.00  0.00    -0.169 C  
BRANCH   9  10
HETATM   10  C   UNL     1     -11.110   7.008  71.868  1.00  0.00    -0.242 C  
HETATM   11  C   UNL     1      -9.473   5.794  72.883  1.00  0.00    -0.154 C  
HETATM   12  N   UNL     1     -11.160   7.519  73.076  1.00  0.00    -0.375 NA 
HETATM   13  C   UNL     1     -10.259   6.649  73.883  1.00  0.00    -0.354 C  
HETATM   14  N   UNL     1     -10.304   5.905  71.708  1.00  0.00    -0.210 NA 
ENDBRANCH   9  10
ENDBRANCH   8   9
BRANCH   8  15
HETATM   15  C   UNL     1      -9.928   8.804  70.046  1.00  0.00    -0.187 A  
HETATM   16  C   UNL     1      -8.986   9.316  70.962  1.00  0.00    -0.225 A  
HETATM   17  C   UNL     1      -9.414   8.127  68.921  1.00  0.00    -0.151 A  
HETATM   18  C   UNL     1      -7.614   9.135  70.762  1.00  0.00    -0.133 A  
HETATM   19  C   UNL     1      -8.040   7.916  68.749  1.00  0.00    -0.126 A  
HETATM   20  O   UNL     1      -6.690   9.651  71.626  1.00  0.00    -0.307 OA 
HETATM   21  C   UNL     1      -7.138   8.416  69.678  1.00  0.00    -0.052 A  
HETATM   22  H   UNL     1      -5.758   9.528  71.489  1.00  0.00     0.000 HD 
ENDBRANCH   8  15
ENDBRANCH   5   8
TORSDOF 4
ENDMDL
MODEL      139
REMARK 921   NORMALIZED FREE ENERGY PREDICTED BY IDOCK:   -4.56 KCAL/MOL
REMARK 922        TOTAL FREE ENERGY PREDICTED BY IDOCK:   -6.38 KCAL/MOL
REMARK 923 INTER-LIGAND FREE ENERGY PREDICTED BY IDOCK:   -5.50 KCAL/MOL
REMARK 924 INTRA-LIGAND FREE ENERGY PREDICTED BY IDOCK:   -0.88 KCAL/MOL
REMARK 927      BINDING AFFINITY PREDICTED BY RF-SCORE:    0.00 PKD
ROOT
HETATM    1  C   UNL     1      -8.081   9.525  65.729  1.00  0.00    -0.111 C  
HETATM    2  C   UNL     1      -8.971   9.596  66.931  1.00  0.00    -0.151 A  
HETATM    3  C   UNL     1     -10.325   9.281  66.841  1.00  0.00    -0.316 A  
HETATM    4  C   UNL     1     -11.190   9.507  67.922  1.00  0.00     0.110 A  
HETATM    5  C   UNL     1     -10.739  10.076  69.125  1.00  0.00    -0.220 A  
HETATM    6  C   UNL     1      -9.344  10.230  69.243  1.00  0.00    -0.221 A  
HETATM    7  C   UNL     1      -8.475  10.014  68.165  1.00  0.00    -0.114 A  
ENDROOT
BRANCH   5   8
HETATM    8  N   UNL     1     -11.594  10.533  70.168  1.00  0.00    -0.300 NA 
BRANCH   8   9
HETATM    9  C   UNL     1     -12.644   9.606  70.688  1.00  0.00    -0.056 C  
BRANCH   9  10
HETATM   10  C   UNL     1     -12.042   8.400  71.402  1.00  0.00    -0.301 C  
HETATM   11  C   UNL     1     -11.095   7.191  73.083  1.00  0.00    -0.262 C  
HETATM   12  N   UNL     1     -12.279   7.182  70.972  1.00  0.00    -0.351 NA 
HETATM   13  C   UNL     1     -11.517   6.306  71.906  1.00  0.00    -0.309 C  
HETATM   14  N   UNL     1     -11.225   8.506  72.504  1.00  0.00    -0.330 NA 
ENDBRANCH   9  10
ENDBRANCH   8   9
BRANCH   8  15
HETATM   15  C   UNL     1     -11.972  11.912  70.376  1.00  0.00    -0.311 A  
HETATM   16  C   UNL     1     -11.648  12.926  69.451  1.00  0.00    -0.363 A  
HETATM   17  C   UNL     1     -12.731  12.298  71.500  1.00  0.00    -0.339 A  
HETATM   18  C   UNL     1     -12.085  14.240  69.641  1.00  0.00    -0.346 A  
HETATM   19  C   UNL     1     -13.197  13.609  71.662  1.00  0.00    -0.447 A  
HETATM   20  O   UNL     1     -11.754  15.238  68.769  1.00  0.00    -0.340 OA 
HETATM   21  C   UNL     1     -12.878  14.582  70.725  1.00  0.00    -0.423 A  
HETATM   22  H   UNL     1     -12.050  16.132  68.898  1.00  0.00     0.000 HD 
ENDBRANCH   8  15
ENDBRANCH   5   8
TORSDOF 4
ENDMDL
MODEL      140
REMARK 921   NORMALIZED FREE ENERGY PREDICTED BY IDOCK:   -4.54 KCAL/MOL
REMARK 922        TOTAL FREE ENERGY PREDICTED BY IDOCK:   -6.36 KCAL/MOL
REMARK 923 INTER-LIGAND FREE ENERGY PREDICTED BY IDOCK:   -5.49 KCAL/MOL
REMARK 924 INTRA-LIGAND FREE ENERGY PREDICTED BY IDOCK:   -0.86 KCAL/MOL
REMARK 927      BINDING AFFINITY PREDICTED BY RF-SCORE:    0.00 PKD
ROOT
HETATM    1  C   UNL     1     -12.321  14.358  64.723  1.00  0.00    -0.427 C  
HETATM    2  C   UNL     1     -11.789  13.135  65.405  1.00  0.00    -0.410 A  
HETATM    3  C   UNL     1     -11.834  13.010  66.791  1.00  0.00    -0.451 A  
HETATM    4  C   UNL     1     -11.189  11.947  67.439  1.00  0.00    -0.366 A  
HETATM    5  C   UNL     1     -10.456  10.981  66.728  1.00  0.00    -0.251 A  
HETATM    6  C   UNL     1     -10.566  11.042  65.326  1.00  0.00    -0.283 A  
HETATM    7  C   UNL     1     -11.202  12.105  64.671  1.00  0.00    -0.374 A  
ENDROOT
BRANCH   5   8
HETATM    8  N   UNL     1      -9.602  10.015  67.332  1.00  0.00    -0.152 NA 
BRANCH   8   9
HETATM    9  C   UNL     1      -8.174   9.955  66.898  1.00  0.00    -0.120 C  
BRANCH   9  10
HETATM   10  C   UNL     1      -7.301  10.947  67.660  1.00  0.00    -0.094 C  
HETATM   11  C   UNL     1      -5.903  12.714  67.997  1.00  0.00    -0.091 C  
HETATM   12  N   UNL     1      -7.464  11.127  68.950  1.00  0.00    -0.117 NA 
HETATM   13  C   UNL     1      -6.433  12.139  69.316  1.00  0.00    -0.111 C  
HETATM   14  N   UNL     1      -6.305  11.687  67.065  1.00  0.00    -0.137 NA 
ENDBRANCH   9  10
ENDBRANCH   8   9
BRANCH   8  15
HETATM   15  C   UNL     1     -10.040   8.738  67.848  1.00  0.00    -0.207 A  
HETATM   16  C   UNL     1     -10.045   8.449  69.227  1.00  0.00    -0.202 A  
HETATM   17  C   UNL     1     -10.532   7.735  66.987  1.00  0.00    -0.419 A  
HETATM   18  C   UNL     1     -10.538   7.231  69.706  1.00  0.00    -0.235 A  
HETATM   19  C   UNL     1     -11.059   6.534  67.479  1.00  0.00    -0.396 A  
HETATM   20  O   UNL     1     -10.522   6.925  71.037  1.00  0.00    -0.212 OA 
HETATM   21  C   UNL     1     -11.069   6.284  68.844  1.00  0.00    -0.434 A  
HETATM   22  H   UNL     1     -10.857   6.097  71.362  1.00  0.00     0.000 HD 
ENDBRANCH   8  15
ENDBRANCH   5   8
TORSDOF 4
ENDMDL
MODEL      141
REMARK 921   NORMALIZED FREE ENERGY PREDICTED BY IDOCK:   -4.54 KCAL/MOL
REMARK 922        TOTAL FREE ENERGY PREDICTED BY IDOCK:   -6.35 KCAL/MOL
REMARK 923 INTER-LIGAND FREE ENERGY PREDICTED BY IDOCK:   -5.61 KCAL/MOL
REMARK 924 INTRA-LIGAND FREE ENERGY PREDICTED BY IDOCK:   -0.75 KCAL/MOL
REMARK 927      BINDING AFFINITY PREDICTED BY RF-SCORE:    0.00 PKD
ROOT
HETATM    1  C   UNL     1     -12.678  12.780  70.249  1.00  0.00     0.074 C  
HETATM    2  C   UNL     1     -12.094  11.435  70.555  1.00  0.00    -0.487 A  
HETATM    3  C   UNL     1     -11.102  10.883  69.748  1.00  0.00    -0.328 A  
HETATM    4  C   UNL     1     -10.676   9.560  69.935  1.00  0.00    -0.268 A  
HETATM    5  C   UNL     1     -11.241   8.732  70.919  1.00  0.00    -0.270 A  
HETATM    6  C   UNL     1     -12.119   9.365  71.819  1.00  0.00    -0.454 A  
HETATM    7  C   UNL     1     -12.556  10.684  71.635  1.00  0.00    -0.482 A  
ENDROOT
BRANCH   5   8
HETATM    8  N   UNL     1     -11.017   7.329  71.015  1.00  0.00    -0.247 NA 
BRANCH   8   9
HETATM    9  C   UNL     1     -11.762   6.422  70.090  1.00  0.00    -0.303 C  
BRANCH   9  10
HETATM   10  C   UNL     1     -10.906   5.981  68.906  1.00  0.00    -0.331 C  
HETATM   11  C   UNL     1      -9.539   4.652  67.661  1.00  0.00    -0.161 C  
HETATM   12  N   UNL     1     -11.074   6.523  67.722  1.00  0.00    -0.310 NA 
HETATM   13  C   UNL     1     -10.061   5.850  66.861  1.00  0.00    -0.188 C  
HETATM   14  N   UNL     1      -9.922   5.025  69.002  1.00  0.00    -0.185 NA 
ENDBRANCH   9  10
ENDBRANCH   8   9
BRANCH   8  15
HETATM   15  C   UNL     1     -10.643   6.637  72.227  1.00  0.00    -0.214 A  
HETATM   16  C   UNL     1     -11.066   5.321  72.501  1.00  0.00    -0.289 A  
HETATM   17  C   UNL     1      -9.789   7.238  73.175  1.00  0.00    -0.281 A  
HETATM   18  C   UNL     1     -10.635   4.649  73.648  1.00  0.00    -0.249 A  
HETATM   19  C   UNL     1      -9.331   6.544  74.302  1.00  0.00    -0.228 A  
HETATM   20  O   UNL     1     -11.061   3.384  73.941  1.00  0.00    -0.211 OA 
HETATM   21  C   UNL     1      -9.750   5.241  74.535  1.00  0.00    -0.193 A  
HETATM   22  H   UNL     1     -10.768   2.928  74.721  1.00  0.00     0.000 HD 
ENDBRANCH   8  15
ENDBRANCH   5   8
TORSDOF 4
ENDMDL
MODEL      142
REMARK 921   NORMALIZED FREE ENERGY PREDICTED BY IDOCK:   -4.53 KCAL/MOL
REMARK 922        TOTAL FREE ENERGY PREDICTED BY IDOCK:   -6.34 KCAL/MOL
REMARK 923 INTER-LIGAND FREE ENERGY PREDICTED BY IDOCK:   -5.76 KCAL/MOL
REMARK 924 INTRA-LIGAND FREE ENERGY PREDICTED BY IDOCK:   -0.58 KCAL/MOL
REMARK 927      BINDING AFFINITY PREDICTED BY RF-SCORE:    0.00 PKD
ROOT
HETATM    1  C   UNL     1     -10.031  20.517  67.319  1.00  0.00    -0.528 C  
HETATM    2  C   UNL     1     -10.118  19.022  67.300  1.00  0.00    -0.436 A  
HETATM    3  C   UNL     1     -10.273  18.298  68.480  1.00  0.00    -0.402 A  
HETATM    4  C   UNL     1     -10.187  16.898  68.481  1.00  0.00    -0.310 A  
HETATM    5  C   UNL     1      -9.921  16.171  67.309  1.00  0.00    -0.248 A  
HETATM    6  C   UNL     1      -9.932  16.915  66.113  1.00  0.00    -0.332 A  
HETATM    7  C   UNL     1     -10.010  18.315  66.104  1.00  0.00    -0.313 A  
ENDROOT
BRANCH   5   8
HETATM    8  N   UNL     1      -9.602  14.784  67.278  1.00  0.00    -0.219 NA 
BRANCH   8   9
HETATM    9  C   UNL     1     -10.721  13.796  67.224  1.00  0.00    -0.283 C  
BRANCH   9  10
HETATM   10  C   UNL     1     -11.224  13.576  65.800  1.00  0.00    -0.297 C  
HETATM   11  C   UNL     1     -11.437  12.590  63.758  1.00  0.00    -0.469 C  
HETATM   12  N   UNL     1     -12.353  14.115  65.400  1.00  0.00    -0.450 NA 
HETATM   13  C   UNL     1     -12.482  13.689  63.978  1.00  0.00    -0.225 C  
HETATM   14  N   UNL     1     -10.543  12.831  64.866  1.00  0.00    -0.301 NA 
ENDBRANCH   9  10
ENDBRANCH   8   9
BRANCH   8  15
HETATM   15  C   UNL     1      -8.423  14.197  67.872  1.00  0.00    -0.167 A  
HETATM   16  C   UNL     1      -7.689  14.851  68.883  1.00  0.00    -0.148 A  
HETATM   17  C   UNL     1      -7.981  12.912  67.498  1.00  0.00    -0.178 A  
HETATM   18  C   UNL     1      -6.591  14.234  69.490  1.00  0.00    -0.134 A  
HETATM   19  C   UNL     1      -6.904  12.285  68.139  1.00  0.00    -0.078 A  
HETATM   20  O   UNL     1      -5.853  14.867  70.449  1.00  0.00    -0.138 OA 
HETATM   21  C   UNL     1      -6.212  12.947  69.144  1.00  0.00    -0.101 A  
HETATM   22  H   UNL     1      -5.107  14.447  70.862  1.00  0.00     0.000 HD 
ENDBRANCH   8  15
ENDBRANCH   5   8
TORSDOF 4
ENDMDL
MODEL      143
REMARK 921   NORMALIZED FREE ENERGY PREDICTED BY IDOCK:   -4.49 KCAL/MOL
REMARK 922        TOTAL FREE ENERGY PREDICTED BY IDOCK:   -6.30 KCAL/MOL
REMARK 923 INTER-LIGAND FREE ENERGY PREDICTED BY IDOCK:   -5.50 KCAL/MOL
REMARK 924 INTRA-LIGAND FREE ENERGY PREDICTED BY IDOCK:   -0.79 KCAL/MOL
REMARK 927      BINDING AFFINITY PREDICTED BY RF-SCORE:    0.00 PKD
ROOT
HETATM    1  C   UNL     1     -12.786  14.382  70.485  1.00  0.00    -0.353 C  
HETATM    2  C   UNL     1     -12.283  12.984  70.291  1.00  0.00    -0.368 A  
HETATM    3  C   UNL     1     -12.587  11.979  71.205  1.00  0.00    -0.372 A  
HETATM    4  C   UNL     1     -11.983  10.717  71.114  1.00  0.00    -0.401 A  
HETATM    5  C   UNL     1     -11.034  10.419  70.121  1.00  0.00    -0.300 A  
HETATM    6  C   UNL     1     -10.871  11.397  69.120  1.00  0.00    -0.260 A  
HETATM    7  C   UNL     1     -11.466  12.663  69.208  1.00  0.00    -0.354 A  
ENDROOT
BRANCH   5   8
HETATM    8  N   UNL     1     -10.226   9.247  70.106  1.00  0.00    -0.200 NA 
BRANCH   8   9
HETATM    9  C   UNL     1      -8.811   9.350  70.574  1.00  0.00    -0.239 C  
BRANCH   9  10
HETATM   10  C   UNL     1      -8.518   8.396  71.728  1.00  0.00    -0.165 C  
HETATM   11  C   UNL     1      -7.464   6.751  72.900  1.00  0.00    -0.083 C  
HETATM   12  N   UNL     1      -8.965   8.651  72.936  1.00  0.00    -0.338 NA 
HETATM   13  C   UNL     1      -8.491   7.500  73.756  1.00  0.00    -0.192 C  
HETATM   14  N   UNL     1      -7.798   7.233  71.580  1.00  0.00    -0.091 NA 
ENDBRANCH   9  10
ENDBRANCH   8   9
BRANCH   8  15
HETATM   15  C   UNL     1     -10.385   8.151  69.179  1.00  0.00    -0.220 A  
HETATM   16  C   UNL     1      -9.815   8.169  67.890  1.00  0.00    -0.206 A  
HETATM   17  C   UNL     1     -11.085   6.982  69.546  1.00  0.00    -0.221 A  
HETATM   18  C   UNL     1      -9.926   7.067  67.037  1.00  0.00    -0.210 A  
HETATM   19  C   UNL     1     -11.158   5.868  68.700  1.00  0.00    -0.191 A  
HETATM   20  O   UNL     1      -9.403   7.082  65.775  1.00  0.00    -0.385 OA 
HETATM   21  C   UNL     1     -10.569   5.909  67.444  1.00  0.00    -0.356 A  
HETATM   22  H   UNL     1      -9.479   6.333  65.195  1.00  0.00     0.000 HD 
ENDBRANCH   8  15
ENDBRANCH   5   8
TORSDOF 4
ENDMDL
MODEL      144
REMARK 921   NORMALIZED FREE ENERGY PREDICTED BY IDOCK:   -4.44 KCAL/MOL
REMARK 922        TOTAL FREE ENERGY PREDICTED BY IDOCK:   -6.22 KCAL/MOL
REMARK 923 INTER-LIGAND FREE ENERGY PREDICTED BY IDOCK:   -5.76 KCAL/MOL
REMARK 924 INTRA-LIGAND FREE ENERGY PREDICTED BY IDOCK:   -0.47 KCAL/MOL
REMARK 927      BINDING AFFINITY PREDICTED BY RF-SCORE:    0.00 PKD
ROOT
HETATM    1  C   UNL     1     -11.006   2.974  73.690  1.00  0.00    -0.323 C  
HETATM    2  C   UNL     1     -10.680   4.239  72.957  1.00  0.00    -0.272 A  
HETATM    3  C   UNL     1     -10.695   5.470  73.608  1.00  0.00    -0.321 A  
HETATM    4  C   UNL     1     -10.556   6.666  72.889  1.00  0.00    -0.272 A  
HETATM    5  C   UNL     1     -10.418   6.679  71.491  1.00  0.00    -0.215 A  
HETATM    6  C   UNL     1     -10.243   5.420  70.884  1.00  0.00    -0.303 A  
HETATM    7  C   UNL     1     -10.389   4.221  71.594  1.00  0.00    -0.083 A  
ENDROOT
BRANCH   5   8
HETATM    8  N   UNL     1     -10.496   7.850  70.686  1.00  0.00    -0.211 NA 
BRANCH   8   9
HETATM    9  C   UNL     1      -9.307   8.233  69.867  1.00  0.00    -0.159 C  
BRANCH   9  10
HETATM   10  C   UNL     1      -8.011   8.169  70.671  1.00  0.00    -0.096 C  
HETATM   11  C   UNL     1      -6.598   8.449  72.435  1.00  0.00    -0.088 C  
HETATM   12  N   UNL     1      -7.064   7.321  70.344  1.00  0.00    -0.064 NA 
HETATM   13  C   UNL     1      -5.982   7.574  71.338  1.00  0.00    -0.036 C  
HETATM   14  N   UNL     1      -7.754   8.980  71.751  1.00  0.00    -0.343 NA 
ENDBRANCH   9  10
ENDBRANCH   8   9
BRANCH   8  15
HETATM   15  C   UNL     1     -11.306   9.006  70.992  1.00  0.00    -0.297 A  
HETATM   16  C   UNL     1     -11.088  10.259  70.382  1.00  0.00    -0.391 A  
HETATM   17  C   UNL     1     -12.392   8.918  71.888  1.00  0.00    -0.445 A  
HETATM   18  C   UNL     1     -11.929  11.344  70.645  1.00  0.00    -0.314 A  
HETATM   19  C   UNL     1     -13.252  10.000  72.115  1.00  0.00    -0.489 A  
HETATM   20  O   UNL     1     -11.712  12.571  70.084  1.00  0.00    -0.494 OA 
HETATM   21  C   UNL     1     -13.023  11.216  71.485  1.00  0.00    -0.542 A  
HETATM   22  H   UNL     1     -12.283  13.308  70.263  1.00  0.00     0.000 HD 
ENDBRANCH   8  15
ENDBRANCH   5   8
TORSDOF 4
ENDMDL
MODEL      145
REMARK 921   NORMALIZED FREE ENERGY PREDICTED BY IDOCK:   -4.43 KCAL/MOL
REMARK 922        TOTAL FREE ENERGY PREDICTED BY IDOCK:   -6.21 KCAL/MOL
REMARK 923 INTER-LIGAND FREE ENERGY PREDICTED BY IDOCK:   -5.48 KCAL/MOL
REMARK 924 INTRA-LIGAND FREE ENERGY PREDICTED BY IDOCK:   -0.73 KCAL/MOL
REMARK 927      BINDING AFFINITY PREDICTED BY RF-SCORE:    0.00 PKD
ROOT
HETATM    1  C   UNL     1     -10.506  16.845  67.001  1.00  0.00    -0.281 C  
HETATM    2  C   UNL     1     -10.597  15.416  67.440  1.00  0.00    -0.289 A  
HETATM    3  C   UNL     1      -9.735  14.906  68.408  1.00  0.00    -0.209 A  
HETATM    4  C   UNL     1      -9.708  13.535  68.697  1.00  0.00    -0.104 A  
HETATM    5  C   UNL     1     -10.525  12.617  68.015  1.00  0.00    -0.224 A  
HETATM    6  C   UNL     1     -11.496  13.180  67.164  1.00  0.00    -0.378 A  
HETATM    7  C   UNL     1     -11.524  14.549  66.864  1.00  0.00    -0.375 A  
ENDROOT
BRANCH   5   8
HETATM    8  N   UNL     1     -10.390  11.202  68.100  1.00  0.00    -0.181 NA 
BRANCH   8   9
HETATM    9  C   UNL     1     -11.030  10.360  67.046  1.00  0.00    -0.154 C  
BRANCH   9  10
HETATM   10  C   UNL     1     -10.139   9.196  66.622  1.00  0.00    -0.273 C  
HETATM   11  C   UNL     1      -8.258   8.108  65.939  1.00  0.00    -0.122 C  
HETATM   12  N   UNL     1     -10.460   7.961  66.935  1.00  0.00    -0.341 NA 
HETATM   13  C   UNL     1      -9.372   7.135  66.340  1.00  0.00    -0.143 C  
HETATM   14  N   UNL     1      -8.982   9.357  65.896  1.00  0.00    -0.166 NA 
ENDBRANCH   9  10
ENDBRANCH   8   9
BRANCH   8  15
HETATM   15  C   UNL     1     -10.241  10.464  69.332  1.00  0.00    -0.234 A  
HETATM   16  C   UNL     1     -11.340  10.160  70.162  1.00  0.00    -0.372 A  
HETATM   17  C   UNL     1      -8.985   9.968  69.738  1.00  0.00    -0.209 A  
HETATM   18  C   UNL     1     -11.180   9.385  71.315  1.00  0.00    -0.367 A  
HETATM   19  C   UNL     1      -8.841   9.160  70.873  1.00  0.00    -0.292 A  
HETATM   20  O   UNL     1     -12.230   9.108  72.143  1.00  0.00    -0.367 OA 
HETATM   21  C   UNL     1      -9.944   8.861  71.660  1.00  0.00    -0.397 A  
HETATM   22  H   UNL     1     -12.121   8.581  72.927  1.00  0.00     0.000 HD 
ENDBRANCH   8  15
ENDBRANCH   5   8
TORSDOF 4
ENDMDL
MODEL      146
REMARK 921   NORMALIZED FREE ENERGY PREDICTED BY IDOCK:   -4.39 KCAL/MOL
REMARK 922        TOTAL FREE ENERGY PREDICTED BY IDOCK:   -6.16 KCAL/MOL
REMARK 923 INTER-LIGAND FREE ENERGY PREDICTED BY IDOCK:   -5.48 KCAL/MOL
REMARK 924 INTRA-LIGAND FREE ENERGY PREDICTED BY IDOCK:   -0.68 KCAL/MOL
REMARK 927      BINDING AFFINITY PREDICTED BY RF-SCORE:    0.00 PKD
ROOT
HETATM    1  C   UNL     1     -13.276  11.547  71.893  1.00  0.00    -0.479 C  
HETATM    2  C   UNL     1     -12.202  11.020  70.992  1.00  0.00    -0.456 A  
HETATM    3  C   UNL     1     -11.911  11.644  69.781  1.00  0.00    -0.428 A  
HETATM    4  C   UNL     1     -11.026  11.058  68.865  1.00  0.00    -0.277 A  
HETATM    5  C   UNL     1     -10.415   9.818  69.113  1.00  0.00    -0.215 A  
HETATM    6  C   UNL     1     -10.600   9.295  70.408  1.00  0.00    -0.298 A  
HETATM    7  C   UNL     1     -11.489   9.870  71.327  1.00  0.00    -0.435 A  
ENDROOT
BRANCH   5   8
HETATM    8  N   UNL     1      -9.690   9.069  68.143  1.00  0.00    -0.149 NA 
BRANCH   8   9
HETATM    9  C   UNL     1      -9.292   9.746  66.872  1.00  0.00    -0.149 C  
BRANCH   9  10
HETATM   10  C   UNL     1      -7.780   9.914  66.761  1.00  0.00    -0.099 C  
HETATM   11  C   UNL     1      -5.784  10.628  65.927  1.00  0.00    -0.132 C  
HETATM   12  N   UNL     1      -7.006   9.701  67.801  1.00  0.00    -0.079 NA 
HETATM   13  C   UNL     1      -5.627   9.948  67.292  1.00  0.00    -0.046 C  
HETATM   14  N   UNL     1      -7.145  10.276  65.596  1.00  0.00    -0.132 NA 
ENDBRANCH   9  10
ENDBRANCH   8   9
BRANCH   8  15
HETATM   15  C   UNL     1      -9.801   7.641  67.956  1.00  0.00    -0.161 A  
HETATM   16  C   UNL     1     -10.583   7.078  66.927  1.00  0.00    -0.372 A  
HETATM   17  C   UNL     1      -9.086   6.741  68.774  1.00  0.00    -0.132 A  
HETATM   18  C   UNL     1     -10.619   5.695  66.724  1.00  0.00    -0.304 A  
HETATM   19  C   UNL     1      -9.098   5.360  68.539  1.00  0.00    -0.121 A  
HETATM   20  O   UNL     1     -11.395   5.133  65.750  1.00  0.00    -0.812 OA 
HETATM   21  C   UNL     1      -9.862   4.836  67.506  1.00  0.00    -0.206 A  
HETATM   22  H   UNL     1     -11.419   4.193  65.613  1.00  0.00     0.000 HD 
ENDBRANCH   8  15
ENDBRANCH   5   8
TORSDOF 4
ENDMDL
MODEL      147
REMARK 921   NORMALIZED FREE ENERGY PREDICTED BY IDOCK:   -4.38 KCAL/MOL
REMARK 922        TOTAL FREE ENERGY PREDICTED BY IDOCK:   -6.15 KCAL/MOL
REMARK 923 INTER-LIGAND FREE ENERGY PREDICTED BY IDOCK:   -5.69 KCAL/MOL
REMARK 924 INTRA-LIGAND FREE ENERGY PREDICTED BY IDOCK:   -0.46 KCAL/MOL
REMARK 927      BINDING AFFINITY PREDICTED BY RF-SCORE:    0.00 PKD
ROOT
HETATM    1  C   UNL     1      -9.517   4.286  65.859  1.00  0.00    -0.176 C  
HETATM    2  C   UNL     1      -9.545   5.472  66.774  1.00  0.00    -0.156 A  
HETATM    3  C   UNL     1      -8.438   5.804  67.552  1.00  0.00    -0.103 A  
HETATM    4  C   UNL     1      -8.520   6.808  68.528  1.00  0.00    -0.123 A  
HETATM    5  C   UNL     1      -9.716   7.503  68.778  1.00  0.00    -0.151 A  
HETATM    6  C   UNL     1     -10.764   7.260  67.870  1.00  0.00    -0.239 A  
HETATM    7  C   UNL     1     -10.693   6.253  66.897  1.00  0.00    -0.411 A  
ENDROOT
BRANCH   5   8
HETATM    8  N   UNL     1      -9.926   8.366  69.891  1.00  0.00    -0.187 NA 
BRANCH   8   9
HETATM    9  C   UNL     1      -8.756   8.726  70.746  1.00  0.00    -0.189 C  
BRANCH   9  10
HETATM   10  C   UNL     1      -8.721   7.918  72.040  1.00  0.00    -0.137 C  
HETATM   11  C   UNL     1      -8.343   6.146  73.421  1.00  0.00    -0.116 C  
HETATM   12  N   UNL     1      -8.760   8.521  73.206  1.00  0.00    -0.348 NA 
HETATM   13  C   UNL     1      -8.724   7.410  74.199  1.00  0.00    -0.224 C  
HETATM   14  N   UNL     1      -8.662   6.544  72.070  1.00  0.00    -0.132 NA 
ENDBRANCH   9  10
ENDBRANCH   8   9
BRANCH   8  15
HETATM   15  C   UNL     1     -11.160   8.460  70.636  1.00  0.00    -0.256 A  
HETATM   16  C   UNL     1     -11.642   9.686  71.138  1.00  0.00    -0.456 A  
HETATM   17  C   UNL     1     -11.968   7.324  70.854  1.00  0.00    -0.342 A  
HETATM   18  C   UNL     1     -12.873   9.761  71.797  1.00  0.00    -0.434 A  
HETATM   19  C   UNL     1     -13.217   7.416  71.481  1.00  0.00    -0.426 A  
HETATM   20  O   UNL     1     -13.338  10.937  72.314  1.00  0.00    -0.623 OA 
HETATM   21  C   UNL     1     -13.674   8.640  71.948  1.00  0.00    -0.462 A  
HETATM   22  H   UNL     1     -14.174  10.987  72.763  1.00  0.00     0.000 HD 
ENDBRANCH   8  15
ENDBRANCH   5   8
TORSDOF 4
ENDMDL
MODEL      148
REMARK 921   NORMALIZED FREE ENERGY PREDICTED BY IDOCK:   -4.38 KCAL/MOL
REMARK 922        TOTAL FREE ENERGY PREDICTED BY IDOCK:   -6.15 KCAL/MOL
REMARK 923 INTER-LIGAND FREE ENERGY PREDICTED BY IDOCK:   -5.59 KCAL/MOL
REMARK 924 INTRA-LIGAND FREE ENERGY PREDICTED BY IDOCK:   -0.56 KCAL/MOL
REMARK 927      BINDING AFFINITY PREDICTED BY RF-SCORE:    0.00 PKD
ROOT
HETATM    1  C   UNL     1      -8.809   2.107  70.652  1.00  0.00    -0.131 C  
HETATM    2  C   UNL     1      -9.504   3.433  70.595  1.00  0.00    -0.243 A  
HETATM    3  C   UNL     1      -9.740   4.068  69.379  1.00  0.00    -0.205 A  
HETATM    4  C   UNL     1     -10.237   5.378  69.336  1.00  0.00    -0.334 A  
HETATM    5  C   UNL     1     -10.496   6.111  70.507  1.00  0.00    -0.234 A  
HETATM    6  C   UNL     1     -10.404   5.388  71.712  1.00  0.00    -0.271 A  
HETATM    7  C   UNL     1      -9.900   4.082  71.764  1.00  0.00    -0.249 A  
ENDROOT
BRANCH   5   8
HETATM    8  N   UNL     1     -10.786   7.505  70.536  1.00  0.00    -0.230 NA 
BRANCH   8   9
HETATM    9  C   UNL     1      -9.648   8.471  70.489  1.00  0.00    -0.170 C  
BRANCH   9  10
HETATM   10  C   UNL     1      -8.548   8.110  71.483  1.00  0.00    -0.139 C  
HETATM   11  C   UNL     1      -7.581   7.627  73.488  1.00  0.00    -0.114 C  
HETATM   12  N   UNL     1      -7.435   7.548  71.073  1.00  0.00    -0.072 NA 
HETATM   13  C   UNL     1      -6.629   7.373  72.314  1.00  0.00    -0.051 C  
HETATM   14  N   UNL     1      -8.642   8.356  72.834  1.00  0.00    -0.336 NA 
ENDBRANCH   9  10
ENDBRANCH   8   9
BRANCH   8  15
HETATM   15  C   UNL     1     -11.937   8.092  71.182  1.00  0.00    -0.273 A  
HETATM   16  C   UNL     1     -11.990   9.459  71.522  1.00  0.00    -0.456 A  
HETATM   17  C   UNL     1     -13.087   7.325  71.459  1.00  0.00    -0.434 A  
HETATM   18  C   UNL     1     -13.141  10.018  72.085  1.00  0.00    -0.386 A  
HETATM   19  C   UNL     1     -14.250   7.901  71.988  1.00  0.00    -0.441 A  
HETATM   20  O   UNL     1     -13.196  11.334  72.447  1.00  0.00    -0.536 OA 
HETATM   21  C   UNL     1     -14.279   9.254  72.295  1.00  0.00    -0.287 A  
HETATM   22  H   UNL     1     -13.979  11.713  72.829  1.00  0.00     0.000 HD 
ENDBRANCH   8  15
ENDBRANCH   5   8
TORSDOF 4
ENDMDL
MODEL      149
REMARK 921   NORMALIZED FREE ENERGY PREDICTED BY IDOCK:   -4.38 KCAL/MOL
REMARK 922        TOTAL FREE ENERGY PREDICTED BY IDOCK:   -6.15 KCAL/MOL
REMARK 923 INTER-LIGAND FREE ENERGY PREDICTED BY IDOCK:   -5.54 KCAL/MOL
REMARK 924 INTRA-LIGAND FREE ENERGY PREDICTED BY IDOCK:   -0.60 KCAL/MOL
REMARK 927      BINDING AFFINITY PREDICTED BY RF-SCORE:    0.00 PKD
ROOT
HETATM    1  C   UNL     1     -10.804  10.526  67.261  1.00  0.00    -0.338 C  
HETATM    2  C   UNL     1     -10.282  11.859  67.704  1.00  0.00    -0.215 A  
HETATM    3  C   UNL     1     -11.137  12.944  67.877  1.00  0.00    -0.283 A  
HETATM    4  C   UNL     1     -10.631  14.227  68.127  1.00  0.00    -0.246 A  
HETATM    5  C   UNL     1      -9.250  14.479  68.192  1.00  0.00    -0.195 A  
HETATM    6  C   UNL     1      -8.421  13.340  68.177  1.00  0.00    -0.173 A  
HETATM    7  C   UNL     1      -8.918  12.056  67.919  1.00  0.00    -0.182 A  
ENDROOT
BRANCH   5   8
HETATM    8  N   UNL     1      -8.670  15.779  68.220  1.00  0.00    -0.169 NA 
BRANCH   8   9
HETATM    9  C   UNL     1      -7.593  16.059  69.217  1.00  0.00    -0.230 C  
BRANCH   9  10
HETATM   10  C   UNL     1      -6.545  17.025  68.673  1.00  0.00    -0.177 C  
HETATM   11  C   UNL     1      -5.173  18.026  67.156  1.00  0.00    -0.128 C  
HETATM   12  N   UNL     1      -6.266  18.137  69.314  1.00  0.00    -0.245 NA 
HETATM   13  C   UNL     1      -5.205  18.781  68.489  1.00  0.00    -0.189 C  
HETATM   14  N   UNL     1      -5.835  16.795  67.518  1.00  0.00    -0.140 NA 
ENDBRANCH   9  10
ENDBRANCH   8   9
BRANCH   8  15
HETATM   15  C   UNL     1      -9.357  16.993  67.846  1.00  0.00    -0.240 A  
HETATM   16  C   UNL     1      -9.738  17.963  68.796  1.00  0.00    -0.326 A  
HETATM   17  C   UNL     1      -9.636  17.287  66.495  1.00  0.00    -0.286 A  
HETATM   18  C   UNL     1     -10.341  19.161  68.402  1.00  0.00    -0.327 A  
HETATM   19  C   UNL     1     -10.205  18.506  66.106  1.00  0.00    -0.424 A  
HETATM   20  O   UNL     1     -10.741  20.096  69.314  1.00  0.00    -0.446 OA 
HETATM   21  C   UNL     1     -10.551  19.450  67.063  1.00  0.00    -0.586 A  
HETATM   22  H   UNL     1     -11.151  20.910  69.046  1.00  0.00     0.000 HD 
ENDBRANCH   8  15
ENDBRANCH   5   8
TORSDOF 4
ENDMDL
MODEL      150
REMARK 921   NORMALIZED FREE ENERGY PREDICTED BY IDOCK:   -4.35 KCAL/MOL
REMARK 922        TOTAL FREE ENERGY PREDICTED BY IDOCK:   -6.12 KCAL/MOL
REMARK 923 INTER-LIGAND FREE ENERGY PREDICTED BY IDOCK:   -5.27 KCAL/MOL
REMARK 924 INTRA-LIGAND FREE ENERGY PREDICTED BY IDOCK:   -0.85 KCAL/MOL
REMARK 927      BINDING AFFINITY PREDICTED BY RF-SCORE:    0.00 PKD
ROOT
HETATM    1  C   UNL     1      -6.326  12.062  68.840  1.00  0.00    -0.081 C  
HETATM    2  C   UNL     1      -7.365  11.063  69.251  1.00  0.00    -0.113 A  
HETATM    3  C   UNL     1      -7.111  10.138  70.260  1.00  0.00    -0.146 A  
HETATM    4  C   UNL     1      -8.015   9.100  70.529  1.00  0.00    -0.170 A  
HETATM    5  C   UNL     1      -9.196   8.935  69.786  1.00  0.00    -0.165 A  
HETATM    6  C   UNL     1      -9.502   9.976  68.888  1.00  0.00    -0.172 A  
HETATM    7  C   UNL     1      -8.600  11.011  68.607  1.00  0.00    -0.157 A  
ENDROOT
BRANCH   5   8
HETATM    8  N   UNL     1     -10.037   7.789  69.857  1.00  0.00    -0.199 NA 
BRANCH   8   9
HETATM    9  C   UNL     1     -10.591   7.391  71.186  1.00  0.00    -0.222 C  
BRANCH   9  10
HETATM   10  C   UNL     1     -11.986   7.964  71.420  1.00  0.00    -0.303 C  
HETATM   11  C   UNL     1     -13.619   9.535  71.645  1.00  0.00    -0.350 C  
HETATM   12  N   UNL     1     -13.051   7.213  71.263  1.00  0.00    -0.359 NA 
HETATM   13  C   UNL     1     -14.191   8.114  71.595  1.00  0.00    -0.446 C  
HETATM   14  N   UNL     1     -12.211   9.263  71.813  1.00  0.00    -0.363 NA 
ENDBRANCH   9  10
ENDBRANCH   8   9
BRANCH   8  15
HETATM   15  C   UNL     1      -9.951   6.650  68.971  1.00  0.00    -0.153 A  
HETATM   16  C   UNL     1     -10.742   6.543  67.809  1.00  0.00    -0.368 A  
HETATM   17  C   UNL     1      -9.029   5.610  69.208  1.00  0.00    -0.122 A  
HETATM   18  C   UNL     1     -10.592   5.465  66.932  1.00  0.00    -0.250 A  
HETATM   19  C   UNL     1      -8.858   4.554  68.304  1.00  0.00    -0.126 A  
HETATM   20  O   UNL     1     -11.371   5.333  65.818  1.00  0.00    -0.792 OA 
HETATM   21  C   UNL     1      -9.638   4.485  67.158  1.00  0.00    -0.209 A  
HETATM   22  H   UNL     1     -11.269   4.600  65.222  1.00  0.00     0.000 HD 
ENDBRANCH   8  15
ENDBRANCH   5   8
TORSDOF 4
ENDMDL
MODEL      151
REMARK 921   NORMALIZED FREE ENERGY PREDICTED BY IDOCK:   -4.35 KCAL/MOL
REMARK 922        TOTAL FREE ENERGY PREDICTED BY IDOCK:   -6.12 KCAL/MOL
REMARK 923 INTER-LIGAND FREE ENERGY PREDICTED BY IDOCK:   -5.86 KCAL/MOL
REMARK 924 INTRA-LIGAND FREE ENERGY PREDICTED BY IDOCK:   -0.26 KCAL/MOL
REMARK 927      BINDING AFFINITY PREDICTED BY RF-SCORE:    0.00 PKD
ROOT
HETATM    1  C   UNL     1     -13.231  10.848  71.711  1.00  0.00    -0.513 C  
HETATM    2  C   UNL     1     -12.344  11.564  70.739  1.00  0.00    -0.472 A  
HETATM    3  C   UNL     1     -12.353  12.954  70.649  1.00  0.00    -0.385 A  
HETATM    4  C   UNL     1     -11.651  13.613  69.630  1.00  0.00    -0.342 A  
HETATM    5  C   UNL     1     -10.932  12.908  68.650  1.00  0.00    -0.261 A  
HETATM    6  C   UNL     1     -10.808  11.522  68.863  1.00  0.00    -0.263 A  
HETATM    7  C   UNL     1     -11.513  10.855  69.874  1.00  0.00    -0.402 A  
ENDROOT
BRANCH   5   8
HETATM    8  N   UNL     1     -10.389  13.497  67.472  1.00  0.00    -0.236 NA 
BRANCH   8   9
HETATM    9  C   UNL     1      -9.209  12.846  66.829  1.00  0.00    -0.230 C  
BRANCH   9  10
HETATM   10  C   UNL     1      -7.894  13.277  67.473  1.00  0.00    -0.171 C  
HETATM   11  C   UNL     1      -6.190  14.657  68.087  1.00  0.00    -0.141 C  
HETATM   12  N   UNL     1      -7.360  12.567  68.440  1.00  0.00    -0.108 NA 
HETATM   13  C   UNL     1      -6.104  13.293  68.780  1.00  0.00    -0.086 C  
HETATM   14  N   UNL     1      -7.196  14.397  67.085  1.00  0.00    -0.080 NA 
ENDBRANCH   9  10
ENDBRANCH   8   9
BRANCH   8  15
HETATM   15  C   UNL     1     -10.435  14.907  67.162  1.00  0.00    -0.271 A  
HETATM   16  C   UNL     1     -10.258  15.899  68.149  1.00  0.00    -0.232 A  
HETATM   17  C   UNL     1     -10.612  15.357  65.837  1.00  0.00    -0.349 A  
HETATM   18  C   UNL     1     -10.239  17.255  67.812  1.00  0.00    -0.332 A  
HETATM   19  C   UNL     1     -10.553  16.716  65.504  1.00  0.00    -0.273 A  
HETATM   20  O   UNL     1     -10.097  18.227  68.762  1.00  0.00    -0.378 OA 
HETATM   21  C   UNL     1     -10.358  17.668  66.495  1.00  0.00    -0.337 A  
HETATM   22  H   UNL     1     -10.085  19.149  68.533  1.00  0.00     0.000 HD 
ENDBRANCH   8  15
ENDBRANCH   5   8
TORSDOF 4
ENDMDL
MODEL      152
REMARK 921   NORMALIZED FREE ENERGY PREDICTED BY IDOCK:   -4.35 KCAL/MOL
REMARK 922        TOTAL FREE ENERGY PREDICTED BY IDOCK:   -6.11 KCAL/MOL
REMARK 923 INTER-LIGAND FREE ENERGY PREDICTED BY IDOCK:   -5.72 KCAL/MOL
REMARK 924 INTRA-LIGAND FREE ENERGY PREDICTED BY IDOCK:   -0.40 KCAL/MOL
REMARK 927      BINDING AFFINITY PREDICTED BY RF-SCORE:    0.00 PKD
ROOT
HETATM    1  C   UNL     1      -9.155  20.177  67.176  1.00  0.00    -0.489 C  
HETATM    2  C   UNL     1      -9.736  18.796  67.194  1.00  0.00    -0.333 A  
HETATM    3  C   UNL     1      -9.672  18.005  68.338  1.00  0.00    -0.348 A  
HETATM    4  C   UNL     1     -10.064  16.659  68.306  1.00  0.00    -0.268 A  
HETATM    5  C   UNL     1     -10.512  16.046  67.124  1.00  0.00    -0.308 A  
HETATM    6  C   UNL     1     -10.720  16.909  66.030  1.00  0.00    -0.125 A  
HETATM    7  C   UNL     1     -10.324  18.253  66.052  1.00  0.00    -0.377 A  
ENDROOT
BRANCH   5   8
HETATM    8  N   UNL     1     -10.711  14.645  66.969  1.00  0.00    -0.285 NA 
BRANCH   8   9
HETATM    9  C   UNL     1     -12.055  14.075  67.285  1.00  0.00    -0.370 C  
BRANCH   9  10
HETATM   10  C   UNL     1     -12.155  13.610  68.734  1.00  0.00    -0.297 C  
HETATM   11  C   UNL     1     -12.683  13.679  70.949  1.00  0.00    -0.310 C  
HETATM   12  N   UNL     1     -12.056  12.335  69.035  1.00  0.00    -0.221 NA 
HETATM   13  C   UNL     1     -12.186  12.294  70.519  1.00  0.00    -0.300 C  
HETATM   14  N   UNL     1     -12.337  14.470  69.792  1.00  0.00    -0.302 NA 
ENDBRANCH   9  10
ENDBRANCH   8   9
BRANCH   8  15
HETATM   15  C   UNL     1      -9.677  13.647  67.123  1.00  0.00    -0.245 A  
HETATM   16  C   UNL     1      -8.773  13.663  68.205  1.00  0.00    -0.177 A  
HETATM   17  C   UNL     1      -9.558  12.575  66.214  1.00  0.00    -0.246 A  
HETATM   18  C   UNL     1      -7.826  12.648  68.368  1.00  0.00    -0.136 A  
HETATM   19  C   UNL     1      -8.632  11.542  66.406  1.00  0.00    -0.159 A  
HETATM   20  O   UNL     1      -6.925  12.667  69.395  1.00  0.00    -0.289 OA 
HETATM   21  C   UNL     1      -7.768  11.575  67.492  1.00  0.00    -0.132 A  
HETATM   22  H   UNL     1      -6.281  11.976  69.505  1.00  0.00     0.000 HD 
ENDBRANCH   8  15
ENDBRANCH   5   8
TORSDOF 4
ENDMDL
MODEL      153
REMARK 921   NORMALIZED FREE ENERGY PREDICTED BY IDOCK:   -4.34 KCAL/MOL
REMARK 922        TOTAL FREE ENERGY PREDICTED BY IDOCK:   -6.10 KCAL/MOL
REMARK 923 INTER-LIGAND FREE ENERGY PREDICTED BY IDOCK:   -5.62 KCAL/MOL
REMARK 924 INTRA-LIGAND FREE ENERGY PREDICTED BY IDOCK:   -0.48 KCAL/MOL
REMARK 927      BINDING AFFINITY PREDICTED BY RF-SCORE:    0.00 PKD
ROOT
HETATM    1  C   UNL     1     -13.515  11.583  71.951  1.00  0.00    -0.275 C  
HETATM    2  C   UNL     1     -12.885  10.244  71.718  1.00  0.00    -0.565 A  
HETATM    3  C   UNL     1     -11.603  10.136  71.185  1.00  0.00    -0.430 A  
HETATM    4  C   UNL     1     -11.081   8.890  70.812  1.00  0.00    -0.312 A  
HETATM    5  C   UNL     1     -11.828   7.706  70.938  1.00  0.00    -0.250 A  
HETATM    6  C   UNL     1     -13.049   7.826  71.628  1.00  0.00    -0.378 A  
HETATM    7  C   UNL     1     -13.582   9.069  71.996  1.00  0.00    -0.500 A  
ENDROOT
BRANCH   5   8
HETATM    8  N   UNL     1     -11.448   6.453  70.379  1.00  0.00    -0.388 NA 
BRANCH   8   9
HETATM    9  C   UNL     1     -10.977   5.375  71.299  1.00  0.00    -0.065 C  
BRANCH   9  10
HETATM   10  C   UNL     1      -9.977   5.895  72.328  1.00  0.00    -0.169 C  
HETATM   11  C   UNL     1      -9.050   6.280  74.372  1.00  0.00    -0.158 C  
HETATM   12  N   UNL     1      -8.754   6.212  71.970  1.00  0.00    -0.135 NA 
HETATM   13  C   UNL     1      -8.111   6.682  73.230  1.00  0.00    -0.107 C  
HETATM   14  N   UNL     1     -10.287   6.073  73.657  1.00  0.00    -0.236 NA 
ENDBRANCH   9  10
ENDBRANCH   8   9
BRANCH   8  15
HETATM   15  C   UNL     1     -10.903   6.275  69.053  1.00  0.00    -0.337 A  
HETATM   16  C   UNL     1     -10.812   7.338  68.131  1.00  0.00    -0.130 A  
HETATM   17  C   UNL     1     -10.390   5.030  68.636  1.00  0.00    -0.098 A  
HETATM   18  C   UNL     1     -10.218   7.157  66.878  1.00  0.00    -0.260 A  
HETATM   19  C   UNL     1      -9.762   4.867  67.395  1.00  0.00    -0.195 A  
HETATM   20  O   UNL     1     -10.150   8.170  65.965  1.00  0.00    -0.449 OA 
HETATM   21  C   UNL     1      -9.670   5.937  66.516  1.00  0.00    -0.185 A  
HETATM   22  H   UNL     1      -9.746   8.046  65.113  1.00  0.00     0.000 HD 
ENDBRANCH   8  15
ENDBRANCH   5   8
TORSDOF 4
ENDMDL
MODEL      154
REMARK 921   NORMALIZED FREE ENERGY PREDICTED BY IDOCK:   -4.32 KCAL/MOL
REMARK 922        TOTAL FREE ENERGY PREDICTED BY IDOCK:   -6.08 KCAL/MOL
REMARK 923 INTER-LIGAND FREE ENERGY PREDICTED BY IDOCK:   -5.43 KCAL/MOL
REMARK 924 INTRA-LIGAND FREE ENERGY PREDICTED BY IDOCK:   -0.65 KCAL/MOL
REMARK 927      BINDING AFFINITY PREDICTED BY RF-SCORE:    0.00 PKD
ROOT
HETATM    1  C   UNL     1     -14.385   8.374  72.652  1.00  0.00    -0.164 C  
HETATM    2  C   UNL     1     -13.153   8.804  71.916  1.00  0.00    -0.420 A  
HETATM    3  C   UNL     1     -12.811  10.150  71.815  1.00  0.00    -0.554 A  
HETATM    4  C   UNL     1     -11.756  10.565  70.989  1.00  0.00    -0.384 A  
HETATM    5  C   UNL     1     -11.018   9.652  70.216  1.00  0.00    -0.285 A  
HETATM    6  C   UNL     1     -11.279   8.291  70.464  1.00  0.00    -0.247 A  
HETATM    7  C   UNL     1     -12.337   7.869  71.281  1.00  0.00    -0.300 A  
ENDROOT
BRANCH   5   8
HETATM    8  N   UNL     1     -10.093  10.024  69.200  1.00  0.00    -0.195 NA 
BRANCH   8   9
HETATM    9  C   UNL     1     -10.393   9.641  67.788  1.00  0.00    -0.236 C  
BRANCH   9  10
HETATM   10  C   UNL     1     -10.860  10.833  66.957  1.00  0.00    -0.252 C  
HETATM   11  C   UNL     1     -11.814  12.849  66.497  1.00  0.00    -0.407 C  
HETATM   12  N   UNL     1     -10.331  11.075  65.780  1.00  0.00    -0.257 NA 
HETATM   13  C   UNL     1     -11.051  12.286  65.294  1.00  0.00    -0.316 C  
HETATM   14  N   UNL     1     -11.846  11.699  67.370  1.00  0.00    -0.630 NA 
ENDBRANCH   9  10
ENDBRANCH   8   9
BRANCH   8  15
HETATM   15  C   UNL     1      -8.671  10.184  69.401  1.00  0.00    -0.176 A  
HETATM   16  C   UNL     1      -7.894  11.053  68.607  1.00  0.00    -0.136 A  
HETATM   17  C   UNL     1      -8.002   9.508  70.442  1.00  0.00    -0.200 A  
HETATM   18  C   UNL     1      -6.533  11.242  68.866  1.00  0.00    -0.063 A  
HETATM   19  C   UNL     1      -6.647   9.734  70.718  1.00  0.00    -0.089 A  
HETATM   20  O   UNL     1      -5.763  12.058  68.087  1.00  0.00    -0.047 OA 
HETATM   21  C   UNL     1      -5.912  10.610  69.931  1.00  0.00    -0.076 A  
HETATM   22  H   UNL     1      -4.838  12.186  68.263  1.00  0.00     0.000 HD 
ENDBRANCH   8  15
ENDBRANCH   5   8
TORSDOF 4
ENDMDL
MODEL      155
REMARK 921   NORMALIZED FREE ENERGY PREDICTED BY IDOCK:   -4.31 KCAL/MOL
REMARK 922        TOTAL FREE ENERGY PREDICTED BY IDOCK:   -6.07 KCAL/MOL
REMARK 923 INTER-LIGAND FREE ENERGY PREDICTED BY IDOCK:   -5.84 KCAL/MOL
REMARK 924 INTRA-LIGAND FREE ENERGY PREDICTED BY IDOCK:   -0.23 KCAL/MOL
REMARK 927      BINDING AFFINITY PREDICTED BY RF-SCORE:    0.00 PKD
ROOT
HETATM    1  C   UNL     1      -9.041   5.193  65.916  1.00  0.00    -0.154 C  
HETATM    2  C   UNL     1      -9.787   5.370  67.202  1.00  0.00    -0.178 A  
HETATM    3  C   UNL     1     -10.815   6.303  67.313  1.00  0.00    -0.457 A  
HETATM    4  C   UNL     1     -11.400   6.586  68.556  1.00  0.00    -0.179 A  
HETATM    5  C   UNL     1     -10.964   5.964  69.738  1.00  0.00    -0.382 A  
HETATM    6  C   UNL     1     -10.042   4.913  69.571  1.00  0.00    -0.286 A  
HETATM    7  C   UNL     1      -9.447   4.629  68.334  1.00  0.00    -0.201 A  
ENDROOT
BRANCH   5   8
HETATM    8  N   UNL     1     -11.355   6.363  71.048  1.00  0.00    -0.314 NA 
BRANCH   8   9
HETATM    9  C   UNL     1     -12.685   7.018  71.226  1.00  0.00    -0.351 C  
BRANCH   9  10
HETATM   10  C   UNL     1     -12.578   8.540  71.239  1.00  0.00    -0.226 C  
HETATM   11  C   UNL     1     -12.166  10.640  70.459  1.00  0.00    -0.358 C  
HETATM   12  N   UNL     1     -13.238   9.249  72.126  1.00  0.00    -0.430 NA 
HETATM   13  C   UNL     1     -12.865  10.660  71.823  1.00  0.00    -0.444 C  
HETATM   14  N   UNL     1     -11.796   9.248  70.356  1.00  0.00    -0.130 NA 
ENDBRANCH   9  10
ENDBRANCH   8   9
BRANCH   8  15
HETATM   15  C   UNL     1     -10.440   6.756  72.095  1.00  0.00    -0.206 A  
HETATM   16  C   UNL     1      -9.326   7.583  71.846  1.00  0.00    -0.171 A  
HETATM   17  C   UNL     1     -10.653   6.364  73.433  1.00  0.00    -0.298 A  
HETATM   18  C   UNL     1      -8.494   8.004  72.888  1.00  0.00    -0.186 A  
HETATM   19  C   UNL     1      -9.837   6.823  74.475  1.00  0.00    -0.263 A  
HETATM   20  O   UNL     1      -7.395   8.781  72.658  1.00  0.00    -0.336 OA 
HETATM   21  C   UNL     1      -8.759   7.652  74.202  1.00  0.00    -0.290 A  
HETATM   22  H   UNL     1      -6.830   9.067  73.366  1.00  0.00     0.000 HD 
ENDBRANCH   8  15
ENDBRANCH   5   8
TORSDOF 4
ENDMDL
MODEL      156
REMARK 921   NORMALIZED FREE ENERGY PREDICTED BY IDOCK:   -4.31 KCAL/MOL
REMARK 922        TOTAL FREE ENERGY PREDICTED BY IDOCK:   -6.07 KCAL/MOL
REMARK 923 INTER-LIGAND FREE ENERGY PREDICTED BY IDOCK:   -5.31 KCAL/MOL
REMARK 924 INTRA-LIGAND FREE ENERGY PREDICTED BY IDOCK:   -0.76 KCAL/MOL
REMARK 927      BINDING AFFINITY PREDICTED BY RF-SCORE:    0.00 PKD
ROOT
HETATM    1  C   UNL     1     -11.869  14.298  66.804  1.00  0.00    -0.449 C  
HETATM    2  C   UNL     1     -11.192  13.040  67.255  1.00  0.00    -0.325 A  
HETATM    3  C   UNL     1     -11.739  11.791  66.975  1.00  0.00    -0.247 A  
HETATM    4  C   UNL     1     -11.198  10.626  67.538  1.00  0.00    -0.326 A  
HETATM    5  C   UNL     1     -10.104  10.668  68.419  1.00  0.00    -0.166 A  
HETATM    6  C   UNL     1      -9.475  11.921  68.552  1.00  0.00    -0.151 A  
HETATM    7  C   UNL     1     -10.014  13.090  67.999  1.00  0.00    -0.233 A  
ENDROOT
BRANCH   5   8
HETATM    8  N   UNL     1      -9.652   9.561  69.192  1.00  0.00    -0.164 NA 
BRANCH   8   9
HETATM    9  C   UNL     1      -8.360   8.911  68.818  1.00  0.00    -0.123 C  
BRANCH   9  10
HETATM   10  C   UNL     1      -8.164   8.850  67.306  1.00  0.00    -0.104 C  
HETATM   11  C   UNL     1      -8.654   8.424  65.123  1.00  0.00    -0.132 C  
HETATM   12  N   UNL     1      -7.275   9.616  66.717  1.00  0.00    -0.089 NA 
HETATM   13  C   UNL     1      -7.376   9.256  65.274  1.00  0.00    -0.094 C  
HETATM   14  N   UNL     1      -8.876   8.005  66.487  1.00  0.00    -0.143 NA 
ENDBRANCH   9  10
ENDBRANCH   8   9
BRANCH   8  15
HETATM   15  C   UNL     1     -10.516   8.633  69.884  1.00  0.00    -0.218 A  
HETATM   16  C   UNL     1     -11.320   9.027  70.973  1.00  0.00    -0.362 A  
HETATM   17  C   UNL     1     -10.630   7.291  69.465  1.00  0.00    -0.244 A  
HETATM   18  C   UNL     1     -12.200   8.127  71.583  1.00  0.00    -0.308 A  
HETATM   19  C   UNL     1     -11.541   6.407  70.057  1.00  0.00    -0.446 A  
HETATM   20  O   UNL     1     -12.963   8.487  72.657  1.00  0.00    -0.597 OA 
HETATM   21  C   UNL     1     -12.334   6.830  71.115  1.00  0.00    -0.386 A  
HETATM   22  H   UNL     1     -13.560   7.875  73.071  1.00  0.00     0.000 HD 
ENDBRANCH   8  15
ENDBRANCH   5   8
TORSDOF 4
ENDMDL
MODEL      157
REMARK 921   NORMALIZED FREE ENERGY PREDICTED BY IDOCK:   -4.31 KCAL/MOL
REMARK 922        TOTAL FREE ENERGY PREDICTED BY IDOCK:   -6.07 KCAL/MOL
REMARK 923 INTER-LIGAND FREE ENERGY PREDICTED BY IDOCK:   -5.26 KCAL/MOL
REMARK 924 INTRA-LIGAND FREE ENERGY PREDICTED BY IDOCK:   -0.81 KCAL/MOL
REMARK 927      BINDING AFFINITY PREDICTED BY RF-SCORE:    0.00 PKD
ROOT
HETATM    1  C   UNL     1      -8.778   4.225  66.663  1.00  0.00    -0.113 C  
HETATM    2  C   UNL     1      -9.300   5.307  67.558  1.00  0.00    -0.125 A  
HETATM    3  C   UNL     1     -10.658   5.612  67.599  1.00  0.00    -0.279 A  
HETATM    4  C   UNL     1     -11.124   6.730  68.306  1.00  0.00    -0.222 A  
HETATM    5  C   UNL     1     -10.249   7.598  68.979  1.00  0.00    -0.206 A  
HETATM    6  C   UNL     1      -8.908   7.174  69.056  1.00  0.00    -0.131 A  
HETATM    7  C   UNL     1      -8.433   6.063  68.346  1.00  0.00    -0.112 A  
ENDROOT
BRANCH   5   8
HETATM    8  N   UNL     1     -10.626   8.859  69.522  1.00  0.00    -0.232 NA 
BRANCH   8   9
HETATM    9  C   UNL     1     -11.528   8.882  70.713  1.00  0.00    -0.275 C  
BRANCH   9  10
HETATM   10  C   UNL     1     -10.851   8.312  71.956  1.00  0.00    -0.301 C  
HETATM   11  C   UNL     1     -10.484   6.910  73.713  1.00  0.00    -0.357 C  
HETATM   12  N   UNL     1      -9.602   8.610  72.232  1.00  0.00    -0.300 NA 
HETATM   13  C   UNL     1      -9.323   7.888  73.506  1.00  0.00    -0.268 C  
HETATM   14  N   UNL     1     -11.489   7.484  72.850  1.00  0.00    -0.304 NA 
ENDBRANCH   9  10
ENDBRANCH   8   9
BRANCH   8  15
HETATM   15  C   UNL     1     -10.747  10.079  68.759  1.00  0.00    -0.223 A  
HETATM   16  C   UNL     1     -10.109  10.251  67.513  1.00  0.00    -0.239 A  
HETATM   17  C   UNL     1     -11.556  11.143  69.209  1.00  0.00    -0.388 A  
HETATM   18  C   UNL     1     -10.296  11.415  66.762  1.00  0.00    -0.234 A  
HETATM   19  C   UNL     1     -11.768  12.290  68.432  1.00  0.00    -0.390 A  
HETATM   20  O   UNL     1      -9.661  11.608  65.568  1.00  0.00    -0.226 OA 
HETATM   21  C   UNL     1     -11.142  12.422  67.201  1.00  0.00    -0.328 A  
HETATM   22  H   UNL     1      -9.788  12.399  65.058  1.00  0.00     0.000 HD 
ENDBRANCH   8  15
ENDBRANCH   5   8
TORSDOF 4
ENDMDL
MODEL      158
REMARK 921   NORMALIZED FREE ENERGY PREDICTED BY IDOCK:   -4.31 KCAL/MOL
REMARK 922        TOTAL FREE ENERGY PREDICTED BY IDOCK:   -6.06 KCAL/MOL
REMARK 923 INTER-LIGAND FREE ENERGY PREDICTED BY IDOCK:   -5.21 KCAL/MOL
REMARK 924 INTRA-LIGAND FREE ENERGY PREDICTED BY IDOCK:   -0.85 KCAL/MOL
REMARK 927      BINDING AFFINITY PREDICTED BY RF-SCORE:    0.00 PKD
ROOT
HETATM    1  C   UNL     1     -12.720  14.699  70.629  1.00  0.00    -0.417 C  
HETATM    2  C   UNL     1     -12.284  13.310  70.278  1.00  0.00    -0.391 A  
HETATM    3  C   UNL     1     -12.675  12.219  71.050  1.00  0.00    -0.319 A  
HETATM    4  C   UNL     1     -12.134  10.945  70.822  1.00  0.00    -0.469 A  
HETATM    5  C   UNL     1     -11.167  10.718  69.828  1.00  0.00    -0.297 A  
HETATM    6  C   UNL     1     -10.917  11.799  68.962  1.00  0.00    -0.276 A  
HETATM    7  C   UNL     1     -11.447  13.077  69.188  1.00  0.00    -0.353 A  
ENDROOT
BRANCH   5   8
HETATM    8  N   UNL     1     -10.422   9.512  69.692  1.00  0.00    -0.211 NA 
BRANCH   8   9
HETATM    9  C   UNL     1      -9.812   8.909  70.915  1.00  0.00    -0.242 C  
BRANCH   9  10
HETATM   10  C   UNL     1     -10.449   7.569  71.273  1.00  0.00    -0.207 C  
HETATM   11  C   UNL     1     -10.577   5.345  71.744  1.00  0.00    -0.222 C  
HETATM   12  N   UNL     1     -11.629   7.523  71.845  1.00  0.00    -0.266 NA 
HETATM   13  C   UNL     1     -11.902   6.067  72.013  1.00  0.00    -0.224 C  
HETATM   14  N   UNL     1      -9.851   6.358  71.015  1.00  0.00    -0.179 NA 
ENDBRANCH   9  10
ENDBRANCH   8   9
BRANCH   8  15
HETATM   15  C   UNL     1      -9.693   9.126  68.506  1.00  0.00    -0.155 A  
HETATM   16  C   UNL     1      -8.290   9.232  68.420  1.00  0.00    -0.119 A  
HETATM   17  C   UNL     1     -10.357   8.575  67.390  1.00  0.00    -0.356 A  
HETATM   18  C   UNL     1      -7.602   8.787  67.287  1.00  0.00    -0.089 A  
HETATM   19  C   UNL     1      -9.656   8.097  66.276  1.00  0.00    -0.248 A  
HETATM   20  O   UNL     1      -6.246   8.911  67.179  1.00  0.00    -0.057 OA 
HETATM   21  C   UNL     1      -8.272   8.197  66.228  1.00  0.00    -0.114 A  
HETATM   22  H   UNL     1      -5.778   8.609  66.408  1.00  0.00     0.000 HD 
ENDBRANCH   8  15
ENDBRANCH   5   8
TORSDOF 4
ENDMDL
MODEL      159
REMARK 921   NORMALIZED FREE ENERGY PREDICTED BY IDOCK:   -4.30 KCAL/MOL
REMARK 922        TOTAL FREE ENERGY PREDICTED BY IDOCK:   -6.06 KCAL/MOL
REMARK 923 INTER-LIGAND FREE ENERGY PREDICTED BY IDOCK:   -5.24 KCAL/MOL
REMARK 924 INTRA-LIGAND FREE ENERGY PREDICTED BY IDOCK:   -0.82 KCAL/MOL
REMARK 927      BINDING AFFINITY PREDICTED BY RF-SCORE:    0.00 PKD
ROOT
HETATM    1  C   UNL     1     -10.543  13.187  65.672  1.00  0.00    -0.289 C  
HETATM    2  C   UNL     1     -10.736  11.872  66.362  1.00  0.00    -0.303 A  
HETATM    3  C   UNL     1     -11.392  11.794  67.588  1.00  0.00    -0.370 A  
HETATM    4  C   UNL     1     -11.426  10.593  68.311  1.00  0.00    -0.318 A  
HETATM    5  C   UNL     1     -10.785   9.431  67.848  1.00  0.00    -0.210 A  
HETATM    6  C   UNL     1     -10.273   9.497  66.538  1.00  0.00    -0.307 A  
HETATM    7  C   UNL     1     -10.229  10.695  65.812  1.00  0.00    -0.317 A  
ENDROOT
BRANCH   5   8
HETATM    8  N   UNL     1     -10.591   8.255  68.627  1.00  0.00    -0.158 NA 
BRANCH   8   9
HETATM    9  C   UNL     1     -10.706   6.927  67.955  1.00  0.00    -0.232 C  
BRANCH   9  10
HETATM   10  C   UNL     1      -9.383   6.167  67.955  1.00  0.00    -0.114 C  
HETATM   11  C   UNL     1      -7.232   5.660  67.403  1.00  0.00    -0.076 C  
HETATM   12  N   UNL     1      -9.071   5.369  68.950  1.00  0.00    -0.116 NA 
HETATM   13  C   UNL     1      -7.739   4.815  68.577  1.00  0.00    -0.077 C  
HETATM   14  N   UNL     1      -8.462   6.256  66.937  1.00  0.00    -0.109 NA 
ENDBRANCH   9  10
ENDBRANCH   8   9
BRANCH   8  15
HETATM   15  C   UNL     1     -10.882   8.147  70.039  1.00  0.00    -0.233 A  
HETATM   16  C   UNL     1     -12.014   7.459  70.521  1.00  0.00    -0.140 A  
HETATM   17  C   UNL     1     -10.010   8.689  71.006  1.00  0.00    -0.272 A  
HETATM   18  C   UNL     1     -12.236   7.310  71.893  1.00  0.00    -0.313 A  
HETATM   19  C   UNL     1     -10.221   8.502  72.378  1.00  0.00    -0.369 A  
HETATM   20  O   UNL     1     -13.344   6.671  72.374  1.00  0.00    -0.471 OA 
HETATM   21  C   UNL     1     -11.334   7.803  72.822  1.00  0.00    -0.446 A  
HETATM   22  H   UNL     1     -13.495   6.570  73.307  1.00  0.00     0.000 HD 
ENDBRANCH   8  15
ENDBRANCH   5   8
TORSDOF 4
ENDMDL
MODEL      160
REMARK 921   NORMALIZED FREE ENERGY PREDICTED BY IDOCK:   -4.28 KCAL/MOL
REMARK 922        TOTAL FREE ENERGY PREDICTED BY IDOCK:   -6.02 KCAL/MOL
REMARK 923 INTER-LIGAND FREE ENERGY PREDICTED BY IDOCK:   -5.18 KCAL/MOL
REMARK 924 INTRA-LIGAND FREE ENERGY PREDICTED BY IDOCK:   -0.84 KCAL/MOL
REMARK 927      BINDING AFFINITY PREDICTED BY RF-SCORE:    0.00 PKD
ROOT
HETATM    1  C   UNL     1     -11.596   5.323  73.136  1.00  0.00    -0.251 C  
HETATM    2  C   UNL     1     -11.363   6.243  71.977  1.00  0.00    -0.348 A  
HETATM    3  C   UNL     1     -10.969   5.748  70.736  1.00  0.00    -0.312 A  
HETATM    4  C   UNL     1     -10.591   6.617  69.702  1.00  0.00    -0.276 A  
HETATM    5  C   UNL     1     -10.571   8.011  69.876  1.00  0.00    -0.242 A  
HETATM    6  C   UNL     1     -11.128   8.484  71.080  1.00  0.00    -0.306 A  
HETATM    7  C   UNL     1     -11.501   7.623  72.121  1.00  0.00    -0.345 A  
ENDROOT
BRANCH   5   8
HETATM    8  N   UNL     1      -9.992   8.928  68.954  1.00  0.00    -0.185 NA 
BRANCH   8   9
HETATM    9  C   UNL     1     -10.602   9.056  67.597  1.00  0.00    -0.231 C  
BRANCH   9  10
HETATM   10  C   UNL     1     -11.030  10.489  67.293  1.00  0.00    -0.260 C  
HETATM   11  C   UNL     1     -11.435  12.362  66.062  1.00  0.00    -0.382 C  
HETATM   12  N   UNL     1     -11.822  11.138  68.115  1.00  0.00    -0.607 NA 
HETATM   13  C   UNL     1     -11.987  12.480  67.486  1.00  0.00    -0.219 C  
HETATM   14  N   UNL     1     -10.615  11.180  66.178  1.00  0.00    -0.260 NA 
ENDBRANCH   9  10
ENDBRANCH   8   9
BRANCH   8  15
HETATM   15  C   UNL     1      -8.595   9.298  68.930  1.00  0.00    -0.130 A  
HETATM   16  C   UNL     1      -7.982   9.981  70.000  1.00  0.00    -0.166 A  
HETATM   17  C   UNL     1      -7.767   8.945  67.845  1.00  0.00    -0.101 A  
HETATM   18  C   UNL     1      -6.614  10.267  69.982  1.00  0.00    -0.127 A  
HETATM   19  C   UNL     1      -6.389   9.202  67.853  1.00  0.00    -0.055 A  
HETATM   20  O   UNL     1      -6.012  10.954  70.998  1.00  0.00    -0.342 OA 
HETATM   21  C   UNL     1      -5.810   9.859  68.929  1.00  0.00    -0.034 A  
HETATM   22  H   UNL     1      -5.082  11.149  70.985  1.00  0.00     0.000 HD 
ENDBRANCH   8  15
ENDBRANCH   5   8
TORSDOF 4
ENDMDL
MODEL      161
REMARK 921   NORMALIZED FREE ENERGY PREDICTED BY IDOCK:   -4.26 KCAL/MOL
REMARK 922        TOTAL FREE ENERGY PREDICTED BY IDOCK:   -6.01 KCAL/MOL
REMARK 923 INTER-LIGAND FREE ENERGY PREDICTED BY IDOCK:   -5.09 KCAL/MOL
REMARK 924 INTRA-LIGAND FREE ENERGY PREDICTED BY IDOCK:   -0.92 KCAL/MOL
REMARK 927      BINDING AFFINITY PREDICTED BY RF-SCORE:    0.00 PKD
ROOT
HETATM    1  C   UNL     1     -11.867  14.321  66.847  1.00  0.00    -0.458 C  
HETATM    2  C   UNL     1     -11.187  13.053  67.265  1.00  0.00    -0.325 A  
HETATM    3  C   UNL     1     -11.757  11.811  66.997  1.00  0.00    -0.247 A  
HETATM    4  C   UNL     1     -11.208  10.636  67.531  1.00  0.00    -0.326 A  
HETATM    5  C   UNL     1     -10.082  10.660  68.371  1.00  0.00    -0.166 A  
HETATM    6  C   UNL     1      -9.435  11.906  68.489  1.00  0.00    -0.151 A  
HETATM    7  C   UNL     1      -9.982  13.085  67.965  1.00  0.00    -0.233 A  
ENDROOT
BRANCH   5   8
HETATM    8  N   UNL     1      -9.613   9.543  69.119  1.00  0.00    -0.164 NA 
BRANCH   8   9
HETATM    9  C   UNL     1      -8.364   8.858  68.670  1.00  0.00    -0.124 C  
BRANCH   9  10
HETATM   10  C   UNL     1      -7.253   8.951  69.712  1.00  0.00    -0.055 C  
HETATM   11  C   UNL     1      -5.822   9.910  71.201  1.00  0.00    -0.058 C  
HETATM   12  N   UNL     1      -6.893   7.892  70.400  1.00  0.00    -0.041 NA 
HETATM   13  C   UNL     1      -5.793   8.380  71.280  1.00  0.00    -0.036 C  
HETATM   14  N   UNL     1      -6.567  10.112  69.981  1.00  0.00    -0.099 NA 
ENDBRANCH   9  10
ENDBRANCH   8   9
BRANCH   8  15
HETATM   15  C   UNL     1     -10.458   8.640  69.865  1.00  0.00    -0.218 A  
HETATM   16  C   UNL     1     -11.130   9.039  71.039  1.00  0.00    -0.356 A  
HETATM   17  C   UNL     1     -10.688   7.322  69.420  1.00  0.00    -0.236 A  
HETATM   18  C   UNL     1     -11.996   8.166  71.705  1.00  0.00    -0.300 A  
HETATM   19  C   UNL     1     -11.588   6.468  70.072  1.00  0.00    -0.455 A  
HETATM   20  O   UNL     1     -12.630   8.529  72.859  1.00  0.00    -0.615 OA 
HETATM   21  C   UNL     1     -12.249   6.895  71.214  1.00  0.00    -0.427 A  
HETATM   22  H   UNL     1     -13.219   7.936  73.312  1.00  0.00     0.000 HD 
ENDBRANCH   8  15
ENDBRANCH   5   8
TORSDOF 4
ENDMDL
MODEL      162
REMARK 921   NORMALIZED FREE ENERGY PREDICTED BY IDOCK:   -4.26 KCAL/MOL
REMARK 922        TOTAL FREE ENERGY PREDICTED BY IDOCK:   -6.01 KCAL/MOL
REMARK 923 INTER-LIGAND FREE ENERGY PREDICTED BY IDOCK:   -5.54 KCAL/MOL
REMARK 924 INTRA-LIGAND FREE ENERGY PREDICTED BY IDOCK:   -0.46 KCAL/MOL
REMARK 927      BINDING AFFINITY PREDICTED BY RF-SCORE:    0.00 PKD
ROOT
HETATM    1  C   UNL     1     -10.564   5.358  73.951  1.00  0.00    -0.324 C  
HETATM    2  C   UNL     1     -10.504   5.871  72.545  1.00  0.00    -0.238 A  
HETATM    3  C   UNL     1      -9.289   5.977  71.872  1.00  0.00    -0.160 A  
HETATM    4  C   UNL     1      -9.211   6.610  70.623  1.00  0.00    -0.159 A  
HETATM    5  C   UNL     1     -10.340   7.181  70.010  1.00  0.00    -0.208 A  
HETATM    6  C   UNL     1     -11.574   6.914  70.635  1.00  0.00    -0.402 A  
HETATM    7  C   UNL     1     -11.659   6.289  71.886  1.00  0.00    -0.369 A  
ENDROOT
BRANCH   5   8
HETATM    8  N   UNL     1     -10.292   8.023  68.864  1.00  0.00    -0.211 NA 
BRANCH   8   9
HETATM    9  C   UNL     1      -9.201   7.809  67.866  1.00  0.00    -0.137 C  
BRANCH   9  10
HETATM   10  C   UNL     1      -9.507   6.651  66.921  1.00  0.00    -0.154 C  
HETATM   11  C   UNL     1      -9.133   5.046  65.348  1.00  0.00    -0.154 C  
HETATM   12  N   UNL     1     -10.551   5.881  67.124  1.00  0.00    -0.267 NA 
HETATM   13  C   UNL     1     -10.511   4.901  66.002  1.00  0.00    -0.283 C  
HETATM   14  N   UNL     1      -8.737   6.352  65.821  1.00  0.00    -0.148 NA 
ENDBRANCH   9  10
ENDBRANCH   8   9
BRANCH   8  15
HETATM   15  C   UNL     1     -10.768   9.387  68.825  1.00  0.00    -0.171 A  
HETATM   16  C   UNL     1     -11.028  10.057  67.612  1.00  0.00    -0.297 A  
HETATM   17  C   UNL     1     -11.042  10.097  70.013  1.00  0.00    -0.368 A  
HETATM   18  C   UNL     1     -11.553  11.353  67.603  1.00  0.00    -0.238 A  
HETATM   19  C   UNL     1     -11.604  11.380  69.994  1.00  0.00    -0.382 A  
HETATM   20  O   UNL     1     -11.781  12.025  66.436  1.00  0.00    -0.518 OA 
HETATM   21  C   UNL     1     -11.867  12.007  68.784  1.00  0.00    -0.358 A  
HETATM   22  H   UNL     1     -12.138  12.906  66.430  1.00  0.00     0.000 HD 
ENDBRANCH   8  15
ENDBRANCH   5   8
TORSDOF 4
ENDMDL
MODEL      163
REMARK 921   NORMALIZED FREE ENERGY PREDICTED BY IDOCK:   -4.26 KCAL/MOL
REMARK 922        TOTAL FREE ENERGY PREDICTED BY IDOCK:   -6.00 KCAL/MOL
REMARK 923 INTER-LIGAND FREE ENERGY PREDICTED BY IDOCK:   -5.33 KCAL/MOL
REMARK 924 INTRA-LIGAND FREE ENERGY PREDICTED BY IDOCK:   -0.67 KCAL/MOL
REMARK 927      BINDING AFFINITY PREDICTED BY RF-SCORE:    0.00 PKD
ROOT
HETATM    1  C   UNL     1      -9.307  21.119  67.522  1.00  0.00    -0.076 C  
HETATM    2  C   UNL     1      -9.494  19.647  67.313  1.00  0.00    -0.446 A  
HETATM    3  C   UNL     1     -10.206  18.877  68.229  1.00  0.00    -0.442 A  
HETATM    4  C   UNL     1     -10.240  17.479  68.121  1.00  0.00    -0.359 A  
HETATM    5  C   UNL     1      -9.545  16.797  67.108  1.00  0.00    -0.236 A  
HETATM    6  C   UNL     1      -8.974  17.608  66.108  1.00  0.00    -0.138 A  
HETATM    7  C   UNL     1      -8.929  19.004  66.212  1.00  0.00    -0.289 A  
ENDROOT
BRANCH   5   8
HETATM    8  N   UNL     1      -9.356  15.387  67.073  1.00  0.00    -0.215 NA 
BRANCH   8   9
HETATM    9  C   UNL     1      -7.962  14.856  67.004  1.00  0.00    -0.135 C  
BRANCH   9  10
HETATM   10  C   UNL     1      -7.186  15.112  68.293  1.00  0.00    -0.110 C  
HETATM   11  C   UNL     1      -5.968  14.645  70.160  1.00  0.00    -0.149 C  
HETATM   12  N   UNL     1      -6.692  16.302  68.549  1.00  0.00    -0.131 NA 
HETATM   13  C   UNL     1      -6.035  16.150  69.879  1.00  0.00    -0.182 C  
HETATM   14  N   UNL     1      -6.970  14.147  69.248  1.00  0.00    -0.119 NA 
ENDBRANCH   9  10
ENDBRANCH   8   9
BRANCH   8  15
HETATM   15  C   UNL     1     -10.296  14.445  66.510  1.00  0.00    -0.281 A  
HETATM   16  C   UNL     1     -10.208  13.059  66.755  1.00  0.00    -0.246 A  
HETATM   17  C   UNL     1     -11.382  14.881  65.723  1.00  0.00    -0.314 A  
HETATM   18  C   UNL     1     -11.169  12.176  66.255  1.00  0.00    -0.334 A  
HETATM   19  C   UNL     1     -12.361  13.994  65.259  1.00  0.00    -0.480 A  
HETATM   20  O   UNL     1     -11.080  10.829  66.461  1.00  0.00    -0.148 OA 
HETATM   21  C   UNL     1     -12.258  12.637  65.533  1.00  0.00    -0.501 A  
HETATM   22  H   UNL     1     -11.734  10.229  66.121  1.00  0.00     0.000 HD 
ENDBRANCH   8  15
ENDBRANCH   5   8
TORSDOF 4
ENDMDL
MODEL      164
REMARK 921   NORMALIZED FREE ENERGY PREDICTED BY IDOCK:   -4.23 KCAL/MOL
REMARK 922        TOTAL FREE ENERGY PREDICTED BY IDOCK:   -5.97 KCAL/MOL
REMARK 923 INTER-LIGAND FREE ENERGY PREDICTED BY IDOCK:   -5.13 KCAL/MOL
REMARK 924 INTRA-LIGAND FREE ENERGY PREDICTED BY IDOCK:   -0.84 KCAL/MOL
REMARK 927      BINDING AFFINITY PREDICTED BY RF-SCORE:    0.00 PKD
ROOT
HETATM    1  C   UNL     1      -5.763  10.600  68.849  1.00  0.00    -0.040 C  
HETATM    2  C   UNL     1      -7.058  10.040  69.354  1.00  0.00    -0.074 A  
HETATM    3  C   UNL     1      -7.170   9.553  70.653  1.00  0.00    -0.130 A  
HETATM    4  C   UNL     1      -8.326   8.879  71.072  1.00  0.00    -0.233 A  
HETATM    5  C   UNL     1      -9.405   8.648  70.201  1.00  0.00    -0.164 A  
HETATM    6  C   UNL     1      -9.329   9.292  68.952  1.00  0.00    -0.150 A  
HETATM    7  C   UNL     1      -8.174   9.960  68.523  1.00  0.00    -0.106 A  
ENDROOT
BRANCH   5   8
HETATM    8  N   UNL     1     -10.501   7.787  70.491  1.00  0.00    -0.213 NA 
BRANCH   8   9
HETATM    9  C   UNL     1     -10.698   6.572  69.644  1.00  0.00    -0.269 C  
BRANCH   9  10
HETATM   10  C   UNL     1      -9.856   5.395  70.125  1.00  0.00    -0.207 C  
HETATM   11  C   UNL     1      -8.103   3.943  70.218  1.00  0.00    -0.050 C  
HETATM   12  N   UNL     1     -10.042   4.885  71.321  1.00  0.00    -0.199 NA 
HETATM   13  C   UNL     1      -9.059   3.768  71.404  1.00  0.00    -0.115 C  
HETATM   14  N   UNL     1      -8.883   4.799  69.356  1.00  0.00    -0.082 NA 
ENDBRANCH   9  10
ENDBRANCH   8   9
BRANCH   8  15
HETATM   15  C   UNL     1     -11.750   8.215  71.079  1.00  0.00    -0.274 A  
HETATM   16  C   UNL     1     -11.998   9.562  71.413  1.00  0.00    -0.464 A  
HETATM   17  C   UNL     1     -12.802   7.303  71.300  1.00  0.00    -0.391 A  
HETATM   18  C   UNL     1     -13.239   9.962  71.917  1.00  0.00    -0.458 A  
HETATM   19  C   UNL     1     -14.055   7.719  71.769  1.00  0.00    -0.519 A  
HETATM   20  O   UNL     1     -13.484  11.259  72.272  1.00  0.00    -0.604 OA 
HETATM   21  C   UNL     1     -14.276   9.055  72.071  1.00  0.00    -0.384 A  
HETATM   22  H   UNL     1     -14.328  11.530  72.615  1.00  0.00     0.000 HD 
ENDBRANCH   8  15
ENDBRANCH   5   8
TORSDOF 4
ENDMDL
MODEL      165
REMARK 921   NORMALIZED FREE ENERGY PREDICTED BY IDOCK:   -4.19 KCAL/MOL
REMARK 922        TOTAL FREE ENERGY PREDICTED BY IDOCK:   -5.91 KCAL/MOL
REMARK 923 INTER-LIGAND FREE ENERGY PREDICTED BY IDOCK:   -5.99 KCAL/MOL
REMARK 924 INTRA-LIGAND FREE ENERGY PREDICTED BY IDOCK:    0.07 KCAL/MOL
REMARK 927      BINDING AFFINITY PREDICTED BY RF-SCORE:    0.00 PKD
ROOT
HETATM    1  C   UNL     1     -14.261   8.838  72.576  1.00  0.00    -0.394 C  
HETATM    2  C   UNL     1     -13.007   9.164  71.825  1.00  0.00    -0.448 A  
HETATM    3  C   UNL     1     -12.884  10.358  71.118  1.00  0.00    -0.511 A  
HETATM    4  C   UNL     1     -11.782  10.589  70.282  1.00  0.00    -0.420 A  
HETATM    5  C   UNL     1     -10.773   9.627  70.103  1.00  0.00    -0.275 A  
HETATM    6  C   UNL     1     -10.842   8.506  70.952  1.00  0.00    -0.275 A  
HETATM    7  C   UNL     1     -11.944   8.264  71.784  1.00  0.00    -0.364 A  
ENDROOT
BRANCH   5   8
HETATM    8  N   UNL     1      -9.756   9.705  69.111  1.00  0.00    -0.170 NA 
BRANCH   8   9
HETATM    9  C   UNL     1      -9.316  11.053  68.643  1.00  0.00    -0.194 C  
BRANCH   9  10
HETATM   10  C   UNL     1     -10.393  11.754  67.820  1.00  0.00    -0.194 C  
HETATM   11  C   UNL     1     -11.768  13.430  67.121  1.00  0.00    -0.379 C  
HETATM   12  N   UNL     1     -10.741  11.291  66.642  1.00  0.00    -0.263 NA 
HETATM   13  C   UNL     1     -11.808  12.222  66.178  1.00  0.00    -0.329 C  
HETATM   14  N   UNL     1     -11.060  12.878  68.251  1.00  0.00    -0.249 NA 
ENDBRANCH   9  10
ENDBRANCH   8   9
BRANCH   8  15
HETATM   15  C   UNL     1      -9.519   8.703  68.096  1.00  0.00    -0.141 A  
HETATM   16  C   UNL     1     -10.536   7.839  67.644  1.00  0.00    -0.283 A  
HETATM   17  C   UNL     1      -8.259   8.579  67.475  1.00  0.00    -0.117 A  
HETATM   18  C   UNL     1     -10.299   6.924  66.613  1.00  0.00    -0.144 A  
HETATM   19  C   UNL     1      -8.041   7.687  66.417  1.00  0.00    -0.113 A  
HETATM   20  O   UNL     1     -11.267   6.060  66.185  1.00  0.00    -0.625 OA 
HETATM   21  C   UNL     1      -9.068   6.862  65.980  1.00  0.00    -0.101 A  
HETATM   22  H   UNL     1     -11.106   5.439  65.485  1.00  0.00     0.000 HD 
ENDBRANCH   8  15
ENDBRANCH   5   8
TORSDOF 4
ENDMDL
MODEL      166
REMARK 921   NORMALIZED FREE ENERGY PREDICTED BY IDOCK:   -4.15 KCAL/MOL
REMARK 922        TOTAL FREE ENERGY PREDICTED BY IDOCK:   -5.87 KCAL/MOL
REMARK 923 INTER-LIGAND FREE ENERGY PREDICTED BY IDOCK:   -5.74 KCAL/MOL
REMARK 924 INTRA-LIGAND FREE ENERGY PREDICTED BY IDOCK:   -0.12 KCAL/MOL
REMARK 927      BINDING AFFINITY PREDICTED BY RF-SCORE:    0.00 PKD
ROOT
HETATM    1  C   UNL     1     -13.509  14.071  72.485  1.00  0.00    -0.661 C  
HETATM    2  C   UNL     1     -12.895  14.225  71.127  1.00  0.00    -0.429 A  
HETATM    3  C   UNL     1     -12.536  13.111  70.372  1.00  0.00    -0.280 A  
HETATM    4  C   UNL     1     -11.811  13.253  69.180  1.00  0.00    -0.378 A  
HETATM    5  C   UNL     1     -11.399  14.511  68.709  1.00  0.00    -0.274 A  
HETATM    6  C   UNL     1     -11.916  15.622  69.403  1.00  0.00    -0.349 A  
HETATM    7  C   UNL     1     -12.634  15.488  70.599  1.00  0.00    -0.493 A  
ENDROOT
BRANCH   5   8
HETATM    8  N   UNL     1     -10.481  14.707  67.638  1.00  0.00    -0.242 NA 
BRANCH   8   9
HETATM    9  C   UNL     1     -10.051  13.520  66.840  1.00  0.00    -0.256 C  
BRANCH   9  10
HETATM   10  C   UNL     1      -8.865  12.801  67.476  1.00  0.00    -0.187 C  
HETATM   11  C   UNL     1      -6.747  12.488  68.252  1.00  0.00    -0.079 C  
HETATM   12  N   UNL     1      -9.053  11.751  68.243  1.00  0.00    -0.184 NA 
HETATM   13  C   UNL     1      -7.680  11.337  68.646  1.00  0.00    -0.136 C  
HETATM   14  N   UNL     1      -7.558  13.185  67.283  1.00  0.00    -0.126 NA 
ENDBRANCH   9  10
ENDBRANCH   8   9
BRANCH   8  15
HETATM   15  C   UNL     1      -9.483  15.750  67.593  1.00  0.00    -0.218 A  
HETATM   16  C   UNL     1      -8.595  15.987  68.663  1.00  0.00    -0.206 A  
HETATM   17  C   UNL     1      -9.319  16.553  66.445  1.00  0.00    -0.316 A  
HETATM   18  C   UNL     1      -7.593  16.957  68.567  1.00  0.00    -0.221 A  
HETATM   19  C   UNL     1      -8.288  17.496  66.343  1.00  0.00    -0.297 A  
HETATM   20  O   UNL     1      -6.746  17.216  69.606  1.00  0.00    -0.201 OA 
HETATM   21  C   UNL     1      -7.418  17.693  67.406  1.00  0.00    -0.209 A  
HETATM   22  H   UNL     1      -6.065  17.876  69.541  1.00  0.00     0.000 HD 
ENDBRANCH   8  15
ENDBRANCH   5   8
TORSDOF 4
ENDMDL
MODEL      167
REMARK 921   NORMALIZED FREE ENERGY PREDICTED BY IDOCK:   -4.14 KCAL/MOL
REMARK 922        TOTAL FREE ENERGY PREDICTED BY IDOCK:   -5.86 KCAL/MOL
REMARK 923 INTER-LIGAND FREE ENERGY PREDICTED BY IDOCK:   -5.91 KCAL/MOL
REMARK 924 INTRA-LIGAND FREE ENERGY PREDICTED BY IDOCK:    0.05 KCAL/MOL
REMARK 927      BINDING AFFINITY PREDICTED BY RF-SCORE:    0.00 PKD
ROOT
HETATM    1  C   UNL     1      -7.583  19.733  67.995  1.00  0.00    -0.334 C  
HETATM    2  C   UNL     1      -8.230  18.395  67.812  1.00  0.00    -0.265 A  
HETATM    3  C   UNL     1      -9.093  18.154  66.745  1.00  0.00    -0.287 A  
HETATM    4  C   UNL     1      -9.826  16.962  66.667  1.00  0.00    -0.295 A  
HETATM    5  C   UNL     1      -9.742  15.974  67.663  1.00  0.00    -0.224 A  
HETATM    6  C   UNL     1      -8.745  16.173  68.637  1.00  0.00    -0.214 A  
HETATM    7  C   UNL     1      -8.014  17.365  68.727  1.00  0.00    -0.244 A  
ENDROOT
BRANCH   5   8
HETATM    8  N   UNL     1     -10.615  14.853  67.759  1.00  0.00    -0.258 NA 
BRANCH   8   9
HETATM    9  C   UNL     1     -12.001  15.071  68.271  1.00  0.00    -0.183 C  
BRANCH   9  10
HETATM   10  C   UNL     1     -12.042  15.169  69.793  1.00  0.00    -0.319 C  
HETATM   11  C   UNL     1     -12.266  14.484  71.954  1.00  0.00    -0.285 C  
HETATM   12  N   UNL     1     -11.463  16.171  70.414  1.00  0.00    -0.362 NA 
HETATM   13  C   UNL     1     -11.735  15.918  71.857  1.00  0.00    -0.499 C  
HETATM   14  N   UNL     1     -12.681  14.248  70.591  1.00  0.00    -0.345 NA 
ENDBRANCH   9  10
ENDBRANCH   8   9
BRANCH   8  15
HETATM   15  C   UNL     1     -10.185  13.494  67.993  1.00  0.00    -0.243 A  
HETATM   16  C   UNL     1     -11.072  12.402  67.910  1.00  0.00    -0.283 A  
HETATM   17  C   UNL     1      -8.834  13.194  68.269  1.00  0.00    -0.175 A  
HETATM   18  C   UNL     1     -10.617  11.090  68.073  1.00  0.00    -0.204 A  
HETATM   19  C   UNL     1      -8.381  11.875  68.392  1.00  0.00    -0.157 A  
HETATM   20  O   UNL     1     -11.471  10.024  68.024  1.00  0.00    -0.572 OA 
HETATM   21  C   UNL     1      -9.275  10.818  68.286  1.00  0.00    -0.157 A  
HETATM   22  H   UNL     1     -11.161   9.133  68.135  1.00  0.00     0.000 HD 
ENDBRANCH   8  15
ENDBRANCH   5   8
TORSDOF 4
ENDMDL
MODEL      168
REMARK 921   NORMALIZED FREE ENERGY PREDICTED BY IDOCK:   -4.13 KCAL/MOL
REMARK 922        TOTAL FREE ENERGY PREDICTED BY IDOCK:   -5.85 KCAL/MOL
REMARK 923 INTER-LIGAND FREE ENERGY PREDICTED BY IDOCK:   -5.62 KCAL/MOL
REMARK 924 INTRA-LIGAND FREE ENERGY PREDICTED BY IDOCK:   -0.23 KCAL/MOL
REMARK 927      BINDING AFFINITY PREDICTED BY RF-SCORE:    0.00 PKD
ROOT
HETATM    1  C   UNL     1     -12.054  14.821  70.232  1.00  0.00    -0.380 C  
HETATM    2  C   UNL     1     -11.312  13.849  69.367  1.00  0.00    -0.311 A  
HETATM    3  C   UNL     1     -10.211  14.252  68.615  1.00  0.00    -0.246 A  
HETATM    4  C   UNL     1      -9.622  13.388  67.681  1.00  0.00    -0.219 A  
HETATM    5  C   UNL     1     -10.124  12.097  67.447  1.00  0.00    -0.199 A  
HETATM    6  C   UNL     1     -11.128  11.662  68.333  1.00  0.00    -0.285 A  
HETATM    7  C   UNL     1     -11.728  12.522  69.264  1.00  0.00    -0.379 A  
ENDROOT
BRANCH   5   8
HETATM    8  N   UNL     1      -9.718  11.260  66.369  1.00  0.00    -0.203 NA 
BRANCH   8   9
HETATM    9  C   UNL     1     -10.443  11.370  65.068  1.00  0.00    -0.303 C  
BRANCH   9  10
HETATM   10  C   UNL     1     -11.298  12.632  64.993  1.00  0.00    -0.309 C  
HETATM   11  C   UNL     1     -11.983  14.686  64.287  1.00  0.00    -0.386 C  
HETATM   12  N   UNL     1     -12.531  12.631  65.444  1.00  0.00    -0.655 NA 
HETATM   13  C   UNL     1     -13.011  14.022  65.210  1.00  0.00    -0.278 C  
HETATM   14  N   UNL     1     -10.842  13.822  64.474  1.00  0.00    -0.401 NA 
ENDBRANCH   9  10
ENDBRANCH   8   9
BRANCH   8  15
HETATM   15  C   UNL     1      -9.128   9.950  66.523  1.00  0.00    -0.152 A  
HETATM   16  C   UNL     1      -7.802   9.772  66.970  1.00  0.00    -0.102 A  
HETATM   17  C   UNL     1      -9.876   8.780  66.276  1.00  0.00    -0.342 A  
HETATM   18  C   UNL     1      -7.277   8.493  67.175  1.00  0.00    -0.080 A  
HETATM   19  C   UNL     1      -9.353   7.504  66.522  1.00  0.00    -0.231 A  
HETATM   20  O   UNL     1      -5.985   8.306  67.580  1.00  0.00    -0.045 OA 
HETATM   21  C   UNL     1      -8.051   7.360  66.980  1.00  0.00    -0.113 A  
HETATM   22  H   UNL     1      -5.628   7.436  67.719  1.00  0.00     0.000 HD 
ENDBRANCH   8  15
ENDBRANCH   5   8
TORSDOF 4
ENDMDL
MODEL      169
REMARK 921   NORMALIZED FREE ENERGY PREDICTED BY IDOCK:   -4.11 KCAL/MOL
REMARK 922        TOTAL FREE ENERGY PREDICTED BY IDOCK:   -5.82 KCAL/MOL
REMARK 923 INTER-LIGAND FREE ENERGY PREDICTED BY IDOCK:   -4.96 KCAL/MOL
REMARK 924 INTRA-LIGAND FREE ENERGY PREDICTED BY IDOCK:   -0.86 KCAL/MOL
REMARK 927      BINDING AFFINITY PREDICTED BY RF-SCORE:    0.00 PKD
ROOT
HETATM    1  C   UNL     1     -11.953  13.169  63.814  1.00  0.00    -0.572 C  
HETATM    2  C   UNL     1     -11.502  12.252  64.909  1.00  0.00    -0.382 A  
HETATM    3  C   UNL     1     -11.882  12.471  66.230  1.00  0.00    -0.453 A  
HETATM    4  C   UNL     1     -11.327  11.715  67.273  1.00  0.00    -0.372 A  
HETATM    5  C   UNL     1     -10.356  10.727  67.037  1.00  0.00    -0.228 A  
HETATM    6  C   UNL     1     -10.116  10.419  65.684  1.00  0.00    -0.337 A  
HETATM    7  C   UNL     1     -10.660  11.175  64.637  1.00  0.00    -0.386 A  
ENDROOT
BRANCH   5   8
HETATM    8  N   UNL     1      -9.598  10.086  68.057  1.00  0.00    -0.138 NA 
BRANCH   8   9
HETATM    9  C   UNL     1     -10.181   9.994  69.429  1.00  0.00    -0.222 C  
BRANCH   9  10
HETATM   10  C   UNL     1     -10.734   8.603  69.725  1.00  0.00    -0.215 C  
HETATM   11  C   UNL     1     -10.995   6.347  69.552  1.00  0.00    -0.359 C  
HETATM   12  N   UNL     1     -11.336   8.352  70.865  1.00  0.00    -0.266 NA 
HETATM   13  C   UNL     1     -11.737   6.920  70.764  1.00  0.00    -0.369 C  
HETATM   14  N   UNL     1     -10.652   7.554  68.838  1.00  0.00    -0.199 NA 
ENDBRANCH   9  10
ENDBRANCH   8   9
BRANCH   8  15
HETATM   15  C   UNL     1      -8.154  10.044  68.105  1.00  0.00    -0.108 A  
HETATM   16  C   UNL     1      -7.424   8.897  67.732  1.00  0.00    -0.093 A  
HETATM   17  C   UNL     1      -7.405  11.177  68.483  1.00  0.00    -0.104 A  
HETATM   18  C   UNL     1      -6.026   8.905  67.722  1.00  0.00    -0.047 A  
HETATM   19  C   UNL     1      -6.005  11.188  68.433  1.00  0.00    -0.045 A  
HETATM   20  O   UNL     1      -5.306   7.792  67.392  1.00  0.00    -0.029 OA 
HETATM   21  C   UNL     1      -5.314  10.049  68.043  1.00  0.00    -0.038 A  
HETATM   22  H   UNL     1      -4.356   7.797  67.385  1.00  0.00     0.000 HD 
ENDBRANCH   8  15
ENDBRANCH   5   8
TORSDOF 4
ENDMDL
MODEL      170
REMARK 921   NORMALIZED FREE ENERGY PREDICTED BY IDOCK:   -4.08 KCAL/MOL
REMARK 922        TOTAL FREE ENERGY PREDICTED BY IDOCK:   -5.78 KCAL/MOL
REMARK 923 INTER-LIGAND FREE ENERGY PREDICTED BY IDOCK:   -6.12 KCAL/MOL
REMARK 924 INTRA-LIGAND FREE ENERGY PREDICTED BY IDOCK:    0.34 KCAL/MOL
REMARK 927      BINDING AFFINITY PREDICTED BY RF-SCORE:    0.00 PKD
ROOT
HETATM    1  C   UNL     1      -8.864   6.045  65.994  1.00  0.00    -0.159 C  
HETATM    2  C   UNL     1      -8.915   7.537  66.117  1.00  0.00    -0.188 A  
HETATM    3  C   UNL     1      -9.899   8.161  66.880  1.00  0.00    -0.316 A  
HETATM    4  C   UNL     1     -10.049   9.555  66.861  1.00  0.00    -0.295 A  
HETATM    5  C   UNL     1      -9.236  10.377  66.062  1.00  0.00    -0.167 A  
HETATM    6  C   UNL     1      -8.151   9.735  65.434  1.00  0.00    -0.127 A  
HETATM    7  C   UNL     1      -7.999   8.342  65.441  1.00  0.00    -0.122 A  
ENDROOT
BRANCH   5   8
HETATM    8  N   UNL     1      -9.476  11.760  65.826  1.00  0.00    -0.233 NA 
BRANCH   8   9
HETATM    9  C   UNL     1      -9.102  12.740  66.889  1.00  0.00    -0.221 C  
BRANCH   9  10
HETATM   10  C   UNL     1     -10.200  12.898  67.937  1.00  0.00    -0.233 C  
HETATM   11  C   UNL     1     -11.930  13.860  69.062  1.00  0.00    -0.364 C  
HETATM   12  N   UNL     1     -10.677  11.849  68.567  1.00  0.00    -0.216 NA 
HETATM   13  C   UNL     1     -11.697  12.410  69.497  1.00  0.00    -0.322 C  
HETATM   14  N   UNL     1     -10.738  14.114  68.288  1.00  0.00    -0.243 NA 
ENDBRANCH   9  10
ENDBRANCH   8   9
BRANCH   8  15
HETATM   15  C   UNL     1     -10.535  12.280  64.992  1.00  0.00    -0.290 A  
HETATM   16  C   UNL     1     -10.855  13.653  64.956  1.00  0.00    -0.358 A  
HETATM   17  C   UNL     1     -11.268  11.435  64.134  1.00  0.00    -0.327 A  
HETATM   18  C   UNL     1     -11.839  14.140  64.090  1.00  0.00    -0.337 A  
HETATM   19  C   UNL     1     -12.224  11.938  63.242  1.00  0.00    -0.487 A  
HETATM   20  O   UNL     1     -12.180  15.463  64.065  1.00  0.00    -0.904 OA 
HETATM   21  C   UNL     1     -12.505  13.296  63.215  1.00  0.00    -0.208 A  
HETATM   22  H   UNL     1     -12.849  15.794  63.477  1.00  0.00     0.000 HD 
ENDBRANCH   8  15
ENDBRANCH   5   8
TORSDOF 4
ENDMDL
MODEL      171
REMARK 921   NORMALIZED FREE ENERGY PREDICTED BY IDOCK:   -4.06 KCAL/MOL
REMARK 922        TOTAL FREE ENERGY PREDICTED BY IDOCK:   -5.76 KCAL/MOL
REMARK 923 INTER-LIGAND FREE ENERGY PREDICTED BY IDOCK:   -5.30 KCAL/MOL
REMARK 924 INTRA-LIGAND FREE ENERGY PREDICTED BY IDOCK:   -0.46 KCAL/MOL
REMARK 927      BINDING AFFINITY PREDICTED BY RF-SCORE:    0.00 PKD
ROOT
HETATM    1  C   UNL     1      -7.921  11.415  67.292  1.00  0.00    -0.149 C  
HETATM    2  C   UNL     1      -7.680  12.894  67.318  1.00  0.00    -0.122 A  
HETATM    3  C   UNL     1      -6.418  13.410  67.601  1.00  0.00    -0.169 A  
HETATM    4  C   UNL     1      -6.229  14.787  67.790  1.00  0.00    -0.157 A  
HETATM    5  C   UNL     1      -7.298  15.696  67.726  1.00  0.00    -0.150 A  
HETATM    6  C   UNL     1      -8.524  15.167  67.279  1.00  0.00    -0.220 A  
HETATM    7  C   UNL     1      -8.722  13.792  67.096  1.00  0.00    -0.231 A  
ENDROOT
BRANCH   5   8
HETATM    8  N   UNL     1      -7.217  17.061  68.123  1.00  0.00    -0.180 NA 
BRANCH   8   9
HETATM    9  C   UNL     1      -6.362  17.413  69.297  1.00  0.00    -0.244 C  
BRANCH   9  10
HETATM   10  C   UNL     1      -5.857  18.851  69.228  1.00  0.00    -0.228 C  
HETATM   11  C   UNL     1      -5.242  20.837  68.298  1.00  0.00    -0.269 C  
HETATM   12  N   UNL     1      -5.897  19.624  70.288  1.00  0.00    -0.261 NA 
HETATM   13  C   UNL     1      -5.311  20.915  69.827  1.00  0.00    -0.373 C  
HETATM   14  N   UNL     1      -5.329  19.411  68.088  1.00  0.00    -0.184 NA 
ENDBRANCH   9  10
ENDBRANCH   8   9
BRANCH   8  15
HETATM   15  C   UNL     1      -8.268  18.035  67.939  1.00  0.00    -0.247 A  
HETATM   16  C   UNL     1      -8.473  18.693  66.709  1.00  0.00    -0.292 A  
HETATM   17  C   UNL     1      -9.173  18.336  68.977  1.00  0.00    -0.085 A  
HETATM   18  C   UNL     1      -9.540  19.580  66.535  1.00  0.00    -0.378 A  
HETATM   19  C   UNL     1     -10.261  19.197  68.783  1.00  0.00    -0.360 A  
HETATM   20  O   UNL     1      -9.733  20.247  65.359  1.00  0.00    -0.432 OA 
HETATM   21  C   UNL     1     -10.449  19.815  67.555  1.00  0.00    -0.569 A  
HETATM   22  H   UNL     1     -10.458  20.850  65.241  1.00  0.00     0.000 HD 
ENDBRANCH   8  15
ENDBRANCH   5   8
TORSDOF 4
ENDMDL
MODEL      172
REMARK 921   NORMALIZED FREE ENERGY PREDICTED BY IDOCK:   -4.06 KCAL/MOL
REMARK 922        TOTAL FREE ENERGY PREDICTED BY IDOCK:   -5.76 KCAL/MOL
REMARK 923 INTER-LIGAND FREE ENERGY PREDICTED BY IDOCK:   -5.49 KCAL/MOL
REMARK 924 INTRA-LIGAND FREE ENERGY PREDICTED BY IDOCK:   -0.27 KCAL/MOL
REMARK 927      BINDING AFFINITY PREDICTED BY RF-SCORE:    0.00 PKD
ROOT
HETATM    1  C   UNL     1      -9.521   6.951  71.442  1.00  0.00    -0.160 C  
HETATM    2  C   UNL     1      -9.646   8.256  70.718  1.00  0.00    -0.196 A  
HETATM    3  C   UNL     1     -10.743   9.089  70.923  1.00  0.00    -0.319 A  
HETATM    4  C   UNL     1     -10.943  10.226  70.126  1.00  0.00    -0.377 A  
HETATM    5  C   UNL     1     -10.067  10.560  69.080  1.00  0.00    -0.217 A  
HETATM    6  C   UNL     1      -8.887   9.795  69.003  1.00  0.00    -0.153 A  
HETATM    7  C   UNL     1      -8.683   8.654  69.791  1.00  0.00    -0.132 A  
ENDROOT
BRANCH   5   8
HETATM    8  N   UNL     1     -10.329  11.561  68.101  1.00  0.00    -0.188 NA 
BRANCH   8   9
HETATM    9  C   UNL     1     -10.353  11.162  66.662  1.00  0.00    -0.241 C  
BRANCH   9  10
HETATM   10  C   UNL     1     -11.122  12.161  65.802  1.00  0.00    -0.319 C  
HETATM   11  C   UNL     1     -12.673  13.741  65.268  1.00  0.00    -0.439 C  
HETATM   12  N   UNL     1     -10.595  12.637  64.698  1.00  0.00    -0.315 NA 
HETATM   13  C   UNL     1     -11.642  13.547  64.152  1.00  0.00    -0.376 C  
HETATM   14  N   UNL     1     -12.387  12.605  66.113  1.00  0.00    -0.535 NA 
ENDBRANCH   9  10
ENDBRANCH   8   9
BRANCH   8  15
HETATM   15  C   UNL     1      -9.994  12.959  68.245  1.00  0.00    -0.234 A  
HETATM   16  C   UNL     1      -8.893  13.539  67.582  1.00  0.00    -0.202 A  
HETATM   17  C   UNL     1     -10.792  13.822  69.025  1.00  0.00    -0.247 A  
HETATM   18  C   UNL     1      -8.631  14.908  67.684  1.00  0.00    -0.174 A  
HETATM   19  C   UNL     1     -10.543  15.200  69.089  1.00  0.00    -0.256 A  
HETATM   20  O   UNL     1      -7.551  15.478  67.071  1.00  0.00    -0.215 OA 
HETATM   21  C   UNL     1      -9.463  15.745  68.410  1.00  0.00    -0.196 A  
HETATM   22  H   UNL     1      -7.372  16.408  67.141  1.00  0.00     0.000 HD 
ENDBRANCH   8  15
ENDBRANCH   5   8
TORSDOF 4
ENDMDL
MODEL      173
REMARK 921   NORMALIZED FREE ENERGY PREDICTED BY IDOCK:   -4.05 KCAL/MOL
REMARK 922        TOTAL FREE ENERGY PREDICTED BY IDOCK:   -5.74 KCAL/MOL
REMARK 923 INTER-LIGAND FREE ENERGY PREDICTED BY IDOCK:   -5.07 KCAL/MOL
REMARK 924 INTRA-LIGAND FREE ENERGY PREDICTED BY IDOCK:   -0.68 KCAL/MOL
REMARK 927      BINDING AFFINITY PREDICTED BY RF-SCORE:    0.00 PKD
ROOT
HETATM    1  C   UNL     1      -9.179   3.768  66.547  1.00  0.00    -0.178 C  
HETATM    2  C   UNL     1      -9.261   5.078  67.269  1.00  0.00    -0.127 A  
HETATM    3  C   UNL     1      -8.294   5.445  68.202  1.00  0.00    -0.098 A  
HETATM    4  C   UNL     1      -8.458   6.589  68.996  1.00  0.00    -0.125 A  
HETATM    5  C   UNL     1      -9.604   7.397  68.904  1.00  0.00    -0.148 A  
HETATM    6  C   UNL     1     -10.481   7.094  67.844  1.00  0.00    -0.268 A  
HETATM    7  C   UNL     1     -10.328   5.948  67.051  1.00  0.00    -0.298 A  
ENDROOT
BRANCH   5   8
HETATM    8  N   UNL     1      -9.934   8.432  69.824  1.00  0.00    -0.188 NA 
BRANCH   8   9
HETATM    9  C   UNL     1      -8.864   8.953  70.725  1.00  0.00    -0.208 C  
BRANCH   9  10
HETATM   10  C   UNL     1      -7.956   9.955  70.019  1.00  0.00    -0.180 C  
HETATM   11  C   UNL     1      -6.036  11.049  69.464  1.00  0.00    -0.072 C  
HETATM   12  N   UNL     1      -8.323  10.504  68.884  1.00  0.00    -0.138 NA 
HETATM   13  C   UNL     1      -7.197  11.415  68.533  1.00  0.00    -0.093 C  
HETATM   14  N   UNL     1      -6.734  10.346  70.515  1.00  0.00    -0.314 NA 
ENDBRANCH   9  10
ENDBRANCH   8   9
BRANCH   8  15
HETATM   15  C   UNL     1     -11.242   8.628  70.406  1.00  0.00    -0.218 A  
HETATM   16  C   UNL     1     -11.952   7.579  71.026  1.00  0.00    -0.317 A  
HETATM   17  C   UNL     1     -11.849   9.901  70.423  1.00  0.00    -0.310 A  
HETATM   18  C   UNL     1     -13.185   7.809  71.643  1.00  0.00    -0.343 A  
HETATM   19  C   UNL     1     -13.067  10.130  71.077  1.00  0.00    -0.458 A  
HETATM   20  O   UNL     1     -13.897   6.797  72.221  1.00  0.00    -0.546 OA 
HETATM   21  C   UNL     1     -13.733   9.081  71.695  1.00  0.00    -0.442 A  
HETATM   22  H   UNL     1     -14.736   6.954  72.640  1.00  0.00     0.000 HD 
ENDBRANCH   8  15
ENDBRANCH   5   8
TORSDOF 4
ENDMDL
MODEL      174
REMARK 921   NORMALIZED FREE ENERGY PREDICTED BY IDOCK:   -4.04 KCAL/MOL
REMARK 922        TOTAL FREE ENERGY PREDICTED BY IDOCK:   -5.73 KCAL/MOL
REMARK 923 INTER-LIGAND FREE ENERGY PREDICTED BY IDOCK:   -5.13 KCAL/MOL
REMARK 924 INTRA-LIGAND FREE ENERGY PREDICTED BY IDOCK:   -0.61 KCAL/MOL
REMARK 927      BINDING AFFINITY PREDICTED BY RF-SCORE:    0.00 PKD
ROOT
HETATM    1  C   UNL     1     -14.397   8.401  72.294  1.00  0.00    -0.465 C  
HETATM    2  C   UNL     1     -13.068   8.552  71.619  1.00  0.00    -0.368 A  
HETATM    3  C   UNL     1     -12.435   9.790  71.550  1.00  0.00    -0.495 A  
HETATM    4  C   UNL     1     -11.278   9.965  70.778  1.00  0.00    -0.427 A  
HETATM    5  C   UNL     1     -10.722   8.914  70.029  1.00  0.00    -0.228 A  
HETATM    6  C   UNL     1     -11.286   7.643  70.248  1.00  0.00    -0.230 A  
HETATM    7  C   UNL     1     -12.447   7.461  71.011  1.00  0.00    -0.285 A  
ENDROOT
BRANCH   5   8
HETATM    8  N   UNL     1      -9.691   9.076  69.059  1.00  0.00    -0.164 NA 
BRANCH   8   9
HETATM    9  C   UNL     1      -8.286   9.250  69.534  1.00  0.00    -0.131 C  
BRANCH   9  10
HETATM   10  C   UNL     1      -7.407   8.056  69.176  1.00  0.00    -0.086 C  
HETATM   11  C   UNL     1      -6.808   5.877  68.893  1.00  0.00    -0.066 C  
HETATM   12  N   UNL     1      -6.375   8.202  68.377  1.00  0.00    -0.049 NA 
HETATM   13  C   UNL     1      -5.779   6.839  68.290  1.00  0.00    -0.017 C  
HETATM   14  N   UNL     1      -7.623   6.788  69.662  1.00  0.00    -0.099 NA 
ENDBRANCH   9  10
ENDBRANCH   8   9
BRANCH   8  15
HETATM   15  C   UNL     1      -9.875   9.673  67.756  1.00  0.00    -0.159 A  
HETATM   16  C   UNL     1      -9.416   9.053  66.576  1.00  0.00    -0.266 A  
HETATM   17  C   UNL     1     -10.571  10.890  67.604  1.00  0.00    -0.263 A  
HETATM   18  C   UNL     1      -9.666   9.618  65.322  1.00  0.00    -0.260 A  
HETATM   19  C   UNL     1     -10.850  11.428  66.341  1.00  0.00    -0.323 A  
HETATM   20  O   UNL     1      -9.202   9.043  64.172  1.00  0.00    -0.405 OA 
HETATM   21  C   UNL     1     -10.402  10.785  65.196  1.00  0.00    -0.341 A  
HETATM   22  H   UNL     1      -9.372   9.428  63.320  1.00  0.00     0.000 HD 
ENDBRANCH   8  15
ENDBRANCH   5   8
TORSDOF 4
ENDMDL
MODEL      175
REMARK 921   NORMALIZED FREE ENERGY PREDICTED BY IDOCK:   -4.02 KCAL/MOL
REMARK 922        TOTAL FREE ENERGY PREDICTED BY IDOCK:   -5.71 KCAL/MOL
REMARK 923 INTER-LIGAND FREE ENERGY PREDICTED BY IDOCK:   -4.83 KCAL/MOL
REMARK 924 INTRA-LIGAND FREE ENERGY PREDICTED BY IDOCK:   -0.88 KCAL/MOL
REMARK 927      BINDING AFFINITY PREDICTED BY RF-SCORE:    0.00 PKD
ROOT
HETATM    1  C   UNL     1     -12.270  14.181  64.160  1.00  0.00    -0.423 C  
HETATM    2  C   UNL     1     -11.736  12.943  64.813  1.00  0.00    -0.391 A  
HETATM    3  C   UNL     1     -11.800  12.775  66.194  1.00  0.00    -0.484 A  
HETATM    4  C   UNL     1     -11.154  11.699  66.819  1.00  0.00    -0.366 A  
HETATM    5  C   UNL     1     -10.402  10.762  66.091  1.00  0.00    -0.239 A  
HETATM    6  C   UNL     1     -10.492  10.864  64.689  1.00  0.00    -0.384 A  
HETATM    7  C   UNL     1     -11.129  11.941  64.057  1.00  0.00    -0.459 A  
ENDROOT
BRANCH   5   8
HETATM    8  N   UNL     1      -9.547   9.786  66.677  1.00  0.00    -0.177 NA 
BRANCH   8   9
HETATM    9  C   UNL     1      -9.985   8.358  66.672  1.00  0.00    -0.284 C  
BRANCH   9  10
HETATM   10  C   UNL     1      -9.014   7.463  65.909  1.00  0.00    -0.077 C  
HETATM   11  C   UNL     1      -8.096   5.543  65.097  1.00  0.00    -0.124 C  
HETATM   12  N   UNL     1      -8.273   7.953  64.942  1.00  0.00    -0.145 NA 
HETATM   13  C   UNL     1      -7.466   6.791  64.470  1.00  0.00    -0.099 C  
HETATM   14  N   UNL     1      -8.846   6.126  66.185  1.00  0.00    -0.150 NA 
ENDBRANCH   9  10
ENDBRANCH   8   9
BRANCH   8  15
HETATM   15  C   UNL     1      -8.633  10.043  67.766  1.00  0.00    -0.118 A  
HETATM   16  C   UNL     1      -8.883   9.591  69.078  1.00  0.00    -0.143 A  
HETATM   17  C   UNL     1      -7.415  10.720  67.551  1.00  0.00    -0.093 A  
HETATM   18  C   UNL     1      -7.950   9.793  70.100  1.00  0.00    -0.186 A  
HETATM   19  C   UNL     1      -6.469  10.884  68.572  1.00  0.00    -0.054 A  
HETATM   20  O   UNL     1      -8.193   9.387  71.382  1.00  0.00    -0.302 OA 
HETATM   21  C   UNL     1      -6.736  10.411  69.849  1.00  0.00    -0.134 A  
HETATM   22  H   UNL     1      -7.559   9.525  72.076  1.00  0.00     0.000 HD 
ENDBRANCH   8  15
ENDBRANCH   5   8
TORSDOF 4
ENDMDL
MODEL      176
REMARK 921   NORMALIZED FREE ENERGY PREDICTED BY IDOCK:   -4.02 KCAL/MOL
REMARK 922        TOTAL FREE ENERGY PREDICTED BY IDOCK:   -5.71 KCAL/MOL
REMARK 923 INTER-LIGAND FREE ENERGY PREDICTED BY IDOCK:   -4.87 KCAL/MOL
REMARK 924 INTRA-LIGAND FREE ENERGY PREDICTED BY IDOCK:   -0.83 KCAL/MOL
REMARK 927      BINDING AFFINITY PREDICTED BY RF-SCORE:    0.00 PKD
ROOT
HETATM    1  C   UNL     1     -13.007  11.124  71.907  1.00  0.00    -0.477 C  
HETATM    2  C   UNL     1     -12.055  10.632  70.859  1.00  0.00    -0.489 A  
HETATM    3  C   UNL     1     -11.852  11.347  69.681  1.00  0.00    -0.431 A  
HETATM    4  C   UNL     1     -11.094  10.807  68.633  1.00  0.00    -0.312 A  
HETATM    5  C   UNL     1     -10.529   9.523  68.713  1.00  0.00    -0.219 A  
HETATM    6  C   UNL     1     -10.613   8.896  69.971  1.00  0.00    -0.234 A  
HETATM    7  C   UNL     1     -11.376   9.426  71.021  1.00  0.00    -0.407 A  
ENDROOT
BRANCH   5   8
HETATM    8  N   UNL     1      -9.944   8.832  67.614  1.00  0.00    -0.180 NA 
BRANCH   8   9
HETATM    9  C   UNL     1      -9.239   7.542  67.876  1.00  0.00    -0.136 C  
BRANCH   9  10
HETATM   10  C   UNL     1      -9.618   6.465  66.863  1.00  0.00    -0.149 C  
HETATM   11  C   UNL     1      -9.330   4.821  65.314  1.00  0.00    -0.143 C  
HETATM   12  N   UNL     1     -10.809   5.913  66.889  1.00  0.00    -0.314 NA 
HETATM   13  C   UNL     1     -10.792   4.945  65.756  1.00  0.00    -0.066 C  
HETATM   14  N   UNL     1      -8.766   6.024  65.877  1.00  0.00    -0.152 NA 
ENDBRANCH   9  10
ENDBRANCH   8   9
BRANCH   8  15
HETATM   15  C   UNL     1      -9.432   9.468  66.422  1.00  0.00    -0.195 A  
HETATM   16  C   UNL     1     -10.245   9.719  65.298  1.00  0.00     0.033 A  
HETATM   17  C   UNL     1      -8.096   9.914  66.350  1.00  0.00    -0.118 A  
HETATM   18  C   UNL     1      -9.743  10.397  64.183  1.00  0.00    -0.324 A  
HETATM   19  C   UNL     1      -7.613  10.626  65.245  1.00  0.00    -0.006 A  
HETATM   20  O   UNL     1     -10.511  10.621  63.075  1.00  0.00    -0.668 OA 
HETATM   21  C   UNL     1      -8.443  10.875  64.160  1.00  0.00     0.112 A  
HETATM   22  H   UNL     1     -10.170  11.081  62.317  1.00  0.00     0.000 HD 
ENDBRANCH   8  15
ENDBRANCH   5   8
TORSDOF 4
ENDMDL
MODEL      177
REMARK 921   NORMALIZED FREE ENERGY PREDICTED BY IDOCK:   -4.01 KCAL/MOL
REMARK 922        TOTAL FREE ENERGY PREDICTED BY IDOCK:   -5.70 KCAL/MOL
REMARK 923 INTER-LIGAND FREE ENERGY PREDICTED BY IDOCK:   -5.30 KCAL/MOL
REMARK 924 INTRA-LIGAND FREE ENERGY PREDICTED BY IDOCK:   -0.40 KCAL/MOL
REMARK 927      BINDING AFFINITY PREDICTED BY RF-SCORE:    0.00 PKD
ROOT
HETATM    1  C   UNL     1      -6.445  16.167  67.849  1.00  0.00    -0.158 C  
HETATM    2  C   UNL     1      -7.269  14.928  68.026  1.00  0.00    -0.143 A  
HETATM    3  C   UNL     1      -6.846  13.706  67.511  1.00  0.00    -0.152 A  
HETATM    4  C   UNL     1      -7.690  12.586  67.530  1.00  0.00    -0.165 A  
HETATM    5  C   UNL     1      -8.996  12.652  68.045  1.00  0.00    -0.200 A  
HETATM    6  C   UNL     1      -9.333  13.850  68.703  1.00  0.00    -0.106 A  
HETATM    7  C   UNL     1      -8.498  14.976  68.681  1.00  0.00    -0.168 A  
ENDROOT
BRANCH   5   8
HETATM    8  N   UNL     1      -9.971  11.626  67.894  1.00  0.00    -0.178 NA 
BRANCH   8   9
HETATM    9  C   UNL     1     -10.841  11.641  66.679  1.00  0.00    -0.283 C  
BRANCH   9  10
HETATM   10  C   UNL     1     -11.036  13.052  66.131  1.00  0.00    -0.287 C  
HETATM   11  C   UNL     1     -10.812  14.824  64.719  1.00  0.00    -0.376 C  
HETATM   12  N   UNL     1     -12.061  13.779  66.510  1.00  0.00    -0.436 NA 
HETATM   13  C   UNL     1     -11.890  15.068  65.780  1.00  0.00    -0.029 C  
HETATM   14  N   UNL     1     -10.169  13.641  65.240  1.00  0.00    -0.332 NA 
ENDBRANCH   9  10
ENDBRANCH   8   9
BRANCH   8  15
HETATM   15  C   UNL     1     -10.624  10.945  68.988  1.00  0.00    -0.216 A  
HETATM   16  C   UNL     1      -9.995   9.909  69.709  1.00  0.00    -0.275 A  
HETATM   17  C   UNL     1     -11.913  11.324  69.418  1.00  0.00    -0.410 A  
HETATM   18  C   UNL     1     -10.621   9.312  70.807  1.00  0.00    -0.285 A  
HETATM   19  C   UNL     1     -12.516  10.747  70.543  1.00  0.00    -0.447 A  
HETATM   20  O   UNL     1     -10.036   8.288  71.496  1.00  0.00    -0.175 OA 
HETATM   21  C   UNL     1     -11.864   9.742  71.244  1.00  0.00    -0.481 A  
HETATM   22  H   UNL     1     -10.461   7.882  72.243  1.00  0.00     0.000 HD 
ENDBRANCH   8  15
ENDBRANCH   5   8
TORSDOF 4
ENDMDL
MODEL      178
REMARK 921   NORMALIZED FREE ENERGY PREDICTED BY IDOCK:   -4.01 KCAL/MOL
REMARK 922        TOTAL FREE ENERGY PREDICTED BY IDOCK:   -5.69 KCAL/MOL
REMARK 923 INTER-LIGAND FREE ENERGY PREDICTED BY IDOCK:   -5.14 KCAL/MOL
REMARK 924 INTRA-LIGAND FREE ENERGY PREDICTED BY IDOCK:   -0.55 KCAL/MOL
REMARK 927      BINDING AFFINITY PREDICTED BY RF-SCORE:    0.00 PKD
ROOT
HETATM    1  C   UNL     1     -11.079   6.272  72.637  1.00  0.00    -0.298 C  
HETATM    2  C   UNL     1     -10.911   6.935  71.303  1.00  0.00    -0.263 A  
HETATM    3  C   UNL     1     -11.231   6.266  70.124  1.00  0.00    -0.470 A  
HETATM    4  C   UNL     1     -10.918   6.821  68.875  1.00  0.00    -0.272 A  
HETATM    5  C   UNL     1     -10.254   8.053  68.757  1.00  0.00    -0.206 A  
HETATM    6  C   UNL     1     -10.093   8.777  69.954  1.00  0.00    -0.197 A  
HETATM    7  C   UNL     1     -10.395   8.226  71.207  1.00  0.00    -0.256 A  
ENDROOT
BRANCH   5   8
HETATM    8  N   UNL     1      -9.713   8.562  67.542  1.00  0.00    -0.154 NA 
BRANCH   8   9
HETATM    9  C   UNL     1      -8.281   8.282  67.226  1.00  0.00    -0.120 C  
BRANCH   9  10
HETATM   10  C   UNL     1      -8.092   6.912  66.582  1.00  0.00    -0.110 C  
HETATM   11  C   UNL     1      -7.892   4.647  66.443  1.00  0.00    -0.099 C  
HETATM   12  N   UNL     1      -8.324   6.738  65.301  1.00  0.00    -0.132 NA 
HETATM   13  C   UNL     1      -8.016   5.300  65.062  1.00  0.00    -0.103 C  
HETATM   14  N   UNL     1      -7.668   5.804  67.278  1.00  0.00    -0.100 NA 
ENDBRANCH   9  10
ENDBRANCH   8   9
BRANCH   8  15
HETATM   15  C   UNL     1     -10.162   9.768  66.884  1.00  0.00    -0.245 A  
HETATM   16  C   UNL     1      -9.894  10.024  65.524  1.00  0.00    -0.373 A  
HETATM   17  C   UNL     1     -10.937  10.727  67.569  1.00  0.00    -0.372 A  
HETATM   18  C   UNL     1     -10.398  11.165  64.893  1.00  0.00    -0.313 A  
HETATM   19  C   UNL     1     -11.469  11.848  66.919  1.00  0.00    -0.390 A  
HETATM   20  O   UNL     1     -10.122  11.441  63.584  1.00  0.00    -0.300 OA 
HETATM   21  C   UNL     1     -11.204  12.063  65.574  1.00  0.00    -0.372 A  
HETATM   22  H   UNL     1     -10.464  12.217  63.155  1.00  0.00     0.000 HD 
ENDBRANCH   8  15
ENDBRANCH   5   8
TORSDOF 4
ENDMDL
MODEL      179
REMARK 921   NORMALIZED FREE ENERGY PREDICTED BY IDOCK:   -3.99 KCAL/MOL
REMARK 922        TOTAL FREE ENERGY PREDICTED BY IDOCK:   -5.68 KCAL/MOL
REMARK 923 INTER-LIGAND FREE ENERGY PREDICTED BY IDOCK:   -5.18 KCAL/MOL
REMARK 924 INTRA-LIGAND FREE ENERGY PREDICTED BY IDOCK:   -0.50 KCAL/MOL
REMARK 927      BINDING AFFINITY PREDICTED BY RF-SCORE:    0.00 PKD
ROOT
HETATM    1  C   UNL     1     -14.377   8.728  72.308  1.00  0.00    -0.468 C  
HETATM    2  C   UNL     1     -13.055   8.387  71.692  1.00  0.00    -0.355 A  
HETATM    3  C   UNL     1     -12.065   9.355  71.536  1.00  0.00    -0.456 A  
HETATM    4  C   UNL     1     -10.897   9.079  70.812  1.00  0.00    -0.310 A  
HETATM    5  C   UNL     1     -10.683   7.834  70.197  1.00  0.00    -0.240 A  
HETATM    6  C   UNL     1     -11.621   6.830  70.508  1.00  0.00    -0.426 A  
HETATM    7  C   UNL     1     -12.795   7.100  71.224  1.00  0.00    -0.399 A  
ENDROOT
BRANCH   5   8
HETATM    8  N   UNL     1      -9.635   7.564  69.271  1.00  0.00    -0.158 NA 
BRANCH   8   9
HETATM    9  C   UNL     1      -8.732   8.684  68.869  1.00  0.00    -0.131 C  
BRANCH   9  10
HETATM   10  C   UNL     1      -9.136   9.295  67.531  1.00  0.00    -0.120 C  
HETATM   11  C   UNL     1      -9.239   9.566  65.272  1.00  0.00    -0.247 C  
HETATM   12  N   UNL     1     -10.205  10.052  67.438  1.00  0.00    -0.205 NA 
HETATM   13  C   UNL     1     -10.246  10.458  66.005  1.00  0.00    -0.228 C  
HETATM   14  N   UNL     1      -8.421   9.109  66.371  1.00  0.00    -0.121 NA 
ENDBRANCH   9  10
ENDBRANCH   8   9
BRANCH   8  15
HETATM   15  C   UNL     1      -9.686   6.547  68.246  1.00  0.00    -0.131 A  
HETATM   16  C   UNL     1      -8.670   5.582  68.095  1.00  0.00    -0.102 A  
HETATM   17  C   UNL     1     -10.790   6.447  67.374  1.00  0.00    -0.457 A  
HETATM   18  C   UNL     1      -8.775   4.567  67.140  1.00  0.00    -0.104 A  
HETATM   19  C   UNL     1     -10.905   5.404  66.445  1.00  0.00    -0.202 A  
HETATM   20  O   UNL     1      -7.784   3.643  66.963  1.00  0.00    -0.079 OA 
HETATM   21  C   UNL     1      -9.897   4.456  66.334  1.00  0.00    -0.245 A  
HETATM   22  H   UNL     1      -7.856   2.954  66.313  1.00  0.00     0.000 HD 
ENDBRANCH   8  15
ENDBRANCH   5   8
TORSDOF 4
ENDMDL
MODEL      180
REMARK 921   NORMALIZED FREE ENERGY PREDICTED BY IDOCK:   -3.98 KCAL/MOL
REMARK 922        TOTAL FREE ENERGY PREDICTED BY IDOCK:   -5.66 KCAL/MOL
REMARK 923 INTER-LIGAND FREE ENERGY PREDICTED BY IDOCK:   -4.81 KCAL/MOL
REMARK 924 INTRA-LIGAND FREE ENERGY PREDICTED BY IDOCK:   -0.86 KCAL/MOL
REMARK 927      BINDING AFFINITY PREDICTED BY RF-SCORE:    0.00 PKD
ROOT
HETATM    1  C   UNL     1     -11.207   6.970  72.990  1.00  0.00    -0.242 C  
HETATM    2  C   UNL     1     -10.691   7.479  71.678  1.00  0.00    -0.242 A  
HETATM    3  C   UNL     1      -9.718   8.474  71.627  1.00  0.00    -0.322 A  
HETATM    4  C   UNL     1      -9.357   9.066  70.408  1.00  0.00    -0.244 A  
HETATM    5  C   UNL     1      -9.970   8.701  69.198  1.00  0.00    -0.192 A  
HETATM    6  C   UNL     1     -10.827   7.585  69.259  1.00  0.00    -0.131 A  
HETATM    7  C   UNL     1     -11.198   6.993  70.474  1.00  0.00    -0.335 A  
ENDROOT
BRANCH   5   8
HETATM    8  N   UNL     1      -9.814   9.409  67.972  1.00  0.00    -0.158 NA 
BRANCH   8   9
HETATM    9  C   UNL     1     -10.998  10.118  67.401  1.00  0.00    -0.229 C  
BRANCH   9  10
HETATM   10  C   UNL     1     -11.049  11.583  67.825  1.00  0.00    -0.260 C  
HETATM   11  C   UNL     1     -10.282  13.654  68.379  1.00  0.00    -0.245 C  
HETATM   12  N   UNL     1     -12.149  12.284  67.675  1.00  0.00    -0.473 NA 
HETATM   13  C   UNL     1     -11.805  13.631  68.211  1.00  0.00    -0.369 C  
HETATM   14  N   UNL     1      -9.981  12.242  68.387  1.00  0.00    -0.219 NA 
ENDBRANCH   9  10
ENDBRANCH   8   9
BRANCH   8  15
HETATM   15  C   UNL     1      -8.872   9.057  66.934  1.00  0.00    -0.116 A  
HETATM   16  C   UNL     1      -9.234   9.027  65.572  1.00  0.00    -0.262 A  
HETATM   17  C   UNL     1      -7.525   8.773  67.239  1.00  0.00    -0.089 A  
HETATM   18  C   UNL     1      -8.287   8.750  64.581  1.00  0.00    -0.166 A  
HETATM   19  C   UNL     1      -6.575   8.535  66.236  1.00  0.00    -0.061 A  
HETATM   20  O   UNL     1      -8.630   8.688  63.260  1.00  0.00    -0.384 OA 
HETATM   21  C   UNL     1      -6.957   8.531  64.902  1.00  0.00    -0.072 A  
HETATM   22  H   UNL     1      -7.987   8.500  62.587  1.00  0.00     0.000 HD 
ENDBRANCH   8  15
ENDBRANCH   5   8
TORSDOF 4
ENDMDL
MODEL      181
REMARK 921   NORMALIZED FREE ENERGY PREDICTED BY IDOCK:   -3.97 KCAL/MOL
REMARK 922        TOTAL FREE ENERGY PREDICTED BY IDOCK:   -5.65 KCAL/MOL
REMARK 923 INTER-LIGAND FREE ENERGY PREDICTED BY IDOCK:   -5.29 KCAL/MOL
REMARK 924 INTRA-LIGAND FREE ENERGY PREDICTED BY IDOCK:   -0.37 KCAL/MOL
REMARK 927      BINDING AFFINITY PREDICTED BY RF-SCORE:    0.00 PKD
ROOT
HETATM    1  C   UNL     1     -11.638   5.653  72.672  1.00  0.00    -0.307 C  
HETATM    2  C   UNL     1     -11.423   6.630  71.557  1.00  0.00    -0.343 A  
HETATM    3  C   UNL     1     -11.062   6.197  70.283  1.00  0.00    -0.436 A  
HETATM    4  C   UNL     1     -10.698   7.114  69.287  1.00  0.00    -0.231 A  
HETATM    5  C   UNL     1     -10.660   8.497  69.532  1.00  0.00    -0.211 A  
HETATM    6  C   UNL     1     -11.185   8.913  70.771  1.00  0.00    -0.321 A  
HETATM    7  C   UNL     1     -11.543   8.002  71.775  1.00  0.00    -0.331 A  
ENDROOT
BRANCH   5   8
HETATM    8  N   UNL     1     -10.092   9.456  68.645  1.00  0.00    -0.184 NA 
BRANCH   8   9
HETATM    9  C   UNL     1      -8.609   9.478  68.474  1.00  0.00    -0.119 C  
BRANCH   9  10
HETATM   10  C   UNL     1      -8.156   8.644  67.279  1.00  0.00    -0.101 C  
HETATM   11  C   UNL     1      -7.896   8.032  65.101  1.00  0.00    -0.116 C  
HETATM   12  N   UNL     1      -7.160   7.796  67.395  1.00  0.00    -0.083 NA 
HETATM   13  C   UNL     1      -7.040   7.179  66.044  1.00  0.00    -0.073 C  
HETATM   14  N   UNL     1      -8.753   8.713  66.042  1.00  0.00    -0.159 NA 
ENDBRANCH   9  10
ENDBRANCH   8   9
BRANCH   8  15
HETATM   15  C   UNL     1     -10.666  10.750  68.357  1.00  0.00    -0.217 A  
HETATM   16  C   UNL     1     -11.039  11.132  67.052  1.00  0.00    -0.339 A  
HETATM   17  C   UNL     1     -10.924  11.678  69.387  1.00  0.00    -0.211 A  
HETATM   18  C   UNL     1     -11.654  12.363  66.810  1.00  0.00    -0.379 A  
HETATM   19  C   UNL     1     -11.576  12.893  69.140  1.00  0.00    -0.375 A  
HETATM   20  O   UNL     1     -11.994  12.758  65.547  1.00  0.00    -0.399 OA 
HETATM   21  C   UNL     1     -11.949  13.233  67.848  1.00  0.00    -0.349 A  
HETATM   22  H   UNL     1     -12.412  13.595  65.382  1.00  0.00     0.000 HD 
ENDBRANCH   8  15
ENDBRANCH   5   8
TORSDOF 4
ENDMDL
MODEL      182
REMARK 921   NORMALIZED FREE ENERGY PREDICTED BY IDOCK:   -3.97 KCAL/MOL
REMARK 922        TOTAL FREE ENERGY PREDICTED BY IDOCK:   -5.65 KCAL/MOL
REMARK 923 INTER-LIGAND FREE ENERGY PREDICTED BY IDOCK:   -5.24 KCAL/MOL
REMARK 924 INTRA-LIGAND FREE ENERGY PREDICTED BY IDOCK:   -0.40 KCAL/MOL
REMARK 927      BINDING AFFINITY PREDICTED BY RF-SCORE:    0.00 PKD
ROOT
HETATM    1  C   UNL     1      -8.767   4.034  66.466  1.00  0.00    -0.116 C  
HETATM    2  C   UNL     1      -9.260   4.967  67.530  1.00  0.00    -0.135 A  
HETATM    3  C   UNL     1     -10.616   5.257  67.657  1.00  0.00    -0.126 A  
HETATM    4  C   UNL     1     -11.059   6.254  68.538  1.00  0.00    -0.397 A  
HETATM    5  C   UNL     1     -10.162   7.013  69.309  1.00  0.00    -0.186 A  
HETATM    6  C   UNL     1      -8.820   6.587  69.280  1.00  0.00    -0.132 A  
HETATM    7  C   UNL     1      -8.368   5.597  68.396  1.00  0.00    -0.106 A  
ENDROOT
BRANCH   5   8
HETATM    8  N   UNL     1     -10.521   8.177  70.047  1.00  0.00    -0.226 NA 
BRANCH   8   9
HETATM    9  C   UNL     1      -9.432   9.025  70.616  1.00  0.00    -0.236 C  
BRANCH   9  10
HETATM   10  C   UNL     1      -8.925  10.057  69.613  1.00  0.00    -0.202 C  
HETATM   11  C   UNL     1      -8.972  11.865  68.228  1.00  0.00    -0.178 C  
HETATM   12  N   UNL     1      -7.637  10.264  69.461  1.00  0.00    -0.135 NA 
HETATM   13  C   UNL     1      -7.554  11.311  68.402  1.00  0.00    -0.120 C  
HETATM   14  N   UNL     1      -9.759  10.807  68.816  1.00  0.00    -0.185 NA 
ENDBRANCH   9  10
ENDBRANCH   8   9
BRANCH   8  15
HETATM   15  C   UNL     1     -11.742   8.324  70.806  1.00  0.00    -0.202 A  
HETATM   16  C   UNL     1     -12.205   9.581  71.246  1.00  0.00    -0.433 A  
HETATM   17  C   UNL     1     -12.555   7.210  71.102  1.00  0.00    -0.384 A  
HETATM   18  C   UNL     1     -13.423   9.704  71.920  1.00  0.00    -0.413 A  
HETATM   19  C   UNL     1     -13.793   7.348  71.743  1.00  0.00    -0.438 A  
HETATM   20  O   UNL     1     -13.870  10.912  72.377  1.00  0.00    -0.373 OA 
HETATM   21  C   UNL     1     -14.231   8.601  72.147  1.00  0.00    -0.520 A  
HETATM   22  H   UNL     1     -14.698  10.995  72.835  1.00  0.00     0.000 HD 
ENDBRANCH   8  15
ENDBRANCH   5   8
TORSDOF 4
ENDMDL
MODEL      183
REMARK 921   NORMALIZED FREE ENERGY PREDICTED BY IDOCK:   -3.94 KCAL/MOL
REMARK 922        TOTAL FREE ENERGY PREDICTED BY IDOCK:   -5.61 KCAL/MOL
REMARK 923 INTER-LIGAND FREE ENERGY PREDICTED BY IDOCK:   -5.09 KCAL/MOL
REMARK 924 INTRA-LIGAND FREE ENERGY PREDICTED BY IDOCK:   -0.53 KCAL/MOL
REMARK 927      BINDING AFFINITY PREDICTED BY RF-SCORE:    0.00 PKD
ROOT
HETATM    1  C   UNL     1     -14.398   8.348  72.159  1.00  0.00    -0.520 C  
HETATM    2  C   UNL     1     -13.004   8.042  71.704  1.00  0.00    -0.351 A  
HETATM    3  C   UNL     1     -12.062   9.056  71.546  1.00  0.00    -0.410 A  
HETATM    4  C   UNL     1     -10.814   8.793  70.964  1.00  0.00    -0.321 A  
HETATM    5  C   UNL     1     -10.468   7.514  70.497  1.00  0.00    -0.219 A  
HETATM    6  C   UNL     1     -11.371   6.482  70.819  1.00  0.00    -0.399 A  
HETATM    7  C   UNL     1     -12.624   6.737  71.393  1.00  0.00    -0.348 A  
ENDROOT
BRANCH   5   8
HETATM    8  N   UNL     1      -9.320   7.231  69.704  1.00  0.00    -0.153 NA 
BRANCH   8   9
HETATM    9  C   UNL     1      -8.288   8.297  69.536  1.00  0.00    -0.121 C  
BRANCH   9  10
HETATM   10  C   UNL     1      -7.226   8.245  70.631  1.00  0.00    -0.049 C  
HETATM   11  C   UNL     1      -6.244   8.637  72.648  1.00  0.00    -0.070 C  
HETATM   12  N   UNL     1      -6.307   7.307  70.626  1.00  0.00    -0.038 NA 
HETATM   13  C   UNL     1      -5.469   7.605  71.822  1.00  0.00    -0.035 C  
HETATM   14  N   UNL     1      -7.157   9.157  71.658  1.00  0.00    -0.314 NA 
ENDBRANCH   9  10
ENDBRANCH   8   9
BRANCH   8  15
HETATM   15  C   UNL     1      -9.297   6.309  68.592  1.00  0.00    -0.122 A  
HETATM   16  C   UNL     1     -10.410   6.126  67.746  1.00  0.00    -0.247 A  
HETATM   17  C   UNL     1      -8.132   5.582  68.272  1.00  0.00    -0.096 A  
HETATM   18  C   UNL     1     -10.340   5.279  66.636  1.00  0.00    -0.283 A  
HETATM   19  C   UNL     1      -8.059   4.766  67.135  1.00  0.00    -0.102 A  
HETATM   20  O   UNL     1     -11.420   5.069  65.826  1.00  0.00    -0.754 OA 
HETATM   21  C   UNL     1      -9.165   4.620  66.310  1.00  0.00    -0.135 A  
HETATM   22  H   UNL     1     -11.372   4.494  65.071  1.00  0.00     0.000 HD 
ENDBRANCH   8  15
ENDBRANCH   5   8
TORSDOF 4
ENDMDL
MODEL      184
REMARK 921   NORMALIZED FREE ENERGY PREDICTED BY IDOCK:   -3.93 KCAL/MOL
REMARK 922        TOTAL FREE ENERGY PREDICTED BY IDOCK:   -5.60 KCAL/MOL
REMARK 923 INTER-LIGAND FREE ENERGY PREDICTED BY IDOCK:   -4.97 KCAL/MOL
REMARK 924 INTRA-LIGAND FREE ENERGY PREDICTED BY IDOCK:   -0.63 KCAL/MOL
REMARK 927      BINDING AFFINITY PREDICTED BY RF-SCORE:    0.00 PKD
ROOT
HETATM    1  C   UNL     1      -8.298   7.891  73.959  1.00  0.00    -0.310 C  
HETATM    2  C   UNL     1      -8.859   7.781  72.574  1.00  0.00    -0.202 A  
HETATM    3  C   UNL     1      -8.942   6.550  71.929  1.00  0.00    -0.137 A  
HETATM    4  C   UNL     1      -9.308   6.469  70.578  1.00  0.00    -0.167 A  
HETATM    5  C   UNL     1      -9.583   7.616  69.815  1.00  0.00    -0.163 A  
HETATM    6  C   UNL     1      -9.650   8.826  70.533  1.00  0.00    -0.226 A  
HETATM    7  C   UNL     1      -9.278   8.916  71.881  1.00  0.00    -0.240 A  
ENDROOT
BRANCH   5   8
HETATM    8  N   UNL     1      -9.740   7.622  68.399  1.00  0.00    -0.155 NA 
BRANCH   8   9
HETATM    9  C   UNL     1     -10.616   8.663  67.783  1.00  0.00    -0.183 C  
BRANCH   9  10
HETATM   10  C   UNL     1      -9.815   9.688  66.985  1.00  0.00    -0.195 C  
HETATM   11  C   UNL     1      -9.064  10.840  65.170  1.00  0.00    -0.203 C  
HETATM   12  N   UNL     1      -9.300  10.740  67.578  1.00  0.00    -0.147 NA 
HETATM   13  C   UNL     1      -8.595  11.471  66.486  1.00  0.00    -0.172 C  
HETATM   14  N   UNL     1      -9.576   9.573  65.636  1.00  0.00    -0.264 NA 
ENDBRANCH   9  10
ENDBRANCH   8   9
BRANCH   8  15
HETATM   15  C   UNL     1      -9.661   6.449  67.559  1.00  0.00    -0.120 A  
HETATM   16  C   UNL     1     -10.739   6.030  66.753  1.00  0.00    -0.374 A  
HETATM   17  C   UNL     1      -8.473   5.695  67.472  1.00  0.00    -0.102 A  
HETATM   18  C   UNL     1     -10.613   4.932  65.897  1.00  0.00    -0.230 A  
HETATM   19  C   UNL     1      -8.344   4.620  66.583  1.00  0.00    -0.106 A  
HETATM   20  O   UNL     1     -11.659   4.496  65.132  1.00  0.00    -1.102 OA 
HETATM   21  C   UNL     1      -9.416   4.242  65.787  1.00  0.00    -0.176 A  
HETATM   22  H   UNL     1     -11.573   3.750  64.551  1.00  0.00     0.000 HD 
ENDBRANCH   8  15
ENDBRANCH   5   8
TORSDOF 4
ENDMDL
MODEL      185
REMARK 921   NORMALIZED FREE ENERGY PREDICTED BY IDOCK:   -3.91 KCAL/MOL
REMARK 922        TOTAL FREE ENERGY PREDICTED BY IDOCK:   -5.57 KCAL/MOL
REMARK 923 INTER-LIGAND FREE ENERGY PREDICTED BY IDOCK:   -4.89 KCAL/MOL
REMARK 924 INTRA-LIGAND FREE ENERGY PREDICTED BY IDOCK:   -0.68 KCAL/MOL
REMARK 927      BINDING AFFINITY PREDICTED BY RF-SCORE:    0.00 PKD
ROOT
HETATM    1  C   UNL     1      -8.580   5.763  65.439  1.00  0.00    -0.143 C  
HETATM    2  C   UNL     1      -9.171   6.045  66.786  1.00  0.00    -0.143 A  
HETATM    3  C   UNL     1     -10.550   6.040  66.979  1.00  0.00    -0.385 A  
HETATM    4  C   UNL     1     -11.108   6.466  68.194  1.00  0.00    -0.358 A  
HETATM    5  C   UNL     1     -10.311   6.933  69.252  1.00  0.00    -0.198 A  
HETATM    6  C   UNL     1      -8.921   6.772  69.086  1.00  0.00    -0.132 A  
HETATM    7  C   UNL     1      -8.356   6.355  67.874  1.00  0.00    -0.118 A  
ENDROOT
BRANCH   5   8
HETATM    8  N   UNL     1     -10.816   7.582  70.414  1.00  0.00    -0.240 NA 
BRANCH   8   9
HETATM    9  C   UNL     1     -11.249   9.007  70.304  1.00  0.00    -0.205 C  
BRANCH   9  10
HETATM   10  C   UNL     1     -10.379   9.798  69.331  1.00  0.00    -0.217 C  
HETATM   11  C   UNL     1      -8.492  10.712  68.440  1.00  0.00    -0.132 C  
HETATM   12  N   UNL     1     -10.797  10.048  68.112  1.00  0.00    -0.256 NA 
HETATM   13  C   UNL     1      -9.694  10.839  67.497  1.00  0.00    -0.166 C  
HETATM   14  N   UNL     1      -9.140  10.296  69.662  1.00  0.00    -0.171 NA 
ENDBRANCH   9  10
ENDBRANCH   8   9
BRANCH   8  15
HETATM   15  C   UNL     1     -10.428   7.263  71.768  1.00  0.00    -0.197 A  
HETATM   16  C   UNL     1     -10.868   6.091  72.418  1.00  0.00    -0.288 A  
HETATM   17  C   UNL     1      -9.545   8.093  72.488  1.00  0.00    -0.347 A  
HETATM   18  C   UNL     1     -10.423   5.770  73.704  1.00  0.00    -0.265 A  
HETATM   19  C   UNL     1      -9.075   7.745  73.761  1.00  0.00    -0.333 A  
HETATM   20  O   UNL     1     -10.863   4.654  74.357  1.00  0.00    -0.328 OA 
HETATM   21  C   UNL     1      -9.510   6.575  74.368  1.00  0.00    -0.270 A  
HETATM   22  H   UNL     1     -10.561   4.437  75.231  1.00  0.00     0.000 HD 
ENDBRANCH   8  15
ENDBRANCH   5   8
TORSDOF 4
ENDMDL
MODEL      186
REMARK 921   NORMALIZED FREE ENERGY PREDICTED BY IDOCK:   -3.91 KCAL/MOL
REMARK 922        TOTAL FREE ENERGY PREDICTED BY IDOCK:   -5.57 KCAL/MOL
REMARK 923 INTER-LIGAND FREE ENERGY PREDICTED BY IDOCK:   -4.72 KCAL/MOL
REMARK 924 INTRA-LIGAND FREE ENERGY PREDICTED BY IDOCK:   -0.85 KCAL/MOL
REMARK 927      BINDING AFFINITY PREDICTED BY RF-SCORE:    0.00 PKD
ROOT
HETATM    1  C   UNL     1     -11.473   5.718  72.529  1.00  0.00    -0.349 C  
HETATM    2  C   UNL     1     -11.298   6.589  71.323  1.00  0.00    -0.355 A  
HETATM    3  C   UNL     1     -11.140   6.034  70.055  1.00  0.00    -0.451 A  
HETATM    4  C   UNL     1     -10.810   6.838  68.954  1.00  0.00    -0.288 A  
HETATM    5  C   UNL     1     -10.605   8.222  69.082  1.00  0.00    -0.165 A  
HETATM    6  C   UNL     1     -10.932   8.774  70.336  1.00  0.00    -0.262 A  
HETATM    7  C   UNL     1     -11.254   7.977  71.443  1.00  0.00    -0.287 A  
ENDROOT
BRANCH   5   8
HETATM    8  N   UNL     1     -10.057   9.051  68.063  1.00  0.00    -0.181 NA 
BRANCH   8   9
HETATM    9  C   UNL     1     -10.993   9.813  67.183  1.00  0.00    -0.033 C  
BRANCH   9  10
HETATM   10  C   UNL     1     -11.040  11.296  67.543  1.00  0.00    -0.286 C  
HETATM   11  C   UNL     1     -11.878  13.406  67.721  1.00  0.00    -0.358 C  
HETATM   12  N   UNL     1     -10.236  11.786  68.459  1.00  0.00    -0.209 NA 
HETATM   13  C   UNL     1     -10.572  13.237  68.505  1.00  0.00    -0.256 C  
HETATM   14  N   UNL     1     -11.893  12.191  66.941  1.00  0.00    -0.601 NA 
ENDBRANCH   9  10
ENDBRANCH   8   9
BRANCH   8  15
HETATM   15  C   UNL     1      -8.800   8.808  67.393  1.00  0.00    -0.133 A  
HETATM   16  C   UNL     1      -7.575   8.766  68.089  1.00  0.00    -0.097 A  
HETATM   17  C   UNL     1      -8.751   8.552  66.007  1.00  0.00    -0.188 A  
HETATM   18  C   UNL     1      -6.381   8.461  67.429  1.00  0.00    -0.057 A  
HETATM   19  C   UNL     1      -7.555   8.210  65.361  1.00  0.00    -0.089 A  
HETATM   20  O   UNL     1      -5.183   8.446  68.086  1.00  0.00    -0.032 OA 
HETATM   21  C   UNL     1      -6.368   8.157  66.077  1.00  0.00    -0.046 A  
HETATM   22  H   UNL     1      -4.372   8.239  67.636  1.00  0.00     0.000 HD 
ENDBRANCH   8  15
ENDBRANCH   5   8
TORSDOF 4
ENDMDL
MODEL      187
REMARK 921   NORMALIZED FREE ENERGY PREDICTED BY IDOCK:   -3.90 KCAL/MOL
REMARK 922        TOTAL FREE ENERGY PREDICTED BY IDOCK:   -5.56 KCAL/MOL
REMARK 923 INTER-LIGAND FREE ENERGY PREDICTED BY IDOCK:   -4.71 KCAL/MOL
REMARK 924 INTRA-LIGAND FREE ENERGY PREDICTED BY IDOCK:   -0.84 KCAL/MOL
REMARK 927      BINDING AFFINITY PREDICTED BY RF-SCORE:    0.00 PKD
ROOT
HETATM    1  C   UNL     1      -9.720   6.811  70.868  1.00  0.00    -0.186 C  
HETATM    2  C   UNL     1      -9.515   7.677  69.663  1.00  0.00    -0.156 A  
HETATM    3  C   UNL     1      -8.474   8.601  69.612  1.00  0.00    -0.129 A  
HETATM    4  C   UNL     1      -8.382   9.524  68.561  1.00  0.00    -0.118 A  
HETATM    5  C   UNL     1      -9.338   9.574  67.533  1.00  0.00    -0.126 A  
HETATM    6  C   UNL     1     -10.281   8.528  67.525  1.00  0.00    -0.307 A  
HETATM    7  C   UNL     1     -10.384   7.606  68.576  1.00  0.00    -0.225 A  
ENDROOT
BRANCH   5   8
HETATM    8  N   UNL     1      -9.429  10.618  66.568  1.00  0.00    -0.166 NA 
BRANCH   8   9
HETATM    9  C   UNL     1      -8.164  11.190  66.016  1.00  0.00    -0.094 C  
BRANCH   9  10
HETATM   10  C   UNL     1      -7.527  10.275  64.975  1.00  0.00    -0.120 C  
HETATM   11  C   UNL     1      -7.394   8.883  63.178  1.00  0.00    -0.098 C  
HETATM   12  N   UNL     1      -6.238  10.339  64.729  1.00  0.00    -0.132 NA 
HETATM   13  C   UNL     1      -6.009   9.298  63.687  1.00  0.00    -0.088 C  
HETATM   14  N   UNL     1      -8.236   9.341  64.257  1.00  0.00    -0.143 NA 
ENDBRANCH   9  10
ENDBRANCH   8   9
BRANCH   8  15
HETATM   15  C   UNL     1     -10.506  11.577  66.494  1.00  0.00    -0.244 A  
HETATM   16  C   UNL     1     -10.856  12.398  67.584  1.00  0.00    -0.258 A  
HETATM   17  C   UNL     1     -11.230  11.767  65.298  1.00  0.00    -0.315 A  
HETATM   18  C   UNL     1     -11.858  13.366  67.465  1.00  0.00    -0.366 A  
HETATM   19  C   UNL     1     -12.206  12.766  65.177  1.00  0.00    -0.530 A  
HETATM   20  O   UNL     1     -12.228  14.149  68.522  1.00  0.00    -0.526 OA 
HETATM   21  C   UNL     1     -12.515  13.573  66.262  1.00  0.00    -0.384 A  
HETATM   22  H   UNL     1     -12.909  14.807  68.441  1.00  0.00     0.000 HD 
ENDBRANCH   8  15
ENDBRANCH   5   8
TORSDOF 4
ENDMDL
MODEL      188
REMARK 921   NORMALIZED FREE ENERGY PREDICTED BY IDOCK:   -3.89 KCAL/MOL
REMARK 922        TOTAL FREE ENERGY PREDICTED BY IDOCK:   -5.55 KCAL/MOL
REMARK 923 INTER-LIGAND FREE ENERGY PREDICTED BY IDOCK:   -4.85 KCAL/MOL
REMARK 924 INTRA-LIGAND FREE ENERGY PREDICTED BY IDOCK:   -0.70 KCAL/MOL
REMARK 927      BINDING AFFINITY PREDICTED BY RF-SCORE:    0.00 PKD
ROOT
HETATM    1  C   UNL     1     -10.638  12.178  63.479  1.00  0.00    -0.501 C  
HETATM    2  C   UNL     1     -10.644  11.402  64.760  1.00  0.00    -0.377 A  
HETATM    3  C   UNL     1     -11.234  11.920  65.911  1.00  0.00    -0.373 A  
HETATM    4  C   UNL     1     -11.094  11.271  67.146  1.00  0.00    -0.364 A  
HETATM    5  C   UNL     1     -10.342  10.092  67.282  1.00  0.00    -0.237 A  
HETATM    6  C   UNL     1      -9.898   9.509  66.080  1.00  0.00    -0.343 A  
HETATM    7  C   UNL     1     -10.026  10.155  64.843  1.00  0.00    -0.358 A  
ENDROOT
BRANCH   5   8
HETATM    8  N   UNL     1      -9.977   9.511  68.530  1.00  0.00    -0.162 NA 
BRANCH   8   9
HETATM    9  C   UNL     1     -10.577  10.069  69.779  1.00  0.00    -0.267 C  
BRANCH   9  10
HETATM   10  C   UNL     1     -10.880   8.982  70.806  1.00  0.00    -0.251 C  
HETATM   11  C   UNL     1     -11.103   8.003  72.850  1.00  0.00    -0.331 C  
HETATM   12  N   UNL     1     -11.638   7.957  70.489  1.00  0.00    -0.204 NA 
HETATM   13  C   UNL     1     -11.679   7.131  71.729  1.00  0.00    -0.290 C  
HETATM   14  N   UNL     1     -10.383   8.996  72.089  1.00  0.00    -0.249 NA 
ENDBRANCH   9  10
ENDBRANCH   8   9
BRANCH   8  15
HETATM   15  C   UNL     1      -8.707   8.880  68.803  1.00  0.00    -0.137 A  
HETATM   16  C   UNL     1      -7.561   9.622  69.157  1.00  0.00    -0.082 A  
HETATM   17  C   UNL     1      -8.569   7.477  68.775  1.00  0.00    -0.129 A  
HETATM   18  C   UNL     1      -6.361   8.984  69.483  1.00  0.00    -0.043 A  
HETATM   19  C   UNL     1      -7.373   6.845  69.141  1.00  0.00    -0.093 A  
HETATM   20  O   UNL     1      -5.236   9.691  69.798  1.00  0.00    -0.033 OA 
HETATM   21  C   UNL     1      -6.268   7.601  69.503  1.00  0.00    -0.031 A  
HETATM   22  H   UNL     1      -4.420   9.257  70.020  1.00  0.00     0.000 HD 
ENDBRANCH   8  15
ENDBRANCH   5   8
TORSDOF 4
ENDMDL
MODEL      189
REMARK 921   NORMALIZED FREE ENERGY PREDICTED BY IDOCK:   -3.87 KCAL/MOL
REMARK 922        TOTAL FREE ENERGY PREDICTED BY IDOCK:   -5.53 KCAL/MOL
REMARK 923 INTER-LIGAND FREE ENERGY PREDICTED BY IDOCK:   -4.63 KCAL/MOL
REMARK 924 INTRA-LIGAND FREE ENERGY PREDICTED BY IDOCK:   -0.90 KCAL/MOL
REMARK 927      BINDING AFFINITY PREDICTED BY RF-SCORE:    0.00 PKD
ROOT
HETATM    1  C   UNL     1      -7.062  11.597  68.594  1.00  0.00    -0.099 C  
HETATM    2  C   UNL     1      -7.894  10.588  69.324  1.00  0.00    -0.144 A  
HETATM    3  C   UNL     1      -7.335   9.769  70.302  1.00  0.00    -0.165 A  
HETATM    4  C   UNL     1      -8.070   8.716  70.865  1.00  0.00    -0.155 A  
HETATM    5  C   UNL     1      -9.383   8.427  70.456  1.00  0.00    -0.162 A  
HETATM    6  C   UNL     1      -9.973   9.368  69.591  1.00  0.00    -0.209 A  
HETATM    7  C   UNL     1      -9.244  10.418  69.018  1.00  0.00    -0.194 A  
ENDROOT
BRANCH   5   8
HETATM    8  N   UNL     1     -10.098   7.251  70.820  1.00  0.00    -0.190 NA 
BRANCH   8   9
HETATM    9  C   UNL     1     -10.729   7.189  72.172  1.00  0.00    -0.215 C  
BRANCH   9  10
HETATM   10  C   UNL     1     -12.149   7.746  72.168  1.00  0.00    -0.304 C  
HETATM   11  C   UNL     1     -13.821   9.284  72.341  1.00  0.00    -0.416 C  
HETATM   12  N   UNL     1     -13.117   7.105  71.555  1.00  0.00    -0.389 NA 
HETATM   13  C   UNL     1     -14.325   7.946  71.790  1.00  0.00    -0.475 C  
HETATM   14  N   UNL     1     -12.502   8.917  72.799  1.00  0.00    -0.212 NA 
ENDBRANCH   9  10
ENDBRANCH   8   9
BRANCH   8  15
HETATM   15  C   UNL     1      -9.806   5.925  70.325  1.00  0.00    -0.185 A  
HETATM   16  C   UNL     1      -9.974   4.773  71.120  1.00  0.00    -0.273 A  
HETATM   17  C   UNL     1      -9.382   5.721  68.995  1.00  0.00    -0.144 A  
HETATM   18  C   UNL     1      -9.750   3.497  70.596  1.00  0.00    -0.125 A  
HETATM   19  C   UNL     1      -9.197   4.437  68.468  1.00  0.00    -0.186 A  
HETATM   20  O   UNL     1      -9.880   2.374  71.363  1.00  0.00    -0.154 OA 
HETATM   21  C   UNL     1      -9.389   3.320  69.269  1.00  0.00    -0.233 A  
HETATM   22  H   UNL     1      -9.728   1.506  71.007  1.00  0.00     0.000 HD 
ENDBRANCH   8  15
ENDBRANCH   5   8
TORSDOF 4
ENDMDL
MODEL      190
REMARK 921   NORMALIZED FREE ENERGY PREDICTED BY IDOCK:   -3.86 KCAL/MOL
REMARK 922        TOTAL FREE ENERGY PREDICTED BY IDOCK:   -5.52 KCAL/MOL
REMARK 923 INTER-LIGAND FREE ENERGY PREDICTED BY IDOCK:   -4.66 KCAL/MOL
REMARK 924 INTRA-LIGAND FREE ENERGY PREDICTED BY IDOCK:   -0.86 KCAL/MOL
REMARK 927      BINDING AFFINITY PREDICTED BY RF-SCORE:    0.00 PKD
ROOT
HETATM    1  C   UNL     1     -10.059  16.372  67.912  1.00  0.00    -0.250 C  
HETATM    2  C   UNL     1     -10.011  14.885  68.083  1.00  0.00    -0.222 A  
HETATM    3  C   UNL     1      -8.849  14.168  67.810  1.00  0.00    -0.185 A  
HETATM    4  C   UNL     1      -8.851  12.766  67.809  1.00  0.00    -0.187 A  
HETATM    5  C   UNL     1     -10.020  12.027  68.057  1.00  0.00    -0.197 A  
HETATM    6  C   UNL     1     -11.134  12.774  68.488  1.00  0.00    -0.300 A  
HETATM    7  C   UNL     1     -11.142  14.175  68.485  1.00  0.00    -0.276 A  
ENDROOT
BRANCH   5   8
HETATM    8  N   UNL     1     -10.143  10.623  67.854  1.00  0.00    -0.164 NA 
BRANCH   8   9
HETATM    9  C   UNL     1     -10.942  10.138  66.689  1.00  0.00     0.077 C  
BRANCH   9  10
HETATM   10  C   UNL     1     -10.336  10.572  65.357  1.00  0.00    -0.222 C  
HETATM   11  C   UNL     1     -10.003  11.841  63.496  1.00  0.00    -0.408 C  
HETATM   12  N   UNL     1      -9.157  10.129  64.984  1.00  0.00    -0.186 NA 
HETATM   13  C   UNL     1      -8.933  10.756  63.651  1.00  0.00    -0.171 C  
HETATM   14  N   UNL     1     -10.972  11.419  64.480  1.00  0.00    -0.310 NA 
ENDBRANCH   9  10
ENDBRANCH   8   9
BRANCH   8  15
HETATM   15  C   UNL     1     -10.111   9.634  68.907  1.00  0.00    -0.187 A  
HETATM   16  C   UNL     1     -10.575   8.317  68.713  1.00  0.00    -0.152 A  
HETATM   17  C   UNL     1      -9.564   9.934  70.172  1.00  0.00    -0.237 A  
HETATM   18  C   UNL     1     -10.470   7.360  69.726  1.00  0.00    -0.229 A  
HETATM   19  C   UNL     1      -9.428   8.958  71.168  1.00  0.00    -0.335 A  
HETATM   20  O   UNL     1     -10.941   6.088  69.562  1.00  0.00    -0.336 OA 
HETATM   21  C   UNL     1      -9.876   7.664  70.941  1.00  0.00    -0.179 A  
HETATM   22  H   UNL     1     -10.870   5.438  70.251  1.00  0.00     0.000 HD 
ENDBRANCH   8  15
ENDBRANCH   5   8
TORSDOF 4
ENDMDL
MODEL      191
REMARK 921   NORMALIZED FREE ENERGY PREDICTED BY IDOCK:   -3.84 KCAL/MOL
REMARK 922        TOTAL FREE ENERGY PREDICTED BY IDOCK:   -5.49 KCAL/MOL
REMARK 923 INTER-LIGAND FREE ENERGY PREDICTED BY IDOCK:   -4.84 KCAL/MOL
REMARK 924 INTRA-LIGAND FREE ENERGY PREDICTED BY IDOCK:   -0.66 KCAL/MOL
REMARK 927      BINDING AFFINITY PREDICTED BY RF-SCORE:    0.00 PKD
ROOT
HETATM    1  C   UNL     1      -6.138  14.539  69.027  1.00  0.00    -0.090 C  
HETATM    2  C   UNL     1      -7.117  13.446  68.725  1.00  0.00    -0.101 A  
HETATM    3  C   UNL     1      -6.747  12.106  68.817  1.00  0.00    -0.088 A  
HETATM    4  C   UNL     1      -7.607  11.090  68.376  1.00  0.00    -0.108 A  
HETATM    5  C   UNL     1      -8.859  11.375  67.806  1.00  0.00    -0.143 A  
HETATM    6  C   UNL     1      -9.270  12.720  67.877  1.00  0.00    -0.205 A  
HETATM    7  C   UNL     1      -8.414  13.742  68.309  1.00  0.00    -0.173 A  
ENDROOT
BRANCH   5   8
HETATM    8  N   UNL     1      -9.676  10.417  67.141  1.00  0.00    -0.168 NA 
BRANCH   8   9
HETATM    9  C   UNL     1     -10.571  10.885  66.040  1.00  0.00    -0.189 C  
BRANCH   9  10
HETATM   10  C   UNL     1      -9.918  10.738  64.669  1.00  0.00    -0.324 C  
HETATM   11  C   UNL     1      -8.938   9.707  62.890  1.00  0.00    -0.245 C  
HETATM   12  N   UNL     1     -10.083  11.660  63.749  1.00  0.00    -0.343 NA 
HETATM   13  C   UNL     1      -9.292  11.167  62.586  1.00  0.00    -0.304 C  
HETATM   14  N   UNL     1      -9.128   9.667  64.320  1.00  0.00    -0.239 NA 
ENDBRANCH   9  10
ENDBRANCH   8   9
BRANCH   8  15
HETATM   15  C   UNL     1     -10.190   9.212  67.749  1.00  0.00    -0.224 A  
HETATM   16  C   UNL     1     -10.481   8.057  66.996  1.00  0.00    -0.410 A  
HETATM   17  C   UNL     1     -10.380   9.123  69.144  1.00  0.00    -0.223 A  
HETATM   18  C   UNL     1     -10.913   6.881  67.617  1.00  0.00    -0.233 A  
HETATM   19  C   UNL     1     -10.776   7.930  69.761  1.00  0.00    -0.233 A  
HETATM   20  O   UNL     1     -11.226   5.763  66.896  1.00  0.00    -0.510 OA 
HETATM   21  C   UNL     1     -11.036   6.803  68.995  1.00  0.00    -0.281 A  
HETATM   22  H   UNL     1     -11.520   4.965  67.319  1.00  0.00     0.000 HD 
ENDBRANCH   8  15
ENDBRANCH   5   8
TORSDOF 4
ENDMDL
MODEL      192
REMARK 921   NORMALIZED FREE ENERGY PREDICTED BY IDOCK:   -3.84 KCAL/MOL
REMARK 922        TOTAL FREE ENERGY PREDICTED BY IDOCK:   -5.49 KCAL/MOL
REMARK 923 INTER-LIGAND FREE ENERGY PREDICTED BY IDOCK:   -4.65 KCAL/MOL
REMARK 924 INTRA-LIGAND FREE ENERGY PREDICTED BY IDOCK:   -0.83 KCAL/MOL
REMARK 927      BINDING AFFINITY PREDICTED BY RF-SCORE:    0.00 PKD
ROOT
HETATM    1  C   UNL     1      -7.275  10.038  66.181  1.00  0.00    -0.109 C  
HETATM    2  C   UNL     1      -7.952   9.174  67.201  1.00  0.00    -0.106 A  
HETATM    3  C   UNL     1      -9.327   8.958  67.159  1.00  0.00    -0.182 A  
HETATM    4  C   UNL     1      -9.983   8.291  68.203  1.00  0.00    -0.224 A  
HETATM    5  C   UNL     1      -9.293   7.833  69.339  1.00  0.00    -0.152 A  
HETATM    6  C   UNL     1      -7.889   7.921  69.276  1.00  0.00    -0.115 A  
HETATM    7  C   UNL     1      -7.227   8.593  68.240  1.00  0.00    -0.086 A  
ENDROOT
BRANCH   5   8
HETATM    8  N   UNL     1      -9.922   7.353  70.523  1.00  0.00    -0.184 NA 
BRANCH   8   9
HETATM    9  C   UNL     1     -10.090   8.291  71.672  1.00  0.00    -0.215 C  
BRANCH   9  10
HETATM   10  C   UNL     1     -11.417   9.042  71.611  1.00  0.00    -0.361 C  
HETATM   11  C   UNL     1     -13.536   9.647  72.187  1.00  0.00    -0.429 C  
HETATM   12  N   UNL     1     -11.504  10.196  70.990  1.00  0.00    -0.367 NA 
HETATM   13  C   UNL     1     -12.935  10.588  71.137  1.00  0.00    -0.411 C  
HETATM   14  N   UNL     1     -12.579   8.566  72.174  1.00  0.00    -0.358 NA 
ENDBRANCH   9  10
ENDBRANCH   8   9
BRANCH   8  15
HETATM   15  C   UNL     1      -9.881   5.982  70.976  1.00  0.00    -0.183 A  
HETATM   16  C   UNL     1     -10.108   5.630  72.322  1.00  0.00    -0.224 A  
HETATM   17  C   UNL     1      -9.660   4.922  70.072  1.00  0.00    -0.261 A  
HETATM   18  C   UNL     1     -10.131   4.291  72.723  1.00  0.00    -0.159 A  
HETATM   19  C   UNL     1      -9.724   3.582  70.476  1.00  0.00    -0.187 A  
HETATM   20  O   UNL     1     -10.320   3.937  74.029  1.00  0.00    -0.148 OA 
HETATM   21  C   UNL     1      -9.968   3.266  71.805  1.00  0.00    -0.192 A  
HETATM   22  H   UNL     1     -10.335   3.027  74.301  1.00  0.00     0.000 HD 
ENDBRANCH   8  15
ENDBRANCH   5   8
TORSDOF 4
ENDMDL
MODEL      193
REMARK 921   NORMALIZED FREE ENERGY PREDICTED BY IDOCK:   -3.84 KCAL/MOL
REMARK 922        TOTAL FREE ENERGY PREDICTED BY IDOCK:   -5.49 KCAL/MOL
REMARK 923 INTER-LIGAND FREE ENERGY PREDICTED BY IDOCK:   -5.17 KCAL/MOL
REMARK 924 INTRA-LIGAND FREE ENERGY PREDICTED BY IDOCK:   -0.31 KCAL/MOL
REMARK 927      BINDING AFFINITY PREDICTED BY RF-SCORE:    0.00 PKD
ROOT
HETATM    1  C   UNL     1     -13.883   8.987  72.433  1.00  0.00    -0.540 C  
HETATM    2  C   UNL     1     -12.647   8.906  71.589  1.00  0.00    -0.403 A  
HETATM    3  C   UNL     1     -11.934  10.052  71.248  1.00  0.00    -0.483 A  
HETATM    4  C   UNL     1     -10.879   9.996  70.326  1.00  0.00    -0.370 A  
HETATM    5  C   UNL     1     -10.512   8.797  69.693  1.00  0.00    -0.220 A  
HETATM    6  C   UNL     1     -11.139   7.633  70.178  1.00  0.00    -0.229 A  
HETATM    7  C   UNL     1     -12.199   7.682  71.094  1.00  0.00    -0.310 A  
ENDROOT
BRANCH   5   8
HETATM    8  N   UNL     1      -9.610   8.711  68.594  1.00  0.00    -0.153 NA 
BRANCH   8   9
HETATM    9  C   UNL     1      -8.200   8.297  68.860  1.00  0.00    -0.116 C  
BRANCH   9  10
HETATM   10  C   UNL     1      -7.308   9.486  69.206  1.00  0.00    -0.072 C  
HETATM   11  C   UNL     1      -6.041  10.881  70.485  1.00  0.00    -0.102 C  
HETATM   12  N   UNL     1      -6.635  10.112  68.268  1.00  0.00    -0.054 NA 
HETATM   13  C   UNL     1      -5.916  11.198  68.991  1.00  0.00    -0.042 C  
HETATM   14  N   UNL     1      -7.164   9.974  70.484  1.00  0.00    -0.298 NA 
ENDBRANCH   9  10
ENDBRANCH   8   9
BRANCH   8  15
HETATM   15  C   UNL     1      -9.697   9.512  67.395  1.00  0.00    -0.157 A  
HETATM   16  C   UNL     1     -10.114  10.859  67.421  1.00  0.00    -0.223 A  
HETATM   17  C   UNL     1      -9.317   8.990  66.141  1.00  0.00    -0.294 A  
HETATM   18  C   UNL     1     -10.124  11.633  66.257  1.00  0.00    -0.221 A  
HETATM   19  C   UNL     1      -9.294   9.784  64.987  1.00  0.00    -0.325 A  
HETATM   20  O   UNL     1     -10.554  12.929  66.262  1.00  0.00    -0.261 OA 
HETATM   21  C   UNL     1      -9.692  11.112  65.047  1.00  0.00    -0.298 A  
HETATM   22  H   UNL     1     -10.561  13.455  65.470  1.00  0.00     0.000 HD 
ENDBRANCH   8  15
ENDBRANCH   5   8
TORSDOF 4
ENDMDL
MODEL      194
REMARK 921   NORMALIZED FREE ENERGY PREDICTED BY IDOCK:   -3.84 KCAL/MOL
REMARK 922        TOTAL FREE ENERGY PREDICTED BY IDOCK:   -5.48 KCAL/MOL
REMARK 923 INTER-LIGAND FREE ENERGY PREDICTED BY IDOCK:   -4.66 KCAL/MOL
REMARK 924 INTRA-LIGAND FREE ENERGY PREDICTED BY IDOCK:   -0.82 KCAL/MOL
REMARK 927      BINDING AFFINITY PREDICTED BY RF-SCORE:    0.00 PKD
ROOT
HETATM    1  C   UNL     1      -7.420  11.084  67.045  1.00  0.00    -0.127 C  
HETATM    2  C   UNL     1      -8.107   9.918  67.687  1.00  0.00    -0.110 A  
HETATM    3  C   UNL     1      -9.485   9.749  67.581  1.00  0.00    -0.164 A  
HETATM    4  C   UNL     1     -10.148   8.756  68.317  1.00  0.00    -0.220 A  
HETATM    5  C   UNL     1      -9.462   7.910  69.204  1.00  0.00    -0.155 A  
HETATM    6  C   UNL     1      -8.057   7.996  69.166  1.00  0.00    -0.119 A  
HETATM    7  C   UNL     1      -7.388   8.990  68.439  1.00  0.00    -0.078 A  
ENDROOT
BRANCH   5   8
HETATM    8  N   UNL     1     -10.094   7.041  70.138  1.00  0.00    -0.186 NA 
BRANCH   8   9
HETATM    9  C   UNL     1     -10.420   7.569  71.496  1.00  0.00    -0.204 C  
BRANCH   9  10
HETATM   10  C   UNL     1     -11.875   8.017  71.604  1.00  0.00    -0.289 C  
HETATM   11  C   UNL     1     -13.654   9.438  71.656  1.00  0.00    -0.365 C  
HETATM   12  N   UNL     1     -12.853   7.169  71.383  1.00  0.00    -0.392 NA 
HETATM   13  C   UNL     1     -14.091   7.970  71.599  1.00  0.00    -0.431 C  
HETATM   14  N   UNL     1     -12.246   9.298  71.942  1.00  0.00    -0.374 NA 
ENDBRANCH   9  10
ENDBRANCH   8   9
BRANCH   8  15
HETATM   15  C   UNL     1      -9.931   5.606  70.166  1.00  0.00    -0.207 A  
HETATM   16  C   UNL     1      -9.872   4.834  68.988  1.00  0.00    -0.239 A  
HETATM   17  C   UNL     1      -9.774   4.914  71.385  1.00  0.00    -0.237 A  
HETATM   18  C   UNL     1      -9.645   3.455  69.040  1.00  0.00    -0.052 A  
HETATM   19  C   UNL     1      -9.508   3.539  71.426  1.00  0.00    -0.226 A  
HETATM   20  O   UNL     1      -9.614   2.691  67.908  1.00  0.00    -0.304 OA 
HETATM   21  C   UNL     1      -9.436   2.809  70.248  1.00  0.00    -0.183 A  
HETATM   22  H   UNL     1      -9.460   1.754  67.943  1.00  0.00     0.000 HD 
ENDBRANCH   8  15
ENDBRANCH   5   8
TORSDOF 4
ENDMDL
MODEL      195
REMARK 921   NORMALIZED FREE ENERGY PREDICTED BY IDOCK:   -3.83 KCAL/MOL
REMARK 922        TOTAL FREE ENERGY PREDICTED BY IDOCK:   -5.48 KCAL/MOL
REMARK 923 INTER-LIGAND FREE ENERGY PREDICTED BY IDOCK:   -4.57 KCAL/MOL
REMARK 924 INTRA-LIGAND FREE ENERGY PREDICTED BY IDOCK:   -0.91 KCAL/MOL
REMARK 927      BINDING AFFINITY PREDICTED BY RF-SCORE:    0.00 PKD
ROOT
HETATM    1  C   UNL     1     -12.027  14.164  67.229  1.00  0.00    -0.449 C  
HETATM    2  C   UNL     1     -11.341  13.060  67.975  1.00  0.00    -0.327 A  
HETATM    3  C   UNL     1     -10.046  12.669  67.647  1.00  0.00    -0.218 A  
HETATM    4  C   UNL     1      -9.468  11.532  68.229  1.00  0.00    -0.189 A  
HETATM    5  C   UNL     1     -10.171  10.730  69.144  1.00  0.00    -0.211 A  
HETATM    6  C   UNL     1     -11.410  11.241  69.576  1.00  0.00    -0.362 A  
HETATM    7  C   UNL     1     -11.998  12.372  68.994  1.00  0.00    -0.291 A  
ENDROOT
BRANCH   5   8
HETATM    8  N   UNL     1      -9.733   9.453  69.597  1.00  0.00    -0.179 NA 
BRANCH   8   9
HETATM    9  C   UNL     1      -9.678   9.198  71.068  1.00  0.00    -0.289 C  
BRANCH   9  10
HETATM   10  C   UNL     1     -10.552   8.017  71.478  1.00  0.00    -0.226 C  
HETATM   11  C   UNL     1     -12.407   6.702  71.615  1.00  0.00    -0.332 C  
HETATM   12  N   UNL     1     -10.008   6.892  71.882  1.00  0.00    -0.172 NA 
HETATM   13  C   UNL     1     -11.169   6.013  72.199  1.00  0.00    -0.291 C  
HETATM   14  N   UNL     1     -11.927   8.055  71.464  1.00  0.00    -0.288 NA 
ENDBRANCH   9  10
ENDBRANCH   8   9
BRANCH   8  15
HETATM   15  C   UNL     1      -8.799   8.607  68.890  1.00  0.00    -0.138 A  
HETATM   16  C   UNL     1      -9.184   7.832  67.777  1.00  0.00    -0.143 A  
HETATM   17  C   UNL     1      -7.439   8.555  69.259  1.00  0.00    -0.082 A  
HETATM   18  C   UNL     1      -8.247   7.074  67.068  1.00  0.00    -0.117 A  
HETATM   19  C   UNL     1      -6.501   7.823  68.520  1.00  0.00    -0.052 A  
HETATM   20  O   UNL     1      -8.611   6.297  66.006  1.00  0.00    -0.136 OA 
HETATM   21  C   UNL     1      -6.905   7.086  67.416  1.00  0.00    -0.073 A  
HETATM   22  H   UNL     1      -7.974   5.781  65.525  1.00  0.00     0.000 HD 
ENDBRANCH   8  15
ENDBRANCH   5   8
TORSDOF 4
ENDMDL
MODEL      196
REMARK 921   NORMALIZED FREE ENERGY PREDICTED BY IDOCK:   -3.82 KCAL/MOL
REMARK 922        TOTAL FREE ENERGY PREDICTED BY IDOCK:   -5.46 KCAL/MOL
REMARK 923 INTER-LIGAND FREE ENERGY PREDICTED BY IDOCK:   -5.22 KCAL/MOL
REMARK 924 INTRA-LIGAND FREE ENERGY PREDICTED BY IDOCK:   -0.24 KCAL/MOL
REMARK 927      BINDING AFFINITY PREDICTED BY RF-SCORE:    0.00 PKD
ROOT
HETATM    1  C   UNL     1     -11.138   3.297  73.688  1.00  0.00    -0.316 C  
HETATM    2  C   UNL     1     -10.664   4.501  72.932  1.00  0.00    -0.281 A  
HETATM    3  C   UNL     1     -10.626   5.757  73.532  1.00  0.00    -0.295 A  
HETATM    4  C   UNL     1     -10.344   6.906  72.780  1.00  0.00    -0.238 A  
HETATM    5  C   UNL     1     -10.110   6.846  71.396  1.00  0.00    -0.185 A  
HETATM    6  C   UNL     1      -9.993   5.552  70.852  1.00  0.00    -0.260 A  
HETATM    7  C   UNL     1     -10.282   4.400  71.595  1.00  0.00    -0.186 A  
ENDROOT
BRANCH   5   8
HETATM    8  N   UNL     1     -10.039   7.983  70.542  1.00  0.00    -0.191 NA 
BRANCH   8   9
HETATM    9  C   UNL     1      -8.713   8.368  69.974  1.00  0.00    -0.133 C  
BRANCH   9  10
HETATM   10  C   UNL     1      -8.364   7.555  68.731  1.00  0.00    -0.129 C  
HETATM   11  C   UNL     1      -7.265   6.044  67.429  1.00  0.00    -0.076 C  
HETATM   12  N   UNL     1      -9.240   7.402  67.765  1.00  0.00    -0.131 NA 
HETATM   13  C   UNL     1      -8.528   6.579  66.747  1.00  0.00    -0.113 C  
HETATM   14  N   UNL     1      -7.139   6.957  68.540  1.00  0.00    -0.080 NA 
ENDBRANCH   9  10
ENDBRANCH   8   9
BRANCH   8  15
HETATM   15  C   UNL     1     -10.918   9.127  70.623  1.00  0.00    -0.263 A  
HETATM   16  C   UNL     1     -10.891  10.163  69.667  1.00  0.00    -0.299 A  
HETATM   17  C   UNL     1     -11.885   9.233  71.645  1.00  0.00    -0.453 A  
HETATM   18  C   UNL     1     -11.798  11.225  69.729  1.00  0.00    -0.364 A  
HETATM   19  C   UNL     1     -12.814  10.281  71.677  1.00  0.00    -0.568 A  
HETATM   20  O   UNL     1     -11.764  12.251  68.827  1.00  0.00    -0.302 OA 
HETATM   21  C   UNL     1     -12.775  11.276  70.711  1.00  0.00    -0.360 A  
HETATM   22  H   UNL     1     -12.380  12.972  68.870  1.00  0.00     0.000 HD 
ENDBRANCH   8  15
ENDBRANCH   5   8
TORSDOF 4
ENDMDL
MODEL      197
REMARK 921   NORMALIZED FREE ENERGY PREDICTED BY IDOCK:   -3.80 KCAL/MOL
REMARK 922        TOTAL FREE ENERGY PREDICTED BY IDOCK:   -5.43 KCAL/MOL
REMARK 923 INTER-LIGAND FREE ENERGY PREDICTED BY IDOCK:   -4.66 KCAL/MOL
REMARK 924 INTRA-LIGAND FREE ENERGY PREDICTED BY IDOCK:   -0.77 KCAL/MOL
REMARK 927      BINDING AFFINITY PREDICTED BY RF-SCORE:    0.00 PKD
ROOT
HETATM    1  C   UNL     1      -5.718  19.449  64.268  1.00  0.00    -0.319 C  
HETATM    2  C   UNL     1      -6.260  18.568  65.352  1.00  0.00    -0.307 A  
HETATM    3  C   UNL     1      -5.415  17.759  66.108  1.00  0.00    -0.241 A  
HETATM    4  C   UNL     1      -5.936  16.816  67.005  1.00  0.00    -0.213 A  
HETATM    5  C   UNL     1      -7.320  16.630  67.165  1.00  0.00    -0.185 A  
HETATM    6  C   UNL     1      -8.141  17.570  66.513  1.00  0.00    -0.305 A  
HETATM    7  C   UNL     1      -7.629  18.510  65.609  1.00  0.00     0.071 A  
ENDROOT
BRANCH   5   8
HETATM    8  N   UNL     1      -7.908  15.550  67.883  1.00  0.00    -0.126 NA 
BRANCH   8   9
HETATM    9  C   UNL     1      -7.284  14.198  67.776  1.00  0.00    -0.176 C  
BRANCH   9  10
HETATM   10  C   UNL     1      -6.562  13.796  69.059  1.00  0.00    -0.108 C  
HETATM   11  C   UNL     1      -5.456  12.463  70.538  1.00  0.00    -0.159 C  
HETATM   12  N   UNL     1      -6.034  14.709  69.842  1.00  0.00    -0.121 NA 
HETATM   13  C   UNL     1      -5.449  13.933  70.972  1.00  0.00    -0.185 C  
HETATM   14  N   UNL     1      -6.433  12.491  69.475  1.00  0.00    -0.109 NA 
ENDBRANCH   9  10
ENDBRANCH   8   9
BRANCH   8  15
HETATM   15  C   UNL     1      -9.313  15.448  68.207  1.00  0.00    -0.193 A  
HETATM   16  C   UNL     1     -10.227  14.771  67.374  1.00  0.00    -0.236 A  
HETATM   17  C   UNL     1      -9.825  15.984  69.406  1.00  0.00    -0.254 A  
HETATM   18  C   UNL     1     -11.568  14.627  67.743  1.00  0.00    -0.359 A  
HETATM   19  C   UNL     1     -11.161  15.801  69.786  1.00  0.00    -0.322 A  
HETATM   20  O   UNL     1     -12.471  13.999  66.932  1.00  0.00    -0.529 OA 
HETATM   21  C   UNL     1     -12.033  15.113  68.955  1.00  0.00    -0.284 A  
HETATM   22  H   UNL     1     -13.382  13.902  67.184  1.00  0.00     0.000 HD 
ENDBRANCH   8  15
ENDBRANCH   5   8
TORSDOF 4
ENDMDL
MODEL      198
REMARK 921   NORMALIZED FREE ENERGY PREDICTED BY IDOCK:   -3.78 KCAL/MOL
REMARK 922        TOTAL FREE ENERGY PREDICTED BY IDOCK:   -5.41 KCAL/MOL
REMARK 923 INTER-LIGAND FREE ENERGY PREDICTED BY IDOCK:   -5.13 KCAL/MOL
REMARK 924 INTRA-LIGAND FREE ENERGY PREDICTED BY IDOCK:   -0.28 KCAL/MOL
REMARK 927      BINDING AFFINITY PREDICTED BY RF-SCORE:    0.00 PKD
ROOT
HETATM    1  C   UNL     1      -5.957  15.351  68.514  1.00  0.00    -0.095 C  
HETATM    2  C   UNL     1      -6.686  14.085  68.183  1.00  0.00    -0.125 A  
HETATM    3  C   UNL     1      -6.052  13.047  67.506  1.00  0.00    -0.129 A  
HETATM    4  C   UNL     1      -6.776  11.936  67.050  1.00  0.00    -0.119 A  
HETATM    5  C   UNL     1      -8.165  11.830  67.235  1.00  0.00    -0.163 A  
HETATM    6  C   UNL     1      -8.747  12.811  68.062  1.00  0.00    -0.194 A  
HETATM    7  C   UNL     1      -8.032  13.928  68.514  1.00  0.00    -0.137 A  
ENDROOT
BRANCH   5   8
HETATM    8  N   UNL     1      -8.987  10.850  66.610  1.00  0.00    -0.160 NA 
BRANCH   8   9
HETATM    9  C   UNL     1      -9.719  11.222  65.363  1.00  0.00    -0.231 C  
BRANCH   9  10
HETATM   10  C   UNL     1     -10.714  12.355  65.598  1.00  0.00    -0.264 C  
HETATM   11  C   UNL     1     -11.775  14.343  65.271  1.00  0.00    -0.364 C  
HETATM   12  N   UNL     1     -11.813  12.146  66.287  1.00  0.00    -0.594 NA 
HETATM   13  C   UNL     1     -12.494  13.471  66.306  1.00  0.00    -0.326 C  
HETATM   14  N   UNL     1     -10.526  13.634  65.129  1.00  0.00    -0.353 NA 
ENDBRANCH   9  10
ENDBRANCH   8   9
BRANCH   8  15
HETATM   15  C   UNL     1      -9.662   9.779  67.307  1.00  0.00    -0.169 A  
HETATM   16  C   UNL     1     -10.161   8.645  66.634  1.00  0.00    -0.343 A  
HETATM   17  C   UNL     1      -9.810   9.801  68.709  1.00  0.00    -0.176 A  
HETATM   18  C   UNL     1     -10.750   7.591  67.339  1.00  0.00    -0.261 A  
HETATM   19  C   UNL     1     -10.367   8.723  69.410  1.00  0.00    -0.217 A  
HETATM   20  O   UNL     1     -11.264   6.499  66.698  1.00  0.00    -0.680 OA 
HETATM   21  C   UNL     1     -10.832   7.611  68.723  1.00  0.00    -0.025 A  
HETATM   22  H   UNL     1     -11.665   5.783  67.178  1.00  0.00     0.000 HD 
ENDBRANCH   8  15
ENDBRANCH   5   8
TORSDOF 4
ENDMDL
MODEL      199
REMARK 921   NORMALIZED FREE ENERGY PREDICTED BY IDOCK:   -3.75 KCAL/MOL
REMARK 922        TOTAL FREE ENERGY PREDICTED BY IDOCK:   -5.38 KCAL/MOL
REMARK 923 INTER-LIGAND FREE ENERGY PREDICTED BY IDOCK:   -4.81 KCAL/MOL
REMARK 924 INTRA-LIGAND FREE ENERGY PREDICTED BY IDOCK:   -0.57 KCAL/MOL
REMARK 927      BINDING AFFINITY PREDICTED BY RF-SCORE:    0.00 PKD
ROOT
HETATM    1  C   UNL     1      -9.464   3.870  65.547  1.00  0.00    -0.171 C  
HETATM    2  C   UNL     1      -9.521   5.233  66.166  1.00  0.00    -0.170 A  
HETATM    3  C   UNL     1      -8.378   6.022  66.271  1.00  0.00    -0.122 A  
HETATM    4  C   UNL     1      -8.397   7.222  66.996  1.00  0.00    -0.118 A  
HETATM    5  C   UNL     1      -9.551   7.668  67.662  1.00  0.00    -0.145 A  
HETATM    6  C   UNL     1     -10.726   6.937  67.402  1.00  0.00    -0.396 A  
HETATM    7  C   UNL     1     -10.715   5.733  66.685  1.00  0.00    -0.333 A  
ENDROOT
BRANCH   5   8
HETATM    8  N   UNL     1      -9.578   8.749  68.589  1.00  0.00    -0.152 NA 
BRANCH   8   9
HETATM    9  C   UNL     1      -9.222   8.475  70.013  1.00  0.00    -0.155 C  
BRANCH   9  10
HETATM   10  C   UNL     1      -9.915   7.226  70.549  1.00  0.00    -0.190 C  
HETATM   11  C   UNL     1     -10.129   5.143  71.445  1.00  0.00    -0.200 C  
HETATM   12  N   UNL     1     -11.163   7.276  70.953  1.00  0.00    -0.264 NA 
HETATM   13  C   UNL     1     -11.471   5.881  71.378  1.00  0.00    -0.121 C  
HETATM   14  N   UNL     1      -9.300   5.998  70.629  1.00  0.00    -0.159 NA 
ENDBRANCH   9  10
ENDBRANCH   8   9
BRANCH   8  15
HETATM   15  C   UNL     1     -10.444   9.900  68.484  1.00  0.00    -0.205 A  
HETATM   16  C   UNL     1     -10.896  10.604  69.619  1.00  0.00    -0.318 A  
HETATM   17  C   UNL     1     -10.840  10.403  67.227  1.00  0.00    -0.324 A  
HETATM   18  C   UNL     1     -11.678  11.756  69.488  1.00  0.00    -0.343 A  
HETATM   19  C   UNL     1     -11.591  11.579  67.105  1.00  0.00    -0.249 A  
HETATM   20  O   UNL     1     -12.147  12.431  70.579  1.00  0.00    -0.418 OA 
HETATM   21  C   UNL     1     -12.005  12.262  68.240  1.00  0.00    -0.259 A  
HETATM   22  H   UNL     1     -12.679  13.214  70.490  1.00  0.00     0.000 HD 
ENDBRANCH   8  15
ENDBRANCH   5   8
TORSDOF 4
ENDMDL
MODEL      200
REMARK 921   NORMALIZED FREE ENERGY PREDICTED BY IDOCK:   -3.73 KCAL/MOL
REMARK 922        TOTAL FREE ENERGY PREDICTED BY IDOCK:   -5.35 KCAL/MOL
REMARK 923 INTER-LIGAND FREE ENERGY PREDICTED BY IDOCK:   -4.54 KCAL/MOL
REMARK 924 INTRA-LIGAND FREE ENERGY PREDICTED BY IDOCK:   -0.80 KCAL/MOL
REMARK 927      BINDING AFFINITY PREDICTED BY RF-SCORE:    0.00 PKD
ROOT
HETATM    1  C   UNL     1      -9.181   2.019  70.870  1.00  0.00    -0.183 C  
HETATM    2  C   UNL     1      -9.475   3.479  70.706  1.00  0.00    -0.240 A  
HETATM    3  C   UNL     1      -9.846   4.002  69.470  1.00  0.00    -0.134 A  
HETATM    4  C   UNL     1      -9.958   5.386  69.278  1.00  0.00    -0.277 A  
HETATM    5  C   UNL     1      -9.682   6.301  70.308  1.00  0.00    -0.164 A  
HETATM    6  C   UNL     1      -9.471   5.740  71.583  1.00  0.00    -0.172 A  
HETATM    7  C   UNL     1      -9.350   4.358  71.780  1.00  0.00    -0.195 A  
ENDROOT
BRANCH   5   8
HETATM    8  N   UNL     1      -9.560   7.708  70.123  1.00  0.00    -0.168 NA 
BRANCH   8   9
HETATM    9  C   UNL     1     -10.726   8.458  69.568  1.00  0.00    -0.175 C  
BRANCH   9  10
HETATM   10  C   UNL     1     -11.642   8.990  70.666  1.00  0.00    -0.224 C  
HETATM   11  C   UNL     1     -12.905  10.487  71.829  1.00  0.00    -0.454 C  
HETATM   12  N   UNL     1     -12.369   8.168  71.387  1.00  0.00    -0.303 NA 
HETATM   13  C   UNL     1     -13.095   9.055  72.339  1.00  0.00    -0.423 C  
HETATM   14  N   UNL     1     -11.753  10.327  70.972  1.00  0.00    -0.369 NA 
ENDBRANCH   9  10
ENDBRANCH   8   9
BRANCH   8  15
HETATM   15  C   UNL     1      -8.321   8.395  69.841  1.00  0.00    -0.124 A  
HETATM   16  C   UNL     1      -7.968   9.599  70.485  1.00  0.00    -0.148 A  
HETATM   17  C   UNL     1      -7.381   7.861  68.936  1.00  0.00    -0.085 A  
HETATM   18  C   UNL     1      -6.733  10.208  70.246  1.00  0.00    -0.143 A  
HETATM   19  C   UNL     1      -6.130   8.458  68.732  1.00  0.00    -0.044 A  
HETATM   20  O   UNL     1      -6.390  11.389  70.840  1.00  0.00    -0.484 OA 
HETATM   21  C   UNL     1      -5.803   9.632  69.395  1.00  0.00    -0.034 A  
HETATM   22  H   UNL     1      -5.551  11.804  70.677  1.00  0.00     0.000 HD 
ENDBRANCH   8  15
ENDBRANCH   5   8
TORSDOF 4
ENDMDL
MODEL      201
REMARK 921   NORMALIZED FREE ENERGY PREDICTED BY IDOCK:   -3.71 KCAL/MOL
REMARK 922        TOTAL FREE ENERGY PREDICTED BY IDOCK:   -5.33 KCAL/MOL
REMARK 923 INTER-LIGAND FREE ENERGY PREDICTED BY IDOCK:   -5.94 KCAL/MOL
REMARK 924 INTRA-LIGAND FREE ENERGY PREDICTED BY IDOCK:    0.61 KCAL/MOL
REMARK 927      BINDING AFFINITY PREDICTED BY RF-SCORE:    0.00 PKD
ROOT
HETATM    1  C   UNL     1      -6.372  16.084  67.424  1.00  0.00    -0.206 C  
HETATM    2  C   UNL     1      -7.361  15.063  67.897  1.00  0.00    -0.156 A  
HETATM    3  C   UNL     1      -7.384  13.781  67.354  1.00  0.00    -0.125 A  
HETATM    4  C   UNL     1      -8.411  12.882  67.674  1.00  0.00    -0.183 A  
HETATM    5  C   UNL     1      -9.467  13.238  68.531  1.00  0.00    -0.113 A  
HETATM    6  C   UNL     1      -9.329  14.476  69.188  1.00  0.00     0.001 A  
HETATM    7  C   UNL     1      -8.310  15.383  68.868  1.00  0.00    -0.203 A  
ENDROOT
BRANCH   5   8
HETATM    8  N   UNL     1     -10.645  12.462  68.720  1.00  0.00    -0.214 NA 
BRANCH   8   9
HETATM    9  C   UNL     1     -11.225  11.747  67.543  1.00  0.00    -0.291 C  
BRANCH   9  10
HETATM   10  C   UNL     1     -11.660  12.711  66.443  1.00  0.00    -0.384 C  
HETATM   11  C   UNL     1     -12.867  13.514  64.687  1.00  0.00    -0.060 C  
HETATM   12  N   UNL     1     -11.337  13.982  66.503  1.00  0.00    -0.325 NA 
HETATM   13  C   UNL     1     -11.920  14.571  65.264  1.00  0.00    -0.353 C  
HETATM   14  N   UNL     1     -12.386  12.321  65.342  1.00  0.00    -0.563 NA 
ENDBRANCH   9  10
ENDBRANCH   8   9
BRANCH   8  15
HETATM   15  C   UNL     1     -11.661  12.737  69.709  1.00  0.00    -0.282 A  
HETATM   16  C   UNL     1     -12.159  11.739  70.572  1.00  0.00    -0.439 A  
HETATM   17  C   UNL     1     -12.169  14.041  69.889  1.00  0.00    -0.399 A  
HETATM   18  C   UNL     1     -13.092  12.046  71.567  1.00  0.00    -0.261 A  
HETATM   19  C   UNL     1     -13.075  14.346  70.913  1.00  0.00    -0.390 A  
HETATM   20  O   UNL     1     -13.604  11.083  72.390  1.00  0.00    -0.541 OA 
HETATM   21  C   UNL     1     -13.532  13.346  71.760  1.00  0.00    -0.452 A  
HETATM   22  H   UNL     1     -14.239  11.292  73.066  1.00  0.00     0.000 HD 
ENDBRANCH   8  15
ENDBRANCH   5   8
TORSDOF 4
ENDMDL
MODEL      202
REMARK 921   NORMALIZED FREE ENERGY PREDICTED BY IDOCK:   -3.63 KCAL/MOL
REMARK 922        TOTAL FREE ENERGY PREDICTED BY IDOCK:   -5.23 KCAL/MOL
REMARK 923 INTER-LIGAND FREE ENERGY PREDICTED BY IDOCK:   -4.86 KCAL/MOL
REMARK 924 INTRA-LIGAND FREE ENERGY PREDICTED BY IDOCK:   -0.37 KCAL/MOL
REMARK 927      BINDING AFFINITY PREDICTED BY RF-SCORE:    0.00 PKD
ROOT
HETATM    1  C   UNL     1     -11.565  12.386  63.663  1.00  0.00    -0.580 C  
HETATM    2  C   UNL     1     -11.027  11.566  64.796  1.00  0.00    -0.338 A  
HETATM    3  C   UNL     1     -11.435  11.799  66.107  1.00  0.00    -0.288 A  
HETATM    4  C   UNL     1     -10.810  11.149  67.181  1.00  0.00    -0.326 A  
HETATM    5  C   UNL     1      -9.739  10.260  66.988  1.00  0.00    -0.176 A  
HETATM    6  C   UNL     1      -9.460   9.923  65.649  1.00  0.00    -0.295 A  
HETATM    7  C   UNL     1     -10.074  10.573  64.570  1.00  0.00    -0.402 A  
ENDROOT
BRANCH   5   8
HETATM    8  N   UNL     1      -8.923   9.744  68.034  1.00  0.00    -0.119 NA 
BRANCH   8   9
HETATM    9  C   UNL     1      -7.589   9.172  67.683  1.00  0.00    -0.085 C  
BRANCH   9  10
HETATM   10  C   UNL     1      -7.599   7.646  67.691  1.00  0.00    -0.109 C  
HETATM   11  C   UNL     1      -7.882   5.526  66.907  1.00  0.00    -0.101 C  
HETATM   12  N   UNL     1      -6.888   6.978  68.570  1.00  0.00    -0.070 NA 
HETATM   13  C   UNL     1      -7.173   5.547  68.265  1.00  0.00    -0.071 C  
HETATM   14  N   UNL     1      -8.341   6.892  66.812  1.00  0.00    -0.113 NA 
ENDBRANCH   9  10
ENDBRANCH   8   9
BRANCH   8  15
HETATM   15  C   UNL     1      -9.426   9.168  69.260  1.00  0.00    -0.158 A  
HETATM   16  C   UNL     1      -8.713   9.248  70.474  1.00  0.00    -0.276 A  
HETATM   17  C   UNL     1     -10.687   8.538  69.306  1.00  0.00    -0.147 A  
HETATM   18  C   UNL     1      -9.252   8.743  71.661  1.00  0.00    -0.263 A  
HETATM   19  C   UNL     1     -11.235   8.069  70.507  1.00  0.00    -0.252 A  
HETATM   20  O   UNL     1      -8.560   8.788  72.838  1.00  0.00    -0.398 OA 
HETATM   21  C   UNL     1     -10.518   8.180  71.690  1.00  0.00    -0.288 A  
HETATM   22  H   UNL     1      -8.926   8.444  73.645  1.00  0.00     0.000 HD 
ENDBRANCH   8  15
ENDBRANCH   5   8
TORSDOF 4
ENDMDL
MODEL      203
REMARK 921   NORMALIZED FREE ENERGY PREDICTED BY IDOCK:   -3.62 KCAL/MOL
REMARK 922        TOTAL FREE ENERGY PREDICTED BY IDOCK:   -5.21 KCAL/MOL
REMARK 923 INTER-LIGAND FREE ENERGY PREDICTED BY IDOCK:   -5.28 KCAL/MOL
REMARK 924 INTRA-LIGAND FREE ENERGY PREDICTED BY IDOCK:    0.07 KCAL/MOL
REMARK 927      BINDING AFFINITY PREDICTED BY RF-SCORE:    0.00 PKD
ROOT
HETATM    1  C   UNL     1     -10.359  10.789  67.068  1.00  0.00    -0.275 C  
HETATM    2  C   UNL     1      -9.900  12.202  67.265  1.00  0.00    -0.202 A  
HETATM    3  C   UNL     1     -10.772  13.272  67.080  1.00  0.00    -0.263 A  
HETATM    4  C   UNL     1     -10.304  14.593  67.100  1.00  0.00    -0.265 A  
HETATM    5  C   UNL     1      -8.944  14.894  67.284  1.00  0.00    -0.199 A  
HETATM    6  C   UNL     1      -8.119  13.807  67.631  1.00  0.00    -0.181 A  
HETATM    7  C   UNL     1      -8.578  12.483  67.605  1.00  0.00    -0.178 A  
ENDROOT
BRANCH   5   8
HETATM    8  N   UNL     1      -8.373  16.185  67.095  1.00  0.00    -0.182 NA 
BRANCH   8   9
HETATM    9  C   UNL     1      -6.911  16.362  67.341  1.00  0.00    -0.169 C  
BRANCH   9  10
HETATM   10  C   UNL     1      -6.376  17.650  66.721  1.00  0.00    -0.184 C  
HETATM   11  C   UNL     1      -5.492  19.747  66.627  1.00  0.00    -0.165 C  
HETATM   12  N   UNL     1      -5.957  17.668  65.477  1.00  0.00    -0.033 NA 
HETATM   13  C   UNL     1      -5.539  19.080  65.248  1.00  0.00    -0.192 C  
HETATM   14  N   UNL     1      -6.312  18.844  67.401  1.00  0.00    -0.194 NA 
ENDBRANCH   9  10
ENDBRANCH   8   9
BRANCH   8  15
HETATM   15  C   UNL     1      -9.082  17.431  67.275  1.00  0.00    -0.237 A  
HETATM   16  C   UNL     1      -9.829  18.026  66.237  1.00  0.00    -0.310 A  
HETATM   17  C   UNL     1      -9.097  18.088  68.523  1.00  0.00    -0.293 A  
HETATM   18  C   UNL     1     -10.562  19.196  66.455  1.00  0.00    -0.435 A  
HETATM   19  C   UNL     1      -9.866  19.239  68.743  1.00  0.00    -0.514 A  
HETATM   20  O   UNL     1     -11.266  19.799  65.452  1.00  0.00    -0.312 OA 
HETATM   21  C   UNL     1     -10.606  19.790  67.707  1.00  0.00    -0.501 A  
HETATM   22  H   UNL     1     -11.763  20.594  65.600  1.00  0.00     0.000 HD 
ENDBRANCH   8  15
ENDBRANCH   5   8
TORSDOF 4
ENDMDL
MODEL      204
REMARK 921   NORMALIZED FREE ENERGY PREDICTED BY IDOCK:   -3.59 KCAL/MOL
REMARK 922        TOTAL FREE ENERGY PREDICTED BY IDOCK:   -5.17 KCAL/MOL
REMARK 923 INTER-LIGAND FREE ENERGY PREDICTED BY IDOCK:   -4.34 KCAL/MOL
REMARK 924 INTRA-LIGAND FREE ENERGY PREDICTED BY IDOCK:   -0.83 KCAL/MOL
REMARK 927      BINDING AFFINITY PREDICTED BY RF-SCORE:    0.00 PKD
ROOT
HETATM    1  C   UNL     1     -13.995   8.849  72.569  1.00  0.00    -0.466 C  
HETATM    2  C   UNL     1     -12.909   8.762  71.540  1.00  0.00    -0.366 A  
HETATM    3  C   UNL     1     -12.396   7.530  71.141  1.00  0.00    -0.321 A  
HETATM    4  C   UNL     1     -11.271   7.455  70.308  1.00  0.00    -0.268 A  
HETATM    5  C   UNL     1     -10.603   8.608  69.859  1.00  0.00    -0.224 A  
HETATM    6  C   UNL     1     -11.240   9.831  70.143  1.00  0.00    -0.324 A  
HETATM    7  C   UNL     1     -12.360   9.915  70.982  1.00  0.00    -0.451 A  
ENDROOT
BRANCH   5   8
HETATM    8  N   UNL     1      -9.340   8.601  69.203  1.00  0.00    -0.152 NA 
BRANCH   8   9
HETATM    9  C   UNL     1      -8.301   7.632  69.665  1.00  0.00    -0.130 C  
BRANCH   9  10
HETATM   10  C   UNL     1      -7.683   6.857  68.506  1.00  0.00    -0.113 C  
HETATM   11  C   UNL     1      -7.456   6.022  66.399  1.00  0.00    -0.086 C  
HETATM   12  N   UNL     1      -6.411   6.533  68.522  1.00  0.00    -0.036 NA 
HETATM   13  C   UNL     1      -6.204   5.785  67.249  1.00  0.00    -0.034 C  
HETATM   14  N   UNL     1      -8.400   6.447  67.405  1.00  0.00    -0.113 NA 
ENDBRANCH   9  10
ENDBRANCH   8   9
BRANCH   8  15
HETATM   15  C   UNL     1      -8.732   9.753  68.579  1.00  0.00    -0.120 A  
HETATM   16  C   UNL     1      -9.097  10.187  67.288  1.00  0.00    -0.151 A  
HETATM   17  C   UNL     1      -7.771  10.529  69.260  1.00  0.00    -0.144 A  
HETATM   18  C   UNL     1      -8.543  11.345  66.734  1.00  0.00    -0.166 A  
HETATM   19  C   UNL     1      -7.250  11.708  68.713  1.00  0.00    -0.116 A  
HETATM   20  O   UNL     1      -8.866  11.761  65.473  1.00  0.00    -0.406 OA 
HETATM   21  C   UNL     1      -7.644  12.121  67.448  1.00  0.00    -0.155 A  
HETATM   22  H   UNL     1      -8.489  12.548  65.097  1.00  0.00     0.000 HD 
ENDBRANCH   8  15
ENDBRANCH   5   8
TORSDOF 4
ENDMDL
MODEL      205
REMARK 921   NORMALIZED FREE ENERGY PREDICTED BY IDOCK:   -3.56 KCAL/MOL
REMARK 922        TOTAL FREE ENERGY PREDICTED BY IDOCK:   -5.15 KCAL/MOL
REMARK 923 INTER-LIGAND FREE ENERGY PREDICTED BY IDOCK:   -4.29 KCAL/MOL
REMARK 924 INTRA-LIGAND FREE ENERGY PREDICTED BY IDOCK:   -0.86 KCAL/MOL
REMARK 927      BINDING AFFINITY PREDICTED BY RF-SCORE:    0.00 PKD
ROOT
HETATM    1  C   UNL     1      -7.620   4.614  65.515  1.00  0.00    -0.082 C  
HETATM    2  C   UNL     1      -7.982   5.977  66.021  1.00  0.00    -0.109 A  
HETATM    3  C   UNL     1      -9.300   6.297  66.340  1.00  0.00    -0.176 A  
HETATM    4  C   UNL     1      -9.665   7.614  66.652  1.00  0.00    -0.283 A  
HETATM    5  C   UNL     1      -8.733   8.665  66.635  1.00  0.00    -0.123 A  
HETATM    6  C   UNL     1      -7.387   8.285  66.471  1.00  0.00    -0.081 A  
HETATM    7  C   UNL     1      -7.015   6.972  66.150  1.00  0.00    -0.065 A  
ENDROOT
BRANCH   5   8
HETATM    8  N   UNL     1      -9.074  10.045  66.722  1.00  0.00    -0.139 NA 
BRANCH   8   9
HETATM    9  C   UNL     1      -9.449  10.604  68.055  1.00  0.00    -0.158 C  
BRANCH   9  10
HETATM   10  C   UNL     1      -8.232  10.816  68.951  1.00  0.00    -0.149 C  
HETATM   11  C   UNL     1      -6.599  10.316  70.458  1.00  0.00    -0.091 C  
HETATM   12  N   UNL     1      -7.393  11.798  68.716  1.00  0.00    -0.115 NA 
HETATM   13  C   UNL     1      -6.373  11.680  69.797  1.00  0.00    -0.134 C  
HETATM   14  N   UNL     1      -7.950  10.024  70.040  1.00  0.00    -0.176 NA 
ENDBRANCH   9  10
ENDBRANCH   8   9
BRANCH   8  15
HETATM   15  C   UNL     1      -9.670  10.813  65.653  1.00  0.00    -0.237 A  
HETATM   16  C   UNL     1     -10.124  12.134  65.842  1.00  0.00    -0.270 A  
HETATM   17  C   UNL     1      -9.778  10.285  64.350  1.00  0.00    -0.381 A  
HETATM   18  C   UNL     1     -10.634  12.880  64.775  1.00  0.00    -0.342 A  
HETATM   19  C   UNL     1     -10.254  11.053  63.279  1.00  0.00    -0.360 A  
HETATM   20  O   UNL     1     -11.105  14.150  64.949  1.00  0.00    -0.347 OA 
HETATM   21  C   UNL     1     -10.677  12.358  63.492  1.00  0.00    -0.473 A  
HETATM   22  H   UNL     1     -11.452  14.657  64.224  1.00  0.00     0.000 HD 
ENDBRANCH   8  15
ENDBRANCH   5   8
TORSDOF 4
ENDMDL
MODEL      206
REMARK 921   NORMALIZED FREE ENERGY PREDICTED BY IDOCK:   -3.50 KCAL/MOL
REMARK 922        TOTAL FREE ENERGY PREDICTED BY IDOCK:   -5.07 KCAL/MOL
REMARK 923 INTER-LIGAND FREE ENERGY PREDICTED BY IDOCK:   -4.58 KCAL/MOL
REMARK 924 INTRA-LIGAND FREE ENERGY PREDICTED BY IDOCK:   -0.49 KCAL/MOL
REMARK 927      BINDING AFFINITY PREDICTED BY RF-SCORE:    0.00 PKD
ROOT
HETATM    1  C   UNL     1     -12.993  13.779  71.833  1.00  0.00    -0.439 C  
HETATM    2  C   UNL     1     -12.436  12.963  70.706  1.00  0.00    -0.370 A  
HETATM    3  C   UNL     1     -12.324  11.579  70.809  1.00  0.00    -0.472 A  
HETATM    4  C   UNL     1     -11.653  10.836  69.827  1.00  0.00    -0.393 A  
HETATM    5  C   UNL     1     -11.049  11.451  68.717  1.00  0.00    -0.235 A  
HETATM    6  C   UNL     1     -11.319  12.824  68.558  1.00  0.00    -0.326 A  
HETATM    7  C   UNL     1     -11.982  13.574  69.538  1.00  0.00    -0.390 A  
ENDROOT
BRANCH   5   8
HETATM    8  N   UNL     1     -10.171  10.790  67.812  1.00  0.00    -0.176 NA 
BRANCH   8   9
HETATM    9  C   UNL     1     -10.583   9.466  67.256  1.00  0.00    -0.244 C  
BRANCH   9  10
HETATM   10  C   UNL     1      -9.921   8.305  67.992  1.00  0.00    -0.185 C  
HETATM   11  C   UNL     1      -8.329   6.763  68.516  1.00  0.00    -0.120 C  
HETATM   12  N   UNL     1     -10.320   7.961  69.194  1.00  0.00    -0.217 NA 
HETATM   13  C   UNL     1      -9.457   6.800  69.553  1.00  0.00    -0.148 C  
HETATM   14  N   UNL     1      -8.901   7.555  67.453  1.00  0.00    -0.127 NA 
ENDBRANCH   9  10
ENDBRANCH   8   9
BRANCH   8  15
HETATM   15  C   UNL     1      -8.732  10.924  67.817  1.00  0.00    -0.129 A  
HETATM   16  C   UNL     1      -7.969  10.773  68.992  1.00  0.00    -0.137 A  
HETATM   17  C   UNL     1      -8.019  11.166  66.624  1.00  0.00    -0.159 A  
HETATM   18  C   UNL     1      -6.573  10.840  68.958  1.00  0.00    -0.058 A  
HETATM   19  C   UNL     1      -6.619  11.193  66.593  1.00  0.00    -0.137 A  
HETATM   20  O   UNL     1      -5.822  10.725  70.094  1.00  0.00    -0.067 OA 
HETATM   21  C   UNL     1      -5.893  11.022  67.764  1.00  0.00    -0.046 A  
HETATM   22  H   UNL     1      -4.873  10.771  70.070  1.00  0.00     0.000 HD 
ENDBRANCH   8  15
ENDBRANCH   5   8
TORSDOF 4
ENDMDL
MODEL      207
REMARK 921   NORMALIZED FREE ENERGY PREDICTED BY IDOCK:   -3.50 KCAL/MOL
REMARK 922        TOTAL FREE ENERGY PREDICTED BY IDOCK:   -5.07 KCAL/MOL
REMARK 923 INTER-LIGAND FREE ENERGY PREDICTED BY IDOCK:   -4.33 KCAL/MOL
REMARK 924 INTRA-LIGAND FREE ENERGY PREDICTED BY IDOCK:   -0.73 KCAL/MOL
REMARK 927      BINDING AFFINITY PREDICTED BY RF-SCORE:    0.00 PKD
ROOT
HETATM    1  C   UNL     1      -7.501  10.836  67.835  1.00  0.00    -0.090 C  
HETATM    2  C   UNL     1      -8.008   9.780  68.770  1.00  0.00    -0.087 A  
HETATM    3  C   UNL     1      -8.824   8.749  68.313  1.00  0.00    -0.141 A  
HETATM    4  C   UNL     1      -9.433   7.861  69.212  1.00  0.00    -0.152 A  
HETATM    5  C   UNL     1      -9.267   7.984  70.602  1.00  0.00    -0.154 A  
HETATM    6  C   UNL     1      -8.310   8.928  71.021  1.00  0.00    -0.233 A  
HETATM    7  C   UNL     1      -7.704   9.825  70.130  1.00  0.00    -0.188 A  
ENDROOT
BRANCH   5   8
HETATM    8  N   UNL     1     -10.024   7.264  71.569  1.00  0.00    -0.182 NA 
BRANCH   8   9
HETATM    9  C   UNL     1     -10.847   8.035  72.548  1.00  0.00    -0.349 C  
BRANCH   9  10
HETATM   10  C   UNL     1     -12.323   8.060  72.163  1.00  0.00    -0.315 C  
HETATM   11  C   UNL     1     -14.393   7.257  71.655  1.00  0.00    -0.421 C  
HETATM   12  N   UNL     1     -13.042   9.145  72.342  1.00  0.00    -0.429 NA 
HETATM   13  C   UNL     1     -14.396   8.779  71.838  1.00  0.00    -0.354 C  
HETATM   14  N   UNL     1     -12.976   6.985  71.607  1.00  0.00    -0.381 NA 
ENDBRANCH   9  10
ENDBRANCH   8   9
BRANCH   8  15
HETATM   15  C   UNL     1      -9.660   5.972  72.103  1.00  0.00    -0.151 A  
HETATM   16  C   UNL     1      -8.914   5.035  71.358  1.00  0.00    -0.159 A  
HETATM   17  C   UNL     1      -9.996   5.609  73.424  1.00  0.00    -0.186 A  
HETATM   18  C   UNL     1      -8.516   3.820  71.922  1.00  0.00    -0.090 A  
HETATM   19  C   UNL     1      -9.559   4.405  73.992  1.00  0.00    -0.132 A  
HETATM   20  O   UNL     1      -7.819   2.891  71.203  1.00  0.00    -0.046 OA 
HETATM   21  C   UNL     1      -8.810   3.511  73.241  1.00  0.00    -0.091 A  
HETATM   22  H   UNL     1      -7.548   2.065  71.586  1.00  0.00     0.000 HD 
ENDBRANCH   8  15
ENDBRANCH   5   8
TORSDOF 4
ENDMDL
MODEL      208
REMARK 921   NORMALIZED FREE ENERGY PREDICTED BY IDOCK:   -3.49 KCAL/MOL
REMARK 922        TOTAL FREE ENERGY PREDICTED BY IDOCK:   -5.06 KCAL/MOL
REMARK 923 INTER-LIGAND FREE ENERGY PREDICTED BY IDOCK:   -5.06 KCAL/MOL
REMARK 924 INTRA-LIGAND FREE ENERGY PREDICTED BY IDOCK:   -0.00 KCAL/MOL
REMARK 927      BINDING AFFINITY PREDICTED BY RF-SCORE:    0.00 PKD
ROOT
HETATM    1  C   UNL     1      -9.953   7.219  68.082  1.00  0.00    -0.181 C  
HETATM    2  C   UNL     1     -10.357   8.656  67.960  1.00  0.00    -0.277 A  
HETATM    3  C   UNL     1     -10.559   9.241  66.712  1.00  0.00    -0.207 A  
HETATM    4  C   UNL     1     -10.772  10.622  66.591  1.00  0.00    -0.246 A  
HETATM    5  C   UNL     1     -10.770  11.473  67.709  1.00  0.00    -0.207 A  
HETATM    6  C   UNL     1     -10.728  10.833  68.963  1.00  0.00    -0.265 A  
HETATM    7  C   UNL     1     -10.507   9.456  69.092  1.00  0.00    -0.230 A  
ENDROOT
BRANCH   5   8
HETATM    8  N   UNL     1     -10.758  12.895  67.637  1.00  0.00    -0.221 NA 
BRANCH   8   9
HETATM    9  C   UNL     1      -9.607  13.565  66.961  1.00  0.00    -0.248 C  
BRANCH   9  10
HETATM   10  C   UNL     1      -8.314  13.429  67.760  1.00  0.00    -0.178 C  
HETATM   11  C   UNL     1      -6.789  13.829  69.403  1.00  0.00    -0.044 C  
HETATM   12  N   UNL     1      -7.576  12.348  67.657  1.00  0.00    -0.129 NA 
HETATM   13  C   UNL     1      -6.418  12.604  68.560  1.00  0.00    -0.074 C  
HETATM   14  N   UNL     1      -7.844  14.407  68.605  1.00  0.00    -0.136 NA 
ENDBRANCH   9  10
ENDBRANCH   8   9
BRANCH   8  15
HETATM   15  C   UNL     1     -11.369  13.773  68.608  1.00  0.00    -0.287 A  
HETATM   16  C   UNL     1     -12.100  13.280  69.708  1.00  0.00    -0.355 A  
HETATM   17  C   UNL     1     -11.218  15.172  68.522  1.00  0.00    -0.301 A  
HETATM   18  C   UNL     1     -12.624  14.148  70.672  1.00  0.00    -0.351 A  
HETATM   19  C   UNL     1     -11.713  16.031  69.513  1.00  0.00    -0.275 A  
HETATM   20  O   UNL     1     -13.359  13.687  71.727  1.00  0.00    -0.360 OA 
HETATM   21  C   UNL     1     -12.412  15.515  70.595  1.00  0.00    -0.483 A  
HETATM   22  H   UNL     1     -13.716  14.277  72.381  1.00  0.00     0.000 HD 
ENDBRANCH   8  15
ENDBRANCH   5   8
TORSDOF 4
ENDMDL
MODEL      209
REMARK 921   NORMALIZED FREE ENERGY PREDICTED BY IDOCK:   -3.48 KCAL/MOL
REMARK 922        TOTAL FREE ENERGY PREDICTED BY IDOCK:   -5.04 KCAL/MOL
REMARK 923 INTER-LIGAND FREE ENERGY PREDICTED BY IDOCK:   -4.72 KCAL/MOL
REMARK 924 INTRA-LIGAND FREE ENERGY PREDICTED BY IDOCK:   -0.32 KCAL/MOL
REMARK 927      BINDING AFFINITY PREDICTED BY RF-SCORE:    0.00 PKD
ROOT
HETATM    1  C   UNL     1      -9.952  16.427  67.798  1.00  0.00    -0.248 C  
HETATM    2  C   UNL     1      -9.783  14.954  67.582  1.00  0.00    -0.212 A  
HETATM    3  C   UNL     1      -8.524  14.401  67.362  1.00  0.00    -0.216 A  
HETATM    4  C   UNL     1      -8.383  13.055  66.995  1.00  0.00    -0.102 A  
HETATM    5  C   UNL     1      -9.496  12.216  66.813  1.00  0.00    -0.212 A  
HETATM    6  C   UNL     1     -10.737  12.757  67.200  1.00  0.00    -0.264 A  
HETATM    7  C   UNL     1     -10.887  14.103  67.560  1.00  0.00    -0.280 A  
ENDROOT
BRANCH   5   8
HETATM    8  N   UNL     1      -9.437  10.918  66.232  1.00  0.00    -0.188 NA 
BRANCH   8   9
HETATM    9  C   UNL     1      -9.621  10.788  64.755  1.00  0.00    -0.262 C  
BRANCH   9  10
HETATM   10  C   UNL     1     -10.702  11.727  64.227  1.00  0.00    -0.342 C  
HETATM   11  C   UNL     1     -12.758  12.685  64.019  1.00  0.00    -0.269 C  
HETATM   12  N   UNL     1     -10.377  12.839  63.609  1.00  0.00    -0.352 NA 
HETATM   13  C   UNL     1     -11.684  13.454  63.241  1.00  0.00    -0.017 C  
HETATM   14  N   UNL     1     -12.048  11.472  64.349  1.00  0.00     0.034 NA 
ENDBRANCH   9  10
ENDBRANCH   8   9
BRANCH   8  15
HETATM   15  C   UNL     1      -9.810   9.697  66.908  1.00  0.00    -0.200 A  
HETATM   16  C   UNL     1      -9.888   8.460  66.235  1.00  0.00    -0.257 A  
HETATM   17  C   UNL     1     -10.067   9.682  68.295  1.00  0.00    -0.203 A  
HETATM   18  C   UNL     1     -10.185   7.282  66.926  1.00  0.00    -0.269 A  
HETATM   19  C   UNL     1     -10.325   8.490  68.985  1.00  0.00    -0.229 A  
HETATM   20  O   UNL     1     -10.293   6.082  66.283  1.00  0.00    -0.407 OA 
HETATM   21  C   UNL     1     -10.376   7.285  68.299  1.00  0.00    -0.227 A  
HETATM   22  H   UNL     1     -10.494   5.281  66.752  1.00  0.00     0.000 HD 
ENDBRANCH   8  15
ENDBRANCH   5   8
TORSDOF 4
ENDMDL
MODEL      210
REMARK 921   NORMALIZED FREE ENERGY PREDICTED BY IDOCK:   -3.43 KCAL/MOL
REMARK 922        TOTAL FREE ENERGY PREDICTED BY IDOCK:   -4.98 KCAL/MOL
REMARK 923 INTER-LIGAND FREE ENERGY PREDICTED BY IDOCK:   -4.51 KCAL/MOL
REMARK 924 INTRA-LIGAND FREE ENERGY PREDICTED BY IDOCK:   -0.47 KCAL/MOL
REMARK 927      BINDING AFFINITY PREDICTED BY RF-SCORE:    0.00 PKD
ROOT
HETATM    1  C   UNL     1     -14.348   8.925  72.035  1.00  0.00    -0.406 C  
HETATM    2  C   UNL     1     -13.014   8.247  71.970  1.00  0.00    -0.355 A  
HETATM    3  C   UNL     1     -11.859   8.892  72.407  1.00  0.00    -0.292 A  
HETATM    4  C   UNL     1     -10.594   8.326  72.192  1.00  0.00    -0.380 A  
HETATM    5  C   UNL     1     -10.433   7.107  71.513  1.00  0.00    -0.203 A  
HETATM    6  C   UNL     1     -11.621   6.404  71.230  1.00  0.00    -0.370 A  
HETATM    7  C   UNL     1     -12.889   6.966  71.434  1.00  0.00    -0.365 A  
ENDROOT
BRANCH   5   8
HETATM    8  N   UNL     1      -9.182   6.593  71.069  1.00  0.00    -0.160 NA 
BRANCH   8   9
HETATM    9  C   UNL     1      -8.405   7.377  70.064  1.00  0.00    -0.137 C  
BRANCH   9  10
HETATM   10  C   UNL     1      -9.293   7.918  68.947  1.00  0.00    -0.150 C  
HETATM   11  C   UNL     1     -10.308   9.454  67.606  1.00  0.00    -0.246 C  
HETATM   12  N   UNL     1      -9.650   7.148  67.945  1.00  0.00    -0.132 NA 
HETATM   13  C   UNL     1     -10.508   8.023  67.096  1.00  0.00    -0.338 C  
HETATM   14  N   UNL     1      -9.773   9.207  68.925  1.00  0.00    -0.159 NA 
ENDBRANCH   9  10
ENDBRANCH   8   9
BRANCH   8  15
HETATM   15  C   UNL     1      -8.848   5.189  71.001  1.00  0.00    -0.133 A  
HETATM   16  C   UNL     1      -8.095   4.547  72.006  1.00  0.00    -0.100 A  
HETATM   17  C   UNL     1      -9.307   4.381  69.939  1.00  0.00    -0.225 A  
HETATM   18  C   UNL     1      -7.844   3.173  71.950  1.00  0.00    -0.054 A  
HETATM   19  C   UNL     1      -9.082   2.999  69.913  1.00  0.00    -0.196 A  
HETATM   20  O   UNL     1      -7.091   2.543  72.901  1.00  0.00    -0.030 OA 
HETATM   21  C   UNL     1      -8.354   2.391  70.926  1.00  0.00    -0.076 A  
HETATM   22  H   UNL     1      -6.920   1.609  72.863  1.00  0.00     0.000 HD 
ENDBRANCH   8  15
ENDBRANCH   5   8
TORSDOF 4
ENDMDL
MODEL      211
REMARK 921   NORMALIZED FREE ENERGY PREDICTED BY IDOCK:   -3.41 KCAL/MOL
REMARK 922        TOTAL FREE ENERGY PREDICTED BY IDOCK:   -4.95 KCAL/MOL
REMARK 923 INTER-LIGAND FREE ENERGY PREDICTED BY IDOCK:   -5.12 KCAL/MOL
REMARK 924 INTRA-LIGAND FREE ENERGY PREDICTED BY IDOCK:    0.17 KCAL/MOL
REMARK 927      BINDING AFFINITY PREDICTED BY RF-SCORE:    0.00 PKD
ROOT
HETATM    1  C   UNL     1     -11.371   4.645  73.277  1.00  0.00    -0.393 C  
HETATM    2  C   UNL     1     -10.948   5.700  72.301  1.00  0.00    -0.312 A  
HETATM    3  C   UNL     1     -10.837   7.033  72.689  1.00  0.00    -0.303 A  
HETATM    4  C   UNL     1     -10.605   8.041  71.742  1.00  0.00    -0.296 A  
HETATM    5  C   UNL     1     -10.498   7.758  70.370  1.00  0.00    -0.221 A  
HETATM    6  C   UNL     1     -10.451   6.392  70.031  1.00  0.00    -0.267 A  
HETATM    7  C   UNL     1     -10.690   5.380  70.970  1.00  0.00    -0.239 A  
ENDROOT
BRANCH   5   8
HETATM    8  N   UNL     1     -10.486   8.745  69.344  1.00  0.00    -0.221 NA 
BRANCH   8   9
HETATM    9  C   UNL     1      -9.349   8.754  68.376  1.00  0.00    -0.137 C  
BRANCH   9  10
HETATM   10  C   UNL     1      -8.223   9.684  68.821  1.00  0.00    -0.106 C  
HETATM   11  C   UNL     1      -6.913  11.546  68.878  1.00  0.00    -0.100 C  
HETATM   12  N   UNL     1      -7.653   9.528  69.994  1.00  0.00    -0.113 NA 
HETATM   13  C   UNL     1      -6.615  10.597  70.044  1.00  0.00    -0.149 C  
HETATM   14  N   UNL     1      -7.738  10.707  68.041  1.00  0.00    -0.098 NA 
ENDBRANCH   9  10
ENDBRANCH   8   9
BRANCH   8  15
HETATM   15  C   UNL     1     -11.076  10.059  69.460  1.00  0.00    -0.238 A  
HETATM   16  C   UNL     1     -11.196  10.928  68.357  1.00  0.00    -0.347 A  
HETATM   17  C   UNL     1     -11.608  10.513  70.685  1.00  0.00    -0.445 A  
HETATM   18  C   UNL     1     -11.833  12.166  68.480  1.00  0.00    -0.310 A  
HETATM   19  C   UNL     1     -12.278  11.739  70.791  1.00  0.00    -0.424 A  
HETATM   20  O   UNL     1     -11.930  13.030  67.427  1.00  0.00    -0.364 OA 
HETATM   21  C   UNL     1     -12.398  12.564  69.682  1.00  0.00    -0.035 A  
HETATM   22  H   UNL     1     -12.363  13.872  67.511  1.00  0.00     0.000 HD 
ENDBRANCH   8  15
ENDBRANCH   5   8
TORSDOF 4
ENDMDL
MODEL      212
REMARK 921   NORMALIZED FREE ENERGY PREDICTED BY IDOCK:   -3.38 KCAL/MOL
REMARK 922        TOTAL FREE ENERGY PREDICTED BY IDOCK:   -4.92 KCAL/MOL
REMARK 923 INTER-LIGAND FREE ENERGY PREDICTED BY IDOCK:   -4.36 KCAL/MOL
REMARK 924 INTRA-LIGAND FREE ENERGY PREDICTED BY IDOCK:   -0.57 KCAL/MOL
REMARK 927      BINDING AFFINITY PREDICTED BY RF-SCORE:    0.00 PKD
ROOT
HETATM    1  C   UNL     1      -7.454   8.138  68.821  1.00  0.00    -0.090 C  
HETATM    2  C   UNL     1      -8.071   9.079  67.831  1.00  0.00    -0.106 A  
HETATM    3  C   UNL     1      -9.397   8.932  67.432  1.00  0.00    -0.165 A  
HETATM    4  C   UNL     1      -9.923   9.704  66.387  1.00  0.00    -0.323 A  
HETATM    5  C   UNL     1      -9.139  10.636  65.687  1.00  0.00    -0.183 A  
HETATM    6  C   UNL     1      -7.858  10.878  66.219  1.00  0.00    -0.158 A  
HETATM    7  C   UNL     1      -7.321  10.105  67.257  1.00  0.00    -0.090 A  
ENDROOT
BRANCH   5   8
HETATM    8  N   UNL     1      -9.542  11.285  64.485  1.00  0.00    -0.238 NA 
BRANCH   8   9
HETATM    9  C   UNL     1      -8.594  11.303  63.332  1.00  0.00     0.233 C  
BRANCH   9  10
HETATM   10  C   UNL     1      -8.012   9.922  63.045  1.00  0.00    -0.142 C  
HETATM   11  C   UNL     1      -7.947   7.756  62.347  1.00  0.00    -0.141 C  
HETATM   12  N   UNL     1      -6.714   9.754  62.936  1.00  0.00    -0.106 NA 
HETATM   13  C   UNL     1      -6.551   8.295  62.677  1.00  0.00    -0.087 C  
HETATM   14  N   UNL     1      -8.785   8.794  62.898  1.00  0.00    -0.106 NA 
ENDBRANCH   9  10
ENDBRANCH   8   9
BRANCH   8  15
HETATM   15  C   UNL     1     -10.457  12.401  64.421  1.00  0.00    -0.344 A  
HETATM   16  C   UNL     1     -10.188  13.629  65.060  1.00  0.00    -0.356 A  
HETATM   17  C   UNL     1     -11.647  12.326  63.667  1.00  0.00    -0.581 A  
HETATM   18  C   UNL     1     -11.057  14.716  64.926  1.00  0.00    -0.401 A  
HETATM   19  C   UNL     1     -12.491  13.432  63.507  1.00  0.00    -0.287 A  
HETATM   20  O   UNL     1     -10.824  15.902  65.564  1.00  0.00    -0.345 OA 
HETATM   21  C   UNL     1     -12.191  14.634  64.133  1.00  0.00    -0.343 A  
HETATM   22  H   UNL     1     -11.415  16.641  65.473  1.00  0.00     0.000 HD 
ENDBRANCH   8  15
ENDBRANCH   5   8
TORSDOF 4
ENDMDL
MODEL      213
REMARK 921   NORMALIZED FREE ENERGY PREDICTED BY IDOCK:   -3.38 KCAL/MOL
REMARK 922        TOTAL FREE ENERGY PREDICTED BY IDOCK:   -4.92 KCAL/MOL
REMARK 923 INTER-LIGAND FREE ENERGY PREDICTED BY IDOCK:   -4.06 KCAL/MOL
REMARK 924 INTRA-LIGAND FREE ENERGY PREDICTED BY IDOCK:   -0.86 KCAL/MOL
REMARK 927      BINDING AFFINITY PREDICTED BY RF-SCORE:    0.00 PKD
ROOT
HETATM    1  C   UNL     1     -10.937   5.242  72.938  1.00  0.00    -0.343 C  
HETATM    2  C   UNL     1     -10.737   5.968  71.643  1.00  0.00    -0.303 A  
HETATM    3  C   UNL     1     -11.820   6.300  70.832  1.00  0.00    -0.215 A  
HETATM    4  C   UNL     1     -11.622   6.827  69.548  1.00  0.00    -0.183 A  
HETATM    5  C   UNL     1     -10.335   7.021  69.017  1.00  0.00    -0.200 A  
HETATM    6  C   UNL     1      -9.269   6.832  69.917  1.00  0.00    -0.147 A  
HETATM    7  C   UNL     1      -9.458   6.298  71.199  1.00  0.00    -0.183 A  
ENDROOT
BRANCH   5   8
HETATM    8  N   UNL     1     -10.067   7.338  67.655  1.00  0.00    -0.168 NA 
BRANCH   8   9
HETATM    9  C   UNL     1     -10.876   8.409  66.999  1.00  0.00     0.031 C  
BRANCH   9  10
HETATM   10  C   UNL     1     -10.341   9.804  67.310  1.00  0.00    -0.248 C  
HETATM   11  C   UNL     1      -9.645  11.574  68.562  1.00  0.00    -0.178 C  
HETATM   12  N   UNL     1      -9.680  10.483  66.401  1.00  0.00    -0.191 NA 
HETATM   13  C   UNL     1      -9.350  11.773  67.072  1.00  0.00    -0.184 C  
HETATM   14  N   UNL     1     -10.522  10.428  68.522  1.00  0.00    -0.175 NA 
ENDBRANCH   9  10
ENDBRANCH   8   9
BRANCH   8  15
HETATM   15  C   UNL     1      -9.557   6.403  66.679  1.00  0.00    -0.157 A  
HETATM   16  C   UNL     1     -10.015   5.072  66.605  1.00  0.00    -0.246 A  
HETATM   17  C   UNL     1      -8.605   6.801  65.717  1.00  0.00    -0.144 A  
HETATM   18  C   UNL     1      -9.556   4.207  65.607  1.00  0.00    -0.188 A  
HETATM   19  C   UNL     1      -8.180   5.938  64.698  1.00  0.00    -0.120 A  
HETATM   20  O   UNL     1      -9.969   2.906  65.541  1.00  0.00    -0.364 OA 
HETATM   21  C   UNL     1      -8.663   4.639  64.639  1.00  0.00    -0.151 A  
HETATM   22  H   UNL     1      -9.657   2.318  64.863  1.00  0.00     0.000 HD 
ENDBRANCH   8  15
ENDBRANCH   5   8
TORSDOF 4
ENDMDL
MODEL      214
REMARK 921   NORMALIZED FREE ENERGY PREDICTED BY IDOCK:   -3.38 KCAL/MOL
REMARK 922        TOTAL FREE ENERGY PREDICTED BY IDOCK:   -4.91 KCAL/MOL
REMARK 923 INTER-LIGAND FREE ENERGY PREDICTED BY IDOCK:   -4.07 KCAL/MOL
REMARK 924 INTRA-LIGAND FREE ENERGY PREDICTED BY IDOCK:   -0.84 KCAL/MOL
REMARK 927      BINDING AFFINITY PREDICTED BY RF-SCORE:    0.00 PKD
ROOT
HETATM    1  C   UNL     1     -12.924   8.487  72.575  1.00  0.00    -0.300 C  
HETATM    2  C   UNL     1     -12.111   7.718  71.579  1.00  0.00    -0.336 A  
HETATM    3  C   UNL     1     -12.035   6.329  71.635  1.00  0.00    -0.272 A  
HETATM    4  C   UNL     1     -11.146   5.623  70.812  1.00  0.00    -0.196 A  
HETATM    5  C   UNL     1     -10.283   6.280  69.919  1.00  0.00    -0.184 A  
HETATM    6  C   UNL     1     -10.498   7.663  69.768  1.00  0.00    -0.232 A  
HETATM    7  C   UNL     1     -11.379   8.377  70.592  1.00  0.00    -0.262 A  
ENDROOT
BRANCH   5   8
HETATM    8  N   UNL     1      -9.212   5.649  69.225  1.00  0.00    -0.115 NA 
BRANCH   8   9
HETATM    9  C   UNL     1      -7.818   5.865  69.716  1.00  0.00    -0.100 C  
BRANCH   9  10
HETATM   10  C   UNL     1      -7.395   4.803  70.727  1.00  0.00    -0.056 C  
HETATM   11  C   UNL     1      -7.062   3.827  72.758  1.00  0.00    -0.049 C  
HETATM   12  N   UNL     1      -7.251   3.551  70.360  1.00  0.00    -0.040 NA 
HETATM   13  C   UNL     1      -6.824   2.848  71.604  1.00  0.00    -0.030 C  
HETATM   14  N   UNL     1      -7.133   5.083  72.048  1.00  0.00    -0.069 NA 
ENDBRANCH   9  10
ENDBRANCH   8   9
BRANCH   8  15
HETATM   15  C   UNL     1      -9.220   5.331  67.815  1.00  0.00    -0.112 A  
HETATM   16  C   UNL     1     -10.417   5.196  67.084  1.00  0.00    -0.224 A  
HETATM   17  C   UNL     1      -8.017   5.188  67.094  1.00  0.00    -0.100 A  
HETATM   18  C   UNL     1     -10.397   4.955  65.706  1.00  0.00    -0.185 A  
HETATM   19  C   UNL     1      -8.006   4.985  65.707  1.00  0.00    -0.107 A  
HETATM   20  O   UNL     1     -11.550   4.793  64.991  1.00  0.00    -0.995 OA 
HETATM   21  C   UNL     1      -9.201   4.876  65.011  1.00  0.00    -0.107 A  
HETATM   22  H   UNL     1     -11.536   4.629  64.055  1.00  0.00     0.000 HD 
ENDBRANCH   8  15
ENDBRANCH   5   8
TORSDOF 4
ENDMDL
MODEL      215
REMARK 921   NORMALIZED FREE ENERGY PREDICTED BY IDOCK:   -3.36 KCAL/MOL
REMARK 922        TOTAL FREE ENERGY PREDICTED BY IDOCK:   -4.90 KCAL/MOL
REMARK 923 INTER-LIGAND FREE ENERGY PREDICTED BY IDOCK:   -4.19 KCAL/MOL
REMARK 924 INTRA-LIGAND FREE ENERGY PREDICTED BY IDOCK:   -0.71 KCAL/MOL
REMARK 927      BINDING AFFINITY PREDICTED BY RF-SCORE:    0.00 PKD
ROOT
HETATM    1  C   UNL     1      -7.866  11.070  66.008  1.00  0.00    -0.077 C  
HETATM    2  C   UNL     1      -8.424  10.006  66.903  1.00  0.00    -0.125 A  
HETATM    3  C   UNL     1      -7.711   9.552  68.009  1.00  0.00    -0.087 A  
HETATM    4  C   UNL     1      -8.155   8.446  68.747  1.00  0.00    -0.121 A  
HETATM    5  C   UNL     1      -9.316   7.737  68.394  1.00  0.00    -0.143 A  
HETATM    6  C   UNL     1     -10.098   8.316  67.377  1.00  0.00    -0.298 A  
HETATM    7  C   UNL     1      -9.658   9.417  66.629  1.00  0.00    -0.250 A  
ENDROOT
BRANCH   5   8
HETATM    8  N   UNL     1      -9.697   6.486  68.958  1.00  0.00    -0.135 NA 
BRANCH   8   9
HETATM    9  C   UNL     1     -10.255   5.437  68.053  1.00  0.00    -0.164 C  
BRANCH   9  10
HETATM   10  C   UNL     1      -9.196   4.423  67.629  1.00  0.00    -0.143 C  
HETATM   11  C   UNL     1      -8.325   2.533  66.703  1.00  0.00    -0.091 C  
HETATM   12  N   UNL     1      -7.936   4.776  67.526  1.00  0.00    -0.094 NA 
HETATM   13  C   UNL     1      -7.234   3.528  67.114  1.00  0.00    -0.063 C  
HETATM   14  N   UNL     1      -9.482   3.107  67.348  1.00  0.00    -0.187 NA 
ENDBRANCH   9  10
ENDBRANCH   8   9
BRANCH   8  15
HETATM   15  C   UNL     1     -10.164   6.303  70.312  1.00  0.00    -0.196 A  
HETATM   16  C   UNL     1     -10.890   7.300  70.996  1.00  0.00    -0.258 A  
HETATM   17  C   UNL     1      -9.954   5.089  70.998  1.00  0.00    -0.281 A  
HETATM   18  C   UNL     1     -11.391   7.073  72.282  1.00  0.00    -0.268 A  
HETATM   19  C   UNL     1     -10.492   4.857  72.270  1.00  0.00    -0.267 A  
HETATM   20  O   UNL     1     -12.070   8.039  72.967  1.00  0.00    -0.646 OA 
HETATM   21  C   UNL     1     -11.220   5.850  72.911  1.00  0.00    -0.291 A  
HETATM   22  H   UNL     1     -12.410   7.885  73.841  1.00  0.00     0.000 HD 
ENDBRANCH   8  15
ENDBRANCH   5   8
TORSDOF 4
ENDMDL
MODEL      216
REMARK 921   NORMALIZED FREE ENERGY PREDICTED BY IDOCK:   -3.36 KCAL/MOL
REMARK 922        TOTAL FREE ENERGY PREDICTED BY IDOCK:   -4.89 KCAL/MOL
REMARK 923 INTER-LIGAND FREE ENERGY PREDICTED BY IDOCK:   -4.14 KCAL/MOL
REMARK 924 INTRA-LIGAND FREE ENERGY PREDICTED BY IDOCK:   -0.76 KCAL/MOL
REMARK 927      BINDING AFFINITY PREDICTED BY RF-SCORE:    0.00 PKD
ROOT
HETATM    1  C   UNL     1     -10.751   6.596  68.309  1.00  0.00    -0.317 C  
HETATM    2  C   UNL     1     -10.372   8.043  68.220  1.00  0.00    -0.240 A  
HETATM    3  C   UNL     1     -10.615   8.779  67.063  1.00  0.00    -0.283 A  
HETATM    4  C   UNL     1     -10.113  10.080  66.919  1.00  0.00    -0.287 A  
HETATM    5  C   UNL     1      -9.331  10.687  67.917  1.00  0.00    -0.148 A  
HETATM    6  C   UNL     1      -9.243   9.985  69.134  1.00  0.00    -0.196 A  
HETATM    7  C   UNL     1      -9.735   8.682  69.283  1.00  0.00    -0.173 A  
ENDROOT
BRANCH   5   8
HETATM    8  N   UNL     1      -8.612  11.904  67.745  1.00  0.00    -0.147 NA 
BRANCH   8   9
HETATM    9  C   UNL     1      -7.119  11.857  67.748  1.00  0.00    -0.103 C  
BRANCH   9  10
HETATM   10  C   UNL     1      -6.577  10.765  66.830  1.00  0.00    -0.091 C  
HETATM   11  C   UNL     1      -5.948   9.749  64.892  1.00  0.00    -0.088 C  
HETATM   12  N   UNL     1      -5.822   9.804  67.309  1.00  0.00    -0.050 NA 
HETATM   13  C   UNL     1      -5.518   8.949  66.127  1.00  0.00    -0.037 C  
HETATM   14  N   UNL     1      -6.848  10.711  65.482  1.00  0.00    -0.097 NA 
ENDBRANCH   9  10
ENDBRANCH   8   9
BRANCH   8  15
HETATM   15  C   UNL     1      -9.089  13.205  68.153  1.00  0.00    -0.200 A  
HETATM   16  C   UNL     1     -10.457  13.546  68.123  1.00  0.00    -0.249 A  
HETATM   17  C   UNL     1      -8.203  14.184  68.648  1.00  0.00    -0.116 A  
HETATM   18  C   UNL     1     -10.900  14.788  68.588  1.00  0.00    -0.253 A  
HETATM   19  C   UNL     1      -8.660  15.411  69.147  1.00  0.00    -0.242 A  
HETATM   20  O   UNL     1     -12.219  15.142  68.538  1.00  0.00    -0.575 OA 
HETATM   21  C   UNL     1     -10.015  15.710  69.123  1.00  0.00    -0.244 A  
HETATM   22  H   UNL     1     -12.520  15.987  68.853  1.00  0.00     0.000 HD 
ENDBRANCH   8  15
ENDBRANCH   5   8
TORSDOF 4
ENDMDL
MODEL      217
REMARK 921   NORMALIZED FREE ENERGY PREDICTED BY IDOCK:   -3.34 KCAL/MOL
REMARK 922        TOTAL FREE ENERGY PREDICTED BY IDOCK:   -4.88 KCAL/MOL
REMARK 923 INTER-LIGAND FREE ENERGY PREDICTED BY IDOCK:   -4.03 KCAL/MOL
REMARK 924 INTRA-LIGAND FREE ENERGY PREDICTED BY IDOCK:   -0.85 KCAL/MOL
REMARK 927      BINDING AFFINITY PREDICTED BY RF-SCORE:    0.00 PKD
ROOT
HETATM    1  C   UNL     1      -8.878   6.616  72.994  1.00  0.00    -0.138 C  
HETATM    2  C   UNL     1      -9.097   7.337  71.700  1.00  0.00    -0.143 A  
HETATM    3  C   UNL     1      -8.384   8.493  71.393  1.00  0.00    -0.204 A  
HETATM    4  C   UNL     1      -8.706   9.258  70.263  1.00  0.00    -0.246 A  
HETATM    5  C   UNL     1      -9.767   8.910  69.410  1.00  0.00    -0.169 A  
HETATM    6  C   UNL     1     -10.359   7.656  69.653  1.00  0.00    -0.213 A  
HETATM    7  C   UNL     1     -10.049   6.889  70.785  1.00  0.00    -0.208 A  
ENDROOT
BRANCH   5   8
HETATM    8  N   UNL     1     -10.285   9.752  68.385  1.00  0.00    -0.177 NA 
BRANCH   8   9
HETATM    9  C   UNL     1     -11.716  10.172  68.462  1.00  0.00     0.245 C  
BRANCH   9  10
HETATM   10  C   UNL     1     -11.925  11.323  69.440  1.00  0.00    -0.341 C  
HETATM   11  C   UNL     1     -12.319  12.371  71.424  1.00  0.00     0.055 C  
HETATM   12  N   UNL     1     -11.496  12.531  69.152  1.00  0.00    -0.288 NA 
HETATM   13  C   UNL     1     -11.898  13.356  70.327  1.00  0.00    -0.245 C  
HETATM   14  N   UNL     1     -12.568  11.180  70.648  1.00  0.00    -0.332 NA 
ENDBRANCH   9  10
ENDBRANCH   8   9
BRANCH   8  15
HETATM   15  C   UNL     1      -9.813   9.770  67.020  1.00  0.00    -0.193 A  
HETATM   16  C   UNL     1      -9.068   8.707  66.469  1.00  0.00    -0.206 A  
HETATM   17  C   UNL     1     -10.122  10.842  66.156  1.00  0.00    -0.297 A  
HETATM   18  C   UNL     1      -8.682   8.718  65.126  1.00  0.00    -0.167 A  
HETATM   19  C   UNL     1      -9.764  10.826  64.802  1.00  0.00    -0.338 A  
HETATM   20  O   UNL     1      -7.935   7.709  64.587  1.00  0.00    -0.134 OA 
HETATM   21  C   UNL     1      -9.047   9.756  64.284  1.00  0.00    -0.293 A  
HETATM   22  H   UNL     1      -7.672   7.717  63.674  1.00  0.00     0.000 HD 
ENDBRANCH   8  15
ENDBRANCH   5   8
TORSDOF 4
ENDMDL
MODEL      218
REMARK 921   NORMALIZED FREE ENERGY PREDICTED BY IDOCK:   -3.26 KCAL/MOL
REMARK 922        TOTAL FREE ENERGY PREDICTED BY IDOCK:   -4.78 KCAL/MOL
REMARK 923 INTER-LIGAND FREE ENERGY PREDICTED BY IDOCK:   -4.43 KCAL/MOL
REMARK 924 INTRA-LIGAND FREE ENERGY PREDICTED BY IDOCK:   -0.34 KCAL/MOL
REMARK 927      BINDING AFFINITY PREDICTED BY RF-SCORE:    0.00 PKD
ROOT
HETATM    1  C   UNL     1      -9.545  11.379  63.490  1.00  0.00    -0.315 C  
HETATM    2  C   UNL     1      -9.271  10.604  64.743  1.00  0.00    -0.255 A  
HETATM    3  C   UNL     1     -10.280   9.884  65.377  1.00  0.00    -0.149 A  
HETATM    4  C   UNL     1     -10.067   9.299  66.633  1.00  0.00    -0.341 A  
HETATM    5  C   UNL     1      -8.844   9.429  67.313  1.00  0.00    -0.128 A  
HETATM    6  C   UNL     1      -7.797  10.018  66.578  1.00  0.00    -0.112 A  
HETATM    7  C   UNL     1      -8.004  10.613  65.326  1.00  0.00    -0.060 A  
ENDROOT
BRANCH   5   8
HETATM    8  N   UNL     1      -8.635   9.055  68.671  1.00  0.00    -0.128 NA 
BRANCH   8   9
HETATM    9  C   UNL     1      -7.659   7.965  68.969  1.00  0.00    -0.099 C  
BRANCH   9  10
HETATM   10  C   UNL     1      -8.013   6.666  68.251  1.00  0.00    -0.111 C  
HETATM   11  C   UNL     1      -9.319   5.038  67.340  1.00  0.00    -0.127 C  
HETATM   12  N   UNL     1      -7.133   6.068  67.481  1.00  0.00    -0.072 NA 
HETATM   13  C   UNL     1      -7.840   4.852  66.988  1.00  0.00    -0.095 C  
HETATM   14  N   UNL     1      -9.236   6.048  68.369  1.00  0.00    -0.115 NA 
ENDBRANCH   9  10
ENDBRANCH   8   9
BRANCH   8  15
HETATM   15  C   UNL     1      -9.630   9.158  69.714  1.00  0.00    -0.181 A  
HETATM   16  C   UNL     1     -10.896   9.736  69.489  1.00  0.00    -0.264 A  
HETATM   17  C   UNL     1      -9.391   8.636  71.002  1.00  0.00    -0.254 A  
HETATM   18  C   UNL     1     -11.866   9.762  70.496  1.00  0.00    -0.240 A  
HETATM   19  C   UNL     1     -10.382   8.632  71.993  1.00  0.00    -0.416 A  
HETATM   20  O   UNL     1     -13.085  10.345  70.301  1.00  0.00    -0.515 OA 
HETATM   21  C   UNL     1     -11.626   9.190  71.735  1.00  0.00    -0.457 A  
HETATM   22  H   UNL     1     -13.744  10.363  70.985  1.00  0.00     0.000 HD 
ENDBRANCH   8  15
ENDBRANCH   5   8
TORSDOF 4
ENDMDL
MODEL      219
REMARK 921   NORMALIZED FREE ENERGY PREDICTED BY IDOCK:   -3.24 KCAL/MOL
REMARK 922        TOTAL FREE ENERGY PREDICTED BY IDOCK:   -4.74 KCAL/MOL
REMARK 923 INTER-LIGAND FREE ENERGY PREDICTED BY IDOCK:   -4.27 KCAL/MOL
REMARK 924 INTRA-LIGAND FREE ENERGY PREDICTED BY IDOCK:   -0.47 KCAL/MOL
REMARK 927      BINDING AFFINITY PREDICTED BY RF-SCORE:    0.00 PKD
ROOT
HETATM    1  C   UNL     1     -13.832   9.365  72.487  1.00  0.00    -0.385 C  
HETATM    2  C   UNL     1     -12.801   8.738  71.599  1.00  0.00    -0.392 A  
HETATM    3  C   UNL     1     -12.744   7.357  71.429  1.00  0.00    -0.408 A  
HETATM    4  C   UNL     1     -11.682   6.760  70.735  1.00  0.00    -0.439 A  
HETATM    5  C   UNL     1     -10.626   7.519  70.204  1.00  0.00    -0.235 A  
HETATM    6  C   UNL     1     -10.794   8.916  70.248  1.00  0.00    -0.265 A  
HETATM    7  C   UNL     1     -11.849   9.520  70.947  1.00  0.00    -0.385 A  
ENDROOT
BRANCH   5   8
HETATM    8  N   UNL     1      -9.418   6.966  69.689  1.00  0.00    -0.148 NA 
BRANCH   8   9
HETATM    9  C   UNL     1      -8.118   7.517  70.174  1.00  0.00    -0.119 C  
BRANCH   9  10
HETATM   10  C   UNL     1      -7.693   6.899  71.503  1.00  0.00    -0.095 C  
HETATM   11  C   UNL     1      -6.312   6.283  73.206  1.00  0.00    -0.064 C  
HETATM   12  N   UNL     1      -8.578   6.669  72.446  1.00  0.00    -0.125 NA 
HETATM   13  C   UNL     1      -7.787   6.060  73.553  1.00  0.00    -0.100 C  
HETATM   14  N   UNL     1      -6.395   6.543  71.788  1.00  0.00    -0.042 NA 
ENDBRANCH   9  10
ENDBRANCH   8   9
BRANCH   8  15
HETATM   15  C   UNL     1      -9.276   6.384  68.374  1.00  0.00    -0.120 A  
HETATM   16  C   UNL     1      -8.084   6.498  67.629  1.00  0.00    -0.118 A  
HETATM   17  C   UNL     1     -10.317   5.630  67.794  1.00  0.00    -0.260 A  
HETATM   18  C   UNL     1      -7.947   5.868  66.389  1.00  0.00    -0.102 A  
HETATM   19  C   UNL     1     -10.157   4.971  66.568  1.00  0.00    -0.278 A  
HETATM   20  O   UNL     1      -6.809   5.994  65.643  1.00  0.00    -0.053 OA 
HETATM   21  C   UNL     1      -8.965   5.085  65.867  1.00  0.00    -0.141 A  
HETATM   22  H   UNL     1      -6.717   5.566  64.800  1.00  0.00     0.000 HD 
ENDBRANCH   8  15
ENDBRANCH   5   8
TORSDOF 4
ENDMDL
MODEL      220
REMARK 921   NORMALIZED FREE ENERGY PREDICTED BY IDOCK:   -3.23 KCAL/MOL
REMARK 922        TOTAL FREE ENERGY PREDICTED BY IDOCK:   -4.73 KCAL/MOL
REMARK 923 INTER-LIGAND FREE ENERGY PREDICTED BY IDOCK:   -4.36 KCAL/MOL
REMARK 924 INTRA-LIGAND FREE ENERGY PREDICTED BY IDOCK:   -0.37 KCAL/MOL
REMARK 927      BINDING AFFINITY PREDICTED BY RF-SCORE:    0.00 PKD
ROOT
HETATM    1  C   UNL     1     -13.916   9.257  72.420  1.00  0.00    -0.432 C  
HETATM    2  C   UNL     1     -12.848   8.600  71.600  1.00  0.00    -0.380 A  
HETATM    3  C   UNL     1     -12.843   7.222  71.399  1.00  0.00    -0.425 A  
HETATM    4  C   UNL     1     -11.758   6.590  70.775  1.00  0.00    -0.427 A  
HETATM    5  C   UNL     1     -10.627   7.307  70.349  1.00  0.00    -0.226 A  
HETATM    6  C   UNL     1     -10.733   8.709  70.418  1.00  0.00    -0.248 A  
HETATM    7  C   UNL     1     -11.810   9.349  71.046  1.00  0.00    -0.396 A  
ENDROOT
BRANCH   5   8
HETATM    8  N   UNL     1      -9.411   6.707  69.917  1.00  0.00    -0.153 NA 
BRANCH   8   9
HETATM    9  C   UNL     1      -8.454   6.210  70.951  1.00  0.00    -0.128 C  
BRANCH   9  10
HETATM   10  C   UNL     1      -8.582   6.973  72.266  1.00  0.00    -0.121 C  
HETATM   11  C   UNL     1      -8.943   7.317  74.488  1.00  0.00    -0.127 C  
HETATM   12  N   UNL     1      -8.022   8.152  72.411  1.00  0.00    -0.128 NA 
HETATM   13  C   UNL     1      -8.383   8.565  73.797  1.00  0.00     0.031 C  
HETATM   14  N   UNL     1      -9.282   6.496  73.350  1.00  0.00    -0.131 NA 
ENDBRANCH   9  10
ENDBRANCH   8   9
BRANCH   8  15
HETATM   15  C   UNL     1      -8.721   7.037  68.691  1.00  0.00    -0.123 A  
HETATM   16  C   UNL     1      -9.407   7.478  67.541  1.00  0.00    -0.157 A  
HETATM   17  C   UNL     1      -7.315   6.978  68.608  1.00  0.00    -0.097 A  
HETATM   18  C   UNL     1      -8.711   7.856  66.388  1.00  0.00    -0.153 A  
HETATM   19  C   UNL     1      -6.625   7.396  67.462  1.00  0.00    -0.061 A  
HETATM   20  O   UNL     1      -9.364   8.257  65.257  1.00  0.00    -0.395 OA 
HETATM   21  C   UNL     1      -7.326   7.843  66.351  1.00  0.00    -0.086 A  
HETATM   22  H   UNL     1      -8.891   8.514  64.474  1.00  0.00     0.000 HD 
ENDBRANCH   8  15
ENDBRANCH   5   8
TORSDOF 4
ENDMDL
MODEL      221
REMARK 921   NORMALIZED FREE ENERGY PREDICTED BY IDOCK:   -3.22 KCAL/MOL
REMARK 922        TOTAL FREE ENERGY PREDICTED BY IDOCK:   -4.73 KCAL/MOL
REMARK 923 INTER-LIGAND FREE ENERGY PREDICTED BY IDOCK:   -4.29 KCAL/MOL
REMARK 924 INTRA-LIGAND FREE ENERGY PREDICTED BY IDOCK:   -0.43 KCAL/MOL
REMARK 927      BINDING AFFINITY PREDICTED BY RF-SCORE:    0.00 PKD
ROOT
HETATM    1  C   UNL     1     -11.468  14.308  66.579  1.00  0.00    -0.368 C  
HETATM    2  C   UNL     1     -10.943  12.934  66.864  1.00  0.00    -0.294 A  
HETATM    3  C   UNL     1     -11.536  12.124  67.829  1.00  0.00    -0.398 A  
HETATM    4  C   UNL     1     -10.946  10.911  68.213  1.00  0.00    -0.293 A  
HETATM    5  C   UNL     1      -9.730  10.472  67.662  1.00  0.00    -0.165 A  
HETATM    6  C   UNL     1      -9.243  11.227  66.578  1.00  0.00    -0.200 A  
HETATM    7  C   UNL     1      -9.822  12.445  66.194  1.00  0.00    -0.263 A  
ENDROOT
BRANCH   5   8
HETATM    8  N   UNL     1      -8.972   9.375  68.160  1.00  0.00    -0.128 NA 
BRANCH   8   9
HETATM    9  C   UNL     1      -7.612   9.131  67.593  1.00  0.00    -0.085 C  
BRANCH   9  10
HETATM   10  C   UNL     1      -7.624   8.051  66.516  1.00  0.00    -0.092 C  
HETATM   11  C   UNL     1      -7.722   5.962  65.613  1.00  0.00    -0.097 C  
HETATM   12  N   UNL     1      -7.921   8.351  65.272  1.00  0.00    -0.117 NA 
HETATM   13  C   UNL     1      -7.810   7.056  64.543  1.00  0.00    -0.118 C  
HETATM   14  N   UNL     1      -7.322   6.733  66.767  1.00  0.00    -0.080 NA 
ENDBRANCH   9  10
ENDBRANCH   8   9
BRANCH   8  15
HETATM   15  C   UNL     1      -9.539   8.154  68.685  1.00  0.00    -0.149 A  
HETATM   16  C   UNL     1      -9.132   7.607  69.919  1.00  0.00    -0.147 A  
HETATM   17  C   UNL     1     -10.570   7.477  68.001  1.00  0.00    -0.217 A  
HETATM   18  C   UNL     1      -9.745   6.463  70.437  1.00  0.00    -0.165 A  
HETATM   19  C   UNL     1     -11.204   6.353  68.546  1.00  0.00    -0.321 A  
HETATM   20  O   UNL     1      -9.340   5.905  71.617  1.00  0.00    -0.149 OA 
HETATM   21  C   UNL     1     -10.795   5.849  69.772  1.00  0.00    -0.447 A  
HETATM   22  H   UNL     1      -9.757   5.127  71.969  1.00  0.00     0.000 HD 
ENDBRANCH   8  15
ENDBRANCH   5   8
TORSDOF 4
ENDMDL
MODEL      222
REMARK 921   NORMALIZED FREE ENERGY PREDICTED BY IDOCK:   -3.11 KCAL/MOL
REMARK 922        TOTAL FREE ENERGY PREDICTED BY IDOCK:   -4.58 KCAL/MOL
REMARK 923 INTER-LIGAND FREE ENERGY PREDICTED BY IDOCK:   -3.84 KCAL/MOL
REMARK 924 INTRA-LIGAND FREE ENERGY PREDICTED BY IDOCK:   -0.74 KCAL/MOL
REMARK 927      BINDING AFFINITY PREDICTED BY RF-SCORE:    0.00 PKD
ROOT
HETATM    1  C   UNL     1      -5.200  11.352  69.019  1.00  0.00    -0.043 C  
HETATM    2  C   UNL     1      -6.276  10.342  69.277  1.00  0.00    -0.046 A  
HETATM    3  C   UNL     1      -5.990   8.980  69.300  1.00  0.00    -0.041 A  
HETATM    4  C   UNL     1      -7.019   8.030  69.374  1.00  0.00    -0.055 A  
HETATM    5  C   UNL     1      -8.373   8.405  69.406  1.00  0.00    -0.120 A  
HETATM    6  C   UNL     1      -8.621   9.784  69.546  1.00  0.00    -0.186 A  
HETATM    7  C   UNL     1      -7.599  10.740  69.465  1.00  0.00    -0.094 A  
ENDROOT
BRANCH   5   8
HETATM    8  N   UNL     1      -9.462   7.499  69.257  1.00  0.00    -0.155 NA 
BRANCH   8   9
HETATM    9  C   UNL     1     -10.293   7.580  68.019  1.00  0.00    -0.204 C  
BRANCH   9  10
HETATM   10  C   UNL     1      -9.439   7.682  66.759  1.00  0.00    -0.191 C  
HETATM   11  C   UNL     1      -8.188   6.986  64.988  1.00  0.00    -0.090 C  
HETATM   12  N   UNL     1      -9.472   8.763  66.015  1.00  0.00    -0.240 NA 
HETATM   13  C   UNL     1      -8.508   8.483  64.913  1.00  0.00    -0.147 C  
HETATM   14  N   UNL     1      -8.592   6.682  66.340  1.00  0.00    -0.124 NA 
ENDBRANCH   9  10
ENDBRANCH   8   9
BRANCH   8  15
HETATM   15  C   UNL     1     -10.218   6.937  70.352  1.00  0.00    -0.192 A  
HETATM   16  C   UNL     1     -11.550   7.315  70.616  1.00  0.00    -0.322 A  
HETATM   17  C   UNL     1      -9.666   5.939  71.182  1.00  0.00    -0.209 A  
HETATM   18  C   UNL     1     -12.283   6.706  71.640  1.00  0.00    -0.352 A  
HETATM   19  C   UNL     1     -10.420   5.307  72.179  1.00  0.00    -0.278 A  
HETATM   20  O   UNL     1     -13.564   7.084  71.926  1.00  0.00    -0.511 OA 
HETATM   21  C   UNL     1     -11.735   5.688  72.404  1.00  0.00    -0.240 A  
HETATM   22  H   UNL     1     -14.061   6.670  72.622  1.00  0.00     0.000 HD 
ENDBRANCH   8  15
ENDBRANCH   5   8
TORSDOF 4
ENDMDL
MODEL      223
REMARK 921   NORMALIZED FREE ENERGY PREDICTED BY IDOCK:   -3.10 KCAL/MOL
REMARK 922        TOTAL FREE ENERGY PREDICTED BY IDOCK:   -4.57 KCAL/MOL
REMARK 923 INTER-LIGAND FREE ENERGY PREDICTED BY IDOCK:   -4.19 KCAL/MOL
REMARK 924 INTRA-LIGAND FREE ENERGY PREDICTED BY IDOCK:   -0.39 KCAL/MOL
REMARK 927      BINDING AFFINITY PREDICTED BY RF-SCORE:    0.00 PKD
ROOT
HETATM    1  C   UNL     1     -10.880  13.958  68.756  1.00  0.00    -0.282 C  
HETATM    2  C   UNL     1     -10.286  12.744  68.111  1.00  0.00    -0.243 A  
HETATM    3  C   UNL     1     -10.900  11.499  68.223  1.00  0.00    -0.257 A  
HETATM    4  C   UNL     1     -10.262  10.338  67.764  1.00  0.00    -0.225 A  
HETATM    5  C   UNL     1      -8.977  10.374  67.196  1.00  0.00    -0.139 A  
HETATM    6  C   UNL     1      -8.456  11.658  66.948  1.00  0.00    -0.168 A  
HETATM    7  C   UNL     1      -9.083  12.823  67.411  1.00  0.00    -0.192 A  
ENDROOT
BRANCH   5   8
HETATM    8  N   UNL     1      -8.189   9.222  66.917  1.00  0.00    -0.118 NA 
BRANCH   8   9
HETATM    9  C   UNL     1      -7.179   9.296  65.819  1.00  0.00    -0.090 C  
BRANCH   9  10
HETATM   10  C   UNL     1      -7.792   8.997  64.454  1.00  0.00    -0.125 C  
HETATM   11  C   UNL     1      -8.915   9.373  62.509  1.00  0.00    -0.229 C  
HETATM   12  N   UNL     1      -7.380   7.970  63.748  1.00  0.00    -0.096 NA 
HETATM   13  C   UNL     1      -8.217   8.009  62.515  1.00  0.00    -0.145 C  
HETATM   14  N   UNL     1      -8.797   9.753  63.897  1.00  0.00    -0.218 NA 
ENDBRANCH   9  10
ENDBRANCH   8   9
BRANCH   8  15
HETATM   15  C   UNL     1      -8.619   7.859  67.131  1.00  0.00    -0.128 A  
HETATM   16  C   UNL     1      -9.816   7.356  66.582  1.00  0.00    -0.263 A  
HETATM   17  C   UNL     1      -7.829   6.952  67.867  1.00  0.00    -0.113 A  
HETATM   18  C   UNL     1     -10.177   6.015  66.747  1.00  0.00    -0.214 A  
HETATM   19  C   UNL     1      -8.179   5.602  67.994  1.00  0.00    -0.100 A  
HETATM   20  O   UNL     1     -11.347   5.521  66.245  1.00  0.00    -0.712 OA 
HETATM   21  C   UNL     1      -9.354   5.130  67.425  1.00  0.00    -0.128 A  
HETATM   22  H   UNL     1     -11.592   4.610  66.357  1.00  0.00     0.000 HD 
ENDBRANCH   8  15
ENDBRANCH   5   8
TORSDOF 4
ENDMDL
MODEL      224
REMARK 921   NORMALIZED FREE ENERGY PREDICTED BY IDOCK:   -3.08 KCAL/MOL
REMARK 922        TOTAL FREE ENERGY PREDICTED BY IDOCK:   -4.54 KCAL/MOL
REMARK 923 INTER-LIGAND FREE ENERGY PREDICTED BY IDOCK:   -4.64 KCAL/MOL
REMARK 924 INTRA-LIGAND FREE ENERGY PREDICTED BY IDOCK:    0.09 KCAL/MOL
REMARK 927      BINDING AFFINITY PREDICTED BY RF-SCORE:    0.00 PKD
ROOT
HETATM    1  C   UNL     1      -7.485   7.360  73.410  1.00  0.00    -0.108 C  
HETATM    2  C   UNL     1      -7.942   7.981  72.126  1.00  0.00    -0.154 A  
HETATM    3  C   UNL     1      -7.025   8.431  71.180  1.00  0.00    -0.063 A  
HETATM    4  C   UNL     1      -7.447   9.161  70.059  1.00  0.00    -0.077 A  
HETATM    5  C   UNL     1      -8.798   9.488  69.853  1.00  0.00    -0.211 A  
HETATM    6  C   UNL     1      -9.714   8.882  70.735  1.00  0.00    -0.281 A  
HETATM    7  C   UNL     1      -9.300   8.158  71.862  1.00  0.00    -0.251 A  
ENDROOT
BRANCH   5   8
HETATM    8  N   UNL     1      -9.262  10.405  68.868  1.00  0.00    -0.168 NA 
BRANCH   8   9
HETATM    9  C   UNL     1     -10.582  11.072  69.080  1.00  0.00    -0.225 C  
BRANCH   9  10
HETATM   10  C   UNL     1     -10.827  12.192  68.073  1.00  0.00    -0.222 C  
HETATM   11  C   UNL     1     -10.365  13.983  66.745  1.00  0.00    -0.271 C  
HETATM   12  N   UNL     1     -11.849  12.138  67.250  1.00  0.00    -0.579 NA 
HETATM   13  C   UNL     1     -11.751  13.396  66.457  1.00  0.00    -0.373 C  
HETATM   14  N   UNL     1     -10.025  13.304  67.973  1.00  0.00    -0.227 NA 
ENDBRANCH   9  10
ENDBRANCH   8   9
BRANCH   8  15
HETATM   15  C   UNL     1      -8.938  10.334  67.462  1.00  0.00    -0.134 A  
HETATM   16  C   UNL     1      -7.722  10.827  66.947  1.00  0.00    -0.130 A  
HETATM   17  C   UNL     1      -9.813   9.719  66.542  1.00  0.00    -0.286 A  
HETATM   18  C   UNL     1      -7.402  10.686  65.593  1.00  0.00    -0.087 A  
HETATM   19  C   UNL     1      -9.467   9.548  65.196  1.00  0.00    -0.305 A  
HETATM   20  O   UNL     1      -6.240  11.184  65.076  1.00  0.00    -0.329 OA 
HETATM   21  C   UNL     1      -8.254  10.026  64.722  1.00  0.00    -0.155 A  
HETATM   22  H   UNL     1      -6.024  11.088  64.156  1.00  0.00     0.000 HD 
ENDBRANCH   8  15
ENDBRANCH   5   8
TORSDOF 4
ENDMDL
MODEL      225
REMARK 921   NORMALIZED FREE ENERGY PREDICTED BY IDOCK:   -3.03 KCAL/MOL
REMARK 922        TOTAL FREE ENERGY PREDICTED BY IDOCK:   -4.49 KCAL/MOL
REMARK 923 INTER-LIGAND FREE ENERGY PREDICTED BY IDOCK:   -3.98 KCAL/MOL
REMARK 924 INTRA-LIGAND FREE ENERGY PREDICTED BY IDOCK:   -0.51 KCAL/MOL
REMARK 927      BINDING AFFINITY PREDICTED BY RF-SCORE:    0.00 PKD
ROOT
HETATM    1  C   UNL     1      -6.741   9.609  63.427  1.00  0.00    -0.109 C  
HETATM    2  C   UNL     1      -7.538   9.528  64.692  1.00  0.00    -0.113 A  
HETATM    3  C   UNL     1      -8.930   9.564  64.667  1.00  0.00    -0.266 A  
HETATM    4  C   UNL     1      -9.669   9.657  65.855  1.00  0.00    -0.343 A  
HETATM    5  C   UNL     1      -9.046   9.739  67.111  1.00  0.00    -0.135 A  
HETATM    6  C   UNL     1      -7.652   9.536  67.115  1.00  0.00    -0.091 A  
HETATM    7  C   UNL     1      -6.905   9.451  65.932  1.00  0.00    -0.089 A  
ENDROOT
BRANCH   5   8
HETATM    8  N   UNL     1      -9.720  10.056  68.325  1.00  0.00    -0.139 NA 
BRANCH   8   9
HETATM    9  C   UNL     1      -9.621  11.450  68.852  1.00  0.00    -0.073 C  
BRANCH   9  10
HETATM   10  C   UNL     1     -10.586  12.400  68.148  1.00  0.00    -0.216 C  
HETATM   11  C   UNL     1     -11.395  14.355  67.306  1.00  0.00    -0.342 C  
HETATM   12  N   UNL     1     -11.498  11.936  67.325  1.00  0.00    -0.415 NA 
HETATM   13  C   UNL     1     -12.233  13.149  66.867  1.00  0.00    -0.222 C  
HETATM   14  N   UNL     1     -10.572  13.763  68.334  1.00  0.00    -0.247 NA 
ENDBRANCH   9  10
ENDBRANCH   8   9
BRANCH   8  15
HETATM   15  C   UNL     1      -9.978   9.117  69.391  1.00  0.00    -0.191 A  
HETATM   16  C   UNL     1      -9.130   9.001  70.511  1.00  0.00    -0.259 A  
HETATM   17  C   UNL     1     -11.129   8.301  69.380  1.00  0.00     0.088 A  
HETATM   18  C   UNL     1      -9.438   8.133  71.562  1.00  0.00    -0.171 A  
HETATM   19  C   UNL     1     -11.449   7.462  70.456  1.00  0.00    -0.281 A  
HETATM   20  O   UNL     1      -8.610   7.989  72.639  1.00  0.00    -0.144 OA 
HETATM   21  C   UNL     1     -10.605   7.384  71.554  1.00  0.00    -0.226 A  
HETATM   22  H   UNL     1      -8.820   7.398  73.354  1.00  0.00     0.000 HD 
ENDBRANCH   8  15
ENDBRANCH   5   8
TORSDOF 4
ENDMDL
MODEL      226
REMARK 921   NORMALIZED FREE ENERGY PREDICTED BY IDOCK:   -3.00 KCAL/MOL
REMARK 922        TOTAL FREE ENERGY PREDICTED BY IDOCK:   -4.45 KCAL/MOL
REMARK 923 INTER-LIGAND FREE ENERGY PREDICTED BY IDOCK:   -4.11 KCAL/MOL
REMARK 924 INTRA-LIGAND FREE ENERGY PREDICTED BY IDOCK:   -0.34 KCAL/MOL
REMARK 927      BINDING AFFINITY PREDICTED BY RF-SCORE:    0.00 PKD
ROOT
HETATM    1  C   UNL     1     -13.698   9.478  72.273  1.00  0.00    -0.444 C  
HETATM    2  C   UNL     1     -12.580   8.795  71.546  1.00  0.00    -0.372 A  
HETATM    3  C   UNL     1     -11.456   9.503  71.129  1.00  0.00    -0.430 A  
HETATM    4  C   UNL     1     -10.492   8.903  70.307  1.00  0.00    -0.239 A  
HETATM    5  C   UNL     1     -10.624   7.580  69.853  1.00  0.00    -0.237 A  
HETATM    6  C   UNL     1     -11.680   6.843  70.422  1.00  0.00    -0.377 A  
HETATM    7  C   UNL     1     -12.653   7.437  71.238  1.00  0.00    -0.376 A  
ENDROOT
BRANCH   5   8
HETATM    8  N   UNL     1      -9.807   6.989  68.848  1.00  0.00    -0.148 NA 
BRANCH   8   9
HETATM    9  C   UNL     1      -9.183   5.661  69.126  1.00  0.00    -0.115 C  
BRANCH   9  10
HETATM   10  C   UNL     1      -8.452   5.640  70.465  1.00  0.00    -0.121 C  
HETATM   11  C   UNL     1      -7.281   6.431  72.251  1.00  0.00    -0.087 C  
HETATM   12  N   UNL     1      -8.669   4.674  71.329  1.00  0.00    -0.115 NA 
HETATM   13  C   UNL     1      -7.774   4.997  72.476  1.00  0.00    -0.097 C  
HETATM   14  N   UNL     1      -7.536   6.595  70.840  1.00  0.00    -0.083 NA 
ENDBRANCH   9  10
ENDBRANCH   8   9
BRANCH   8  15
HETATM   15  C   UNL     1      -9.037   7.729  67.875  1.00  0.00    -0.131 A  
HETATM   16  C   UNL     1      -7.689   7.424  67.596  1.00  0.00    -0.112 A  
HETATM   17  C   UNL     1      -9.622   8.766  67.119  1.00  0.00    -0.228 A  
HETATM   18  C   UNL     1      -6.986   8.110  66.601  1.00  0.00    -0.072 A  
HETATM   19  C   UNL     1      -8.921   9.421  66.098  1.00  0.00    -0.197 A  
HETATM   20  O   UNL     1      -5.671   7.846  66.341  1.00  0.00    -0.038 OA 
HETATM   21  C   UNL     1      -7.601   9.086  65.834  1.00  0.00    -0.094 A  
HETATM   22  H   UNL     1      -5.194   8.312  65.665  1.00  0.00     0.000 HD 
ENDBRANCH   8  15
ENDBRANCH   5   8
TORSDOF 4
ENDMDL
MODEL      227
REMARK 921   NORMALIZED FREE ENERGY PREDICTED BY IDOCK:   -2.95 KCAL/MOL
REMARK 922        TOTAL FREE ENERGY PREDICTED BY IDOCK:   -4.39 KCAL/MOL
REMARK 923 INTER-LIGAND FREE ENERGY PREDICTED BY IDOCK:   -4.32 KCAL/MOL
REMARK 924 INTRA-LIGAND FREE ENERGY PREDICTED BY IDOCK:   -0.07 KCAL/MOL
REMARK 927      BINDING AFFINITY PREDICTED BY RF-SCORE:    0.00 PKD
ROOT
HETATM    1  C   UNL     1     -13.908   9.199  72.429  1.00  0.00    -0.524 C  
HETATM    2  C   UNL     1     -12.850   8.502  71.629  1.00  0.00    -0.366 A  
HETATM    3  C   UNL     1     -12.740   7.114  71.641  1.00  0.00    -0.415 A  
HETATM    4  C   UNL     1     -11.653   6.473  71.030  1.00  0.00    -0.405 A  
HETATM    5  C   UNL     1     -10.624   7.195  70.403  1.00  0.00    -0.224 A  
HETATM    6  C   UNL     1     -10.846   8.579  70.266  1.00  0.00    -0.249 A  
HETATM    7  C   UNL     1     -11.925   9.228  70.880  1.00  0.00    -0.321 A  
ENDROOT
BRANCH   5   8
HETATM    8  N   UNL     1      -9.394   6.627  69.965  1.00  0.00    -0.157 NA 
BRANCH   8   9
HETATM    9  C   UNL     1      -8.118   7.182  70.507  1.00  0.00    -0.113 C  
BRANCH   9  10
HETATM   10  C   UNL     1      -7.824   8.578  69.967  1.00  0.00    -0.102 C  
HETATM   11  C   UNL     1      -7.068  10.727  69.951  1.00  0.00    -0.093 C  
HETATM   12  N   UNL     1      -7.783   8.799  68.673  1.00  0.00    -0.097 NA 
HETATM   13  C   UNL     1      -7.491  10.256  68.556  1.00  0.00    -0.084 C  
HETATM   14  N   UNL     1      -7.602   9.668  70.776  1.00  0.00    -0.310 NA 
ENDBRANCH   9  10
ENDBRANCH   8   9
BRANCH   8  15
HETATM   15  C   UNL     1      -9.185   6.019  68.671  1.00  0.00    -0.115 A  
HETATM   16  C   UNL     1      -8.071   5.199  68.398  1.00  0.00    -0.086 A  
HETATM   17  C   UNL     1     -10.122   6.182  67.629  1.00  0.00    -0.183 A  
HETATM   18  C   UNL     1      -7.927   4.567  67.160  1.00  0.00    -0.101 A  
HETATM   19  C   UNL     1      -9.989   5.514  66.405  1.00  0.00    -0.203 A  
HETATM   20  O   UNL     1      -6.839   3.793  66.872  1.00  0.00    -0.049 OA 
HETATM   21  C   UNL     1      -8.891   4.698  66.173  1.00  0.00    -0.118 A  
HETATM   22  H   UNL     1      -6.741   3.364  66.030  1.00  0.00     0.000 HD 
ENDBRANCH   8  15
ENDBRANCH   5   8
TORSDOF 4
ENDMDL
MODEL      228
REMARK 921   NORMALIZED FREE ENERGY PREDICTED BY IDOCK:   -2.95 KCAL/MOL
REMARK 922        TOTAL FREE ENERGY PREDICTED BY IDOCK:   -4.38 KCAL/MOL
REMARK 923 INTER-LIGAND FREE ENERGY PREDICTED BY IDOCK:   -4.08 KCAL/MOL
REMARK 924 INTRA-LIGAND FREE ENERGY PREDICTED BY IDOCK:   -0.30 KCAL/MOL
REMARK 927      BINDING AFFINITY PREDICTED BY RF-SCORE:    0.00 PKD
ROOT
HETATM    1  C   UNL     1      -5.165  11.168  68.814  1.00  0.00    -0.040 C  
HETATM    2  C   UNL     1      -6.388  10.373  69.157  1.00  0.00    -0.046 A  
HETATM    3  C   UNL     1      -6.301   9.015  69.454  1.00  0.00    -0.044 A  
HETATM    4  C   UNL     1      -7.457   8.237  69.609  1.00  0.00    -0.081 A  
HETATM    5  C   UNL     1      -8.743   8.781  69.451  1.00  0.00    -0.142 A  
HETATM    6  C   UNL     1      -8.800  10.182  69.315  1.00  0.00    -0.191 A  
HETATM    7  C   UNL     1      -7.650  10.965  69.151  1.00  0.00    -0.133 A  
ENDROOT
BRANCH   5   8
HETATM    8  N   UNL     1      -9.938   8.011  69.375  1.00  0.00    -0.186 NA 
BRANCH   8   9
HETATM    9  C   UNL     1     -10.275   7.342  68.083  1.00  0.00    -0.187 C  
BRANCH   9  10
HETATM   10  C   UNL     1      -9.589   5.986  67.943  1.00  0.00    -0.116 C  
HETATM   11  C   UNL     1      -8.120   4.426  67.172  1.00  0.00    -0.101 C  
HETATM   12  N   UNL     1      -9.688   5.087  68.895  1.00  0.00    -0.154 NA 
HETATM   13  C   UNL     1      -8.912   3.922  68.383  1.00  0.00    -0.121 C  
HETATM   14  N   UNL     1      -8.855   5.623  66.838  1.00  0.00    -0.113 NA 
ENDBRANCH   9  10
ENDBRANCH   8   9
BRANCH   8  15
HETATM   15  C   UNL     1     -11.130   8.264  70.153  1.00  0.00    -0.189 A  
HETATM   16  C   UNL     1     -11.915   7.220  70.682  1.00  0.00    -0.259 A  
HETATM   17  C   UNL     1     -11.535   9.580  70.458  1.00  0.00    -0.337 A  
HETATM   18  C   UNL     1     -13.025   7.491  71.489  1.00  0.00    -0.359 A  
HETATM   19  C   UNL     1     -12.625   9.841  71.298  1.00  0.00    -0.460 A  
HETATM   20  O   UNL     1     -13.811   6.490  71.984  1.00  0.00    -0.405 OA 
HETATM   21  C   UNL     1     -13.368   8.792  71.821  1.00  0.00    -0.421 A  
HETATM   22  H   UNL     1     -14.566   6.674  72.532  1.00  0.00     0.000 HD 
ENDBRANCH   8  15
ENDBRANCH   5   8
TORSDOF 4
ENDMDL
MODEL      229
REMARK 921   NORMALIZED FREE ENERGY PREDICTED BY IDOCK:   -2.93 KCAL/MOL
REMARK 922        TOTAL FREE ENERGY PREDICTED BY IDOCK:   -4.36 KCAL/MOL
REMARK 923 INTER-LIGAND FREE ENERGY PREDICTED BY IDOCK:   -3.91 KCAL/MOL
REMARK 924 INTRA-LIGAND FREE ENERGY PREDICTED BY IDOCK:   -0.45 KCAL/MOL
REMARK 927      BINDING AFFINITY PREDICTED BY RF-SCORE:    0.00 PKD
ROOT
HETATM    1  C   UNL     1      -5.309  15.380  71.184  1.00  0.00    -0.056 C  
HETATM    2  C   UNL     1      -6.271  14.663  70.286  1.00  0.00    -0.173 A  
HETATM    3  C   UNL     1      -6.214  13.280  70.133  1.00  0.00    -0.050 A  
HETATM    4  C   UNL     1      -7.000  12.630  69.171  1.00  0.00    -0.019 A  
HETATM    5  C   UNL     1      -7.856  13.339  68.311  1.00  0.00    -0.143 A  
HETATM    6  C   UNL     1      -8.013  14.709  68.599  1.00  0.00    -0.141 A  
HETATM    7  C   UNL     1      -7.225  15.367  69.554  1.00  0.00    -0.202 A  
ENDROOT
BRANCH   5   8
HETATM    8  N   UNL     1      -8.506  12.774  67.178  1.00  0.00    -0.190 NA 
BRANCH   8   9
HETATM    9  C   UNL     1      -8.994  13.690  66.104  1.00  0.00     0.258 C  
BRANCH   9  10
HETATM   10  C   UNL     1     -10.517  13.745  66.045  1.00  0.00    -0.297 C  
HETATM   11  C   UNL     1     -12.636  13.151  65.459  1.00  0.00    -0.408 C  
HETATM   12  N   UNL     1     -11.199  14.378  66.972  1.00  0.00    -0.317 NA 
HETATM   13  C   UNL     1     -12.622  14.220  66.557  1.00  0.00    -0.052 C  
HETATM   14  N   UNL     1     -11.254  13.163  65.040  1.00  0.00    -0.292 NA 
ENDBRANCH   9  10
ENDBRANCH   8   9
BRANCH   8  15
HETATM   15  C   UNL     1      -9.266  11.545  67.194  1.00  0.00    -0.169 A  
HETATM   16  C   UNL     1      -9.010  10.492  66.292  1.00  0.00    -0.174 A  
HETATM   17  C   UNL     1     -10.275  11.326  68.155  1.00  0.00    -0.196 A  
HETATM   18  C   UNL     1      -9.714   9.287  66.373  1.00  0.00    -0.258 A  
HETATM   19  C   UNL     1     -10.948  10.101  68.252  1.00  0.00    -0.299 A  
HETATM   20  O   UNL     1      -9.497   8.270  65.487  1.00  0.00    -0.425 OA 
HETATM   21  C   UNL     1     -10.661   9.076  67.362  1.00  0.00    -0.309 A  
HETATM   22  H   UNL     1      -9.976   7.451  65.542  1.00  0.00     0.000 HD 
ENDBRANCH   8  15
ENDBRANCH   5   8
TORSDOF 4
ENDMDL
MODEL      230
REMARK 921   NORMALIZED FREE ENERGY PREDICTED BY IDOCK:   -2.86 KCAL/MOL
REMARK 922        TOTAL FREE ENERGY PREDICTED BY IDOCK:   -4.27 KCAL/MOL
REMARK 923 INTER-LIGAND FREE ENERGY PREDICTED BY IDOCK:   -3.45 KCAL/MOL
REMARK 924 INTRA-LIGAND FREE ENERGY PREDICTED BY IDOCK:   -0.83 KCAL/MOL
REMARK 927      BINDING AFFINITY PREDICTED BY RF-SCORE:    0.00 PKD
ROOT
HETATM    1  C   UNL     1      -5.375  11.213  69.319  1.00  0.00    -0.040 C  
HETATM    2  C   UNL     1      -6.187   9.986  69.598  1.00  0.00    -0.049 A  
HETATM    3  C   UNL     1      -5.722   8.722  69.242  1.00  0.00    -0.035 A  
HETATM    4  C   UNL     1      -6.549   7.595  69.350  1.00  0.00    -0.039 A  
HETATM    5  C   UNL     1      -7.878   7.691  69.796  1.00  0.00    -0.110 A  
HETATM    6  C   UNL     1      -8.263   8.948  70.300  1.00  0.00    -0.134 A  
HETATM    7  C   UNL     1      -7.446  10.081  70.189  1.00  0.00    -0.176 A  
ENDROOT
BRANCH   5   8
HETATM    8  N   UNL     1      -8.830   6.635  69.718  1.00  0.00    -0.143 NA 
BRANCH   8   9
HETATM    9  C   UNL     1      -9.420   6.302  68.387  1.00  0.00    -0.118 C  
BRANCH   9  10
HETATM   10  C   UNL     1      -8.949   4.946  67.873  1.00  0.00    -0.109 C  
HETATM   11  C   UNL     1      -9.089   2.795  67.137  1.00  0.00    -0.165 C  
HETATM   12  N   UNL     1      -7.772   4.819  67.304  1.00  0.00    -0.090 NA 
HETATM   13  C   UNL     1      -7.680   3.371  66.963  1.00  0.00    -0.079 C  
HETATM   14  N   UNL     1      -9.698   3.797  67.980  1.00  0.00    -0.112 NA 
ENDBRANCH   9  10
ENDBRANCH   8   9
BRANCH   8  15
HETATM   15  C   UNL     1      -9.721   6.251  70.789  1.00  0.00    -0.180 A  
HETATM   16  C   UNL     1     -11.048   6.721  70.865  1.00  0.00    -0.322 A  
HETATM   17  C   UNL     1      -9.312   5.343  71.787  1.00  0.00    -0.170 A  
HETATM   18  C   UNL     1     -11.911   6.281  71.874  1.00  0.00    -0.286 A  
HETATM   19  C   UNL     1     -10.195   4.879  72.771  1.00  0.00    -0.227 A  
HETATM   20  O   UNL     1     -13.190   6.750  71.977  1.00  0.00    -0.531 OA 
HETATM   21  C   UNL     1     -11.502   5.344  72.809  1.00  0.00    -0.333 A  
HETATM   22  H   UNL     1     -13.776   6.452  72.662  1.00  0.00     0.000 HD 
ENDBRANCH   8  15
ENDBRANCH   5   8
TORSDOF 4
ENDMDL
MODEL      231
REMARK 921   NORMALIZED FREE ENERGY PREDICTED BY IDOCK:   -2.85 KCAL/MOL
REMARK 922        TOTAL FREE ENERGY PREDICTED BY IDOCK:   -4.26 KCAL/MOL
REMARK 923 INTER-LIGAND FREE ENERGY PREDICTED BY IDOCK:   -3.83 KCAL/MOL
REMARK 924 INTRA-LIGAND FREE ENERGY PREDICTED BY IDOCK:   -0.43 KCAL/MOL
REMARK 927      BINDING AFFINITY PREDICTED BY RF-SCORE:    0.00 PKD
ROOT
HETATM    1  C   UNL     1      -8.074   3.566  64.746  1.00  0.00    -0.090 C  
HETATM    2  C   UNL     1      -8.876   3.903  65.966  1.00  0.00    -0.123 A  
HETATM    3  C   UNL     1      -9.769   4.971  65.964  1.00  0.00    -0.194 A  
HETATM    4  C   UNL     1     -10.393   5.390  67.148  1.00  0.00    -0.288 A  
HETATM    5  C   UNL     1     -10.132   4.770  68.382  1.00  0.00    -0.041 A  
HETATM    6  C   UNL     1      -9.356   3.596  68.323  1.00  0.00    -0.228 A  
HETATM    7  C   UNL     1      -8.723   3.177  67.146  1.00  0.00    -0.137 A  
ENDROOT
BRANCH   5   8
HETATM    8  N   UNL     1     -10.554   5.280  69.643  1.00  0.00    -0.263 NA 
BRANCH   8   9
HETATM    9  C   UNL     1     -11.507   6.430  69.665  1.00  0.00    -0.378 C  
BRANCH   9  10
HETATM   10  C   UNL     1     -10.786   7.770  69.771  1.00  0.00    -0.236 C  
HETATM   11  C   UNL     1      -9.687   9.643  69.086  1.00  0.00    -0.178 C  
HETATM   12  N   UNL     1     -10.940   8.529  70.832  1.00  0.00    -0.243 NA 
HETATM   13  C   UNL     1     -10.079   9.716  70.565  1.00  0.00    -0.274 C  
HETATM   14  N   UNL     1      -9.942   8.252  68.798  1.00  0.00    -0.178 NA 
ENDBRANCH   9  10
ENDBRANCH   8   9
BRANCH   8  15
HETATM   15  C   UNL     1      -9.764   5.240  70.852  1.00  0.00    -0.184 A  
HETATM   16  C   UNL     1      -8.371   5.459  70.845  1.00  0.00    -0.118 A  
HETATM   17  C   UNL     1     -10.366   5.025  72.109  1.00  0.00    -0.276 A  
HETATM   18  C   UNL     1      -7.639   5.483  72.036  1.00  0.00    -0.100 A  
HETATM   19  C   UNL     1      -9.631   5.089  73.300  1.00  0.00    -0.153 A  
HETATM   20  O   UNL     1      -6.286   5.664  72.042  1.00  0.00    -0.040 OA 
HETATM   21  C   UNL     1      -8.264   5.326  73.263  1.00  0.00    -0.111 A  
HETATM   22  H   UNL     1      -5.789   5.680  72.852  1.00  0.00     0.000 HD 
ENDBRANCH   8  15
ENDBRANCH   5   8
TORSDOF 4
ENDMDL
MODEL      232
REMARK 921   NORMALIZED FREE ENERGY PREDICTED BY IDOCK:   -2.83 KCAL/MOL
REMARK 922        TOTAL FREE ENERGY PREDICTED BY IDOCK:   -4.24 KCAL/MOL
REMARK 923 INTER-LIGAND FREE ENERGY PREDICTED BY IDOCK:   -4.06 KCAL/MOL
REMARK 924 INTRA-LIGAND FREE ENERGY PREDICTED BY IDOCK:   -0.18 KCAL/MOL
REMARK 927      BINDING AFFINITY PREDICTED BY RF-SCORE:    0.00 PKD
ROOT
HETATM    1  C   UNL     1     -14.324   8.738  72.397  1.00  0.00    -0.419 C  
HETATM    2  C   UNL     1     -13.060   8.398  71.667  1.00  0.00    -0.355 A  
HETATM    3  C   UNL     1     -12.810   7.099  71.233  1.00  0.00    -0.399 A  
HETATM    4  C   UNL     1     -11.561   6.746  70.701  1.00  0.00    -0.422 A  
HETATM    5  C   UNL     1     -10.509   7.672  70.605  1.00  0.00    -0.216 A  
HETATM    6  C   UNL     1     -10.842   9.008  70.899  1.00  0.00    -0.323 A  
HETATM    7  C   UNL     1     -12.085   9.367  71.438  1.00  0.00    -0.442 A  
ENDROOT
BRANCH   5   8
HETATM    8  N   UNL     1      -9.163   7.329  70.288  1.00  0.00    -0.155 NA 
BRANCH   8   9
HETATM    9  C   UNL     1      -8.519   6.206  71.032  1.00  0.00    -0.128 C  
BRANCH   9  10
HETATM   10  C   UNL     1      -7.869   6.675  72.330  1.00  0.00    -0.099 C  
HETATM   11  C   UNL     1      -7.714   7.295  74.516  1.00  0.00    -0.139 C  
HETATM   12  N   UNL     1      -6.576   6.543  72.516  1.00  0.00    -0.062 NA 
HETATM   13  C   UNL     1      -6.336   7.122  73.868  1.00  0.00    -0.065 C  
HETATM   14  N   UNL     1      -8.573   7.260  73.357  1.00  0.00    -0.132 NA 
ENDBRANCH   9  10
ENDBRANCH   8   9
BRANCH   8  15
HETATM   15  C   UNL     1      -8.173   8.259  69.796  1.00  0.00    -0.121 A  
HETATM   16  C   UNL     1      -7.367   7.972  68.675  1.00  0.00    -0.089 A  
HETATM   17  C   UNL     1      -8.003   9.526  70.392  1.00  0.00    -0.200 A  
HETATM   18  C   UNL     1      -6.464   8.916  68.177  1.00  0.00    -0.060 A  
HETATM   19  C   UNL     1      -7.123  10.479  69.862  1.00  0.00    -0.148 A  
HETATM   20  O   UNL     1      -5.656   8.640  67.110  1.00  0.00    -0.037 OA 
HETATM   21  C   UNL     1      -6.357  10.175  68.746  1.00  0.00    -0.048 A  
HETATM   22  H   UNL     1      -5.042   9.282  66.772  1.00  0.00     0.000 HD 
ENDBRANCH   8  15
ENDBRANCH   5   8
TORSDOF 4
ENDMDL
MODEL      233
REMARK 921   NORMALIZED FREE ENERGY PREDICTED BY IDOCK:   -2.81 KCAL/MOL
REMARK 922        TOTAL FREE ENERGY PREDICTED BY IDOCK:   -4.22 KCAL/MOL
REMARK 923 INTER-LIGAND FREE ENERGY PREDICTED BY IDOCK:   -3.42 KCAL/MOL
REMARK 924 INTRA-LIGAND FREE ENERGY PREDICTED BY IDOCK:   -0.80 KCAL/MOL
REMARK 927      BINDING AFFINITY PREDICTED BY RF-SCORE:    0.00 PKD
ROOT
HETATM    1  C   UNL     1      -5.777  14.220  67.709  1.00  0.00    -0.069 C  
HETATM    2  C   UNL     1      -6.319  12.850  67.979  1.00  0.00    -0.109 A  
HETATM    3  C   UNL     1      -6.656  11.992  66.934  1.00  0.00    -0.048 A  
HETATM    4  C   UNL     1      -7.316  10.780  67.182  1.00  0.00    -0.101 A  
HETATM    5  C   UNL     1      -7.685  10.390  68.481  1.00  0.00    -0.101 A  
HETATM    6  C   UNL     1      -7.189  11.195  69.524  1.00  0.00    -0.058 A  
HETATM    7  C   UNL     1      -6.535  12.411  69.285  1.00  0.00    -0.107 A  
ENDROOT
BRANCH   5   8
HETATM    8  N   UNL     1      -8.544   9.294  68.777  1.00  0.00    -0.129 NA 
BRANCH   8   9
HETATM    9  C   UNL     1      -9.540   8.870  67.748  1.00  0.00    -0.147 C  
BRANCH   9  10
HETATM   10  C   UNL     1      -9.531   7.360  67.528  1.00  0.00    -0.138 C  
HETATM   11  C   UNL     1     -10.357   5.256  67.251  1.00  0.00    -0.199 C  
HETATM   12  N   UNL     1      -8.482   6.768  67.006  1.00  0.00    -0.113 NA 
HETATM   13  C   UNL     1      -8.852   5.324  66.972  1.00  0.00    -0.109 C  
HETATM   14  N   UNL     1     -10.585   6.543  67.865  1.00  0.00    -0.221 NA 
ENDBRANCH   9  10
ENDBRANCH   8   9
BRANCH   8  15
HETATM   15  C   UNL     1      -8.984   8.930  70.104  1.00  0.00    -0.172 A  
HETATM   16  C   UNL     1     -10.269   9.257  70.584  1.00  0.00    -0.335 A  
HETATM   17  C   UNL     1      -8.157   8.182  70.967  1.00  0.00    -0.103 A  
HETATM   18  C   UNL     1     -10.695   8.835  71.847  1.00  0.00    -0.359 A  
HETATM   19  C   UNL     1      -8.607   7.730  72.214  1.00  0.00    -0.173 A  
HETATM   20  O   UNL     1     -11.926   9.169  72.337  1.00  0.00    -0.278 OA 
HETATM   21  C   UNL     1      -9.883   8.051  72.652  1.00  0.00    -0.347 A  
HETATM   22  H   UNL     1     -12.215   8.882  73.195  1.00  0.00     0.000 HD 
ENDBRANCH   8  15
ENDBRANCH   5   8
TORSDOF 4
ENDMDL
MODEL      234
REMARK 921   NORMALIZED FREE ENERGY PREDICTED BY IDOCK:   -2.79 KCAL/MOL
REMARK 922        TOTAL FREE ENERGY PREDICTED BY IDOCK:   -4.19 KCAL/MOL
REMARK 923 INTER-LIGAND FREE ENERGY PREDICTED BY IDOCK:   -3.32 KCAL/MOL
REMARK 924 INTRA-LIGAND FREE ENERGY PREDICTED BY IDOCK:   -0.87 KCAL/MOL
REMARK 927      BINDING AFFINITY PREDICTED BY RF-SCORE:    0.00 PKD
ROOT
HETATM    1  C   UNL     1      -5.754  12.232  68.513  1.00  0.00    -0.053 C  
HETATM    2  C   UNL     1      -6.626  11.101  68.964  1.00  0.00    -0.075 A  
HETATM    3  C   UNL     1      -6.238  10.270  70.012  1.00  0.00    -0.088 A  
HETATM    4  C   UNL     1      -6.971   9.115  70.324  1.00  0.00    -0.059 A  
HETATM    5  C   UNL     1      -8.105   8.736  69.587  1.00  0.00    -0.101 A  
HETATM    6  C   UNL     1      -8.564   9.677  68.645  1.00  0.00    -0.120 A  
HETATM    7  C   UNL     1      -7.834  10.829  68.322  1.00  0.00    -0.115 A  
ENDROOT
BRANCH   5   8
HETATM    8  N   UNL     1      -8.757   7.476  69.705  1.00  0.00    -0.140 NA 
BRANCH   8   9
HETATM    9  C   UNL     1      -9.082   6.966  71.071  1.00  0.00    -0.155 C  
BRANCH   9  10
HETATM   10  C   UNL     1     -10.528   7.259  71.463  1.00  0.00    -0.202 C  
HETATM   11  C   UNL     1     -12.696   6.842  72.021  1.00  0.00    -0.189 C  
HETATM   12  N   UNL     1     -10.854   8.413  71.999  1.00  0.00    -0.295 NA 
HETATM   13  C   UNL     1     -12.325   8.315  72.218  1.00  0.00    -0.356 C  
HETATM   14  N   UNL     1     -11.556   6.365  71.275  1.00  0.00    -0.315 NA 
ENDBRANCH   9  10
ENDBRANCH   8   9
BRANCH   8  15
HETATM   15  C   UNL     1      -8.615   6.386  68.767  1.00  0.00    -0.123 A  
HETATM   16  C   UNL     1      -9.699   5.909  68.002  1.00  0.00    -0.132 A  
HETATM   17  C   UNL     1      -7.363   5.778  68.540  1.00  0.00    -0.084 A  
HETATM   18  C   UNL     1      -9.522   4.900  67.051  1.00  0.00    -0.148 A  
HETATM   19  C   UNL     1      -7.187   4.794  67.558  1.00  0.00    -0.070 A  
HETATM   20  O   UNL     1     -10.568   4.408  66.324  1.00  0.00    -0.397 OA 
HETATM   21  C   UNL     1      -8.269   4.359  66.807  1.00  0.00    -0.102 A  
HETATM   22  H   UNL     1     -10.447   3.722  65.678  1.00  0.00     0.000 HD 
ENDBRANCH   8  15
ENDBRANCH   5   8
TORSDOF 4
ENDMDL
MODEL      235
REMARK 921   NORMALIZED FREE ENERGY PREDICTED BY IDOCK:   -2.74 KCAL/MOL
REMARK 922        TOTAL FREE ENERGY PREDICTED BY IDOCK:   -4.12 KCAL/MOL
REMARK 923 INTER-LIGAND FREE ENERGY PREDICTED BY IDOCK:   -4.41 KCAL/MOL
REMARK 924 INTRA-LIGAND FREE ENERGY PREDICTED BY IDOCK:    0.28 KCAL/MOL
REMARK 927      BINDING AFFINITY PREDICTED BY RF-SCORE:    0.00 PKD
ROOT
HETATM    1  C   UNL     1     -14.378   8.364  72.091  1.00  0.00    -0.520 C  
HETATM    2  C   UNL     1     -13.008   8.171  71.517  1.00  0.00    -0.316 A  
HETATM    3  C   UNL     1     -12.147   9.251  71.335  1.00  0.00    -0.424 A  
HETATM    4  C   UNL     1     -10.935   9.097  70.647  1.00  0.00    -0.319 A  
HETATM    5  C   UNL     1     -10.547   7.864  70.095  1.00  0.00    -0.237 A  
HETATM    6  C   UNL     1     -11.355   6.762  70.436  1.00  0.00    -0.399 A  
HETATM    7  C   UNL     1     -12.572   6.909  71.116  1.00  0.00    -0.366 A  
ENDROOT
BRANCH   5   8
HETATM    8  N   UNL     1      -9.451   7.692  69.204  1.00  0.00    -0.154 NA 
BRANCH   8   9
HETATM    9  C   UNL     1      -8.705   6.398  69.232  1.00  0.00    -0.125 C  
BRANCH   9  10
HETATM   10  C   UNL     1      -9.039   5.517  68.032  1.00  0.00    -0.108 C  
HETATM   11  C   UNL     1      -9.314   3.611  66.816  1.00  0.00    -0.190 C  
HETATM   12  N   UNL     1      -9.800   5.970  67.062  1.00  0.00    -0.141 NA 
HETATM   13  C   UNL     1      -9.874   4.840  66.092  1.00  0.00    -0.219 C  
HETATM   14  N   UNL     1      -8.570   4.232  67.886  1.00  0.00    -0.098 NA 
ENDBRANCH   9  10
ENDBRANCH   8   9
BRANCH   8  15
HETATM   15  C   UNL     1      -8.611   8.762  68.717  1.00  0.00    -0.137 A  
HETATM   16  C   UNL     1      -7.580   8.539  67.781  1.00  0.00    -0.098 A  
HETATM   17  C   UNL     1      -8.822  10.096  69.123  1.00  0.00    -0.179 A  
HETATM   18  C   UNL     1      -6.826   9.602  67.274  1.00  0.00    -0.083 A  
HETATM   19  C   UNL     1      -8.087  11.158  68.580  1.00  0.00    -0.150 A  
HETATM   20  O   UNL     1      -5.805   9.398  66.390  1.00  0.00    -0.056 OA 
HETATM   21  C   UNL     1      -7.091  10.910  67.647  1.00  0.00    -0.087 A  
HETATM   22  H   UNL     1      -5.292  10.120  66.046  1.00  0.00     0.000 HD 
ENDBRANCH   8  15
ENDBRANCH   5   8
TORSDOF 4
ENDMDL
MODEL      236
REMARK 921   NORMALIZED FREE ENERGY PREDICTED BY IDOCK:   -2.74 KCAL/MOL
REMARK 922        TOTAL FREE ENERGY PREDICTED BY IDOCK:   -4.12 KCAL/MOL
REMARK 923 INTER-LIGAND FREE ENERGY PREDICTED BY IDOCK:   -3.64 KCAL/MOL
REMARK 924 INTRA-LIGAND FREE ENERGY PREDICTED BY IDOCK:   -0.49 KCAL/MOL
REMARK 927      BINDING AFFINITY PREDICTED BY RF-SCORE:    0.00 PKD
ROOT
HETATM    1  C   UNL     1      -8.959   2.089  71.533  1.00  0.00    -0.133 C  
HETATM    2  C   UNL     1      -9.056   3.375  70.771  1.00  0.00    -0.183 A  
HETATM    3  C   UNL     1      -9.937   4.378  71.166  1.00  0.00    -0.243 A  
HETATM    4  C   UNL     1     -10.149   5.507  70.362  1.00  0.00    -0.297 A  
HETATM    5  C   UNL     1      -9.504   5.667  69.124  1.00  0.00    -0.126 A  
HETATM    6  C   UNL     1      -8.502   4.722  68.832  1.00  0.00    -0.087 A  
HETATM    7  C   UNL     1      -8.290   3.586  69.626  1.00  0.00    -0.079 A  
ENDROOT
BRANCH   5   8
HETATM    8  N   UNL     1      -9.838   6.666  68.167  1.00  0.00    -0.130 NA 
BRANCH   8   9
HETATM    9  C   UNL     1      -9.491   6.426  66.734  1.00  0.00    -0.150 C  
BRANCH   9  10
HETATM   10  C   UNL     1      -8.336   7.308  66.267  1.00  0.00    -0.129 C  
HETATM   11  C   UNL     1      -6.190   7.922  65.816  1.00  0.00    -0.042 C  
HETATM   12  N   UNL     1      -8.551   8.313  65.451  1.00  0.00    -0.168 NA 
HETATM   13  C   UNL     1      -7.205   8.922  65.251  1.00  0.00    -0.088 C  
HETATM   14  N   UNL     1      -7.034   7.120  66.670  1.00  0.00    -0.074 NA 
ENDBRANCH   9  10
ENDBRANCH   8   9
BRANCH   8  15
HETATM   15  C   UNL     1      -9.917   8.081  68.449  1.00  0.00    -0.185 A  
HETATM   16  C   UNL     1     -10.986   8.879  67.992  1.00  0.00     0.040 A  
HETATM   17  C   UNL     1      -8.943   8.721  69.244  1.00  0.00    -0.144 A  
HETATM   18  C   UNL     1     -11.075  10.231  68.337  1.00  0.00    -0.247 A  
HETATM   19  C   UNL     1      -9.061  10.066  69.616  1.00  0.00    -0.230 A  
HETATM   20  O   UNL     1     -12.089  11.022  67.876  1.00  0.00    -0.721 OA 
HETATM   21  C   UNL     1     -10.135  10.822  69.166  1.00  0.00    -0.224 A  
HETATM   22  H   UNL     1     -12.149  11.941  68.110  1.00  0.00     0.000 HD 
ENDBRANCH   8  15
ENDBRANCH   5   8
TORSDOF 4
ENDMDL
MODEL      237
REMARK 921   NORMALIZED FREE ENERGY PREDICTED BY IDOCK:   -2.69 KCAL/MOL
REMARK 922        TOTAL FREE ENERGY PREDICTED BY IDOCK:   -4.07 KCAL/MOL
REMARK 923 INTER-LIGAND FREE ENERGY PREDICTED BY IDOCK:   -3.91 KCAL/MOL
REMARK 924 INTRA-LIGAND FREE ENERGY PREDICTED BY IDOCK:   -0.16 KCAL/MOL
REMARK 927      BINDING AFFINITY PREDICTED BY RF-SCORE:    0.00 PKD
ROOT
HETATM    1  C   UNL     1      -9.162   4.831  65.269  1.00  0.00    -0.155 C  
HETATM    2  C   UNL     1      -9.246   6.126  66.017  1.00  0.00    -0.116 A  
HETATM    3  C   UNL     1     -10.470   6.624  66.456  1.00  0.00    -0.117 A  
HETATM    4  C   UNL     1     -10.569   7.910  67.005  1.00  0.00    -0.381 A  
HETATM    5  C   UNL     1      -9.453   8.756  67.117  1.00  0.00    -0.162 A  
HETATM    6  C   UNL     1      -8.209   8.167  66.818  1.00  0.00    -0.107 A  
HETATM    7  C   UNL     1      -8.102   6.885  66.261  1.00  0.00    -0.112 A  
ENDROOT
BRANCH   5   8
HETATM    8  N   UNL     1      -9.521  10.137  67.454  1.00  0.00    -0.151 NA 
BRANCH   8   9
HETATM    9  C   UNL     1     -10.813  10.859  67.248  1.00  0.00    -0.287 C  
BRANCH   9  10
HETATM   10  C   UNL     1     -10.899  11.498  65.866  1.00  0.00    -0.260 C  
HETATM   11  C   UNL     1     -11.178  11.634  63.609  1.00  0.00    -0.411 C  
HETATM   12  N   UNL     1     -11.124  12.786  65.738  1.00  0.00    -0.279 NA 
HETATM   13  C   UNL     1     -11.120  13.018  64.266  1.00  0.00    -0.385 C  
HETATM   14  N   UNL     1     -10.740  10.791  64.697  1.00  0.00    -0.208 NA 
ENDBRANCH   9  10
ENDBRANCH   8   9
BRANCH   8  15
HETATM   15  C   UNL     1      -8.404  11.052  67.403  1.00  0.00    -0.126 A  
HETATM   16  C   UNL     1      -8.274  12.128  68.305  1.00  0.00    -0.168 A  
HETATM   17  C   UNL     1      -7.361  10.878  66.469  1.00  0.00    -0.142 A  
HETATM   18  C   UNL     1      -7.149  12.958  68.279  1.00  0.00    -0.102 A  
HETATM   19  C   UNL     1      -6.221  11.691  66.476  1.00  0.00    -0.011 A  
HETATM   20  O   UNL     1      -7.024  14.021  69.127  1.00  0.00    -0.110 OA 
HETATM   21  C   UNL     1      -6.111  12.730  67.389  1.00  0.00    -0.123 A  
HETATM   22  H   UNL     1      -6.259  14.585  69.109  1.00  0.00     0.000 HD 
ENDBRANCH   8  15
ENDBRANCH   5   8
TORSDOF 4
ENDMDL
MODEL      238
REMARK 921   NORMALIZED FREE ENERGY PREDICTED BY IDOCK:   -2.63 KCAL/MOL
REMARK 922        TOTAL FREE ENERGY PREDICTED BY IDOCK:   -4.00 KCAL/MOL
REMARK 923 INTER-LIGAND FREE ENERGY PREDICTED BY IDOCK:   -4.97 KCAL/MOL
REMARK 924 INTRA-LIGAND FREE ENERGY PREDICTED BY IDOCK:    0.98 KCAL/MOL
REMARK 927      BINDING AFFINITY PREDICTED BY RF-SCORE:    0.00 PKD
ROOT
HETATM    1  C   UNL     1      -9.281   6.912  66.610  1.00  0.00    -0.185 C  
HETATM    2  C   UNL     1      -9.151   8.401  66.707  1.00  0.00    -0.192 A  
HETATM    3  C   UNL     1      -9.959   9.137  67.571  1.00  0.00    -0.258 A  
HETATM    4  C   UNL     1      -9.954  10.539  67.541  1.00  0.00    -0.204 A  
HETATM    5  C   UNL     1      -9.159  11.258  66.633  1.00  0.00    -0.179 A  
HETATM    6  C   UNL     1      -8.238  10.495  65.890  1.00  0.00    -0.152 A  
HETATM    7  C   UNL     1      -8.242   9.093  65.908  1.00  0.00    -0.113 A  
ENDROOT
BRANCH   5   8
HETATM    8  N   UNL     1      -9.272  12.658  66.399  1.00  0.00    -0.202 NA 
BRANCH   8   9
HETATM    9  C   UNL     1      -8.438  13.588  67.219  1.00  0.00    -0.193 C  
BRANCH   9  10
HETATM   10  C   UNL     1      -7.229  12.885  67.831  1.00  0.00    -0.125 C  
HETATM   11  C   UNL     1      -6.006  11.211  68.772  1.00  0.00    -0.043 C  
HETATM   12  N   UNL     1      -6.016  13.342  67.624  1.00  0.00    -0.266 NA 
HETATM   13  C   UNL     1      -5.136  12.412  68.386  1.00  0.00    -0.055 C  
HETATM   14  N   UNL     1      -7.330  11.768  68.627  1.00  0.00    -0.110 NA 
ENDBRANCH   9  10
ENDBRANCH   8   9
BRANCH   8  15
HETATM   15  C   UNL     1     -10.465  13.319  65.922  1.00  0.00    -0.285 A  
HETATM   16  C   UNL     1     -10.413  14.406  65.026  1.00  0.00    -0.454 A  
HETATM   17  C   UNL     1     -11.747  12.868  66.299  1.00  0.00    -0.457 A  
HETATM   18  C   UNL     1     -11.584  14.984  64.526  1.00  0.00    -0.343 A  
HETATM   19  C   UNL     1     -12.914  13.429  65.763  1.00  0.00    -0.062 A  
HETATM   20  O   UNL     1     -11.549  16.056  63.681  1.00  0.00    -1.116 OA 
HETATM   21  C   UNL     1     -12.831  14.486  64.868  1.00  0.00     0.020 A  
HETATM   22  H   UNL     1     -12.345  16.449  63.341  1.00  0.00     0.000 HD 
ENDBRANCH   8  15
ENDBRANCH   5   8
TORSDOF 4
ENDMDL
MODEL      239
REMARK 921   NORMALIZED FREE ENERGY PREDICTED BY IDOCK:   -2.62 KCAL/MOL
REMARK 922        TOTAL FREE ENERGY PREDICTED BY IDOCK:   -3.98 KCAL/MOL
REMARK 923 INTER-LIGAND FREE ENERGY PREDICTED BY IDOCK:   -3.15 KCAL/MOL
REMARK 924 INTRA-LIGAND FREE ENERGY PREDICTED BY IDOCK:   -0.83 KCAL/MOL
REMARK 927      BINDING AFFINITY PREDICTED BY RF-SCORE:    0.00 PKD
ROOT
HETATM    1  C   UNL     1      -7.867  10.741  66.606  1.00  0.00    -0.140 C  
HETATM    2  C   UNL     1      -8.395   9.504  67.265  1.00  0.00    -0.125 A  
HETATM    3  C   UNL     1      -7.692   8.884  68.295  1.00  0.00    -0.096 A  
HETATM    4  C   UNL     1      -8.098   7.639  68.797  1.00  0.00    -0.127 A  
HETATM    5  C   UNL     1      -9.210   6.957  68.274  1.00  0.00    -0.123 A  
HETATM    6  C   UNL     1      -9.991   7.680  67.352  1.00  0.00    -0.252 A  
HETATM    7  C   UNL     1      -9.587   8.920  66.840  1.00  0.00    -0.248 A  
ENDROOT
BRANCH   5   8
HETATM    8  N   UNL     1      -9.541   5.606  68.580  1.00  0.00    -0.125 NA 
BRANCH   8   9
HETATM    9  C   UNL     1     -10.157   4.763  67.512  1.00  0.00    -0.106 C  
BRANCH   9  10
HETATM   10  C   UNL     1      -9.108   4.152  66.587  1.00  0.00    -0.135 C  
HETATM   11  C   UNL     1      -8.160   3.424  64.648  1.00  0.00    -0.090 C  
HETATM   12  N   UNL     1      -7.849   4.090  66.955  1.00  0.00    -0.095 NA 
HETATM   13  C   UNL     1      -7.162   3.426  65.811  1.00  0.00    -0.067 C  
HETATM   14  N   UNL     1      -9.405   3.630  65.350  1.00  0.00    -0.153 NA 
ENDBRANCH   9  10
ENDBRANCH   8   9
BRANCH   8  15
HETATM   15  C   UNL     1      -9.908   5.128  69.892  1.00  0.00    -0.219 A  
HETATM   16  C   UNL     1      -9.216   4.077  70.528  1.00  0.00    -0.198 A  
HETATM   17  C   UNL     1     -10.955   5.730  70.621  1.00  0.00    -0.319 A  
HETATM   18  C   UNL     1      -9.547   3.677  71.827  1.00  0.00    -0.151 A  
HETATM   19  C   UNL     1     -11.254   5.348  71.936  1.00  0.00    -0.126 A  
HETATM   20  O   UNL     1      -8.905   2.642  72.443  1.00  0.00    -0.073 OA 
HETATM   21  C   UNL     1     -10.542   4.324  72.543  1.00  0.00    -0.183 A  
HETATM   22  H   UNL     1      -9.130   2.370  73.326  1.00  0.00     0.000 HD 
ENDBRANCH   8  15
ENDBRANCH   5   8
TORSDOF 4
ENDMDL
MODEL      240
REMARK 921   NORMALIZED FREE ENERGY PREDICTED BY IDOCK:   -2.55 KCAL/MOL
REMARK 922        TOTAL FREE ENERGY PREDICTED BY IDOCK:   -3.90 KCAL/MOL
REMARK 923 INTER-LIGAND FREE ENERGY PREDICTED BY IDOCK:   -3.12 KCAL/MOL
REMARK 924 INTRA-LIGAND FREE ENERGY PREDICTED BY IDOCK:   -0.78 KCAL/MOL
REMARK 927      BINDING AFFINITY PREDICTED BY RF-SCORE:    0.00 PKD
ROOT
HETATM    1  C   UNL     1     -12.024  11.857  63.312  1.00  0.00    -0.441 C  
HETATM    2  C   UNL     1     -11.447  12.510  64.531  1.00  0.00    -0.391 A  
HETATM    3  C   UNL     1     -12.142  13.512  65.205  1.00  0.00    -0.432 A  
HETATM    4  C   UNL     1     -11.534  14.237  66.240  1.00  0.00    -0.360 A  
HETATM    5  C   UNL     1     -10.203  14.004  66.626  1.00  0.00    -0.275 A  
HETATM    6  C   UNL     1      -9.586  12.882  66.041  1.00  0.00    -0.172 A  
HETATM    7  C   UNL     1     -10.183  12.157  65.000  1.00  0.00    -0.312 A  
ENDROOT
BRANCH   5   8
HETATM    8  N   UNL     1      -9.462  14.844  67.505  1.00  0.00    -0.198 NA 
BRANCH   8   9
HETATM    9  C   UNL     1      -8.000  14.590  67.670  1.00  0.00    -0.177 C  
BRANCH   9  10
HETATM   10  C   UNL     1      -7.159  15.801  67.276  1.00  0.00    -0.210 C  
HETATM   11  C   UNL     1      -6.457  17.578  66.036  1.00  0.00    -0.192 C  
HETATM   12  N   UNL     1      -6.455  16.447  68.176  1.00  0.00    -0.124 NA 
HETATM   13  C   UNL     1      -5.778  17.530  67.409  1.00  0.00    -0.139 C  
HETATM   14  N   UNL     1      -7.078  16.275  65.987  1.00  0.00     0.482 NA 
ENDBRANCH   9  10
ENDBRANCH   8   9
BRANCH   8  15
HETATM   15  C   UNL     1     -10.009  15.497  68.672  1.00  0.00    -0.208 A  
HETATM   16  C   UNL     1     -10.436  14.775  69.805  1.00  0.00    -0.087 A  
HETATM   17  C   UNL     1     -10.094  16.903  68.747  1.00  0.00    -0.295 A  
HETATM   18  C   UNL     1     -10.897  15.435  70.948  1.00  0.00    -0.207 A  
HETATM   19  C   UNL     1     -10.521  17.556  69.910  1.00  0.00     0.515 A  
HETATM   20  O   UNL     1     -11.341  14.748  72.042  1.00  0.00    -0.438 OA 
HETATM   21  C   UNL     1     -10.917  16.819  71.017  1.00  0.00     0.544 A  
HETATM   22  H   UNL     1     -11.655  15.196  72.819  1.00  0.00     0.000 HD 
ENDBRANCH   8  15
ENDBRANCH   5   8
TORSDOF 4
ENDMDL
MODEL      241
REMARK 921   NORMALIZED FREE ENERGY PREDICTED BY IDOCK:   -2.45 KCAL/MOL
REMARK 922        TOTAL FREE ENERGY PREDICTED BY IDOCK:   -3.77 KCAL/MOL
REMARK 923 INTER-LIGAND FREE ENERGY PREDICTED BY IDOCK:   -3.06 KCAL/MOL
REMARK 924 INTRA-LIGAND FREE ENERGY PREDICTED BY IDOCK:   -0.71 KCAL/MOL
REMARK 927      BINDING AFFINITY PREDICTED BY RF-SCORE:    0.00 PKD
ROOT
HETATM    1  C   UNL     1     -13.018   9.061  71.931  1.00  0.00    -0.451 C  
HETATM    2  C   UNL     1     -11.859   8.454  71.200  1.00  0.00    -0.314 A  
HETATM    3  C   UNL     1     -10.796   9.240  70.764  1.00  0.00    -0.349 A  
HETATM    4  C   UNL     1      -9.797   8.704  69.937  1.00  0.00    -0.185 A  
HETATM    5  C   UNL     1      -9.836   7.370  69.498  1.00  0.00    -0.165 A  
HETATM    6  C   UNL     1     -10.828   6.563  70.085  1.00  0.00    -0.336 A  
HETATM    7  C   UNL     1     -11.834   7.092  70.905  1.00  0.00    -0.401 A  
ENDROOT
BRANCH   5   8
HETATM    8  N   UNL     1      -8.987   6.831  68.490  1.00  0.00    -0.122 NA 
BRANCH   8   9
HETATM    9  C   UNL     1      -7.808   6.015  68.911  1.00  0.00    -0.096 C  
BRANCH   9  10
HETATM   10  C   UNL     1      -7.068   6.642  70.089  1.00  0.00    -0.075 C  
HETATM   11  C   UNL     1      -6.052   8.256  71.334  1.00  0.00    -0.038 C  
HETATM   12  N   UNL     1      -7.076   6.063  71.268  1.00  0.00    -0.072 NA 
HETATM   13  C   UNL     1      -6.246   6.957  72.124  1.00  0.00    -0.042 C  
HETATM   14  N   UNL     1      -6.355   7.814  69.993  1.00  0.00    -0.033 NA 
ENDBRANCH   9  10
ENDBRANCH   8   9
BRANCH   8  15
HETATM   15  C   UNL     1      -8.763   7.432  67.195  1.00  0.00    -0.121 A  
HETATM   16  C   UNL     1      -9.765   8.162  66.524  1.00  0.00    -0.309 A  
HETATM   17  C   UNL     1      -7.505   7.353  66.563  1.00  0.00    -0.084 A  
HETATM   18  C   UNL     1      -9.503   8.792  65.304  1.00  0.00     0.168 A  
HETATM   19  C   UNL     1      -7.241   8.019  65.359  1.00  0.00    -0.064 A  
HETATM   20  O   UNL     1     -10.472   9.478  64.629  1.00  0.00     0.189 OA 
HETATM   21  C   UNL     1      -8.242   8.747  64.731  1.00  0.00    -0.163 A  
HETATM   22  H   UNL     1     -10.294   9.905  63.799  1.00  0.00     0.000 HD 
ENDBRANCH   8  15
ENDBRANCH   5   8
TORSDOF 4
ENDMDL
MODEL      242
REMARK 921   NORMALIZED FREE ENERGY PREDICTED BY IDOCK:   -2.34 KCAL/MOL
REMARK 922        TOTAL FREE ENERGY PREDICTED BY IDOCK:   -3.64 KCAL/MOL
REMARK 923 INTER-LIGAND FREE ENERGY PREDICTED BY IDOCK:   -2.88 KCAL/MOL
REMARK 924 INTRA-LIGAND FREE ENERGY PREDICTED BY IDOCK:   -0.75 KCAL/MOL
REMARK 927      BINDING AFFINITY PREDICTED BY RF-SCORE:    0.00 PKD
ROOT
HETATM    1  C   UNL     1      -5.198  16.241  67.580  1.00  0.00    -0.156 C  
HETATM    2  C   UNL     1      -5.794  14.966  68.093  1.00  0.00    -0.141 A  
HETATM    3  C   UNL     1      -5.192  13.737  67.834  1.00  0.00    -0.074 A  
HETATM    4  C   UNL     1      -5.834  12.537  68.168  1.00  0.00    -0.070 A  
HETATM    5  C   UNL     1      -7.111  12.517  68.754  1.00  0.00    -0.092 A  
HETATM    6  C   UNL     1      -7.619  13.769  69.151  1.00  0.00     0.103 A  
HETATM    7  C   UNL     1      -6.988  14.974  68.814  1.00  0.00    -0.107 A  
ENDROOT
BRANCH   5   8
HETATM    8  N   UNL     1      -7.906  11.347  68.912  1.00  0.00    -0.126 NA 
BRANCH   8   9
HETATM    9  C   UNL     1      -7.294  10.021  68.595  1.00  0.00    -0.081 C  
BRANCH   9  10
HETATM   10  C   UNL     1      -6.757   9.324  69.842  1.00  0.00    -0.050 C  
HETATM   11  C   UNL     1      -5.559   7.842  71.088  1.00  0.00    -0.034 C  
HETATM   12  N   UNL     1      -6.790   9.925  71.009  1.00  0.00    -0.336 NA 
HETATM   13  C   UNL     1      -6.202   8.932  71.952  1.00  0.00    -0.069 C  
HETATM   14  N   UNL     1      -6.229   8.054  69.827  1.00  0.00    -0.029 NA 
ENDBRANCH   9  10
ENDBRANCH   8   9
BRANCH   8  15
HETATM   15  C   UNL     1      -9.342  11.302  68.764  1.00  0.00    -0.128 A  
HETATM   16  C   UNL     1      -9.986  11.692  67.572  1.00  0.00    -0.202 A  
HETATM   17  C   UNL     1     -10.167  10.815  69.800  1.00  0.00    -0.017 A  
HETATM   18  C   UNL     1     -11.372  11.575  67.430  1.00  0.00    -0.298 A  
HETATM   19  C   UNL     1     -11.550  10.666  69.634  1.00  0.00    -0.368 A  
HETATM   20  O   UNL     1     -12.012  11.976  66.292  1.00  0.00    -0.596 OA 
HETATM   21  C   UNL     1     -12.153  11.040  68.442  1.00  0.00    -0.009 A  
HETATM   22  H   UNL     1     -12.954  11.897  66.196  1.00  0.00     0.000 HD 
ENDBRANCH   8  15
ENDBRANCH   5   8
TORSDOF 4
ENDMDL
MODEL      243
REMARK 921   NORMALIZED FREE ENERGY PREDICTED BY IDOCK:   -2.16 KCAL/MOL
REMARK 922        TOTAL FREE ENERGY PREDICTED BY IDOCK:   -3.42 KCAL/MOL
REMARK 923 INTER-LIGAND FREE ENERGY PREDICTED BY IDOCK:   -2.57 KCAL/MOL
REMARK 924 INTRA-LIGAND FREE ENERGY PREDICTED BY IDOCK:   -0.85 KCAL/MOL
REMARK 927      BINDING AFFINITY PREDICTED BY RF-SCORE:    0.00 PKD
ROOT
HETATM    1  C   UNL     1      -5.754  12.232  68.513  1.00  0.00    -0.053 C  
HETATM    2  C   UNL     1      -6.626  11.101  68.964  1.00  0.00    -0.075 A  
HETATM    3  C   UNL     1      -6.238  10.270  70.012  1.00  0.00    -0.088 A  
HETATM    4  C   UNL     1      -6.971   9.115  70.324  1.00  0.00    -0.059 A  
HETATM    5  C   UNL     1      -8.105   8.736  69.587  1.00  0.00    -0.101 A  
HETATM    6  C   UNL     1      -8.564   9.677  68.645  1.00  0.00    -0.120 A  
HETATM    7  C   UNL     1      -7.834  10.829  68.322  1.00  0.00    -0.115 A  
ENDROOT
BRANCH   5   8
HETATM    8  N   UNL     1      -8.757   7.476  69.705  1.00  0.00    -0.140 NA 
BRANCH   8   9
HETATM    9  C   UNL     1      -8.950   6.653  68.473  1.00  0.00    -0.120 C  
BRANCH   9  10
HETATM   10  C   UNL     1      -7.868   5.588  68.319  1.00  0.00    -0.089 C  
HETATM   11  C   UNL     1      -6.945   3.510  68.198  1.00  0.00    -0.050 C  
HETATM   12  N   UNL     1      -6.724   5.877  67.743  1.00  0.00    -0.056 NA 
HETATM   13  C   UNL     1      -5.950   4.605  67.800  1.00  0.00    -0.023 C  
HETATM   14  N   UNL     1      -8.011   4.297  68.771  1.00  0.00    -0.072 NA 
ENDBRANCH   9  10
ENDBRANCH   8   9
BRANCH   8  15
HETATM   15  C   UNL     1      -9.753   7.156  70.702  1.00  0.00    -0.175 A  
HETATM   16  C   UNL     1      -9.537   6.173  71.689  1.00  0.00    -0.166 A  
HETATM   17  C   UNL     1     -10.977   7.854  70.759  1.00  0.00    -0.259 A  
HETATM   18  C   UNL     1     -10.490   5.930  72.684  1.00  0.00    -0.206 A  
HETATM   19  C   UNL     1     -11.908   7.631  71.782  1.00  0.00    -0.324 A  
HETATM   20  O   UNL     1     -10.307   4.960  73.629  1.00  0.00    -0.175 OA 
HETATM   21  C   UNL     1     -11.659   6.670  72.752  1.00  0.00    -0.100 A  
HETATM   22  H   UNL     1     -10.954   4.795  74.304  1.00  0.00     0.000 HD 
ENDBRANCH   8  15
ENDBRANCH   5   8
TORSDOF 4
ENDMDL
MODEL      244
REMARK 921   NORMALIZED FREE ENERGY PREDICTED BY IDOCK:   -2.14 KCAL/MOL
REMARK 922        TOTAL FREE ENERGY PREDICTED BY IDOCK:   -3.39 KCAL/MOL
REMARK 923 INTER-LIGAND FREE ENERGY PREDICTED BY IDOCK:   -2.67 KCAL/MOL
REMARK 924 INTRA-LIGAND FREE ENERGY PREDICTED BY IDOCK:   -0.71 KCAL/MOL
REMARK 927      BINDING AFFINITY PREDICTED BY RF-SCORE:    0.00 PKD
ROOT
HETATM    1  C   UNL     1      -7.481   2.112  70.126  1.00  0.00    -0.039 C  
HETATM    2  C   UNL     1      -7.670   3.213  69.128  1.00  0.00    -0.048 A  
HETATM    3  C   UNL     1      -8.785   4.046  69.181  1.00  0.00    -0.127 A  
HETATM    4  C   UNL     1      -9.048   4.964  68.154  1.00  0.00    -0.134 A  
HETATM    5  C   UNL     1      -8.219   5.068  67.024  1.00  0.00    -0.107 A  
HETATM    6  C   UNL     1      -7.018   4.334  67.078  1.00  0.00    -0.063 A  
HETATM    7  C   UNL     1      -6.753   3.409  68.097  1.00  0.00    -0.045 A  
ENDROOT
BRANCH   5   8
HETATM    8  N   UNL     1      -8.544   5.811  65.854  1.00  0.00    -0.141 NA 
BRANCH   8   9
HETATM    9  C   UNL     1      -8.053   5.314  64.534  1.00  0.00    -0.120 C  
BRANCH   9  10
HETATM   10  C   UNL     1      -9.083   4.433  63.833  1.00  0.00    -0.138 C  
HETATM   11  C   UNL     1     -10.607   2.762  63.563  1.00  0.00    -0.213 C  
HETATM   12  N   UNL     1      -9.703   4.857  62.756  1.00  0.00     0.182 NA 
HETATM   13  C   UNL     1     -10.595   3.726  62.373  1.00  0.00    -0.198 C  
HETATM   14  N   UNL     1      -9.411   3.168  64.263  1.00  0.00    -0.136 NA 
ENDBRANCH   9  10
ENDBRANCH   8   9
BRANCH   8  15
HETATM   15  C   UNL     1      -8.762   7.239  65.820  1.00  0.00    -0.109 A  
HETATM   16  C   UNL     1      -7.876   8.117  65.163  1.00  0.00    -0.118 A  
HETATM   17  C   UNL     1      -9.907   7.815  66.408  1.00  0.00    -0.198 A  
HETATM   18  C   UNL     1      -8.144   9.487  65.087  1.00  0.00    -0.126 A  
HETATM   19  C   UNL     1     -10.187   9.183  66.293  1.00  0.00    -0.257 A  
HETATM   20  O   UNL     1      -7.280  10.354  64.479  1.00  0.00    -0.280 OA 
HETATM   21  C   UNL     1      -9.306  10.020  65.623  1.00  0.00    -0.257 A  
HETATM   22  H   UNL     1      -7.463  11.285  64.428  1.00  0.00     0.000 HD 
ENDBRANCH   8  15
ENDBRANCH   5   8
TORSDOF 4
ENDMDL
MODEL      245
REMARK 921   NORMALIZED FREE ENERGY PREDICTED BY IDOCK:   -2.09 KCAL/MOL
REMARK 922        TOTAL FREE ENERGY PREDICTED BY IDOCK:   -3.32 KCAL/MOL
REMARK 923 INTER-LIGAND FREE ENERGY PREDICTED BY IDOCK:   -2.75 KCAL/MOL
REMARK 924 INTRA-LIGAND FREE ENERGY PREDICTED BY IDOCK:   -0.58 KCAL/MOL
REMARK 927      BINDING AFFINITY PREDICTED BY RF-SCORE:    0.00 PKD
ROOT
HETATM    1  C   UNL     1      -6.546   7.632  73.759  1.00  0.00    -0.090 C  
HETATM    2  C   UNL     1      -6.951   7.592  72.317  1.00  0.00    -0.064 A  
HETATM    3  C   UNL     1      -6.014   7.775  71.303  1.00  0.00    -0.035 A  
HETATM    4  C   UNL     1      -6.416   7.903  69.966  1.00  0.00    -0.033 A  
HETATM    5  C   UNL     1      -7.771   7.877  69.594  1.00  0.00    -0.103 A  
HETATM    6  C   UNL     1      -8.677   7.528  70.614  1.00  0.00    -0.141 A  
HETATM    7  C   UNL     1      -8.284   7.406  71.954  1.00  0.00    -0.113 A  
ENDROOT
BRANCH   5   8
HETATM    8  N   UNL     1      -8.256   8.221  68.301  1.00  0.00    -0.127 NA 
BRANCH   8   9
HETATM    9  C   UNL     1      -7.467   7.796  67.106  1.00  0.00    -0.096 C  
BRANCH   9  10
HETATM   10  C   UNL     1      -7.909   6.433  66.581  1.00  0.00    -0.104 C  
HETATM   11  C   UNL     1      -8.281   4.186  66.574  1.00  0.00    -0.101 C  
HETATM   12  N   UNL     1      -8.766   6.345  65.591  1.00  0.00    -0.133 NA 
HETATM   13  C   UNL     1      -8.924   4.880  65.368  1.00  0.00    -0.151 C  
HETATM   14  N   UNL     1      -7.441   5.242  67.088  1.00  0.00    -0.083 NA 
ENDBRANCH   9  10
ENDBRANCH   8   9
BRANCH   8  15
HETATM   15  C   UNL     1      -9.052   9.390  68.006  1.00  0.00    -0.127 A  
HETATM   16  C   UNL     1     -10.066   9.845  68.873  1.00  0.00    -0.194 A  
HETATM   17  C   UNL     1      -8.814  10.161  66.849  1.00  0.00    -0.142 A  
HETATM   18  C   UNL     1     -10.776  11.018  68.599  1.00  0.00    -0.198 A  
HETATM   19  C   UNL     1      -9.503  11.355  66.602  1.00  0.00    -0.206 A  
HETATM   20  O   UNL     1     -11.780  11.455  69.415  1.00  0.00    -0.277 OA 
HETATM   21  C   UNL     1     -10.483  11.789  67.485  1.00  0.00    -0.228 A  
HETATM   22  H   UNL     1     -12.263  12.252  69.228  1.00  0.00     0.000 HD 
ENDBRANCH   8  15
ENDBRANCH   5   8
TORSDOF 4
ENDMDL
MODEL      246
REMARK 921   NORMALIZED FREE ENERGY PREDICTED BY IDOCK:   -2.03 KCAL/MOL
REMARK 922        TOTAL FREE ENERGY PREDICTED BY IDOCK:   -3.25 KCAL/MOL
REMARK 923 INTER-LIGAND FREE ENERGY PREDICTED BY IDOCK:   -2.36 KCAL/MOL
REMARK 924 INTRA-LIGAND FREE ENERGY PREDICTED BY IDOCK:   -0.89 KCAL/MOL
REMARK 927      BINDING AFFINITY PREDICTED BY RF-SCORE:    0.00 PKD
ROOT
HETATM    1  C   UNL     1      -6.169  11.418  66.727  1.00  0.00    -0.141 C  
HETATM    2  C   UNL     1      -6.716  10.124  67.247  1.00  0.00    -0.073 A  
HETATM    3  C   UNL     1      -7.914   9.604  66.761  1.00  0.00    -0.105 A  
HETATM    4  C   UNL     1      -8.509   8.486  67.361  1.00  0.00    -0.127 A  
HETATM    5  C   UNL     1      -7.942   7.858  68.483  1.00  0.00    -0.121 A  
HETATM    6  C   UNL     1      -6.657   8.302  68.847  1.00  0.00    -0.053 A  
HETATM    7  C   UNL     1      -6.059   9.424  68.257  1.00  0.00    -0.048 A  
ENDROOT
BRANCH   5   8
HETATM    8  N   UNL     1      -8.600   6.869  69.269  1.00  0.00    -0.132 NA 
BRANCH   8   9
HETATM    9  C   UNL     1      -8.529   5.444  68.828  1.00  0.00    -0.096 C  
BRANCH   9  10
HETATM   10  C   UNL     1      -7.607   4.614  69.717  1.00  0.00    -0.055 C  
HETATM   11  C   UNL     1      -6.914   2.863  70.997  1.00  0.00    -0.033 C  
HETATM   12  N   UNL     1      -6.313   4.834  69.726  1.00  0.00    -0.029 NA 
HETATM   13  C   UNL     1      -5.779   3.851  70.712  1.00  0.00    -0.013 C  
HETATM   14  N   UNL     1      -8.060   3.619  70.552  1.00  0.00    -0.053 NA 
ENDBRANCH   9  10
ENDBRANCH   8   9
BRANCH   8  15
HETATM   15  C   UNL     1      -9.781   7.106  70.067  1.00  0.00    -0.171 A  
HETATM   16  C   UNL     1      -9.876   8.189  70.964  1.00  0.00    -0.212 A  
HETATM   17  C   UNL     1     -10.920   6.283  69.944  1.00  0.00    -0.435 A  
HETATM   18  C   UNL     1     -11.055   8.435  71.674  1.00  0.00    -0.278 A  
HETATM   19  C   UNL     1     -12.110   6.560  70.630  1.00  0.00    -0.265 A  
HETATM   20  O   UNL     1     -11.150   9.463  72.569  1.00  0.00     0.434 OA 
HETATM   21  C   UNL     1     -12.179   7.645  71.493  1.00  0.00    -0.351 A  
HETATM   22  H   UNL     1     -11.952   9.630  73.052  1.00  0.00     0.000 HD 
ENDBRANCH   8  15
ENDBRANCH   5   8
TORSDOF 4
ENDMDL
MODEL      247
REMARK 921   NORMALIZED FREE ENERGY PREDICTED BY IDOCK:   -2.00 KCAL/MOL
REMARK 922        TOTAL FREE ENERGY PREDICTED BY IDOCK:   -3.22 KCAL/MOL
REMARK 923 INTER-LIGAND FREE ENERGY PREDICTED BY IDOCK:   -2.37 KCAL/MOL
REMARK 924 INTRA-LIGAND FREE ENERGY PREDICTED BY IDOCK:   -0.85 KCAL/MOL
REMARK 927      BINDING AFFINITY PREDICTED BY RF-SCORE:    0.00 PKD
ROOT
HETATM    1  C   UNL     1      -5.489  11.997  68.706  1.00  0.00    -0.049 C  
HETATM    2  C   UNL     1      -6.006  10.641  69.078  1.00  0.00    -0.040 A  
HETATM    3  C   UNL     1      -6.526   9.782  68.113  1.00  0.00    -0.056 A  
HETATM    4  C   UNL     1      -7.161   8.587  68.481  1.00  0.00    -0.081 A  
HETATM    5  C   UNL     1      -7.320   8.216  69.827  1.00  0.00    -0.065 A  
HETATM    6  C   UNL     1      -6.643   9.020  70.765  1.00  0.00    -0.063 A  
HETATM    7  C   UNL     1      -6.014  10.219  70.407  1.00  0.00    -0.096 A  
ENDROOT
BRANCH   5   8
HETATM    8  N   UNL     1      -8.140   7.142  70.274  1.00  0.00    -0.117 NA 
BRANCH   8   9
HETATM    9  C   UNL     1      -8.935   7.323  71.525  1.00  0.00    -0.129 C  
BRANCH   9  10
HETATM   10  C   UNL     1     -10.226   8.099  71.279  1.00  0.00    -0.195 C  
HETATM   11  C   UNL     1     -11.569   9.851  70.722  1.00  0.00    -0.349 C  
HETATM   12  N   UNL     1     -11.355   7.464  71.065  1.00  0.00    -0.268 NA 
HETATM   13  C   UNL     1     -12.361   8.550  70.888  1.00  0.00    -0.042 C  
HETATM   14  N   UNL     1     -10.291   9.473  71.277  1.00  0.00    -0.285 NA 
ENDBRANCH   9  10
ENDBRANCH   8   9
BRANCH   8  15
HETATM   15  C   UNL     1      -7.867   5.744  70.033  1.00  0.00    -0.091 A  
HETATM   16  C   UNL     1      -8.711   4.940  69.239  1.00  0.00    -0.107 A  
HETATM   17  C   UNL     1      -6.706   5.129  70.547  1.00  0.00    -0.040 A  
HETATM   18  C   UNL     1      -8.388   3.608  68.965  1.00  0.00    -0.068 A  
HETATM   19  C   UNL     1      -6.371   3.805  70.235  1.00  0.00    -0.027 A  
HETATM   20  O   UNL     1      -9.211   2.810  68.222  1.00  0.00    -0.160 OA 
HETATM   21  C   UNL     1      -7.212   3.044  69.435  1.00  0.00    -0.045 A  
HETATM   22  H   UNL     1      -8.992   1.904  68.037  1.00  0.00     0.000 HD 
ENDBRANCH   8  15
ENDBRANCH   5   8
TORSDOF 4
ENDMDL
MODEL      248
REMARK 921   NORMALIZED FREE ENERGY PREDICTED BY IDOCK:   -1.97 KCAL/MOL
REMARK 922        TOTAL FREE ENERGY PREDICTED BY IDOCK:   -3.18 KCAL/MOL
REMARK 923 INTER-LIGAND FREE ENERGY PREDICTED BY IDOCK:   -2.44 KCAL/MOL
REMARK 924 INTRA-LIGAND FREE ENERGY PREDICTED BY IDOCK:   -0.75 KCAL/MOL
REMARK 927      BINDING AFFINITY PREDICTED BY RF-SCORE:    0.00 PKD
ROOT
HETATM    1  C   UNL     1      -6.621   7.703  73.739  1.00  0.00    -0.090 C  
HETATM    2  C   UNL     1      -6.780   8.020  72.283  1.00  0.00    -0.072 A  
HETATM    3  C   UNL     1      -5.690   8.412  71.511  1.00  0.00    -0.037 A  
HETATM    4  C   UNL     1      -5.866   8.867  70.196  1.00  0.00    -0.030 A  
HETATM    5  C   UNL     1      -7.140   8.970  69.612  1.00  0.00    -0.059 A  
HETATM    6  C   UNL     1      -8.199   8.415  70.356  1.00  0.00    -0.115 A  
HETATM    7  C   UNL     1      -8.033   7.965  71.673  1.00  0.00    -0.112 A  
ENDROOT
BRANCH   5   8
HETATM    8  N   UNL     1      -7.408   9.627  68.378  1.00  0.00    -0.075 NA 
BRANCH   8   9
HETATM    9  C   UNL     1      -6.408   9.508  67.275  1.00  0.00    -0.069 C  
BRANCH   9  10
HETATM   10  C   UNL     1      -7.073   9.307  65.916  1.00  0.00    -0.090 C  
HETATM   11  C   UNL     1      -8.655   8.670  64.407  1.00  0.00    -0.042 C  
HETATM   12  N   UNL     1      -6.704  10.023  64.879  1.00  0.00    -0.121 NA 
HETATM   13  C   UNL     1      -7.559   9.527  63.764  1.00  0.00    -0.121 C  
HETATM   14  N   UNL     1      -8.064   8.380  65.692  1.00  0.00    -0.117 NA 
ENDBRANCH   9  10
ENDBRANCH   8   9
BRANCH   8  15
HETATM   15  C   UNL     1      -8.186  10.837  68.242  1.00  0.00    -0.124 A  
HETATM   16  C   UNL     1      -9.539  10.818  67.848  1.00  0.00    -0.171 A  
HETATM   17  C   UNL     1      -7.632  12.097  68.549  1.00  0.00    -0.124 A  
HETATM   18  C   UNL     1     -10.289  11.996  67.790  1.00  0.00    -0.197 A  
HETATM   19  C   UNL     1      -8.402  13.267  68.525  1.00  0.00    -0.075 A  
HETATM   20  O   UNL     1     -11.593  11.996  67.381  1.00  0.00    -0.371 OA 
HETATM   21  C   UNL     1      -9.738  13.215  68.152  1.00  0.00    -0.228 A  
HETATM   22  H   UNL     1     -12.103  12.798  67.342  1.00  0.00     0.000 HD 
ENDBRANCH   8  15
ENDBRANCH   5   8
TORSDOF 4
ENDMDL
MODEL      249
REMARK 921   NORMALIZED FREE ENERGY PREDICTED BY IDOCK:   -1.87 KCAL/MOL
REMARK 922        TOTAL FREE ENERGY PREDICTED BY IDOCK:   -3.05 KCAL/MOL
REMARK 923 INTER-LIGAND FREE ENERGY PREDICTED BY IDOCK:   -2.58 KCAL/MOL
REMARK 924 INTRA-LIGAND FREE ENERGY PREDICTED BY IDOCK:   -0.47 KCAL/MOL
REMARK 927      BINDING AFFINITY PREDICTED BY RF-SCORE:    0.00 PKD
ROOT
HETATM    1  C   UNL     1      -6.890  11.631  69.193  1.00  0.00    -0.111 C  
HETATM    2  C   UNL     1      -7.158  10.181  69.457  1.00  0.00    -0.101 A  
HETATM    3  C   UNL     1      -6.681   9.195  68.597  1.00  0.00    -0.058 A  
HETATM    4  C   UNL     1      -7.071   7.857  68.750  1.00  0.00    -0.072 A  
HETATM    5  C   UNL     1      -7.969   7.457  69.754  1.00  0.00    -0.125 A  
HETATM    6  C   UNL     1      -8.303   8.443  70.702  1.00  0.00    -0.129 A  
HETATM    7  C   UNL     1      -7.924   9.784  70.552  1.00  0.00    -0.059 A  
ENDROOT
BRANCH   5   8
HETATM    8  N   UNL     1      -8.573   6.170  69.825  1.00  0.00    -0.131 NA 
BRANCH   8   9
HETATM    9  C   UNL     1      -9.578   5.794  68.786  1.00  0.00    -0.127 C  
BRANCH   9  10
HETATM   10  C   UNL     1      -9.042   4.738  67.824  1.00  0.00    -0.116 C  
HETATM   11  C   UNL     1      -7.548   3.651  66.493  1.00  0.00    -0.080 C  
HETATM   12  N   UNL     1      -9.643   3.577  67.704  1.00  0.00    -0.182 NA 
HETATM   13  C   UNL     1      -8.841   2.851  66.678  1.00  0.00    -0.147 C  
HETATM   14  N   UNL     1      -7.933   4.933  67.033  1.00  0.00    -0.102 NA 
ENDBRANCH   9  10
ENDBRANCH   8   9
BRANCH   8  15
HETATM   15  C   UNL     1      -8.793   5.432  71.048  1.00  0.00    -0.139 A  
HETATM   16  C   UNL     1      -7.951   5.572  72.171  1.00  0.00    -0.107 A  
HETATM   17  C   UNL     1      -9.898   4.567  71.189  1.00  0.00    -0.263 A  
HETATM   18  C   UNL     1      -8.225   4.899  73.365  1.00  0.00    -0.107 A  
HETATM   19  C   UNL     1     -10.186   3.927  72.401  1.00  0.00    -0.227 A  
HETATM   20  O   UNL     1      -7.402   5.003  74.450  1.00  0.00    -0.084 OA 
HETATM   21  C   UNL     1      -9.350   4.100  73.495  1.00  0.00    -0.113 A  
HETATM   22  H   UNL     1      -7.588   4.545  75.262  1.00  0.00     0.000 HD 
ENDBRANCH   8  15
ENDBRANCH   5   8
TORSDOF 4
ENDMDL
MODEL      250
REMARK 921   NORMALIZED FREE ENERGY PREDICTED BY IDOCK:   -1.78 KCAL/MOL
REMARK 922        TOTAL FREE ENERGY PREDICTED BY IDOCK:   -2.94 KCAL/MOL
REMARK 923 INTER-LIGAND FREE ENERGY PREDICTED BY IDOCK:   -2.77 KCAL/MOL
REMARK 924 INTRA-LIGAND FREE ENERGY PREDICTED BY IDOCK:   -0.17 KCAL/MOL
REMARK 927      BINDING AFFINITY PREDICTED BY RF-SCORE:    0.00 PKD
ROOT
HETATM    1  C   UNL     1      -7.858   2.062  70.150  1.00  0.00    -0.048 C  
HETATM    2  C   UNL     1      -8.281   3.443  69.749  1.00  0.00    -0.072 A  
HETATM    3  C   UNL     1      -9.417   4.032  70.297  1.00  0.00    -0.255 A  
HETATM    4  C   UNL     1      -9.906   5.250  69.803  1.00  0.00    -0.282 A  
HETATM    5  C   UNL     1      -9.290   5.914  68.728  1.00  0.00    -0.122 A  
HETATM    6  C   UNL     1      -8.057   5.379  68.306  1.00  0.00    -0.095 A  
HETATM    7  C   UNL     1      -7.567   4.159  68.790  1.00  0.00    -0.055 A  
ENDROOT
BRANCH   5   8
HETATM    8  N   UNL     1      -9.855   7.024  68.039  1.00  0.00    -0.136 NA 
BRANCH   8   9
HETATM    9  C   UNL     1      -9.909   6.986  66.547  1.00  0.00    -0.108 C  
BRANCH   9  10
HETATM   10  C   UNL     1      -9.112   8.123  65.914  1.00  0.00    -0.130 C  
HETATM   11  C   UNL     1      -8.687  10.191  65.061  1.00  0.00    -0.173 C  
HETATM   12  N   UNL     1      -7.800   8.128  65.965  1.00  0.00    -0.090 NA 
HETATM   13  C   UNL     1      -7.407   9.367  65.237  1.00  0.00    -0.096 C  
HETATM   14  N   UNL     1      -9.698   9.180  65.257  1.00  0.00    -0.055 NA 
ENDBRANCH   9  10
ENDBRANCH   8   9
BRANCH   8  15
HETATM   15  C   UNL     1      -9.837   8.386  68.521  1.00  0.00    -0.173 A  
HETATM   16  C   UNL     1      -8.651   9.013  68.954  1.00  0.00    -0.131 A  
HETATM   17  C   UNL     1     -11.010   9.170  68.533  1.00  0.00     0.003 A  
HETATM   18  C   UNL     1      -8.648  10.353  69.351  1.00  0.00    -0.130 A  
HETATM   19  C   UNL     1     -10.989  10.523  68.897  1.00  0.00    -0.291 A  
HETATM   20  O   UNL     1      -7.512  10.965  69.800  1.00  0.00    -0.329 OA 
HETATM   21  C   UNL     1      -9.802  11.118  69.300  1.00  0.00    -0.000 A  
HETATM   22  H   UNL     1      -7.510  11.876  70.071  1.00  0.00     0.000 HD 
ENDBRANCH   8  15
ENDBRANCH   5   8
TORSDOF 4
ENDMDL
MODEL      251
REMARK 921   NORMALIZED FREE ENERGY PREDICTED BY IDOCK:   -1.60 KCAL/MOL
REMARK 922        TOTAL FREE ENERGY PREDICTED BY IDOCK:   -2.73 KCAL/MOL
REMARK 923 INTER-LIGAND FREE ENERGY PREDICTED BY IDOCK:   -2.03 KCAL/MOL
REMARK 924 INTRA-LIGAND FREE ENERGY PREDICTED BY IDOCK:   -0.70 KCAL/MOL
REMARK 927      BINDING AFFINITY PREDICTED BY RF-SCORE:    0.00 PKD
ROOT
HETATM    1  C   UNL     1      -6.376   7.272  74.064  1.00  0.00    -0.076 C  
HETATM    2  C   UNL     1      -6.582   7.554  72.608  1.00  0.00    -0.060 A  
HETATM    3  C   UNL     1      -5.504   7.609  71.728  1.00  0.00    -0.035 A  
HETATM    4  C   UNL     1      -5.676   8.036  70.404  1.00  0.00    -0.025 A  
HETATM    5  C   UNL     1      -6.928   8.445  69.914  1.00  0.00    -0.043 A  
HETATM    6  C   UNL     1      -8.022   8.223  70.774  1.00  0.00    -0.100 A  
HETATM    7  C   UNL     1      -7.856   7.805  72.101  1.00  0.00    -0.122 A  
ENDROOT
BRANCH   5   8
HETATM    8  N   UNL     1      -7.130   9.094  68.663  1.00  0.00    -0.070 NA 
BRANCH   8   9
HETATM    9  C   UNL     1      -6.158  10.146  68.240  1.00  0.00    -0.045 C  
BRANCH   9  10
HETATM   10  C   UNL     1      -5.919  10.134  66.733  1.00  0.00    -0.055 C  
HETATM   11  C   UNL     1      -5.796   9.305  64.616  1.00  0.00    -0.065 C  
HETATM   12  N   UNL     1      -5.930  11.254  66.046  1.00  0.00    -0.077 NA 
HETATM   13  C   UNL     1      -5.648  10.830  64.646  1.00  0.00    -0.007 C  
HETATM   14  N   UNL     1      -5.671   8.986  66.018  1.00  0.00    -0.049 NA 
ENDBRANCH   9  10
ENDBRANCH   8   9
BRANCH   8  15
HETATM   15  C   UNL     1      -8.418   9.300  68.042  1.00  0.00    -0.120 A  
HETATM   16  C   UNL     1      -9.098  10.533  68.117  1.00  0.00    -0.141 A  
HETATM   17  C   UNL     1      -9.034   8.281  67.286  1.00  0.00    -0.149 A  
HETATM   18  C   UNL     1     -10.312  10.728  67.451  1.00  0.00    -0.211 A  
HETATM   19  C   UNL     1     -10.230   8.498  66.590  1.00  0.00    -0.345 A  
HETATM   20  O   UNL     1     -10.996  11.907  67.539  1.00  0.00    -0.222 OA 
HETATM   21  C   UNL     1     -10.867   9.729  66.667  1.00  0.00    -0.011 A  
HETATM   22  H   UNL     1     -11.821  12.039  67.086  1.00  0.00     0.000 HD 
ENDBRANCH   8  15
ENDBRANCH   5   8
TORSDOF 4
ENDMDL
MODEL      252
REMARK 921   NORMALIZED FREE ENERGY PREDICTED BY IDOCK:   -1.55 KCAL/MOL
REMARK 922        TOTAL FREE ENERGY PREDICTED BY IDOCK:   -2.66 KCAL/MOL
REMARK 923 INTER-LIGAND FREE ENERGY PREDICTED BY IDOCK:   -1.90 KCAL/MOL
REMARK 924 INTRA-LIGAND FREE ENERGY PREDICTED BY IDOCK:   -0.77 KCAL/MOL
REMARK 927      BINDING AFFINITY PREDICTED BY RF-SCORE:    0.00 PKD
ROOT
HETATM    1  C   UNL     1      -5.767   2.106  69.547  1.00  0.00    -0.022 C  
HETATM    2  C   UNL     1      -5.998   3.103  68.454  1.00  0.00    -0.024 A  
HETATM    3  C   UNL     1      -6.651   4.307  68.707  1.00  0.00    -0.045 A  
HETATM    4  C   UNL     1      -7.014   5.163  67.657  1.00  0.00    -0.065 A  
HETATM    5  C   UNL     1      -6.760   4.838  66.314  1.00  0.00    -0.050 A  
HETATM    6  C   UNL     1      -5.958   3.700  66.103  1.00  0.00    -0.023 A  
HETATM    7  C   UNL     1      -5.597   2.835  67.146  1.00  0.00    -0.021 A  
ENDROOT
BRANCH   5   8
HETATM    8  N   UNL     1      -7.294   5.546  65.200  1.00  0.00    -0.067 NA 
BRANCH   8   9
HETATM    9  C   UNL     1      -7.238   4.904  63.853  1.00  0.00    -0.050 C  
BRANCH   9  10
HETATM   10  C   UNL     1      -8.393   3.932  63.632  1.00  0.00    -0.092 C  
HETATM   11  C   UNL     1     -10.544   3.191  63.516  1.00  0.00    -0.251 C  
HETATM   12  N   UNL     1      -8.224   2.846  62.913  1.00  0.00    -0.073 NA 
HETATM   13  C   UNL     1      -9.552   2.170  62.948  1.00  0.00    -0.090 C  
HETATM   14  N   UNL     1      -9.648   4.118  64.165  1.00  0.00    -0.158 NA 
ENDBRANCH   9  10
ENDBRANCH   8   9
BRANCH   8  15
HETATM   15  C   UNL     1      -7.338   6.985  65.086  1.00  0.00    -0.081 A  
HETATM   16  C   UNL     1      -8.527   7.678  64.779  1.00  0.00     0.037 A  
HETATM   17  C   UNL     1      -6.191   7.771  65.326  1.00  0.00    -0.038 A  
HETATM   18  C   UNL     1      -8.558   9.075  64.741  1.00  0.00    -0.175 A  
HETATM   19  C   UNL     1      -6.241   9.171  65.323  1.00  0.00    -0.064 A  
HETATM   20  O   UNL     1      -9.696   9.758  64.416  1.00  0.00    -0.414 OA 
HETATM   21  C   UNL     1      -7.431   9.825  65.037  1.00  0.00    -0.127 A  
HETATM   22  H   UNL     1      -9.717  10.707  64.390  1.00  0.00     0.000 HD 
ENDBRANCH   8  15
ENDBRANCH   5   8
TORSDOF 4
ENDMDL
MODEL      253
REMARK 921   NORMALIZED FREE ENERGY PREDICTED BY IDOCK:    1.61 KCAL/MOL
REMARK 922        TOTAL FREE ENERGY PREDICTED BY IDOCK:    1.24 KCAL/MOL
REMARK 923 INTER-LIGAND FREE ENERGY PREDICTED BY IDOCK:    0.93 KCAL/MOL
REMARK 924 INTRA-LIGAND FREE ENERGY PREDICTED BY IDOCK:    0.31 KCAL/MOL
REMARK 927      BINDING AFFINITY PREDICTED BY RF-SCORE:    0.00 PKD
ROOT
HETATM    1  C   UNL     1     -11.306  19.552  64.711  1.00  0.00     2.285 C  
HETATM    2  C   UNL     1     -10.665  18.785  65.826  1.00  0.00    -0.263 A  
HETATM    3  C   UNL     1      -9.297  18.527  65.826  1.00  0.00     0.399 A  
HETATM    4  C   UNL     1      -8.726  17.670  66.778  1.00  0.00    -0.277 A  
HETATM    5  C   UNL     1      -9.504  17.022  67.752  1.00  0.00    -0.245 A  
HETATM    6  C   UNL     1     -10.849  17.430  67.829  1.00  0.00    -0.257 A  
HETATM    7  C   UNL     1     -11.429  18.279  66.877  1.00  0.00     1.196 A  
ENDROOT
BRANCH   5   8
HETATM    8  N   UNL     1      -9.028  15.980  68.598  1.00  0.00    -0.199 NA 
BRANCH   8   9
HETATM    9  C   UNL     1      -8.000  16.311  69.629  1.00  0.00     0.261 C  
BRANCH   9  10
HETATM   10  C   UNL     1      -6.894  17.202  69.071  1.00  0.00    -0.231 C  
HETATM   11  C   UNL     1      -5.429  18.058  67.552  1.00  0.00    -0.136 C  
HETATM   12  N   UNL     1      -6.592  18.337  69.657  1.00  0.00    -0.150 NA 
HETATM   13  C   UNL     1      -5.476  18.891  68.838  1.00  0.00    -0.198 C  
HETATM   14  N   UNL     1      -6.154  16.877  67.958  1.00  0.00    -0.129 NA 
ENDBRANCH   9  10
ENDBRANCH   8   9
BRANCH   8  15
HETATM   15  C   UNL     1      -8.955  14.587  68.223  1.00  0.00    -0.184 A  
HETATM   16  C   UNL     1      -9.728  14.051  67.172  1.00  0.00    -0.242 A  
HETATM   17  C   UNL     1      -8.063  13.704  68.867  1.00  0.00     0.093 A  
HETATM   18  C   UNL     1      -9.589  12.715  66.784  1.00  0.00    -0.241 A  
HETATM   19  C   UNL     1      -7.903  12.378  68.446  1.00  0.00    -0.142 A  
HETATM   20  O   UNL     1     -10.352  12.176  65.787  1.00  0.00    -0.243 OA 
HETATM   21  C   UNL     1      -8.664  11.884  67.396  1.00  0.00    -0.166 A  
HETATM   22  H   UNL     1     -10.257  11.268  65.524  1.00  0.00     0.000 HD 
ENDBRANCH   8  15
ENDBRANCH   5   8
TORSDOF 4
ENDMDL
MODEL      254
REMARK 921   NORMALIZED FREE ENERGY PREDICTED BY IDOCK:    1.70 KCAL/MOL
REMARK 922        TOTAL FREE ENERGY PREDICTED BY IDOCK:    1.35 KCAL/MOL
REMARK 923 INTER-LIGAND FREE ENERGY PREDICTED BY IDOCK:   -3.41 KCAL/MOL
REMARK 924 INTRA-LIGAND FREE ENERGY PREDICTED BY IDOCK:    4.76 KCAL/MOL
REMARK 927      BINDING AFFINITY PREDICTED BY RF-SCORE:    0.00 PKD
ROOT
HETATM    1  C   UNL     1     -11.315   8.435  67.651  1.00  0.00     0.992 C  
HETATM    2  C   UNL     1     -10.520   9.692  67.827  1.00  0.00    -0.309 A  
HETATM    3  C   UNL     1     -11.139  10.891  68.172  1.00  0.00    -0.337 A  
HETATM    4  C   UNL     1     -10.423  12.097  68.173  1.00  0.00    -0.225 A  
HETATM    5  C   UNL     1      -9.068  12.154  67.808  1.00  0.00    -0.189 A  
HETATM    6  C   UNL     1      -8.432  10.910  67.625  1.00  0.00    -0.123 A  
HETATM    7  C   UNL     1      -9.142   9.702  67.615  1.00  0.00    -0.141 A  
ENDROOT
BRANCH   5   8
HETATM    8  N   UNL     1      -8.348  13.360  67.575  1.00  0.00    -0.178 NA 
BRANCH   8   9
HETATM    9  C   UNL     1      -7.026  13.543  68.245  1.00  0.00    -0.108 C  
BRANCH   9  10
HETATM   10  C   UNL     1      -6.664  12.357  69.134  1.00  0.00    -0.090 C  
HETATM   11  C   UNL     1      -6.833  10.294  70.084  1.00  0.00    -0.151 C  
HETATM   12  N   UNL     1      -5.440  12.211  69.588  1.00  0.00    -0.076 NA 
HETATM   13  C   UNL     1      -5.497  10.970  70.411  1.00  0.00    -0.106 C  
HETATM   14  N   UNL     1      -7.572  11.397  69.517  1.00  0.00     0.101 NA 
ENDBRANCH   9  10
ENDBRANCH   8   9
BRANCH   8  15
HETATM   15  C   UNL     1      -8.956  14.635  67.275  1.00  0.00    -0.205 A  
HETATM   16  C   UNL     1      -9.528  14.916  66.017  1.00  0.00    -0.316 A  
HETATM   17  C   UNL     1      -9.049  15.646  68.253  1.00  0.00    -0.187 A  
HETATM   18  C   UNL     1     -10.172  16.133  65.774  1.00  0.00    -0.374 A  
HETATM   19  C   UNL     1      -9.729  16.847  68.013  1.00  0.00    -0.256 A  
HETATM   20  O   UNL     1     -10.703  16.431  64.551  1.00  0.00    -0.826 OA 
HETATM   21  C   UNL     1     -10.299  17.088  66.770  1.00  0.00    -0.302 A  
HETATM   22  H   UNL     1     -11.141  17.258  64.386  1.00  0.00     0.000 HD 
ENDBRANCH   8  15
ENDBRANCH   5   8
TORSDOF 4
ENDMDL
