MODEL        1
REMARK 921   NORMALIZED FREE ENERGY PREDICTED BY IDOCK:   -7.08 KCAL/MOL
REMARK 922        TOTAL FREE ENERGY PREDICTED BY IDOCK:   -8.86 KCAL/MOL
REMARK 923 INTER-LIGAND FREE ENERGY PREDICTED BY IDOCK:   -8.33 KCAL/MOL
REMARK 924 INTRA-LIGAND FREE ENERGY PREDICTED BY IDOCK:   -0.53 KCAL/MOL
REMARK 927      BINDING AFFINITY PREDICTED BY RF-SCORE:    0.00 PKD
ROOT
HETATM    1  N   UNL     1     -12.534  11.602  63.123  1.00  0.00    -0.949 NA 
HETATM    2  C   UNL     1     -12.195  12.585  64.049  1.00  0.00    -0.480 A  
HETATM    3  H2  UNL     1     -11.940  11.690  62.299  1.00  0.00     0.000 HD 
HETATM    4  H1  UNL     1     -12.520  10.638  63.454  1.00  0.00     0.000 HD 
HETATM    5  N   UNL     1     -12.213  13.855  63.614  1.00  0.00    -0.656 NA 
HETATM    6  C   UNL     1     -11.912  14.836  64.496  1.00  0.00    -0.440 A  
HETATM    7  C   UNL     1     -11.583  14.591  65.845  1.00  0.00    -0.349 A  
HETATM    8  N   UNL     1     -11.880  16.121  63.946  1.00  0.00    -1.382 NA 
HETATM    9  H2  UNL     1     -12.760  16.327  63.472  1.00  0.00     0.000 HD 
HETATM   10  C   UNL     1     -11.891  12.244  65.357  1.00  0.00    -0.418 A  
HETATM   11  C   UNL     1     -11.577  13.259  66.258  1.00  0.00    -0.384 A  
HETATM   12  H1  UNL     1     -11.653  16.860  64.611  1.00  0.00     0.000 HD 
ENDROOT
BRANCH   7  13
HETATM   13  N   UNL     1     -11.254  15.578  66.805  1.00  0.00    -0.210 NA 
HETATM   14  H   UNL     1     -11.825  15.788  67.624  1.00  0.00     0.000 HD 
BRANCH  13  15
HETATM   15  N   UNL     1     -10.185  16.160  66.536  1.00  0.00    -0.287 NA 
HETATM   16  H   UNL     1      -9.427  15.725  66.009  1.00  0.00     0.000 HD 
BRANCH  15  17
HETATM   17  C   UNL     1     -10.125  17.479  67.031  1.00  0.00    -0.323 A  
HETATM   18  C   UNL     1      -9.824  17.822  68.358  1.00  0.00    -0.347 A  
HETATM   19  C   UNL     1      -9.842  19.160  68.771  1.00  0.00    -0.502 A  
HETATM   20  C   UNL     1     -10.145  20.169  67.859  1.00  0.00    -0.533 A  
HETATM   21  C   UNL     1     -10.409  19.846  66.530  1.00  0.00    -0.608 A  
HETATM   22  C   UNL     1     -10.391  18.512  66.123  1.00  0.00    -0.457 A  
ENDBRANCH  15  17
ENDBRANCH  13  15
ENDBRANCH   7  13
TORSDOF 3
ENDMDL
MODEL        2
REMARK 921   NORMALIZED FREE ENERGY PREDICTED BY IDOCK:   -6.73 KCAL/MOL
REMARK 922        TOTAL FREE ENERGY PREDICTED BY IDOCK:   -8.44 KCAL/MOL
REMARK 923 INTER-LIGAND FREE ENERGY PREDICTED BY IDOCK:   -8.09 KCAL/MOL
REMARK 924 INTRA-LIGAND FREE ENERGY PREDICTED BY IDOCK:   -0.34 KCAL/MOL
REMARK 927      BINDING AFFINITY PREDICTED BY RF-SCORE:    0.00 PKD
ROOT
HETATM    1  N   UNL     1     -11.422  16.520  63.830  1.00  0.00    -1.599 NA 
HETATM    2  C   UNL     1     -11.523  15.433  64.693  1.00  0.00    -0.337 A  
HETATM    3  H2  UNL     1     -12.354  16.868  63.607  1.00  0.00     0.000 HD 
HETATM    4  H1  UNL     1     -10.832  17.294  64.137  1.00  0.00     0.000 HD 
HETATM    5  N   UNL     1     -12.300  14.414  64.289  1.00  0.00    -0.660 NA 
HETATM    6  C   UNL     1     -12.400  13.331  65.094  1.00  0.00    -0.466 A  
HETATM    7  C   UNL     1     -11.731  13.219  66.331  1.00  0.00    -0.373 A  
HETATM    8  N   UNL     1     -13.285  12.349  64.638  1.00  0.00    -0.731 NA 
HETATM    9  H2  UNL     1     -13.041  12.065  63.688  1.00  0.00     0.000 HD 
HETATM   10  C   UNL     1     -10.821  15.414  65.887  1.00  0.00    -0.328 A  
HETATM   11  C   UNL     1     -10.934  14.297  66.713  1.00  0.00    -0.304 A  
HETATM   12  H1  UNL     1     -13.360  11.532  65.245  1.00  0.00     0.000 HD 
ENDROOT
BRANCH   7  13
HETATM   13  N   UNL     1     -11.808  12.114  67.213  1.00  0.00    -0.579 NA 
HETATM   14  H   UNL     1     -12.383  11.289  67.042  1.00  0.00     0.000 HD 
BRANCH  13  15
HETATM   15  N   UNL     1     -11.092  12.266  68.222  1.00  0.00    -0.222 NA 
HETATM   16  H   UNL     1     -10.084  12.417  68.176  1.00  0.00     0.000 HD 
BRANCH  15  17
HETATM   17  C   UNL     1     -11.812  12.208  69.433  1.00  0.00    -0.309 A  
HETATM   18  C   UNL     1     -12.230  13.327  70.170  1.00  0.00    -0.376 A  
HETATM   19  C   UNL     1     -12.894  13.168  71.393  1.00  0.00    -0.401 A  
HETATM   20  C   UNL     1     -13.163  11.891  71.882  1.00  0.00    -0.467 A  
HETATM   21  C   UNL     1     -12.788  10.772  71.143  1.00  0.00    -0.513 A  
HETATM   22  C   UNL     1     -12.125  10.934  69.926  1.00  0.00    -0.428 A  
ENDBRANCH  15  17
ENDBRANCH  13  15
ENDBRANCH   7  13
TORSDOF 3
ENDMDL
MODEL        3
REMARK 921   NORMALIZED FREE ENERGY PREDICTED BY IDOCK:   -6.63 KCAL/MOL
REMARK 922        TOTAL FREE ENERGY PREDICTED BY IDOCK:   -8.33 KCAL/MOL
REMARK 923 INTER-LIGAND FREE ENERGY PREDICTED BY IDOCK:   -7.98 KCAL/MOL
REMARK 924 INTRA-LIGAND FREE ENERGY PREDICTED BY IDOCK:   -0.35 KCAL/MOL
REMARK 927      BINDING AFFINITY PREDICTED BY RF-SCORE:    0.00 PKD
ROOT
HETATM    1  N   UNL     1     -11.419  16.384  63.866  1.00  0.00    -1.618 NA 
HETATM    2  C   UNL     1     -11.536  15.285  64.712  1.00  0.00    -0.363 A  
HETATM    3  H2  UNL     1     -12.348  16.714  63.604  1.00  0.00     0.000 HD 
HETATM    4  H1  UNL     1     -10.861  17.167  64.207  1.00  0.00     0.000 HD 
HETATM    5  N   UNL     1     -12.271  14.254  64.263  1.00  0.00    -0.600 NA 
HETATM    6  C   UNL     1     -12.384  13.161  65.052  1.00  0.00    -0.459 A  
HETATM    7  C   UNL     1     -11.770  13.049  66.315  1.00  0.00    -0.387 A  
HETATM    8  N   UNL     1     -13.226  12.166  64.545  1.00  0.00    -0.612 NA 
HETATM    9  H2  UNL     1     -12.934  11.898  63.605  1.00  0.00     0.000 HD 
HETATM   10  C   UNL     1     -10.888  15.268  65.936  1.00  0.00    -0.345 A  
HETATM   11  C   UNL     1     -11.014  14.140  66.745  1.00  0.00    -0.300 A  
HETATM   12  H1  UNL     1     -13.311  11.341  65.140  1.00  0.00     0.000 HD 
ENDROOT
BRANCH   7  13
HETATM   13  N   UNL     1     -11.862  11.933  67.182  1.00  0.00    -0.620 NA 
HETATM   14  H   UNL     1     -12.490  11.145  67.028  1.00  0.00     0.000 HD 
BRANCH  13  15
HETATM   15  N   UNL     1     -11.087  12.026  68.154  1.00  0.00    -0.227 NA 
HETATM   16  H   UNL     1     -10.087  12.205  68.059  1.00  0.00     0.000 HD 
BRANCH  15  17
HETATM   17  C   UNL     1     -11.729  11.857  69.399  1.00  0.00    -0.339 A  
HETATM   18  C   UNL     1     -12.112  10.621  69.940  1.00  0.00    -0.372 A  
HETATM   19  C   UNL     1     -12.795  10.557  71.161  1.00  0.00    -0.513 A  
HETATM   20  C   UNL     1     -13.085  11.727  71.861  1.00  0.00    -0.482 A  
HETATM   21  C   UNL     1     -12.678  12.958  71.354  1.00  0.00    -0.366 A  
HETATM   22  C   UNL     1     -11.999  13.017  70.136  1.00  0.00    -0.374 A  
ENDBRANCH  15  17
ENDBRANCH  13  15
ENDBRANCH   7  13
TORSDOF 3
ENDMDL
MODEL        4
REMARK 921   NORMALIZED FREE ENERGY PREDICTED BY IDOCK:   -6.56 KCAL/MOL
REMARK 922        TOTAL FREE ENERGY PREDICTED BY IDOCK:   -8.24 KCAL/MOL
REMARK 923 INTER-LIGAND FREE ENERGY PREDICTED BY IDOCK:   -7.76 KCAL/MOL
REMARK 924 INTRA-LIGAND FREE ENERGY PREDICTED BY IDOCK:   -0.48 KCAL/MOL
REMARK 927      BINDING AFFINITY PREDICTED BY RF-SCORE:    0.00 PKD
ROOT
HETATM    1  N   UNL     1     -12.295  13.880  63.232  1.00  0.00    -1.148 NA 
HETATM    2  C   UNL     1     -12.045  14.073  64.588  1.00  0.00    -0.440 A  
HETATM    3  H2  UNL     1     -11.421  13.936  62.712  1.00  0.00     0.000 HD 
HETATM    4  H1  UNL     1     -12.791  13.026  62.976  1.00  0.00     0.000 HD 
HETATM    5  N   UNL     1     -11.391  15.197  64.925  1.00  0.00    -0.402 NA 
HETATM    6  C   UNL     1     -11.154  15.427  66.237  1.00  0.00    -0.226 A  
HETATM    7  C   UNL     1     -11.559  14.549  67.264  1.00  0.00    -0.385 A  
HETATM    8  N   UNL     1     -10.405  16.578  66.498  1.00  0.00    -0.306 NA 
HETATM    9  H2  UNL     1     -10.844  17.393  66.068  1.00  0.00     0.000 HD 
HETATM   10  C   UNL     1     -12.489  13.153  65.524  1.00  0.00    -0.516 A  
HETATM   11  C   UNL     1     -12.235  13.395  66.873  1.00  0.00    -0.343 A  
HETATM   12  H1  UNL     1     -10.226  16.752  67.487  1.00  0.00     0.000 HD 
ENDROOT
BRANCH   7  13
HETATM   13  N   UNL     1     -11.329  14.738  68.648  1.00  0.00    -0.271 NA 
HETATM   14  H   UNL     1     -10.576  14.286  69.166  1.00  0.00     0.000 HD 
BRANCH  13  15
HETATM   15  N   UNL     1     -12.154  15.521  69.160  1.00  0.00    -0.566 NA 
HETATM   16  H   UNL     1     -12.595  16.284  68.647  1.00  0.00     0.000 HD 
BRANCH  15  17
HETATM   17  C   UNL     1     -12.416  15.247  70.518  1.00  0.00    -0.405 A  
HETATM   18  C   UNL     1     -13.338  14.295  70.979  1.00  0.00    -0.326 A  
HETATM   19  C   UNL     1     -13.571  14.132  72.351  1.00  0.00    -0.632 A  
HETATM   20  C   UNL     1     -12.871  14.906  73.275  1.00  0.00    -0.646 A  
HETATM   21  C   UNL     1     -11.926  15.828  72.833  1.00  0.00    -0.599 A  
HETATM   22  C   UNL     1     -11.698  15.989  71.466  1.00  0.00    -0.554 A  
ENDBRANCH  15  17
ENDBRANCH  13  15
ENDBRANCH   7  13
TORSDOF 3
ENDMDL
MODEL        5
REMARK 921   NORMALIZED FREE ENERGY PREDICTED BY IDOCK:   -6.55 KCAL/MOL
REMARK 922        TOTAL FREE ENERGY PREDICTED BY IDOCK:   -8.23 KCAL/MOL
REMARK 923 INTER-LIGAND FREE ENERGY PREDICTED BY IDOCK:   -7.86 KCAL/MOL
REMARK 924 INTRA-LIGAND FREE ENERGY PREDICTED BY IDOCK:   -0.37 KCAL/MOL
REMARK 927      BINDING AFFINITY PREDICTED BY RF-SCORE:    0.00 PKD
ROOT
HETATM    1  N   UNL     1     -11.598  16.413  63.779  1.00  0.00    -1.515 NA 
HETATM    2  C   UNL     1     -11.645  15.252  64.546  1.00  0.00    -0.312 A  
HETATM    3  H2  UNL     1     -12.547  16.738  63.593  1.00  0.00     0.000 HD 
HETATM    4  H1  UNL     1     -11.039  17.182  64.146  1.00  0.00     0.000 HD 
HETATM    5  N   UNL     1     -12.382  14.239  64.063  1.00  0.00    -0.727 NA 
HETATM    6  C   UNL     1     -12.429  13.089  64.773  1.00  0.00    -0.427 A  
HETATM    7  C   UNL     1     -11.743  12.901  65.991  1.00  0.00    -0.404 A  
HETATM    8  N   UNL     1     -13.276  12.112  64.241  1.00  0.00    -0.725 NA 
HETATM    9  H2  UNL     1     -13.031  11.921  63.269  1.00  0.00     0.000 HD 
HETATM   10  C   UNL     1     -10.930  15.162  65.730  1.00  0.00    -0.350 A  
HETATM   11  C   UNL     1     -10.988  13.976  66.458  1.00  0.00    -0.306 A  
HETATM   12  H1  UNL     1     -13.311  11.245  64.776  1.00  0.00     0.000 HD 
ENDROOT
BRANCH   7  13
HETATM   13  N   UNL     1     -11.764  11.723  66.776  1.00  0.00    -0.571 NA 
HETATM   14  H   UNL     1     -11.490  10.804  66.429  1.00  0.00     0.000 HD 
BRANCH  13  15
HETATM   15  N   UNL     1     -12.156  11.939  67.940  1.00  0.00    -0.522 NA 
HETATM   16  H   UNL     1     -12.757  12.724  68.192  1.00  0.00     0.000 HD 
BRANCH  15  17
HETATM   17  C   UNL     1     -11.686  10.992  68.873  1.00  0.00    -0.330 A  
HETATM   18  C   UNL     1     -12.133  10.886  70.199  1.00  0.00    -0.431 A  
HETATM   19  C   UNL     1     -11.566   9.947  71.070  1.00  0.00    -0.470 A  
HETATM   20  C   UNL     1     -10.561   9.094  70.620  1.00  0.00    -0.305 A  
HETATM   21  C   UNL     1     -10.134   9.162  69.297  1.00  0.00    -0.196 A  
HETATM   22  C   UNL     1     -10.699  10.100  68.432  1.00  0.00    -0.266 A  
ENDBRANCH  15  17
ENDBRANCH  13  15
ENDBRANCH   7  13
TORSDOF 3
ENDMDL
MODEL        6
REMARK 921   NORMALIZED FREE ENERGY PREDICTED BY IDOCK:   -6.48 KCAL/MOL
REMARK 922        TOTAL FREE ENERGY PREDICTED BY IDOCK:   -8.14 KCAL/MOL
REMARK 923 INTER-LIGAND FREE ENERGY PREDICTED BY IDOCK:   -7.54 KCAL/MOL
REMARK 924 INTRA-LIGAND FREE ENERGY PREDICTED BY IDOCK:   -0.60 KCAL/MOL
REMARK 927      BINDING AFFINITY PREDICTED BY RF-SCORE:    0.00 PKD
ROOT
HETATM    1  N   UNL     1     -12.749  12.988  64.116  1.00  0.00    -0.679 NA 
HETATM    2  C   UNL     1     -12.288  13.134  65.422  1.00  0.00    -0.481 A  
HETATM    3  H2  UNL     1     -13.618  12.455  64.119  1.00  0.00     0.000 HD 
HETATM    4  H1  UNL     1     -12.874  13.844  63.577  1.00  0.00     0.000 HD 
HETATM    5  N   UNL     1     -12.123  12.006  66.133  1.00  0.00    -0.520 NA 
HETATM    6  C   UNL     1     -11.653  12.113  67.397  1.00  0.00    -0.340 A  
HETATM    7  C   UNL     1     -11.327  13.344  68.002  1.00  0.00    -0.286 A  
HETATM    8  N   UNL     1     -11.582  10.902  68.092  1.00  0.00    -0.554 NA 
HETATM    9  H2  UNL     1     -11.035  10.221  67.565  1.00  0.00     0.000 HD 
HETATM   10  C   UNL     1     -11.989  14.390  65.926  1.00  0.00    -0.367 A  
HETATM   11  C   UNL     1     -11.510  14.491  67.231  1.00  0.00    -0.381 A  
HETATM   12  H1  UNL     1     -11.227  10.982  69.046  1.00  0.00     0.000 HD 
ENDROOT
BRANCH   7  13
HETATM   13  N   UNL     1     -10.840  13.511  69.321  1.00  0.00    -0.433 NA 
HETATM   14  H   UNL     1      -9.957  13.967  69.547  1.00  0.00     0.000 HD 
BRANCH  13  15
HETATM   15  N   UNL     1     -11.616  13.036  70.174  1.00  0.00    -0.536 NA 
HETATM   16  H   UNL     1     -11.829  12.041  70.245  1.00  0.00     0.000 HD 
BRANCH  15  17
HETATM   17  C   UNL     1     -12.171  14.010  71.029  1.00  0.00    -0.353 A  
HETATM   18  C   UNL     1     -11.559  15.230  71.356  1.00  0.00    -0.446 A  
HETATM   19  C   UNL     1     -12.163  16.112  72.260  1.00  0.00    -0.577 A  
HETATM   20  C   UNL     1     -13.393  15.793  72.832  1.00  0.00    -0.661 A  
HETATM   21  C   UNL     1     -14.030  14.603  72.488  1.00  0.00    -0.518 A  
HETATM   22  C   UNL     1     -13.424  13.726  71.588  1.00  0.00    -0.409 A  
ENDBRANCH  15  17
ENDBRANCH  13  15
ENDBRANCH   7  13
TORSDOF 3
ENDMDL
MODEL        7
REMARK 921   NORMALIZED FREE ENERGY PREDICTED BY IDOCK:   -6.38 KCAL/MOL
REMARK 922        TOTAL FREE ENERGY PREDICTED BY IDOCK:   -8.03 KCAL/MOL
REMARK 923 INTER-LIGAND FREE ENERGY PREDICTED BY IDOCK:   -7.49 KCAL/MOL
REMARK 924 INTRA-LIGAND FREE ENERGY PREDICTED BY IDOCK:   -0.54 KCAL/MOL
REMARK 927      BINDING AFFINITY PREDICTED BY RF-SCORE:    0.00 PKD
ROOT
HETATM    1  N   UNL     1     -11.469  16.242  63.843  1.00  0.00    -1.539 NA 
HETATM    2  C   UNL     1     -11.280  15.697  65.110  1.00  0.00    -0.282 A  
HETATM    3  H2  UNL     1     -12.452  16.173  63.584  1.00  0.00     0.000 HD 
HETATM    4  H1  UNL     1     -11.145  17.199  63.704  1.00  0.00     0.000 HD 
HETATM    5  N   UNL     1     -11.708  14.436  65.293  1.00  0.00    -0.353 NA 
HETATM    6  C   UNL     1     -11.517  13.869  66.506  1.00  0.00    -0.348 A  
HETATM    7  C   UNL     1     -10.894  14.532  67.583  1.00  0.00    -0.273 A  
HETATM    8  N   UNL     1     -12.057  12.585  66.637  1.00  0.00    -0.568 NA 
HETATM    9  H2  UNL     1     -11.703  11.975  65.899  1.00  0.00     0.000 HD 
HETATM   10  C   UNL     1     -10.651  16.428  66.104  1.00  0.00    -0.259 A  
HETATM   11  C   UNL     1     -10.464  15.838  67.353  1.00  0.00    -0.297 A  
HETATM   12  H1  UNL     1     -11.913  12.157  67.552  1.00  0.00     0.000 HD 
ENDROOT
BRANCH   7  13
HETATM   13  N   UNL     1     -10.678  13.988  68.872  1.00  0.00    -0.253 NA 
HETATM   14  H   UNL     1      -9.771  13.973  69.338  1.00  0.00     0.000 HD 
BRANCH  13  15
HETATM   15  N   UNL     1     -11.724  13.529  69.372  1.00  0.00    -0.306 NA 
HETATM   16  H   UNL     1     -12.289  12.807  68.924  1.00  0.00     0.000 HD 
BRANCH  15  17
HETATM   17  C   UNL     1     -12.049  14.107  70.617  1.00  0.00    -0.351 A  
HETATM   18  C   UNL     1     -11.508  15.305  71.109  1.00  0.00    -0.414 A  
HETATM   19  C   UNL     1     -11.852  15.772  72.383  1.00  0.00    -0.606 A  
HETATM   20  C   UNL     1     -12.753  15.058  73.171  1.00  0.00    -0.595 A  
HETATM   21  C   UNL     1     -13.326  13.888  72.680  1.00  0.00    -0.640 A  
HETATM   22  C   UNL     1     -12.980  13.424  71.411  1.00  0.00    -0.412 A  
ENDBRANCH  15  17
ENDBRANCH  13  15
ENDBRANCH   7  13
TORSDOF 3
ENDMDL
MODEL        8
REMARK 921   NORMALIZED FREE ENERGY PREDICTED BY IDOCK:   -6.35 KCAL/MOL
REMARK 922        TOTAL FREE ENERGY PREDICTED BY IDOCK:   -8.00 KCAL/MOL
REMARK 923 INTER-LIGAND FREE ENERGY PREDICTED BY IDOCK:   -7.49 KCAL/MOL
REMARK 924 INTRA-LIGAND FREE ENERGY PREDICTED BY IDOCK:   -0.50 KCAL/MOL
REMARK 927      BINDING AFFINITY PREDICTED BY RF-SCORE:    0.00 PKD
ROOT
HETATM    1  N   UNL     1     -12.848  16.265  74.343  1.00  0.00    -0.963 NA 
HETATM    2  C   UNL     1     -12.815  15.806  73.029  1.00  0.00    -0.502 A  
HETATM    3  H2  UNL     1     -12.320  17.134  74.416  1.00  0.00     0.000 HD 
HETATM    4  H1  UNL     1     -13.770  16.389  74.761  1.00  0.00     0.000 HD 
HETATM    5  N   UNL     1     -11.601  15.643  72.479  1.00  0.00    -0.441 NA 
HETATM    6  C   UNL     1     -11.533  15.175  71.211  1.00  0.00    -0.349 A  
HETATM    7  C   UNL     1     -12.670  14.851  70.442  1.00  0.00    -0.321 A  
HETATM    8  N   UNL     1     -10.239  15.105  70.687  1.00  0.00    -0.421 NA 
HETATM    9  H2  UNL     1      -9.636  14.556  71.301  1.00  0.00     0.000 HD 
HETATM   10  C   UNL     1     -13.990  15.509  72.358  1.00  0.00    -0.653 A  
HETATM   11  C   UNL     1     -13.912  15.034  71.050  1.00  0.00    -0.343 A  
HETATM   12  H1  UNL     1     -10.188  14.752  69.731  1.00  0.00     0.000 HD 
ENDROOT
BRANCH   7  13
HETATM   13  N   UNL     1     -12.656  14.367  69.112  1.00  0.00    -0.505 NA 
HETATM   14  H   UNL     1     -13.076  13.484  68.824  1.00  0.00     0.000 HD 
BRANCH  13  15
HETATM   15  N   UNL     1     -12.070  15.145  68.333  1.00  0.00    -0.569 NA 
HETATM   16  H   UNL     1     -11.871  16.120  68.561  1.00  0.00     0.000 HD 
BRANCH  15  17
HETATM   17  C   UNL     1     -11.712  14.547  67.108  1.00  0.00    -0.399 A  
HETATM   18  C   UNL     1     -10.989  15.184  66.088  1.00  0.00    -0.331 A  
HETATM   19  C   UNL     1     -10.727  14.524  64.880  1.00  0.00    -0.448 A  
HETATM   20  C   UNL     1     -11.169  13.217  64.687  1.00  0.00    -0.366 A  
HETATM   21  C   UNL     1     -11.855  12.560  65.706  1.00  0.00    -0.494 A  
HETATM   22  C   UNL     1     -12.116  13.220  66.907  1.00  0.00    -0.389 A  
ENDBRANCH  15  17
ENDBRANCH  13  15
ENDBRANCH   7  13
TORSDOF 3
ENDMDL
MODEL        9
REMARK 921   NORMALIZED FREE ENERGY PREDICTED BY IDOCK:   -6.33 KCAL/MOL
REMARK 922        TOTAL FREE ENERGY PREDICTED BY IDOCK:   -7.97 KCAL/MOL
REMARK 923 INTER-LIGAND FREE ENERGY PREDICTED BY IDOCK:   -7.65 KCAL/MOL
REMARK 924 INTRA-LIGAND FREE ENERGY PREDICTED BY IDOCK:   -0.32 KCAL/MOL
REMARK 927      BINDING AFFINITY PREDICTED BY RF-SCORE:    0.00 PKD
ROOT
HETATM    1  N   UNL     1     -12.527  12.606  63.512  1.00  0.00    -0.723 NA 
HETATM    2  C   UNL     1     -12.339  12.993  64.836  1.00  0.00    -0.459 A  
HETATM    3  H2  UNL     1     -13.282  11.922  63.460  1.00  0.00     0.000 HD 
HETATM    4  H1  UNL     1     -12.694  13.351  62.837  1.00  0.00     0.000 HD 
HETATM    5  N   UNL     1     -12.120  12.012  65.726  1.00  0.00    -0.489 NA 
HETATM    6  C   UNL     1     -11.908  12.357  67.017  1.00  0.00    -0.297 A  
HETATM    7  C   UNL     1     -11.906  13.691  67.472  1.00  0.00    -0.381 A  
HETATM    8  N   UNL     1     -11.763  11.275  67.890  1.00  0.00    -0.592 NA 
HETATM    9  H2  UNL     1     -11.025  10.651  67.563  1.00  0.00     0.000 HD 
HETATM   10  C   UNL     1     -12.348  14.334  65.185  1.00  0.00    -0.427 A  
HETATM   11  C   UNL     1     -12.136  14.681  66.517  1.00  0.00    -0.230 A  
HETATM   12  H1  UNL     1     -11.604  11.535  68.864  1.00  0.00     0.000 HD 
ENDROOT
BRANCH   7  13
HETATM   13  N   UNL     1     -11.698  14.106  68.810  1.00  0.00    -0.324 NA 
HETATM   14  H   UNL     1     -11.185  13.560  69.501  1.00  0.00     0.000 HD 
BRANCH  13  15
HETATM   15  N   UNL     1     -12.216  15.216  69.046  1.00  0.00    -0.585 NA 
HETATM   16  H   UNL     1     -12.333  15.941  68.337  1.00  0.00     0.000 HD 
BRANCH  15  17
HETATM   17  C   UNL     1     -12.622  15.371  70.387  1.00  0.00    -0.389 A  
HETATM   18  C   UNL     1     -13.922  15.138  70.861  1.00  0.00    -0.256 A  
HETATM   19  C   UNL     1     -14.244  15.373  72.204  1.00  0.00    -0.660 A  
HETATM   20  C   UNL     1     -13.267  15.824  73.089  1.00  0.00    -0.694 A  
HETATM   21  C   UNL     1     -11.964  16.023  72.640  1.00  0.00    -0.646 A  
HETATM   22  C   UNL     1     -11.647  15.790  71.301  1.00  0.00    -0.499 A  
ENDBRANCH  15  17
ENDBRANCH  13  15
ENDBRANCH   7  13
TORSDOF 3
ENDMDL
MODEL       10
REMARK 921   NORMALIZED FREE ENERGY PREDICTED BY IDOCK:   -6.17 KCAL/MOL
REMARK 922        TOTAL FREE ENERGY PREDICTED BY IDOCK:   -7.79 KCAL/MOL
REMARK 923 INTER-LIGAND FREE ENERGY PREDICTED BY IDOCK:   -7.41 KCAL/MOL
REMARK 924 INTRA-LIGAND FREE ENERGY PREDICTED BY IDOCK:   -0.38 KCAL/MOL
REMARK 927      BINDING AFFINITY PREDICTED BY RF-SCORE:    0.00 PKD
ROOT
HETATM    1  N   UNL     1     -11.472  16.413  63.906  1.00  0.00    -1.618 NA 
HETATM    2  C   UNL     1     -11.188  16.072  65.225  1.00  0.00    -0.112 A  
HETATM    3  H2  UNL     1     -10.608  16.652  63.421  1.00  0.00     0.000 HD 
HETATM    4  H1  UNL     1     -11.994  15.730  63.359  1.00  0.00     0.000 HD 
HETATM    5  N   UNL     1     -10.500  16.973  65.946  1.00  0.00    -0.422 NA 
HETATM    6  C   UNL     1     -10.229  16.681  67.239  1.00  0.00    -0.290 A  
HETATM    7  C   UNL     1     -10.632  15.484  67.866  1.00  0.00    -0.274 A  
HETATM    8  N   UNL     1      -9.446  17.635  67.897  1.00  0.00    -0.269 NA 
HETATM    9  H2  UNL     1      -9.874  18.558  67.823  1.00  0.00     0.000 HD 
HETATM   10  C   UNL     1     -11.634  14.871  65.753  1.00  0.00    -0.234 A  
HETATM   11  C   UNL     1     -11.345  14.575  67.084  1.00  0.00    -0.361 A  
HETATM   12  H1  UNL     1      -9.242  17.415  68.872  1.00  0.00     0.000 HD 
ENDROOT
BRANCH   7  13
HETATM   13  N   UNL     1     -10.368  15.127  69.210  1.00  0.00    -0.248 NA 
HETATM   14  H   UNL     1      -9.659  15.576  69.788  1.00  0.00     0.000 HD 
BRANCH  13  15
HETATM   15  N   UNL     1     -11.102  14.200  69.605  1.00  0.00    -0.417 NA 
HETATM   16  H   UNL     1     -11.182  13.304  69.122  1.00  0.00     0.000 HD 
BRANCH  15  17
HETATM   17  C   UNL     1     -11.812  14.512  70.782  1.00  0.00    -0.304 A  
HETATM   18  C   UNL     1     -12.857  13.740  71.315  1.00  0.00    -0.434 A  
HETATM   19  C   UNL     1     -13.541  14.160  72.463  1.00  0.00    -0.644 A  
HETATM   20  C   UNL     1     -13.177  15.345  73.099  1.00  0.00    -0.636 A  
HETATM   21  C   UNL     1     -12.118  16.101  72.604  1.00  0.00    -0.652 A  
HETATM   22  C   UNL     1     -11.439  15.680  71.459  1.00  0.00    -0.494 A  
ENDBRANCH  15  17
ENDBRANCH  13  15
ENDBRANCH   7  13
TORSDOF 3
ENDMDL
MODEL       11
REMARK 921   NORMALIZED FREE ENERGY PREDICTED BY IDOCK:   -6.14 KCAL/MOL
REMARK 922        TOTAL FREE ENERGY PREDICTED BY IDOCK:   -7.75 KCAL/MOL
REMARK 923 INTER-LIGAND FREE ENERGY PREDICTED BY IDOCK:   -7.21 KCAL/MOL
REMARK 924 INTRA-LIGAND FREE ENERGY PREDICTED BY IDOCK:   -0.55 KCAL/MOL
REMARK 927      BINDING AFFINITY PREDICTED BY RF-SCORE:    0.00 PKD
ROOT
HETATM    1  N   UNL     1     -11.314  16.343  63.945  1.00  0.00    -1.535 NA 
HETATM    2  C   UNL     1     -11.426  15.197  64.729  1.00  0.00    -0.383 A  
HETATM    3  H2  UNL     1     -10.330  16.582  63.828  1.00  0.00     0.000 HD 
HETATM    4  H1  UNL     1     -11.772  16.320  63.034  1.00  0.00     0.000 HD 
HETATM    5  N   UNL     1     -10.823  15.227  65.929  1.00  0.00    -0.335 NA 
HETATM    6  C   UNL     1     -10.933  14.138  66.724  1.00  0.00    -0.300 A  
HETATM    7  C   UNL     1     -11.648  12.979  66.359  1.00  0.00    -0.363 A  
HETATM    8  N   UNL     1     -10.216  14.221  67.922  1.00  0.00    -0.234 NA 
HETATM    9  H2  UNL     1     -10.476  15.064  68.435  1.00  0.00     0.000 HD 
HETATM   10  C   UNL     1     -12.156  14.108  64.282  1.00  0.00    -0.471 A  
HETATM   11  C   UNL     1     -12.260  12.988  65.106  1.00  0.00    -0.507 A  
HETATM   12  H1  UNL     1     -10.299  13.400  68.522  1.00  0.00     0.000 HD 
ENDROOT
BRANCH   7  13
HETATM   13  N   UNL     1     -11.787  11.813  67.148  1.00  0.00    -0.620 NA 
HETATM   14  H   UNL     1     -11.532  10.878  66.831  1.00  0.00     0.000 HD 
BRANCH  13  15
HETATM   15  N   UNL     1     -12.256  12.060  68.277  1.00  0.00    -0.314 NA 
HETATM   16  H   UNL     1     -12.841  12.873  68.474  1.00  0.00     0.000 HD 
BRANCH  15  17
HETATM   17  C   UNL     1     -11.899  11.108  69.253  1.00  0.00    -0.352 A  
HETATM   18  C   UNL     1     -12.613  10.870  70.438  1.00  0.00    -0.376 A  
HETATM   19  C   UNL     1     -12.149   9.939  71.376  1.00  0.00    -0.501 A  
HETATM   20  C   UNL     1     -10.978   9.224  71.131  1.00  0.00    -0.409 A  
HETATM   21  C   UNL     1     -10.281   9.422  69.942  1.00  0.00    -0.247 A  
HETATM   22  C   UNL     1     -10.745  10.352  69.011  1.00  0.00    -0.260 A  
ENDBRANCH  15  17
ENDBRANCH  13  15
ENDBRANCH   7  13
TORSDOF 3
ENDMDL
MODEL       12
REMARK 921   NORMALIZED FREE ENERGY PREDICTED BY IDOCK:   -6.14 KCAL/MOL
REMARK 922        TOTAL FREE ENERGY PREDICTED BY IDOCK:   -7.75 KCAL/MOL
REMARK 923 INTER-LIGAND FREE ENERGY PREDICTED BY IDOCK:   -7.24 KCAL/MOL
REMARK 924 INTRA-LIGAND FREE ENERGY PREDICTED BY IDOCK:   -0.51 KCAL/MOL
REMARK 927      BINDING AFFINITY PREDICTED BY RF-SCORE:    0.00 PKD
ROOT
HETATM    1  N   UNL     1     -12.738  11.415  62.831  1.00  0.00    -0.796 NA 
HETATM    2  C   UNL     1     -12.113  12.343  63.659  1.00  0.00    -0.556 A  
HETATM    3  H2  UNL     1     -12.563  11.654  61.856  1.00  0.00     0.000 HD 
HETATM    4  H1  UNL     1     -12.510  10.434  62.990  1.00  0.00     0.000 HD 
HETATM    5  N   UNL     1     -12.414  13.636  63.450  1.00  0.00    -0.800 NA 
HETATM    6  C   UNL     1     -11.841  14.561  64.254  1.00  0.00    -0.348 A  
HETATM    7  C   UNL     1     -10.949  14.238  65.297  1.00  0.00    -0.343 A  
HETATM    8  N   UNL     1     -12.147  15.885  63.923  1.00  0.00    -1.210 NA 
HETATM    9  H2  UNL     1     -13.158  16.019  63.890  1.00  0.00     0.000 HD 
HETATM   10  C   UNL     1     -11.254  11.925  64.662  1.00  0.00    -0.364 A  
HETATM   11  C   UNL     1     -10.664  12.885  65.482  1.00  0.00    -0.301 A  
HETATM   12  H1  UNL     1     -11.715  16.583  64.529  1.00  0.00     0.000 HD 
ENDROOT
BRANCH   7  13
HETATM   13  N   UNL     1     -10.317  15.166  66.159  1.00  0.00    -0.286 NA 
HETATM   14  H   UNL     1      -9.308  15.227  66.287  1.00  0.00     0.000 HD 
BRANCH  13  15
HETATM   15  N   UNL     1     -11.138  15.900  66.744  1.00  0.00    -0.148 NA 
HETATM   16  H   UNL     1     -11.629  16.668  66.286  1.00  0.00     0.000 HD 
BRANCH  15  17
HETATM   17  C   UNL     1     -11.320  15.565  68.102  1.00  0.00    -0.345 A  
HETATM   18  C   UNL     1     -11.994  14.423  68.561  1.00  0.00    -0.333 A  
HETATM   19  C   UNL     1     -12.173  14.202  69.932  1.00  0.00    -0.416 A  
HETATM   20  C   UNL     1     -11.665  15.111  70.858  1.00  0.00    -0.378 A  
HETATM   21  C   UNL     1     -10.961  16.229  70.418  1.00  0.00    -0.282 A  
HETATM   22  C   UNL     1     -10.786  16.446  69.051  1.00  0.00    -0.331 A  
ENDBRANCH  15  17
ENDBRANCH  13  15
ENDBRANCH   7  13
TORSDOF 3
ENDMDL
MODEL       13
REMARK 921   NORMALIZED FREE ENERGY PREDICTED BY IDOCK:   -6.13 KCAL/MOL
REMARK 922        TOTAL FREE ENERGY PREDICTED BY IDOCK:   -7.73 KCAL/MOL
REMARK 923 INTER-LIGAND FREE ENERGY PREDICTED BY IDOCK:   -7.16 KCAL/MOL
REMARK 924 INTRA-LIGAND FREE ENERGY PREDICTED BY IDOCK:   -0.57 KCAL/MOL
REMARK 927      BINDING AFFINITY PREDICTED BY RF-SCORE:    0.00 PKD
ROOT
HETATM    1  N   UNL     1     -12.644  13.619  64.186  1.00  0.00    -0.674 NA 
HETATM    2  C   UNL     1     -12.193  13.337  65.472  1.00  0.00    -0.457 A  
HETATM    3  H2  UNL     1     -12.251  14.507  63.873  1.00  0.00     0.000 HD 
HETATM    4  H1  UNL     1     -12.482  12.905  63.477  1.00  0.00     0.000 HD 
HETATM    5  N   UNL     1     -12.406  14.279  66.406  1.00  0.00    -0.424 NA 
HETATM    6  C   UNL     1     -12.001  14.025  67.672  1.00  0.00    -0.368 A  
HETATM    7  C   UNL     1     -11.370  12.825  68.058  1.00  0.00    -0.292 A  
HETATM    8  N   UNL     1     -12.192  15.084  68.565  1.00  0.00    -0.602 NA 
HETATM    9  H2  UNL     1     -13.167  15.384  68.557  1.00  0.00     0.000 HD 
HETATM   10  C   UNL     1     -11.587  12.123  65.755  1.00  0.00    -0.414 A  
HETATM   11  C   UNL     1     -11.168  11.872  67.060  1.00  0.00    -0.379 A  
HETATM   12  H1  UNL     1     -11.887  14.892  69.519  1.00  0.00     0.000 HD 
ENDROOT
BRANCH   7  13
HETATM   13  N   UNL     1     -10.921  12.512  69.364  1.00  0.00    -0.450 NA 
HETATM   14  H   UNL     1      -9.946  12.331  69.601  1.00  0.00     0.000 HD 
BRANCH  13  15
HETATM   15  N   UNL     1     -11.855  12.485  70.190  1.00  0.00    -0.510 NA 
HETATM   16  H   UNL     1     -12.416  13.303  70.428  1.00  0.00     0.000 HD 
BRANCH  15  17
HETATM   17  C   UNL     1     -12.059  11.212  70.761  1.00  0.00    -0.357 A  
HETATM   18  C   UNL     1     -13.121  10.881  71.617  1.00  0.00    -0.538 A  
HETATM   19  C   UNL     1     -13.210   9.602  72.182  1.00  0.00    -0.535 A  
HETATM   20  C   UNL     1     -12.250   8.637  71.882  1.00  0.00    -0.419 A  
HETATM   21  C   UNL     1     -11.212   8.941  71.005  1.00  0.00    -0.342 A  
HETATM   22  C   UNL     1     -11.125  10.217  70.446  1.00  0.00    -0.393 A  
ENDBRANCH  15  17
ENDBRANCH  13  15
ENDBRANCH   7  13
TORSDOF 3
ENDMDL
MODEL       14
REMARK 921   NORMALIZED FREE ENERGY PREDICTED BY IDOCK:   -6.12 KCAL/MOL
REMARK 922        TOTAL FREE ENERGY PREDICTED BY IDOCK:   -7.73 KCAL/MOL
REMARK 923 INTER-LIGAND FREE ENERGY PREDICTED BY IDOCK:   -7.39 KCAL/MOL
REMARK 924 INTRA-LIGAND FREE ENERGY PREDICTED BY IDOCK:   -0.34 KCAL/MOL
REMARK 927      BINDING AFFINITY PREDICTED BY RF-SCORE:    0.00 PKD
ROOT
HETATM    1  N   UNL     1     -12.608  16.425  74.554  1.00  0.00    -0.915 NA 
HETATM    2  C   UNL     1     -12.596  15.730  73.348  1.00  0.00    -0.545 A  
HETATM    3  H2  UNL     1     -12.202  15.844  75.287  1.00  0.00     0.000 HD 
HETATM    4  H1  UNL     1     -12.162  17.342  74.558  1.00  0.00     0.000 HD 
HETATM    5  N   UNL     1     -13.182  14.521  73.343  1.00  0.00    -0.518 NA 
HETATM    6  C   UNL     1     -13.208  13.830  72.180  1.00  0.00    -0.447 A  
HETATM    7  C   UNL     1     -12.654  14.315  70.977  1.00  0.00    -0.358 A  
HETATM    8  N   UNL     1     -13.769  12.553  72.277  1.00  0.00    -0.501 NA 
HETATM    9  H2  UNL     1     -14.705  12.605  72.681  1.00  0.00     0.000 HD 
HETATM   10  C   UNL     1     -12.029  16.294  72.216  1.00  0.00    -0.605 A  
HETATM   11  C   UNL     1     -12.056  15.573  71.024  1.00  0.00    -0.438 A  
HETATM   12  H1  UNL     1     -13.789  12.032  71.400  1.00  0.00     0.000 HD 
ENDROOT
BRANCH   7  13
HETATM   13  N   UNL     1     -12.648  13.631  69.738  1.00  0.00    -0.181 NA 
HETATM   14  H   UNL     1     -12.871  12.641  69.633  1.00  0.00     0.000 HD 
BRANCH  13  15
HETATM   15  N   UNL     1     -12.339  14.378  68.788  1.00  0.00    -0.585 NA 
HETATM   16  H   UNL     1     -12.339  15.396  68.854  1.00  0.00     0.000 HD 
BRANCH  15  17
HETATM   17  C   UNL     1     -11.992  13.677  67.615  1.00  0.00    -0.351 A  
HETATM   18  C   UNL     1     -12.044  14.212  66.319  1.00  0.00    -0.463 A  
HETATM   19  C   UNL     1     -11.731  13.420  65.207  1.00  0.00    -0.346 A  
HETATM   20  C   UNL     1     -11.346  12.092  65.380  1.00  0.00    -0.388 A  
HETATM   21  C   UNL     1     -11.253  11.559  66.663  1.00  0.00    -0.336 A  
HETATM   22  C   UNL     1     -11.568  12.351  67.769  1.00  0.00    -0.413 A  
ENDBRANCH  15  17
ENDBRANCH  13  15
ENDBRANCH   7  13
TORSDOF 3
ENDMDL
MODEL       15
REMARK 921   NORMALIZED FREE ENERGY PREDICTED BY IDOCK:   -6.12 KCAL/MOL
REMARK 922        TOTAL FREE ENERGY PREDICTED BY IDOCK:   -7.72 KCAL/MOL
REMARK 923 INTER-LIGAND FREE ENERGY PREDICTED BY IDOCK:   -7.37 KCAL/MOL
REMARK 924 INTRA-LIGAND FREE ENERGY PREDICTED BY IDOCK:   -0.35 KCAL/MOL
REMARK 927      BINDING AFFINITY PREDICTED BY RF-SCORE:    0.00 PKD
ROOT
HETATM    1  N   UNL     1     -11.113   6.374  70.774  1.00  0.00    -0.287 NA 
HETATM    2  C   UNL     1     -11.631   7.632  71.067  1.00  0.00    -0.282 A  
HETATM    3  H2  UNL     1     -11.851   5.780  70.397  1.00  0.00     0.000 HD 
HETATM    4  H1  UNL     1     -10.302   6.345  70.157  1.00  0.00     0.000 HD 
HETATM    5  N   UNL     1     -12.700   7.670  71.879  1.00  0.00    -0.310 NA 
HETATM    6  C   UNL     1     -13.212   8.880  72.202  1.00  0.00    -0.429 A  
HETATM    7  C   UNL     1     -12.681  10.098  71.731  1.00  0.00    -0.434 A  
HETATM    8  N   UNL     1     -14.367   8.829  72.989  1.00  0.00    -1.133 NA 
HETATM    9  H2  UNL     1     -14.199   8.277  73.831  1.00  0.00     0.000 HD 
HETATM   10  C   UNL     1     -11.034   8.774  70.558  1.00  0.00    -0.272 A  
HETATM   11  C   UNL     1     -11.571  10.016  70.892  1.00  0.00    -0.463 A  
HETATM   12  H1  UNL     1     -14.753   9.741  73.233  1.00  0.00     0.000 HD 
ENDROOT
BRANCH   7  13
HETATM   13  N   UNL     1     -13.183  11.387  72.032  1.00  0.00    -0.527 NA 
HETATM   14  H   UNL     1     -13.625  11.633  72.917  1.00  0.00     0.000 HD 
BRANCH  13  15
HETATM   15  N   UNL     1     -13.022  12.188  71.090  1.00  0.00    -0.225 NA 
HETATM   16  H   UNL     1     -13.060  11.912  70.108  1.00  0.00     0.000 HD 
BRANCH  15  17
HETATM   17  C   UNL     1     -12.780  13.511  71.514  1.00  0.00    -0.322 A  
HETATM   18  C   UNL     1     -11.902  14.405  70.883  1.00  0.00    -0.346 A  
HETATM   19  C   UNL     1     -11.686  15.685  71.411  1.00  0.00    -0.491 A  
HETATM   20  C   UNL     1     -12.358  16.088  72.563  1.00  0.00    -0.584 A  
HETATM   21  C   UNL     1     -13.261  15.224  73.178  1.00  0.00    -0.612 A  
HETATM   22  C   UNL     1     -13.472  13.950  72.650  1.00  0.00    -0.652 A  
ENDBRANCH  15  17
ENDBRANCH  13  15
ENDBRANCH   7  13
TORSDOF 3
ENDMDL
MODEL       16
REMARK 921   NORMALIZED FREE ENERGY PREDICTED BY IDOCK:   -6.11 KCAL/MOL
REMARK 922        TOTAL FREE ENERGY PREDICTED BY IDOCK:   -7.72 KCAL/MOL
REMARK 923 INTER-LIGAND FREE ENERGY PREDICTED BY IDOCK:   -7.40 KCAL/MOL
REMARK 924 INTRA-LIGAND FREE ENERGY PREDICTED BY IDOCK:   -0.31 KCAL/MOL
REMARK 927      BINDING AFFINITY PREDICTED BY RF-SCORE:    0.00 PKD
ROOT
HETATM    1  N   UNL     1     -10.009  12.790  63.649  1.00  0.00    -0.715 NA 
HETATM    2  C   UNL     1     -10.623  13.138  64.849  1.00  0.00    -0.349 A  
HETATM    3  H2  UNL     1     -10.583  12.105  63.158  1.00  0.00     0.000 HD 
HETATM    4  H1  UNL     1      -9.773  13.555  63.018  1.00  0.00     0.000 HD 
HETATM    5  N   UNL     1     -10.935  12.131  65.681  1.00  0.00    -0.285 NA 
HETATM    6  C   UNL     1     -11.511  12.438  66.866  1.00  0.00    -0.360 A  
HETATM    7  C   UNL     1     -11.798  13.757  67.270  1.00  0.00    -0.401 A  
HETATM    8  N   UNL     1     -11.871  11.330  67.640  1.00  0.00    -0.627 NA 
HETATM    9  H2  UNL     1     -11.066  10.720  67.783  1.00  0.00     0.000 HD 
HETATM   10  C   UNL     1     -10.860  14.468  65.159  1.00  0.00    -0.407 A  
HETATM   11  C   UNL     1     -11.459  14.775  66.379  1.00  0.00    -0.319 A  
HETATM   12  H1  UNL     1     -12.305  11.561  68.534  1.00  0.00     0.000 HD 
ENDROOT
BRANCH   7  13
HETATM   13  N   UNL     1     -12.405  14.132  68.493  1.00  0.00    -0.541 NA 
HETATM   14  H   UNL     1     -13.285  13.744  68.833  1.00  0.00     0.000 HD 
BRANCH  13  15
HETATM   15  N   UNL     1     -11.740  14.990  69.107  1.00  0.00    -0.305 NA 
HETATM   16  H   UNL     1     -11.017  15.559  68.666  1.00  0.00     0.000 HD 
BRANCH  15  17
HETATM   17  C   UNL     1     -12.085  15.095  70.470  1.00  0.00    -0.343 A  
HETATM   18  C   UNL     1     -11.639  16.109  71.332  1.00  0.00    -0.495 A  
HETATM   19  C   UNL     1     -11.991  16.099  72.688  1.00  0.00    -0.653 A  
HETATM   20  C   UNL     1     -12.806  15.087  73.191  1.00  0.00    -0.615 A  
HETATM   21  C   UNL     1     -13.287  14.096  72.339  1.00  0.00    -0.591 A  
HETATM   22  C   UNL     1     -12.932  14.108  70.989  1.00  0.00    -0.399 A  
ENDBRANCH  15  17
ENDBRANCH  13  15
ENDBRANCH   7  13
TORSDOF 3
ENDMDL
MODEL       17
REMARK 921   NORMALIZED FREE ENERGY PREDICTED BY IDOCK:   -6.10 KCAL/MOL
REMARK 922        TOTAL FREE ENERGY PREDICTED BY IDOCK:   -7.70 KCAL/MOL
REMARK 923 INTER-LIGAND FREE ENERGY PREDICTED BY IDOCK:   -7.17 KCAL/MOL
REMARK 924 INTRA-LIGAND FREE ENERGY PREDICTED BY IDOCK:   -0.54 KCAL/MOL
REMARK 927      BINDING AFFINITY PREDICTED BY RF-SCORE:    0.00 PKD
ROOT
HETATM    1  N   UNL     1      -9.784  20.054  65.549  1.00  0.00    -0.430 NA 
HETATM    2  C   UNL     1     -10.064  19.014  66.431  1.00  0.00    -0.415 A  
HETATM    3  H2  UNL     1     -10.516  20.109  64.842  1.00  0.00     0.000 HD 
HETATM    4  H1  UNL     1      -9.635  20.975  65.960  1.00  0.00     0.000 HD 
HETATM    5  N   UNL     1     -10.260  17.801  65.889  1.00  0.00    -0.573 NA 
HETATM    6  C   UNL     1     -10.511  16.764  66.722  1.00  0.00    -0.258 A  
HETATM    7  C   UNL     1     -10.575  16.893  68.124  1.00  0.00    -0.360 A  
HETATM    8  N   UNL     1     -10.777  15.553  66.075  1.00  0.00    -0.323 NA 
HETATM    9  H2  UNL     1     -10.018  15.319  65.434  1.00  0.00     0.000 HD 
HETATM   10  C   UNL     1     -10.100  19.241  67.797  1.00  0.00    -0.488 A  
HETATM   11  C   UNL     1     -10.365  18.169  68.647  1.00  0.00    -0.315 A  
HETATM   12  H1  UNL     1     -10.965  14.771  66.703  1.00  0.00     0.000 HD 
ENDROOT
BRANCH   7  13
HETATM   13  N   UNL     1     -10.841  15.845  69.038  1.00  0.00    -0.247 NA 
HETATM   14  H   UNL     1     -10.119  15.347  69.557  1.00  0.00     0.000 HD 
BRANCH  13  15
HETATM   15  N   UNL     1     -12.060  15.601  69.134  1.00  0.00    -0.564 NA 
HETATM   16  H   UNL     1     -12.665  15.443  68.328  1.00  0.00     0.000 HD 
BRANCH  15  17
HETATM   17  C   UNL     1     -12.521  15.568  70.466  1.00  0.00    -0.427 A  
HETATM   18  C   UNL     1     -13.777  15.086  70.867  1.00  0.00    -0.319 A  
HETATM   19  C   UNL     1     -14.168  15.145  72.210  1.00  0.00    -0.613 A  
HETATM   20  C   UNL     1     -13.302  15.667  73.169  1.00  0.00    -0.660 A  
HETATM   21  C   UNL     1     -12.038  16.114  72.791  1.00  0.00    -0.653 A  
HETATM   22  C   UNL     1     -11.652  16.056  71.451  1.00  0.00    -0.520 A  
ENDBRANCH  15  17
ENDBRANCH  13  15
ENDBRANCH   7  13
TORSDOF 3
ENDMDL
MODEL       18
REMARK 921   NORMALIZED FREE ENERGY PREDICTED BY IDOCK:   -6.05 KCAL/MOL
REMARK 922        TOTAL FREE ENERGY PREDICTED BY IDOCK:   -7.64 KCAL/MOL
REMARK 923 INTER-LIGAND FREE ENERGY PREDICTED BY IDOCK:   -7.00 KCAL/MOL
REMARK 924 INTRA-LIGAND FREE ENERGY PREDICTED BY IDOCK:   -0.65 KCAL/MOL
REMARK 927      BINDING AFFINITY PREDICTED BY RF-SCORE:    0.00 PKD
ROOT
HETATM    1  N   UNL     1     -11.845  15.864  63.937  1.00  0.00    -1.258 NA 
HETATM    2  C   UNL     1     -11.602  15.203  65.138  1.00  0.00    -0.245 A  
HETATM    3  H2  UNL     1     -10.994  15.874  63.374  1.00  0.00     0.000 HD 
HETATM    4  H1  UNL     1     -12.623  15.520  63.375  1.00  0.00     0.000 HD 
HETATM    5  N   UNL     1     -10.576  15.655  65.878  1.00  0.00    -0.329 NA 
HETATM    6  C   UNL     1     -10.330  15.050  67.062  1.00  0.00    -0.269 A  
HETATM    7  C   UNL     1     -11.093  13.972  67.557  1.00  0.00    -0.298 A  
HETATM    8  N   UNL     1      -9.202  15.530  67.735  1.00  0.00    -0.180 NA 
HETATM    9  H2  UNL     1      -9.265  16.541  67.859  1.00  0.00     0.000 HD 
HETATM   10  C   UNL     1     -12.414  14.155  65.541  1.00  0.00    -0.495 A  
HETATM   11  C   UNL     1     -12.150  13.533  66.759  1.00  0.00    -0.425 A  
HETATM   12  H1  UNL     1      -9.016  15.074  68.628  1.00  0.00     0.000 HD 
ENDROOT
BRANCH   7  13
HETATM   13  N   UNL     1     -10.873  13.300  68.783  1.00  0.00    -0.250 NA 
HETATM   14  H   UNL     1     -10.770  12.289  68.866  1.00  0.00     0.000 HD 
BRANCH  13  15
HETATM   15  N   UNL     1     -10.820  14.086  69.749  1.00  0.00    -0.456 NA 
HETATM   16  H   UNL     1      -9.993  14.640  69.976  1.00  0.00     0.000 HD 
BRANCH  15  17
HETATM   17  C   UNL     1     -12.013  14.134  70.499  1.00  0.00    -0.323 A  
HETATM   18  C   UNL     1     -12.838  15.263  70.619  1.00  0.00    -0.462 A  
HETATM   19  C   UNL     1     -13.978  15.231  71.432  1.00  0.00    -0.601 A  
HETATM   20  C   UNL     1     -14.314  14.066  72.118  1.00  0.00    -0.577 A  
HETATM   21  C   UNL     1     -13.526  12.926  71.978  1.00  0.00    -0.568 A  
HETATM   22  C   UNL     1     -12.390  12.962  71.169  1.00  0.00    -0.262 A  
ENDBRANCH  15  17
ENDBRANCH  13  15
ENDBRANCH   7  13
TORSDOF 3
ENDMDL
MODEL       19
REMARK 921   NORMALIZED FREE ENERGY PREDICTED BY IDOCK:   -6.03 KCAL/MOL
REMARK 922        TOTAL FREE ENERGY PREDICTED BY IDOCK:   -7.62 KCAL/MOL
REMARK 923 INTER-LIGAND FREE ENERGY PREDICTED BY IDOCK:   -7.14 KCAL/MOL
REMARK 924 INTRA-LIGAND FREE ENERGY PREDICTED BY IDOCK:   -0.48 KCAL/MOL
REMARK 927      BINDING AFFINITY PREDICTED BY RF-SCORE:    0.00 PKD
ROOT
HETATM    1  N   UNL     1     -12.872  11.606  63.076  1.00  0.00    -0.889 NA 
HETATM    2  C   UNL     1     -12.302  12.581  63.890  1.00  0.00    -0.485 A  
HETATM    3  H2  UNL     1     -12.519  11.705  62.125  1.00  0.00     0.000 HD 
HETATM    4  H1  UNL     1     -12.768  10.638  63.381  1.00  0.00     0.000 HD 
HETATM    5  N   UNL     1     -12.439  13.856  63.489  1.00  0.00    -0.812 NA 
HETATM    6  C   UNL     1     -11.917  14.829  64.270  1.00  0.00    -0.368 A  
HETATM    7  C   UNL     1     -11.241  14.573  65.481  1.00  0.00    -0.335 A  
HETATM    8  N   UNL     1     -12.036  16.120  63.745  1.00  0.00    -1.338 NA 
HETATM    9  H2  UNL     1     -13.011  16.325  63.524  1.00  0.00     0.000 HD 
HETATM   10  C   UNL     1     -11.661  12.229  65.067  1.00  0.00    -0.405 A  
HETATM   11  C   UNL     1     -11.122  13.237  65.863  1.00  0.00    -0.301 A  
HETATM   12  H1  UNL     1     -11.643  16.854  64.335  1.00  0.00     0.000 HD 
ENDROOT
BRANCH   7  13
HETATM   13  N   UNL     1     -10.671  15.552  66.330  1.00  0.00    -0.310 NA 
HETATM   14  H   UNL     1     -10.825  15.590  67.337  1.00  0.00     0.000 HD 
BRANCH  13  15
HETATM   15  N   UNL     1      -9.959  16.362  65.704  1.00  0.00    -0.529 NA 
HETATM   16  H   UNL     1     -10.287  16.883  64.889  1.00  0.00     0.000 HD 
BRANCH  15  17
HETATM   17  C   UNL     1      -8.658  16.489  66.232  1.00  0.00    -0.332 A  
HETATM   18  C   UNL     1      -7.932  15.446  66.827  1.00  0.00    -0.165 A  
HETATM   19  C   UNL     1      -6.664  15.681  67.375  1.00  0.00    -0.218 A  
HETATM   20  C   UNL     1      -6.103  16.955  67.316  1.00  0.00    -0.195 A  
HETATM   21  C   UNL     1      -6.796  17.990  66.695  1.00  0.00    -0.239 A  
HETATM   22  C   UNL     1      -8.060  17.753  66.153  1.00  0.00    -0.216 A  
ENDBRANCH  15  17
ENDBRANCH  13  15
ENDBRANCH   7  13
TORSDOF 3
ENDMDL
MODEL       20
REMARK 921   NORMALIZED FREE ENERGY PREDICTED BY IDOCK:   -6.01 KCAL/MOL
REMARK 922        TOTAL FREE ENERGY PREDICTED BY IDOCK:   -7.60 KCAL/MOL
REMARK 923 INTER-LIGAND FREE ENERGY PREDICTED BY IDOCK:   -7.23 KCAL/MOL
REMARK 924 INTRA-LIGAND FREE ENERGY PREDICTED BY IDOCK:   -0.37 KCAL/MOL
REMARK 927      BINDING AFFINITY PREDICTED BY RF-SCORE:    0.00 PKD
ROOT
HETATM    1  N   UNL     1     -11.447  16.438  63.856  1.00  0.00    -1.618 NA 
HETATM    2  C   UNL     1     -11.599  15.303  64.646  1.00  0.00    -0.333 A  
HETATM    3  H2  UNL     1     -12.363  16.782  63.571  1.00  0.00     0.000 HD 
HETATM    4  H1  UNL     1     -10.904  17.203  64.255  1.00  0.00     0.000 HD 
HETATM    5  N   UNL     1     -12.315  14.295  64.121  1.00  0.00    -0.674 NA 
HETATM    6  C   UNL     1     -12.461  13.167  64.855  1.00  0.00    -0.433 A  
HETATM    7  C   UNL     1     -11.901  12.997  66.137  1.00  0.00    -0.409 A  
HETATM    8  N   UNL     1     -13.281  12.197  64.269  1.00  0.00    -0.725 NA 
HETATM    9  H2  UNL     1     -12.950  11.971  63.331  1.00  0.00     0.000 HD 
HETATM   10  C   UNL     1     -11.003  15.229  65.895  1.00  0.00    -0.325 A  
HETATM   11  C   UNL     1     -11.164  14.066  66.646  1.00  0.00    -0.330 A  
HETATM   12  H1  UNL     1     -13.391  11.347  64.822  1.00  0.00     0.000 HD 
ENDROOT
BRANCH   7  13
HETATM   13  N   UNL     1     -12.030  11.844  66.948  1.00  0.00    -0.591 NA 
HETATM   14  H   UNL     1     -12.893  11.311  67.044  1.00  0.00     0.000 HD 
BRANCH  13  15
HETATM   15  N   UNL     1     -10.965  11.555  67.529  1.00  0.00    -0.239 NA 
HETATM   16  H   UNL     1     -10.522  12.162  68.220  1.00  0.00     0.000 HD 
BRANCH  15  17
HETATM   17  C   UNL     1     -10.435  10.308  67.139  1.00  0.00    -0.254 A  
HETATM   18  C   UNL     1      -9.662  10.093  65.987  1.00  0.00    -0.285 A  
HETATM   19  C   UNL     1      -9.225   8.805  65.652  1.00  0.00    -0.244 A  
HETATM   20  C   UNL     1      -9.538   7.724  66.474  1.00  0.00    -0.270 A  
HETATM   21  C   UNL     1     -10.272   7.929  67.640  1.00  0.00    -0.289 A  
HETATM   22  C   UNL     1     -10.708   9.213  67.969  1.00  0.00    -0.205 A  
ENDBRANCH  15  17
ENDBRANCH  13  15
ENDBRANCH   7  13
TORSDOF 3
ENDMDL
MODEL       21
REMARK 921   NORMALIZED FREE ENERGY PREDICTED BY IDOCK:   -6.01 KCAL/MOL
REMARK 922        TOTAL FREE ENERGY PREDICTED BY IDOCK:   -7.60 KCAL/MOL
REMARK 923 INTER-LIGAND FREE ENERGY PREDICTED BY IDOCK:   -7.21 KCAL/MOL
REMARK 924 INTRA-LIGAND FREE ENERGY PREDICTED BY IDOCK:   -0.39 KCAL/MOL
REMARK 927      BINDING AFFINITY PREDICTED BY RF-SCORE:    0.00 PKD
ROOT
HETATM    1  N   UNL     1     -10.293  10.721  62.612  1.00  0.00    -0.759 NA 
HETATM    2  C   UNL     1     -10.754  11.540  63.639  1.00  0.00    -0.424 A  
HETATM    3  H2  UNL     1      -9.694  11.260  61.988  1.00  0.00     0.000 HD 
HETATM    4  H1  UNL     1      -9.815   9.864  62.889  1.00  0.00     0.000 HD 
HETATM    5  N   UNL     1     -11.383  12.669  63.274  1.00  0.00    -0.388 NA 
HETATM    6  C   UNL     1     -11.865  13.474  64.248  1.00  0.00    -0.428 A  
HETATM    7  C   UNL     1     -11.740  13.188  65.623  1.00  0.00    -0.364 A  
HETATM    8  N   UNL     1     -12.439  14.663  63.787  1.00  0.00    -1.068 NA 
HETATM    9  H2  UNL     1     -13.166  14.463  63.099  1.00  0.00     0.000 HD 
HETATM   10  C   UNL     1     -10.588  11.168  64.963  1.00  0.00    -0.340 A  
HETATM   11  C   UNL     1     -11.081  12.006  65.961  1.00  0.00    -0.364 A  
HETATM   12  H1  UNL     1     -12.802  15.270  64.522  1.00  0.00     0.000 HD 
ENDROOT
BRANCH   7  13
HETATM   13  N   UNL     1     -12.218  13.998  66.681  1.00  0.00    -0.448 NA 
HETATM   14  H   UNL     1     -13.174  14.347  66.743  1.00  0.00     0.000 HD 
BRANCH  13  15
HETATM   15  N   UNL     1     -11.334  14.237  67.528  1.00  0.00    -0.310 NA 
HETATM   16  H   UNL     1     -10.357  14.404  67.286  1.00  0.00     0.000 HD 
BRANCH  15  17
HETATM   17  C   UNL     1     -11.818  14.253  68.852  1.00  0.00    -0.336 A  
HETATM   18  C   UNL     1     -12.140  15.415  69.572  1.00  0.00    -0.332 A  
HETATM   19  C   UNL     1     -12.562  15.334  70.905  1.00  0.00    -0.471 A  
HETATM   20  C   UNL     1     -12.686  14.092  71.525  1.00  0.00    -0.443 A  
HETATM   21  C   UNL     1     -12.406  12.929  70.811  1.00  0.00    -0.385 A  
HETATM   22  C   UNL     1     -11.984  13.014  69.484  1.00  0.00    -0.350 A  
ENDBRANCH  15  17
ENDBRANCH  13  15
ENDBRANCH   7  13
TORSDOF 3
ENDMDL
MODEL       22
REMARK 921   NORMALIZED FREE ENERGY PREDICTED BY IDOCK:   -5.99 KCAL/MOL
REMARK 922        TOTAL FREE ENERGY PREDICTED BY IDOCK:   -7.57 KCAL/MOL
REMARK 923 INTER-LIGAND FREE ENERGY PREDICTED BY IDOCK:   -7.03 KCAL/MOL
REMARK 924 INTRA-LIGAND FREE ENERGY PREDICTED BY IDOCK:   -0.54 KCAL/MOL
REMARK 927      BINDING AFFINITY PREDICTED BY RF-SCORE:    0.00 PKD
ROOT
HETATM    1  N   UNL     1      -9.627   6.690  72.833  1.00  0.00    -0.148 NA 
HETATM    2  C   UNL     1     -10.459   7.706  72.371  1.00  0.00    -0.248 A  
HETATM    3  H2  UNL     1     -10.102   5.792  72.744  1.00  0.00     0.000 HD 
HETATM    4  H1  UNL     1      -8.701   6.630  72.412  1.00  0.00     0.000 HD 
HETATM    5  N   UNL     1     -11.680   7.785  72.925  1.00  0.00    -0.268 NA 
HETATM    6  C   UNL     1     -12.503   8.777  72.515  1.00  0.00    -0.298 A  
HETATM    7  C   UNL     1     -12.145   9.729  71.539  1.00  0.00    -0.409 A  
HETATM    8  N   UNL     1     -13.780   8.743  73.085  1.00  0.00    -1.045 NA 
HETATM    9  H2  UNL     1     -13.714   8.734  74.103  1.00  0.00     0.000 HD 
HETATM   10  C   UNL     1     -10.012   8.598  71.410  1.00  0.00    -0.324 A  
HETATM   11  C   UNL     1     -10.868   9.614  70.988  1.00  0.00    -0.412 A  
HETATM   12  H1  UNL     1     -14.401   9.491  72.776  1.00  0.00     0.000 HD 
ENDROOT
BRANCH   7  13
HETATM   13  N   UNL     1     -12.969  10.779  71.069  1.00  0.00    -0.360 NA 
HETATM   14  H   UNL     1     -13.191  10.931  70.086  1.00  0.00     0.000 HD 
BRANCH  13  15
HETATM   15  N   UNL     1     -13.393  11.497  71.996  1.00  0.00    -0.511 NA 
HETATM   16  H   UNL     1     -13.757  11.122  72.873  1.00  0.00     0.000 HD 
BRANCH  15  17
HETATM   17  C   UNL     1     -13.320  12.877  71.714  1.00  0.00    -0.359 A  
HETATM   18  C   UNL     1     -14.158  13.853  72.275  1.00  0.00    -0.632 A  
HETATM   19  C   UNL     1     -14.046  15.195  71.891  1.00  0.00    -0.649 A  
HETATM   20  C   UNL     1     -13.085  15.577  70.957  1.00  0.00    -0.551 A  
HETATM   21  C   UNL     1     -12.223  14.625  70.421  1.00  0.00    -0.391 A  
HETATM   22  C   UNL     1     -12.338  13.288  70.804  1.00  0.00    -0.425 A  
ENDBRANCH  15  17
ENDBRANCH  13  15
ENDBRANCH   7  13
TORSDOF 3
ENDMDL
MODEL       23
REMARK 921   NORMALIZED FREE ENERGY PREDICTED BY IDOCK:   -5.97 KCAL/MOL
REMARK 922        TOTAL FREE ENERGY PREDICTED BY IDOCK:   -7.54 KCAL/MOL
REMARK 923 INTER-LIGAND FREE ENERGY PREDICTED BY IDOCK:   -7.00 KCAL/MOL
REMARK 924 INTRA-LIGAND FREE ENERGY PREDICTED BY IDOCK:   -0.55 KCAL/MOL
REMARK 927      BINDING AFFINITY PREDICTED BY RF-SCORE:    0.00 PKD
ROOT
HETATM    1  N   UNL     1     -12.271  12.184  65.987  1.00  0.00    -0.525 NA 
HETATM    2  C   UNL     1     -11.479  13.327  65.926  1.00  0.00    -0.332 A  
HETATM    3  H2  UNL     1     -12.323  11.755  65.063  1.00  0.00     0.000 HD 
HETATM    4  H1  UNL     1     -12.009  11.481  66.677  1.00  0.00     0.000 HD 
HETATM    5  N   UNL     1     -11.824  14.253  65.017  1.00  0.00    -0.377 NA 
HETATM    6  C   UNL     1     -11.088  15.386  64.950  1.00  0.00    -0.423 A  
HETATM    7  C   UNL     1      -9.981  15.643  65.784  1.00  0.00    -0.359 A  
HETATM    8  N   UNL     1     -11.467  16.264  63.929  1.00  0.00    -1.539 NA 
HETATM    9  H2  UNL     1     -12.460  16.488  64.004  1.00  0.00     0.000 HD 
HETATM   10  C   UNL     1     -10.412  13.490  66.795  1.00  0.00    -0.273 A  
HETATM   11  C   UNL     1      -9.655  14.657  66.715  1.00  0.00    -0.266 A  
HETATM   12  H1  UNL     1     -10.912  17.118  63.879  1.00  0.00     0.000 HD 
ENDROOT
BRANCH   7  13
HETATM   13  N   UNL     1      -9.174  16.805  65.750  1.00  0.00    -0.518 NA 
HETATM   14  H   UNL     1      -8.239  16.836  65.344  1.00  0.00     0.000 HD 
BRANCH  13  15
HETATM   15  N   UNL     1      -9.739  17.787  66.272  1.00  0.00    -0.430 NA 
HETATM   16  H   UNL     1     -10.738  17.973  66.180  1.00  0.00     0.000 HD 
BRANCH  15  17
HETATM   17  C   UNL     1      -8.861  18.614  67.002  1.00  0.00    -0.281 A  
HETATM   18  C   UNL     1      -8.595  19.960  66.703  1.00  0.00    -0.390 A  
HETATM   19  C   UNL     1      -7.664  20.687  67.454  1.00  0.00    -0.355 A  
HETATM   20  C   UNL     1      -7.002  20.084  68.522  1.00  0.00    -0.324 A  
HETATM   21  C   UNL     1      -7.283  18.761  68.853  1.00  0.00    -0.333 A  
HETATM   22  C   UNL     1      -8.210  18.038  68.101  1.00  0.00    -0.275 A  
ENDBRANCH  15  17
ENDBRANCH  13  15
ENDBRANCH   7  13
TORSDOF 3
ENDMDL
MODEL       24
REMARK 921   NORMALIZED FREE ENERGY PREDICTED BY IDOCK:   -5.94 KCAL/MOL
REMARK 922        TOTAL FREE ENERGY PREDICTED BY IDOCK:   -7.52 KCAL/MOL
REMARK 923 INTER-LIGAND FREE ENERGY PREDICTED BY IDOCK:   -7.03 KCAL/MOL
REMARK 924 INTRA-LIGAND FREE ENERGY PREDICTED BY IDOCK:   -0.49 KCAL/MOL
REMARK 927      BINDING AFFINITY PREDICTED BY RF-SCORE:    0.00 PKD
ROOT
HETATM    1  N   UNL     1     -12.355  14.066  63.169  1.00  0.00    -1.094 NA 
HETATM    2  C   UNL     1     -11.990  13.538  64.404  1.00  0.00    -0.422 A  
HETATM    3  H2  UNL     1     -11.965  15.003  63.070  1.00  0.00     0.000 HD 
HETATM    4  H1  UNL     1     -12.124  13.510  62.347  1.00  0.00     0.000 HD 
HETATM    5  N   UNL     1     -12.295  14.271  65.488  1.00  0.00    -0.420 NA 
HETATM    6  C   UNL     1     -11.975  13.773  66.704  1.00  0.00    -0.431 A  
HETATM    7  C   UNL     1     -11.341  12.528  66.891  1.00  0.00    -0.326 A  
HETATM    8  N   UNL     1     -12.257  14.630  67.773  1.00  0.00    -0.596 NA 
HETATM    9  H2  UNL     1     -13.237  14.913  67.751  1.00  0.00     0.000 HD 
HETATM   10  C   UNL     1     -11.374  12.299  64.485  1.00  0.00    -0.385 A  
HETATM   11  C   UNL     1     -11.042  11.797  65.742  1.00  0.00    -0.351 A  
HETATM   12  H1  UNL     1     -12.016  14.254  68.691  1.00  0.00     0.000 HD 
ENDROOT
BRANCH   7  13
HETATM   13  N   UNL     1     -10.978  11.966  68.139  1.00  0.00    -0.213 NA 
HETATM   14  H   UNL     1     -10.023  11.713  68.392  1.00  0.00     0.000 HD 
BRANCH  13  15
HETATM   15  N   UNL     1     -11.960  11.816  68.892  1.00  0.00    -0.308 NA 
HETATM   16  H   UNL     1     -12.834  12.331  68.782  1.00  0.00     0.000 HD 
BRANCH  15  17
HETATM   17  C   UNL     1     -11.744  10.866  69.911  1.00  0.00    -0.339 A  
HETATM   18  C   UNL     1     -10.591  10.075  70.036  1.00  0.00    -0.344 A  
HETATM   19  C   UNL     1     -10.490   9.116  71.052  1.00  0.00    -0.368 A  
HETATM   20  C   UNL     1     -11.531   8.951  71.963  1.00  0.00    -0.431 A  
HETATM   21  C   UNL     1     -12.665   9.755  71.874  1.00  0.00    -0.501 A  
HETATM   22  C   UNL     1     -12.763  10.708  70.859  1.00  0.00    -0.498 A  
ENDBRANCH  15  17
ENDBRANCH  13  15
ENDBRANCH   7  13
TORSDOF 3
ENDMDL
MODEL       25
REMARK 921   NORMALIZED FREE ENERGY PREDICTED BY IDOCK:   -5.91 KCAL/MOL
REMARK 922        TOTAL FREE ENERGY PREDICTED BY IDOCK:   -7.48 KCAL/MOL
REMARK 923 INTER-LIGAND FREE ENERGY PREDICTED BY IDOCK:   -7.14 KCAL/MOL
REMARK 924 INTRA-LIGAND FREE ENERGY PREDICTED BY IDOCK:   -0.33 KCAL/MOL
REMARK 927      BINDING AFFINITY PREDICTED BY RF-SCORE:    0.00 PKD
ROOT
HETATM    1  N   UNL     1     -12.532  11.420  62.918  1.00  0.00    -0.863 NA 
HETATM    2  C   UNL     1     -11.930  12.418  63.680  1.00  0.00    -0.539 A  
HETATM    3  H2  UNL     1     -12.709  10.604  63.503  1.00  0.00     0.000 HD 
HETATM    4  H1  UNL     1     -13.384  11.676  62.421  1.00  0.00     0.000 HD 
HETATM    5  N   UNL     1     -10.807  12.081  64.335  1.00  0.00    -0.308 NA 
HETATM    6  C   UNL     1     -10.184  13.035  65.065  1.00  0.00    -0.269 A  
HETATM    7  C   UNL     1     -10.653  14.361  65.169  1.00  0.00    -0.410 A  
HETATM    8  N   UNL     1      -9.067  12.585  65.775  1.00  0.00    -0.428 NA 
HETATM    9  H2  UNL     1      -8.405  12.130  65.145  1.00  0.00     0.000 HD 
HETATM   10  C   UNL     1     -12.465  13.696  63.715  1.00  0.00    -0.262 A  
HETATM   11  C   UNL     1     -11.820  14.671  64.473  1.00  0.00    -0.442 A  
HETATM   12  H1  UNL     1      -8.597  13.305  66.325  1.00  0.00     0.000 HD 
ENDROOT
BRANCH   7  13
HETATM   13  N   UNL     1     -10.045  15.393  65.924  1.00  0.00    -0.318 NA 
HETATM   14  H   UNL     1      -9.478  15.231  66.755  1.00  0.00     0.000 HD 
BRANCH  13  15
HETATM   15  N   UNL     1     -10.282  16.523  65.453  1.00  0.00    -0.603 NA 
HETATM   16  H   UNL     1     -10.509  16.685  64.472  1.00  0.00     0.000 HD 
BRANCH  15  17
HETATM   17  C   UNL     1     -10.206  17.555  66.411  1.00  0.00    -0.354 A  
HETATM   18  C   UNL     1      -9.872  17.370  67.761  1.00  0.00    -0.283 A  
HETATM   19  C   UNL     1      -9.875  18.452  68.652  1.00  0.00    -0.403 A  
HETATM   20  C   UNL     1     -10.194  19.730  68.198  1.00  0.00    -0.577 A  
HETATM   21  C   UNL     1     -10.490  19.934  66.853  1.00  0.00    -0.577 A  
HETATM   22  C   UNL     1     -10.488  18.855  65.969  1.00  0.00    -0.507 A  
ENDBRANCH  15  17
ENDBRANCH  13  15
ENDBRANCH   7  13
TORSDOF 3
ENDMDL
MODEL       26
REMARK 921   NORMALIZED FREE ENERGY PREDICTED BY IDOCK:   -5.91 KCAL/MOL
REMARK 922        TOTAL FREE ENERGY PREDICTED BY IDOCK:   -7.47 KCAL/MOL
REMARK 923 INTER-LIGAND FREE ENERGY PREDICTED BY IDOCK:   -6.88 KCAL/MOL
REMARK 924 INTRA-LIGAND FREE ENERGY PREDICTED BY IDOCK:   -0.60 KCAL/MOL
REMARK 927      BINDING AFFINITY PREDICTED BY RF-SCORE:    0.00 PKD
ROOT
HETATM    1  N   UNL     1      -9.711  18.829  67.207  1.00  0.00    -0.295 NA 
HETATM    2  C   UNL     1      -9.845  17.578  66.611  1.00  0.00    -0.306 A  
HETATM    3  H2  UNL     1     -10.632  19.193  67.449  1.00  0.00     0.000 HD 
HETATM    4  H1  UNL     1      -9.097  18.886  68.018  1.00  0.00     0.000 HD 
HETATM    5  N   UNL     1     -10.655  17.503  65.542  1.00  0.00    -0.610 NA 
HETATM    6  C   UNL     1     -10.787  16.306  64.926  1.00  0.00    -0.296 A  
HETATM    7  C   UNL     1     -10.119  15.138  65.347  1.00  0.00    -0.350 A  
HETATM    8  N   UNL     1     -11.704  16.296  63.870  1.00  0.00    -1.518 NA 
HETATM    9  H2  UNL     1     -11.472  17.022  63.191  1.00  0.00     0.000 HD 
HETATM   10  C   UNL     1      -9.140  16.489  67.097  1.00  0.00    -0.227 A  
HETATM   11  C   UNL     1      -9.287  15.258  66.460  1.00  0.00    -0.309 A  
HETATM   12  H1  UNL     1     -11.804  15.393  63.405  1.00  0.00     0.000 HD 
ENDROOT
BRANCH   7  13
HETATM   13  N   UNL     1     -10.229  13.862  64.744  1.00  0.00    -0.583 NA 
HETATM   14  H   UNL     1      -9.533  13.472  64.109  1.00  0.00     0.000 HD 
BRANCH  13  15
HETATM   15  N   UNL     1     -11.273  13.270  65.080  1.00  0.00    -0.298 NA 
HETATM   16  H   UNL     1     -12.208  13.623  64.874  1.00  0.00     0.000 HD 
BRANCH  15  17
HETATM   17  C   UNL     1     -11.036  12.065  65.772  1.00  0.00    -0.307 A  
HETATM   18  C   UNL     1     -11.423  11.813  67.097  1.00  0.00    -0.366 A  
HETATM   19  C   UNL     1     -11.093  10.602  67.720  1.00  0.00    -0.385 A  
HETATM   20  C   UNL     1     -10.390   9.625  67.018  1.00  0.00    -0.315 A  
HETATM   21  C   UNL     1     -10.033   9.845  65.691  1.00  0.00    -0.353 A  
HETATM   22  C   UNL     1     -10.361  11.054  65.075  1.00  0.00    -0.360 A  
ENDBRANCH  15  17
ENDBRANCH  13  15
ENDBRANCH   7  13
TORSDOF 3
ENDMDL
MODEL       27
REMARK 921   NORMALIZED FREE ENERGY PREDICTED BY IDOCK:   -5.88 KCAL/MOL
REMARK 922        TOTAL FREE ENERGY PREDICTED BY IDOCK:   -7.44 KCAL/MOL
REMARK 923 INTER-LIGAND FREE ENERGY PREDICTED BY IDOCK:   -6.96 KCAL/MOL
REMARK 924 INTRA-LIGAND FREE ENERGY PREDICTED BY IDOCK:   -0.48 KCAL/MOL
REMARK 927      BINDING AFFINITY PREDICTED BY RF-SCORE:    0.00 PKD
ROOT
HETATM    1  N   UNL     1     -13.236  12.140  64.138  1.00  0.00    -0.732 NA 
HETATM    2  C   UNL     1     -12.421  13.005  64.864  1.00  0.00    -0.455 A  
HETATM    3  H2  UNL     1     -14.214  12.370  64.308  1.00  0.00     0.000 HD 
HETATM    4  H1  UNL     1     -13.066  12.087  63.134  1.00  0.00     0.000 HD 
HETATM    5  N   UNL     1     -12.644  13.076  66.186  1.00  0.00    -0.368 NA 
HETATM    6  C   UNL     1     -11.853  13.889  66.924  1.00  0.00    -0.423 A  
HETATM    7  C   UNL     1     -10.808  14.661  66.375  1.00  0.00    -0.315 A  
HETATM    8  N   UNL     1     -12.199  13.963  68.277  1.00  0.00    -0.494 NA 
HETATM    9  H2  UNL     1     -12.230  13.029  68.687  1.00  0.00     0.000 HD 
HETATM   10  C   UNL     1     -11.414  13.719  64.233  1.00  0.00    -0.363 A  
HETATM   11  C   UNL     1     -10.608  14.558  64.999  1.00  0.00    -0.458 A  
HETATM   12  H1  UNL     1     -11.602  14.575  68.833  1.00  0.00     0.000 HD 
ENDROOT
BRANCH   7  13
HETATM   13  N   UNL     1      -9.958  15.531  67.099  1.00  0.00    -0.239 NA 
HETATM   14  H   UNL     1      -8.941  15.522  67.027  1.00  0.00     0.000 HD 
BRANCH  13  15
HETATM   15  N   UNL     1     -10.596  16.309  67.835  1.00  0.00    -0.309 NA 
HETATM   16  H   UNL     1     -11.189  15.994  68.604  1.00  0.00     0.000 HD 
BRANCH  15  17
HETATM   17  C   UNL     1     -10.419  17.667  67.501  1.00  0.00    -0.365 A  
HETATM   18  C   UNL     1     -10.527  18.192  66.203  1.00  0.00    -0.377 A  
HETATM   19  C   UNL     1     -10.279  19.549  65.960  1.00  0.00    -0.567 A  
HETATM   20  C   UNL     1      -9.939  20.398  67.012  1.00  0.00    -0.568 A  
HETATM   21  C   UNL     1      -9.865  19.898  68.309  1.00  0.00    -0.514 A  
HETATM   22  C   UNL     1     -10.111  18.545  68.548  1.00  0.00    -0.414 A  
ENDBRANCH  15  17
ENDBRANCH  13  15
ENDBRANCH   7  13
TORSDOF 3
ENDMDL
MODEL       28
REMARK 921   NORMALIZED FREE ENERGY PREDICTED BY IDOCK:   -5.83 KCAL/MOL
REMARK 922        TOTAL FREE ENERGY PREDICTED BY IDOCK:   -7.38 KCAL/MOL
REMARK 923 INTER-LIGAND FREE ENERGY PREDICTED BY IDOCK:   -6.91 KCAL/MOL
REMARK 924 INTRA-LIGAND FREE ENERGY PREDICTED BY IDOCK:   -0.47 KCAL/MOL
REMARK 927      BINDING AFFINITY PREDICTED BY RF-SCORE:    0.00 PKD
ROOT
HETATM    1  N   UNL     1     -11.699  10.340  68.103  1.00  0.00    -0.714 NA 
HETATM    2  C   UNL     1     -11.635  11.730  68.067  1.00  0.00    -0.316 A  
HETATM    3  H2  UNL     1     -11.122   9.952  67.358  1.00  0.00     0.000 HD 
HETATM    4  H1  UNL     1     -11.462   9.894  68.989  1.00  0.00     0.000 HD 
HETATM    5  N   UNL     1     -11.948  12.318  66.901  1.00  0.00    -0.593 NA 
HETATM    6  C   UNL     1     -11.919  13.670  66.840  1.00  0.00    -0.410 A  
HETATM    7  C   UNL     1     -11.579  14.488  67.936  1.00  0.00    -0.344 A  
HETATM    8  N   UNL     1     -12.184  14.199  65.573  1.00  0.00    -0.416 NA 
HETATM    9  H2  UNL     1     -13.074  13.846  65.220  1.00  0.00     0.000 HD 
HETATM   10  C   UNL     1     -11.295  12.449  69.202  1.00  0.00    -0.327 A  
HETATM   11  C   UNL     1     -11.261  13.840  69.130  1.00  0.00    -0.307 A  
HETATM   12  H1  UNL     1     -12.162  15.218  65.527  1.00  0.00     0.000 HD 
ENDROOT
BRANCH   7  13
HETATM   13  N   UNL     1     -11.525  15.903  67.924  1.00  0.00    -0.252 NA 
HETATM   14  H   UNL     1     -12.086  16.498  68.533  1.00  0.00     0.000 HD 
BRANCH  13  15
HETATM   15  N   UNL     1     -10.712  16.337  67.084  1.00  0.00    -0.288 NA 
HETATM   16  H   UNL     1     -10.306  15.759  66.348  1.00  0.00     0.000 HD 
BRANCH  15  17
HETATM   17  C   UNL     1     -10.410  17.704  67.252  1.00  0.00    -0.354 A  
HETATM   18  C   UNL     1     -10.180  18.326  68.488  1.00  0.00    -0.402 A  
HETATM   19  C   UNL     1      -9.941  19.704  68.560  1.00  0.00    -0.542 A  
HETATM   20  C   UNL     1      -9.910  20.470  67.396  1.00  0.00    -0.574 A  
HETATM   21  C   UNL     1     -10.099  19.859  66.159  1.00  0.00    -0.611 A  
HETATM   22  C   UNL     1     -10.340  18.486  66.092  1.00  0.00    -0.457 A  
ENDBRANCH  15  17
ENDBRANCH  13  15
ENDBRANCH   7  13
TORSDOF 3
ENDMDL
MODEL       29
REMARK 921   NORMALIZED FREE ENERGY PREDICTED BY IDOCK:   -5.73 KCAL/MOL
REMARK 922        TOTAL FREE ENERGY PREDICTED BY IDOCK:   -7.27 KCAL/MOL
REMARK 923 INTER-LIGAND FREE ENERGY PREDICTED BY IDOCK:   -6.78 KCAL/MOL
REMARK 924 INTRA-LIGAND FREE ENERGY PREDICTED BY IDOCK:   -0.49 KCAL/MOL
REMARK 927      BINDING AFFINITY PREDICTED BY RF-SCORE:    0.00 PKD
ROOT
HETATM    1  N   UNL     1     -14.096   8.937  73.245  1.00  0.00    -1.248 NA 
HETATM    2  C   UNL     1     -13.308   9.465  72.226  1.00  0.00    -0.461 A  
HETATM    3  H2  UNL     1     -13.524   8.347  73.848  1.00  0.00     0.000 HD 
HETATM    4  H1  UNL     1     -14.617   9.604  73.813  1.00  0.00     0.000 HD 
HETATM    5  N   UNL     1     -12.622   8.587  71.477  1.00  0.00    -0.314 NA 
HETATM    6  C   UNL     1     -11.866   9.067  70.463  1.00  0.00    -0.073 A  
HETATM    7  C   UNL     1     -11.764  10.439  70.154  1.00  0.00    -0.312 A  
HETATM    8  N   UNL     1     -11.126   8.096  69.782  1.00  0.00    -0.431 NA 
HETATM    9  H2  UNL     1     -11.739   7.352  69.447  1.00  0.00     0.000 HD 
HETATM   10  C   UNL     1     -13.279  10.832  71.996  1.00  0.00    -0.466 A  
HETATM   11  C   UNL     1     -12.493  11.318  70.953  1.00  0.00    -0.493 A  
HETATM   12  H1  UNL     1     -10.556   8.458  69.017  1.00  0.00     0.000 HD 
ENDROOT
BRANCH   7  13
HETATM   13  N   UNL     1     -10.983  10.993  69.111  1.00  0.00    -0.221 NA 
HETATM   14  H   UNL     1     -10.064  11.411  69.251  1.00  0.00     0.000 HD 
BRANCH  13  15
HETATM   15  N   UNL     1     -11.549  10.911  68.003  1.00  0.00    -0.575 NA 
HETATM   16  H   UNL     1     -11.988  10.055  67.661  1.00  0.00     0.000 HD 
BRANCH  15  17
HETATM   17  C   UNL     1     -11.522  12.115  67.270  1.00  0.00    -0.345 A  
HETATM   18  C   UNL     1     -11.204  12.214  65.907  1.00  0.00    -0.384 A  
HETATM   19  C   UNL     1     -11.150  13.464  65.276  1.00  0.00    -0.305 A  
HETATM   20  C   UNL     1     -11.430  14.623  65.997  1.00  0.00    -0.332 A  
HETATM   21  C   UNL     1     -11.784  14.536  67.341  1.00  0.00    -0.425 A  
HETATM   22  C   UNL     1     -11.835  13.290  67.966  1.00  0.00    -0.392 A  
ENDBRANCH  15  17
ENDBRANCH  13  15
ENDBRANCH   7  13
TORSDOF 3
ENDMDL
MODEL       30
REMARK 921   NORMALIZED FREE ENERGY PREDICTED BY IDOCK:   -5.71 KCAL/MOL
REMARK 922        TOTAL FREE ENERGY PREDICTED BY IDOCK:   -7.25 KCAL/MOL
REMARK 923 INTER-LIGAND FREE ENERGY PREDICTED BY IDOCK:   -6.88 KCAL/MOL
REMARK 924 INTRA-LIGAND FREE ENERGY PREDICTED BY IDOCK:   -0.37 KCAL/MOL
REMARK 927      BINDING AFFINITY PREDICTED BY RF-SCORE:    0.00 PKD
ROOT
HETATM    1  N   UNL     1     -12.710   6.643  72.157  1.00  0.00    -0.553 NA 
HETATM    2  C   UNL     1     -12.496   7.971  71.798  1.00  0.00    -0.324 A  
HETATM    3  H2  UNL     1     -11.968   6.334  72.784  1.00  0.00     0.000 HD 
HETATM    4  H1  UNL     1     -13.617   6.421  72.566  1.00  0.00     0.000 HD 
HETATM    5  N   UNL     1     -11.301   8.264  71.260  1.00  0.00    -0.259 NA 
HETATM    6  C   UNL     1     -11.070   9.541  70.878  1.00  0.00    -0.336 A  
HETATM    7  C   UNL     1     -12.018  10.576  71.015  1.00  0.00    -0.364 A  
HETATM    8  N   UNL     1      -9.778   9.778  70.398  1.00  0.00    -0.344 NA 
HETATM    9  H2  UNL     1      -9.558   9.134  69.637  1.00  0.00     0.000 HD 
HETATM   10  C   UNL     1     -13.495   8.916  71.968  1.00  0.00    -0.482 A  
HETATM   11  C   UNL     1     -13.247  10.230  71.577  1.00  0.00    -0.484 A  
HETATM   12  H1  UNL     1      -9.604  10.741  70.110  1.00  0.00     0.000 HD 
ENDROOT
BRANCH   7  13
HETATM   13  N   UNL     1     -11.825  11.927  70.640  1.00  0.00    -0.471 NA 
HETATM   14  H   UNL     1     -10.933  12.307  70.325  1.00  0.00     0.000 HD 
BRANCH  13  15
HETATM   15  N   UNL     1     -12.871  12.598  70.739  1.00  0.00    -0.099 NA 
HETATM   16  H   UNL     1     -13.774  12.283  70.384  1.00  0.00     0.000 HD 
BRANCH  15  17
HETATM   17  C   UNL     1     -12.683  13.835  71.390  1.00  0.00    -0.367 A  
HETATM   18  C   UNL     1     -11.916  14.896  70.885  1.00  0.00    -0.374 A  
HETATM   19  C   UNL     1     -11.742  16.069  71.631  1.00  0.00    -0.583 A  
HETATM   20  C   UNL     1     -12.347  16.199  72.879  1.00  0.00    -0.607 A  
HETATM   21  C   UNL     1     -13.142  15.169  73.376  1.00  0.00    -0.588 A  
HETATM   22  C   UNL     1     -13.311  14.002  72.631  1.00  0.00    -0.643 A  
ENDBRANCH  15  17
ENDBRANCH  13  15
ENDBRANCH   7  13
TORSDOF 3
ENDMDL
MODEL       31
REMARK 921   NORMALIZED FREE ENERGY PREDICTED BY IDOCK:   -5.65 KCAL/MOL
REMARK 922        TOTAL FREE ENERGY PREDICTED BY IDOCK:   -7.18 KCAL/MOL
REMARK 923 INTER-LIGAND FREE ENERGY PREDICTED BY IDOCK:   -6.68 KCAL/MOL
REMARK 924 INTRA-LIGAND FREE ENERGY PREDICTED BY IDOCK:   -0.49 KCAL/MOL
REMARK 927      BINDING AFFINITY PREDICTED BY RF-SCORE:    0.00 PKD
ROOT
HETATM    1  N   UNL     1      -7.321  18.277  65.561  1.00  0.00    -0.535 NA 
HETATM    2  C   UNL     1      -8.326  17.801  66.399  1.00  0.00    -0.248 A  
HETATM    3  H2  UNL     1      -6.571  18.679  66.121  1.00  0.00     0.000 HD 
HETATM    4  H1  UNL     1      -6.931  17.613  64.892  1.00  0.00     0.000 HD 
HETATM    5  N   UNL     1      -8.840  18.675  67.280  1.00  0.00    -0.271 NA 
HETATM    6  C   UNL     1      -9.835  18.250  68.093  1.00  0.00    -0.341 A  
HETATM    7  C   UNL     1     -10.358  16.941  68.060  1.00  0.00    -0.334 A  
HETATM    8  N   UNL     1     -10.261  19.196  69.030  1.00  0.00    -0.550 NA 
HETATM    9  H2  UNL     1     -10.529  20.063  68.562  1.00  0.00     0.000 HD 
HETATM   10  C   UNL     1      -8.777  16.496  66.286  1.00  0.00    -0.369 A  
HETATM   11  C   UNL     1      -9.798  16.065  67.131  1.00  0.00    -0.236 A  
HETATM   12  H1  UNL     1     -11.012  18.876  69.642  1.00  0.00     0.000 HD 
ENDROOT
BRANCH   7  13
HETATM   13  N   UNL     1     -11.390  16.445  68.891  1.00  0.00    -0.311 NA 
HETATM   14  H   UNL     1     -12.278  16.085  68.542  1.00  0.00     0.000 HD 
BRANCH  13  15
HETATM   15  N   UNL     1     -11.089  16.497  70.100  1.00  0.00    -0.433 NA 
HETATM   16  H   UNL     1     -10.399  17.148  70.478  1.00  0.00     0.000 HD 
BRANCH  15  17
HETATM   17  C   UNL     1     -11.794  15.570  70.894  1.00  0.00    -0.371 A  
HETATM   18  C   UNL     1     -12.049  14.238  70.532  1.00  0.00    -0.413 A  
HETATM   19  C   UNL     1     -12.808  13.405  71.364  1.00  0.00    -0.420 A  
HETATM   20  C   UNL     1     -13.303  13.889  72.573  1.00  0.00    -0.656 A  
HETATM   21  C   UNL     1     -13.026  15.196  72.962  1.00  0.00    -0.597 A  
HETATM   22  C   UNL     1     -12.272  16.024  72.130  1.00  0.00    -0.597 A  
ENDBRANCH  15  17
ENDBRANCH  13  15
ENDBRANCH   7  13
TORSDOF 3
ENDMDL
MODEL       32
REMARK 921   NORMALIZED FREE ENERGY PREDICTED BY IDOCK:   -5.65 KCAL/MOL
REMARK 922        TOTAL FREE ENERGY PREDICTED BY IDOCK:   -7.17 KCAL/MOL
REMARK 923 INTER-LIGAND FREE ENERGY PREDICTED BY IDOCK:   -6.63 KCAL/MOL
REMARK 924 INTRA-LIGAND FREE ENERGY PREDICTED BY IDOCK:   -0.55 KCAL/MOL
REMARK 927      BINDING AFFINITY PREDICTED BY RF-SCORE:    0.00 PKD
ROOT
HETATM    1  N   UNL     1     -13.565   9.579  72.476  1.00  0.00    -0.686 NA 
HETATM    2  C   UNL     1     -13.065  10.629  71.711  1.00  0.00    -0.466 A  
HETATM    3  H2  UNL     1     -14.574   9.680  72.576  1.00  0.00     0.000 HD 
HETATM    4  H1  UNL     1     -13.345   8.636  72.158  1.00  0.00     0.000 HD 
HETATM    5  N   UNL     1     -13.354  11.872  72.130  1.00  0.00    -0.420 NA 
HETATM    6  C   UNL     1     -12.862  12.914  71.421  1.00  0.00    -0.283 A  
HETATM    7  C   UNL     1     -12.063  12.761  70.270  1.00  0.00    -0.297 A  
HETATM    8  N   UNL     1     -13.272  14.171  71.879  1.00  0.00    -0.360 NA 
HETATM    9  H2  UNL     1     -13.050  14.277  72.869  1.00  0.00     0.000 HD 
HETATM   10  C   UNL     1     -12.282  10.376  70.596  1.00  0.00    -0.441 A  
HETATM   11  C   UNL     1     -11.784  11.455  69.869  1.00  0.00    -0.424 A  
HETATM   12  H1  UNL     1     -12.900  14.957  71.345  1.00  0.00     0.000 HD 
ENDROOT
BRANCH   7  13
HETATM   13  N   UNL     1     -11.531  13.815  69.490  1.00  0.00    -0.327 NA 
HETATM   14  H   UNL     1     -10.565  14.138  69.552  1.00  0.00     0.000 HD 
BRANCH  13  15
HETATM   15  N   UNL     1     -12.378  14.304  68.717  1.00  0.00    -0.573 NA 
HETATM   16  H   UNL     1     -13.319  14.567  69.011  1.00  0.00     0.000 HD 
BRANCH  15  17
HETATM   17  C   UNL     1     -11.909  14.458  67.396  1.00  0.00    -0.400 A  
HETATM   18  C   UNL     1     -12.444  13.804  66.276  1.00  0.00    -0.441 A  
HETATM   19  C   UNL     1     -11.874  13.977  65.008  1.00  0.00    -0.383 A  
HETATM   20  C   UNL     1     -10.776  14.819  64.845  1.00  0.00    -0.438 A  
HETATM   21  C   UNL     1     -10.258  15.503  65.941  1.00  0.00    -0.367 A  
HETATM   22  C   UNL     1     -10.827  15.327  67.203  1.00  0.00    -0.322 A  
ENDBRANCH  15  17
ENDBRANCH  13  15
ENDBRANCH   7  13
TORSDOF 3
ENDMDL
MODEL       33
REMARK 921   NORMALIZED FREE ENERGY PREDICTED BY IDOCK:   -5.64 KCAL/MOL
REMARK 922        TOTAL FREE ENERGY PREDICTED BY IDOCK:   -7.16 KCAL/MOL
REMARK 923 INTER-LIGAND FREE ENERGY PREDICTED BY IDOCK:   -6.79 KCAL/MOL
REMARK 924 INTRA-LIGAND FREE ENERGY PREDICTED BY IDOCK:   -0.38 KCAL/MOL
REMARK 927      BINDING AFFINITY PREDICTED BY RF-SCORE:    0.00 PKD
ROOT
HETATM    1  N   UNL     1     -10.281  20.490  66.468  1.00  0.00    -0.417 NA 
HETATM    2  C   UNL     1     -10.355  19.101  66.526  1.00  0.00    -0.442 A  
HETATM    3  H2  UNL     1     -11.159  20.864  66.110  1.00  0.00     0.000 HD 
HETATM    4  H1  UNL     1     -10.031  20.971  67.332  1.00  0.00     0.000 HD 
HETATM    5  N   UNL     1     -10.684  18.467  65.389  1.00  0.00    -0.525 NA 
HETATM    6  C   UNL     1     -10.741  17.115  65.406  1.00  0.00    -0.088 A  
HETATM    7  C   UNL     1     -10.471  16.342  66.553  1.00  0.00    -0.282 A  
HETATM    8  N   UNL     1     -11.163  16.538  64.204  1.00  0.00    -1.413 NA 
HETATM    9  H2  UNL     1     -10.580  16.860  63.431  1.00  0.00     0.000 HD 
HETATM   10  C   UNL     1     -10.065  18.430  67.703  1.00  0.00    -0.378 A  
HETATM   11  C   UNL     1     -10.131  17.038  67.713  1.00  0.00    -0.302 A  
HETATM   12  H1  UNL     1     -11.206  15.518  64.217  1.00  0.00     0.000 HD 
ENDROOT
BRANCH   7  13
HETATM   13  N   UNL     1     -10.523  14.929  66.627  1.00  0.00    -0.286 NA 
HETATM   14  H   UNL     1      -9.778  14.352  67.016  1.00  0.00     0.000 HD 
BRANCH  13  15
HETATM   15  N   UNL     1     -11.586  14.472  66.162  1.00  0.00    -0.368 NA 
HETATM   16  H   UNL     1     -12.508  14.834  66.411  1.00  0.00     0.000 HD 
BRANCH  15  17
HETATM   17  C   UNL     1     -11.390  13.406  65.261  1.00  0.00    -0.296 A  
HETATM   18  C   UNL     1     -12.217  13.125  64.162  1.00  0.00    -0.465 A  
HETATM   19  C   UNL     1     -11.973  12.008  63.352  1.00  0.00    -0.571 A  
HETATM   20  C   UNL     1     -10.891  11.173  63.622  1.00  0.00    -0.319 A  
HETATM   21  C   UNL     1     -10.040  11.461  64.686  1.00  0.00    -0.330 A  
HETATM   22  C   UNL     1     -10.288  12.573  65.492  1.00  0.00    -0.303 A  
ENDBRANCH  15  17
ENDBRANCH  13  15
ENDBRANCH   7  13
TORSDOF 3
ENDMDL
MODEL       34
REMARK 921   NORMALIZED FREE ENERGY PREDICTED BY IDOCK:   -5.62 KCAL/MOL
REMARK 922        TOTAL FREE ENERGY PREDICTED BY IDOCK:   -7.14 KCAL/MOL
REMARK 923 INTER-LIGAND FREE ENERGY PREDICTED BY IDOCK:   -6.59 KCAL/MOL
REMARK 924 INTRA-LIGAND FREE ENERGY PREDICTED BY IDOCK:   -0.55 KCAL/MOL
REMARK 927      BINDING AFFINITY PREDICTED BY RF-SCORE:    0.00 PKD
ROOT
HETATM    1  N   UNL     1     -13.878   9.064  72.992  1.00  0.00    -1.108 NA 
HETATM    2  C   UNL     1     -13.185   9.808  72.042  1.00  0.00    -0.460 A  
HETATM    3  H2  UNL     1     -14.873   9.275  72.933  1.00  0.00     0.000 HD 
HETATM    4  H1  UNL     1     -13.740   8.054  72.971  1.00  0.00     0.000 HD 
HETATM    5  N   UNL     1     -13.366  11.139  72.070  1.00  0.00    -0.401 NA 
HETATM    6  C   UNL     1     -12.688  11.894  71.174  1.00  0.00    -0.284 A  
HETATM    7  C   UNL     1     -11.804  11.355  70.218  1.00  0.00    -0.350 A  
HETATM    8  N   UNL     1     -12.990  13.258  71.221  1.00  0.00    -0.306 NA 
HETATM    9  H2  UNL     1     -12.855  13.620  72.165  1.00  0.00     0.000 HD 
HETATM   10  C   UNL     1     -12.332   9.186  71.145  1.00  0.00    -0.330 A  
HETATM   11  C   UNL     1     -11.642   9.970  70.222  1.00  0.00    -0.354 A  
HETATM   12  H1  UNL     1     -12.478  13.828  70.546  1.00  0.00     0.000 HD 
ENDROOT
BRANCH   7  13
HETATM   13  N   UNL     1     -11.077  12.097  69.256  1.00  0.00    -0.392 NA 
HETATM   14  H   UNL     1     -10.060  12.109  69.197  1.00  0.00     0.000 HD 
BRANCH  13  15
HETATM   15  N   UNL     1     -11.826  12.735  68.489  1.00  0.00    -0.320 NA 
HETATM   16  H   UNL     1     -12.536  13.391  68.817  1.00  0.00     0.000 HD 
BRANCH  15  17
HETATM   17  C   UNL     1     -11.595  12.460  67.126  1.00  0.00    -0.365 A  
HETATM   18  C   UNL     1     -12.222  13.123  66.059  1.00  0.00    -0.478 A  
HETATM   19  C   UNL     1     -11.969  12.742  64.735  1.00  0.00    -0.455 A  
HETATM   20  C   UNL     1     -11.074  11.709  64.463  1.00  0.00    -0.365 A  
HETATM   21  C   UNL     1     -10.417  11.068  65.510  1.00  0.00    -0.302 A  
HETATM   22  C   UNL     1     -10.673  11.448  66.828  1.00  0.00    -0.316 A  
ENDBRANCH  15  17
ENDBRANCH  13  15
ENDBRANCH   7  13
TORSDOF 3
ENDMDL
MODEL       35
REMARK 921   NORMALIZED FREE ENERGY PREDICTED BY IDOCK:   -5.61 KCAL/MOL
REMARK 922        TOTAL FREE ENERGY PREDICTED BY IDOCK:   -7.13 KCAL/MOL
REMARK 923 INTER-LIGAND FREE ENERGY PREDICTED BY IDOCK:   -6.67 KCAL/MOL
REMARK 924 INTRA-LIGAND FREE ENERGY PREDICTED BY IDOCK:   -0.46 KCAL/MOL
REMARK 927      BINDING AFFINITY PREDICTED BY RF-SCORE:    0.00 PKD
ROOT
HETATM    1  N   UNL     1     -10.810  10.992  62.955  1.00  0.00    -0.787 NA 
HETATM    2  C   UNL     1     -11.254  11.759  64.028  1.00  0.00    -0.385 A  
HETATM    3  H2  UNL     1     -11.266  10.080  62.975  1.00  0.00     0.000 HD 
HETATM    4  H1  UNL     1     -10.907  11.403  62.027  1.00  0.00     0.000 HD 
HETATM    5  N   UNL     1     -11.127  11.218  65.250  1.00  0.00    -0.142 NA 
HETATM    6  C   UNL     1     -11.527  11.949  66.316  1.00  0.00    -0.301 A  
HETATM    7  C   UNL     1     -12.068  13.246  66.208  1.00  0.00    -0.414 A  
HETATM    8  N   UNL     1     -11.431  11.285  67.543  1.00  0.00    -0.500 NA 
HETATM    9  H2  UNL     1     -10.482  10.938  67.686  1.00  0.00     0.000 HD 
HETATM   10  C   UNL     1     -11.768  13.029  63.819  1.00  0.00    -0.547 A  
HETATM   11  C   UNL     1     -12.183  13.773  64.922  1.00  0.00    -0.443 A  
HETATM   12  H1  UNL     1     -11.732  11.836  68.347  1.00  0.00     0.000 HD 
ENDROOT
BRANCH   7  13
HETATM   13  N   UNL     1     -12.509  14.049  67.288  1.00  0.00    -0.501 NA 
HETATM   14  H   UNL     1     -13.435  14.471  67.341  1.00  0.00     0.000 HD 
BRANCH  13  15
HETATM   15  N   UNL     1     -11.633  14.180  68.166  1.00  0.00    -0.311 NA 
HETATM   16  H   UNL     1     -10.636  14.240  67.958  1.00  0.00     0.000 HD 
BRANCH  15  17
HETATM   17  C   UNL     1     -12.157  14.235  69.474  1.00  0.00    -0.330 A  
HETATM   18  C   UNL     1     -12.464  13.115  70.261  1.00  0.00    -0.233 A  
HETATM   19  C   UNL     1     -13.034  13.269  71.532  1.00  0.00    -0.426 A  
HETATM   20  C   UNL     1     -13.284  14.544  72.035  1.00  0.00    -0.446 A  
HETATM   21  C   UNL     1     -12.949  15.666  71.280  1.00  0.00    -0.556 A  
HETATM   22  C   UNL     1     -12.384  15.508  70.014  1.00  0.00    -0.345 A  
ENDBRANCH  15  17
ENDBRANCH  13  15
ENDBRANCH   7  13
TORSDOF 3
ENDMDL
MODEL       36
REMARK 921   NORMALIZED FREE ENERGY PREDICTED BY IDOCK:   -5.59 KCAL/MOL
REMARK 922        TOTAL FREE ENERGY PREDICTED BY IDOCK:   -7.10 KCAL/MOL
REMARK 923 INTER-LIGAND FREE ENERGY PREDICTED BY IDOCK:   -6.81 KCAL/MOL
REMARK 924 INTRA-LIGAND FREE ENERGY PREDICTED BY IDOCK:   -0.30 KCAL/MOL
REMARK 927      BINDING AFFINITY PREDICTED BY RF-SCORE:    0.00 PKD
ROOT
HETATM    1  N   UNL     1      -9.274  17.840  67.146  1.00  0.00    -0.249 NA 
HETATM    2  C   UNL     1     -10.114  16.823  66.701  1.00  0.00    -0.300 A  
HETATM    3  H2  UNL     1      -9.743  18.739  67.045  1.00  0.00     0.000 HD 
HETATM    4  H1  UNL     1      -8.908  17.749  68.094  1.00  0.00     0.000 HD 
HETATM    5  N   UNL     1     -10.596  16.942  65.453  1.00  0.00    -0.602 NA 
HETATM    6  C   UNL     1     -11.397  15.958  64.982  1.00  0.00    -0.193 A  
HETATM    7  C   UNL     1     -11.748  14.818  65.733  1.00  0.00    -0.252 A  
HETATM    8  N   UNL     1     -11.916  16.195  63.706  1.00  0.00    -1.338 NA 
HETATM    9  H2  UNL     1     -11.162  16.386  63.045  1.00  0.00     0.000 HD 
HETATM   10  C   UNL     1     -10.396  15.737  67.514  1.00  0.00    -0.280 A  
HETATM   11  C   UNL     1     -11.226  14.731  67.024  1.00  0.00    -0.347 A  
HETATM   12  H1  UNL     1     -12.519  15.452  63.350  1.00  0.00     0.000 HD 
ENDROOT
BRANCH   7  13
HETATM   13  N   UNL     1     -12.586  13.765  65.292  1.00  0.00    -0.588 NA 
HETATM   14  H   UNL     1     -13.338  13.884  64.614  1.00  0.00     0.000 HD 
BRANCH  13  15
HETATM   15  N   UNL     1     -12.297  12.677  65.827  1.00  0.00    -0.619 NA 
HETATM   16  H   UNL     1     -12.693  12.368  66.716  1.00  0.00     0.000 HD 
BRANCH  15  17
HETATM   17  C   UNL     1     -11.372  11.915  65.085  1.00  0.00    -0.269 A  
HETATM   18  C   UNL     1     -11.171  12.029  63.701  1.00  0.00    -0.528 A  
HETATM   19  C   UNL     1     -10.265  11.188  63.040  1.00  0.00    -0.265 A  
HETATM   20  C   UNL     1      -9.539  10.240  63.758  1.00  0.00    -0.344 A  
HETATM   21  C   UNL     1      -9.701  10.143  65.138  1.00  0.00    -0.370 A  
HETATM   22  C   UNL     1     -10.606  10.980  65.793  1.00  0.00    -0.260 A  
ENDBRANCH  15  17
ENDBRANCH  13  15
ENDBRANCH   7  13
TORSDOF 3
ENDMDL
MODEL       37
REMARK 921   NORMALIZED FREE ENERGY PREDICTED BY IDOCK:   -5.57 KCAL/MOL
REMARK 922        TOTAL FREE ENERGY PREDICTED BY IDOCK:   -7.08 KCAL/MOL
REMARK 923 INTER-LIGAND FREE ENERGY PREDICTED BY IDOCK:   -6.59 KCAL/MOL
REMARK 924 INTRA-LIGAND FREE ENERGY PREDICTED BY IDOCK:   -0.49 KCAL/MOL
REMARK 927      BINDING AFFINITY PREDICTED BY RF-SCORE:    0.00 PKD
ROOT
HETATM    1  N   UNL     1     -14.045  13.403  72.669  1.00  0.00    -0.716 NA 
HETATM    2  C   UNL     1     -13.167  14.193  71.933  1.00  0.00    -0.387 A  
HETATM    3  H2  UNL     1     -13.783  12.422  72.576  1.00  0.00     0.000 HD 
HETATM    4  H1  UNL     1     -14.153  13.636  73.655  1.00  0.00     0.000 HD 
HETATM    5  N   UNL     1     -13.024  13.885  70.633  1.00  0.00    -0.215 NA 
HETATM    6  C   UNL     1     -12.196  14.649  69.884  1.00  0.00    -0.316 A  
HETATM    7  C   UNL     1     -11.479  15.749  70.398  1.00  0.00    -0.365 A  
HETATM    8  N   UNL     1     -12.046  14.218  68.563  1.00  0.00    -0.543 NA 
HETATM    9  H2  UNL     1     -12.957  14.133  68.111  1.00  0.00     0.000 HD 
HETATM   10  C   UNL     1     -12.511  15.258  72.528  1.00  0.00    -0.449 A  
HETATM   11  C   UNL     1     -11.655  16.036  71.751  1.00  0.00    -0.534 A  
HETATM   12  H1  UNL     1     -11.422  14.794  67.998  1.00  0.00     0.000 HD 
ENDROOT
BRANCH   7  13
HETATM   13  N   UNL     1     -10.596  16.574  69.661  1.00  0.00    -0.320 NA 
HETATM   14  H   UNL     1      -9.627  16.751  69.928  1.00  0.00     0.000 HD 
BRANCH  13  15
HETATM   15  N   UNL     1     -11.138  17.060  68.649  1.00  0.00    -0.215 NA 
HETATM   16  H   UNL     1     -12.033  16.735  68.283  1.00  0.00     0.000 HD 
BRANCH  15  17
HETATM   17  C   UNL     1     -10.392  18.102  68.060  1.00  0.00    -0.391 A  
HETATM   18  C   UNL     1     -10.902  19.029  67.139  1.00  0.00    -0.473 A  
HETATM   19  C   UNL     1     -10.068  19.997  66.565  1.00  0.00    -0.606 A  
HETATM   20  C   UNL     1      -8.722  20.059  66.919  1.00  0.00    -0.417 A  
HETATM   21  C   UNL     1      -8.211  19.169  67.860  1.00  0.00    -0.325 A  
HETATM   22  C   UNL     1      -9.044  18.205  68.428  1.00  0.00    -0.318 A  
ENDBRANCH  15  17
ENDBRANCH  13  15
ENDBRANCH   7  13
TORSDOF 3
ENDMDL
MODEL       38
REMARK 921   NORMALIZED FREE ENERGY PREDICTED BY IDOCK:   -5.56 KCAL/MOL
REMARK 922        TOTAL FREE ENERGY PREDICTED BY IDOCK:   -7.07 KCAL/MOL
REMARK 923 INTER-LIGAND FREE ENERGY PREDICTED BY IDOCK:   -6.74 KCAL/MOL
REMARK 924 INTRA-LIGAND FREE ENERGY PREDICTED BY IDOCK:   -0.33 KCAL/MOL
REMARK 927      BINDING AFFINITY PREDICTED BY RF-SCORE:    0.00 PKD
ROOT
HETATM    1  N   UNL     1      -9.526  20.676  67.015  1.00  0.00    -0.635 NA 
HETATM    2  C   UNL     1      -9.940  19.348  67.080  1.00  0.00    -0.364 A  
HETATM    3  H2  UNL     1     -10.228  21.229  66.524  1.00  0.00     0.000 HD 
HETATM    4  H1  UNL     1      -9.294  21.126  67.900  1.00  0.00     0.000 HD 
HETATM    5  N   UNL     1     -10.247  18.756  65.914  1.00  0.00    -0.562 NA 
HETATM    6  C   UNL     1     -10.630  17.458  65.940  1.00  0.00    -0.200 A  
HETATM    7  C   UNL     1     -10.721  16.700  67.125  1.00  0.00    -0.202 A  
HETATM    8  N   UNL     1     -11.003  16.939  64.696  1.00  0.00    -0.963 NA 
HETATM    9  H2  UNL     1     -10.255  17.076  64.015  1.00  0.00     0.000 HD 
HETATM   10  C   UNL     1      -9.992  18.685  68.295  1.00  0.00    -0.424 A  
HETATM   11  C   UNL     1     -10.393  17.351  68.314  1.00  0.00    -0.374 A  
HETATM   12  H1  UNL     1     -11.291  15.960  64.716  1.00  0.00     0.000 HD 
ENDROOT
BRANCH   7  13
HETATM   13  N   UNL     1     -11.122  15.345  67.208  1.00  0.00    -0.322 NA 
HETATM   14  H   UNL     1     -10.843  14.627  66.539  1.00  0.00     0.000 HD 
BRANCH  13  15
HETATM   15  N   UNL     1     -11.856  15.130  68.193  1.00  0.00    -0.491 NA 
HETATM   16  H   UNL     1     -12.409  15.856  68.649  1.00  0.00     0.000 HD 
BRANCH  15  17
HETATM   17  C   UNL     1     -11.846  13.785  68.616  1.00  0.00    -0.374 A  
HETATM   18  C   UNL     1     -11.780  12.677  67.757  1.00  0.00    -0.412 A  
HETATM   19  C   UNL     1     -11.831  11.374  68.268  1.00  0.00    -0.320 A  
HETATM   20  C   UNL     1     -11.930  11.165  69.642  1.00  0.00    -0.429 A  
HETATM   21  C   UNL     1     -11.958  12.255  70.508  1.00  0.00    -0.296 A  
HETATM   22  C   UNL     1     -11.909  13.552  69.996  1.00  0.00    -0.371 A  
ENDBRANCH  15  17
ENDBRANCH  13  15
ENDBRANCH   7  13
TORSDOF 3
ENDMDL
MODEL       39
REMARK 921   NORMALIZED FREE ENERGY PREDICTED BY IDOCK:   -5.54 KCAL/MOL
REMARK 922        TOTAL FREE ENERGY PREDICTED BY IDOCK:   -7.05 KCAL/MOL
REMARK 923 INTER-LIGAND FREE ENERGY PREDICTED BY IDOCK:   -6.54 KCAL/MOL
REMARK 924 INTRA-LIGAND FREE ENERGY PREDICTED BY IDOCK:   -0.51 KCAL/MOL
REMARK 927      BINDING AFFINITY PREDICTED BY RF-SCORE:    0.00 PKD
ROOT
HETATM    1  N   UNL     1     -11.634  16.168  63.932  1.00  0.00    -1.469 NA 
HETATM    2  C   UNL     1     -11.702  15.041  64.745  1.00  0.00    -0.370 A  
HETATM    3  H2  UNL     1     -10.684  16.537  63.937  1.00  0.00     0.000 HD 
HETATM    4  H1  UNL     1     -11.953  16.057  62.969  1.00  0.00     0.000 HD 
HETATM    5  N   UNL     1     -11.282  15.186  66.013  1.00  0.00    -0.316 NA 
HETATM    6  C   UNL     1     -11.357  14.115  66.837  1.00  0.00    -0.331 A  
HETATM    7  C   UNL     1     -11.854  12.859  66.432  1.00  0.00    -0.415 A  
HETATM    8  N   UNL     1     -10.832  14.329  68.115  1.00  0.00    -0.239 NA 
HETATM    9  H2  UNL     1     -11.270  15.142  68.548  1.00  0.00     0.000 HD 
HETATM   10  C   UNL     1     -12.213  13.849  64.256  1.00  0.00    -0.447 A  
HETATM   11  C   UNL     1     -12.281  12.749  65.109  1.00  0.00    -0.530 A  
HETATM   12  H1  UNL     1     -10.889  13.522  68.736  1.00  0.00     0.000 HD 
ENDROOT
BRANCH   7  13
HETATM   13  N   UNL     1     -11.947  11.707  67.249  1.00  0.00    -0.602 NA 
HETATM   14  H   UNL     1     -12.817  11.208  67.432  1.00  0.00     0.000 HD 
BRANCH  13  15
HETATM   15  N   UNL     1     -10.842  11.373  67.721  1.00  0.00    -0.216 NA 
HETATM   16  H   UNL     1     -10.124  12.044  67.994  1.00  0.00     0.000 HD 
BRANCH  15  17
HETATM   17  C   UNL     1     -10.683   9.977  67.837  1.00  0.00    -0.272 A  
HETATM   18  C   UNL     1     -10.491   9.100  66.758  1.00  0.00    -0.266 A  
HETATM   19  C   UNL     1     -10.398   7.719  66.969  1.00  0.00    -0.405 A  
HETATM   20  C   UNL     1     -10.476   7.202  68.260  1.00  0.00    -0.235 A  
HETATM   21  C   UNL     1     -10.629   8.063  69.344  1.00  0.00    -0.210 A  
HETATM   22  C   UNL     1     -10.723   9.438  69.130  1.00  0.00    -0.216 A  
ENDBRANCH  15  17
ENDBRANCH  13  15
ENDBRANCH   7  13
TORSDOF 3
ENDMDL
MODEL       40
REMARK 921   NORMALIZED FREE ENERGY PREDICTED BY IDOCK:   -5.54 KCAL/MOL
REMARK 922        TOTAL FREE ENERGY PREDICTED BY IDOCK:   -7.04 KCAL/MOL
REMARK 923 INTER-LIGAND FREE ENERGY PREDICTED BY IDOCK:   -6.75 KCAL/MOL
REMARK 924 INTRA-LIGAND FREE ENERGY PREDICTED BY IDOCK:   -0.29 KCAL/MOL
REMARK 927      BINDING AFFINITY PREDICTED BY RF-SCORE:    0.00 PKD
ROOT
HETATM    1  N   UNL     1     -12.590  16.701  74.491  1.00  0.00    -0.793 NA 
HETATM    2  C   UNL     1     -12.540  15.874  73.373  1.00  0.00    -0.550 A  
HETATM    3  H2  UNL     1     -12.298  16.179  75.316  1.00  0.00     0.000 HD 
HETATM    4  H1  UNL     1     -12.068  17.576  74.436  1.00  0.00     0.000 HD 
HETATM    5  N   UNL     1     -13.227  14.722  73.445  1.00  0.00    -0.551 NA 
HETATM    6  C   UNL     1     -13.219  13.906  72.365  1.00  0.00    -0.488 A  
HETATM    7  C   UNL     1     -12.528  14.205  71.173  1.00  0.00    -0.371 A  
HETATM    8  N   UNL     1     -13.895  12.696  72.548  1.00  0.00    -0.604 NA 
HETATM    9  H2  UNL     1     -14.852  12.867  72.857  1.00  0.00     0.000 HD 
HETATM   10  C   UNL     1     -11.836  16.259  72.243  1.00  0.00    -0.601 A  
HETATM   11  C   UNL     1     -11.827  15.410  71.138  1.00  0.00    -0.422 A  
HETATM   12  H1  UNL     1     -13.889  12.081  71.734  1.00  0.00     0.000 HD 
ENDROOT
BRANCH   7  13
HETATM   13  N   UNL     1     -12.480  13.384  70.020  1.00  0.00    -0.200 NA 
HETATM   14  H   UNL     1     -13.300  12.952  69.596  1.00  0.00     0.000 HD 
BRANCH  13  15
HETATM   15  N   UNL     1     -11.320  13.252  69.583  1.00  0.00    -0.465 NA 
HETATM   16  H   UNL     1     -10.572  13.922  69.767  1.00  0.00     0.000 HD 
BRANCH  15  17
HETATM   17  C   UNL     1     -11.142  12.086  68.810  1.00  0.00    -0.249 A  
HETATM   18  C   UNL     1     -11.010  10.791  69.334  1.00  0.00    -0.305 A  
HETATM   19  C   UNL     1     -10.782   9.699  68.488  1.00  0.00    -0.239 A  
HETATM   20  C   UNL     1     -10.702   9.887  67.109  1.00  0.00    -0.276 A  
HETATM   21  C   UNL     1     -10.869  11.161  66.573  1.00  0.00    -0.302 A  
HETATM   22  C   UNL     1     -11.094  12.248  67.419  1.00  0.00    -0.333 A  
ENDBRANCH  15  17
ENDBRANCH  13  15
ENDBRANCH   7  13
TORSDOF 3
ENDMDL
MODEL       41
REMARK 921   NORMALIZED FREE ENERGY PREDICTED BY IDOCK:   -5.48 KCAL/MOL
REMARK 922        TOTAL FREE ENERGY PREDICTED BY IDOCK:   -6.97 KCAL/MOL
REMARK 923 INTER-LIGAND FREE ENERGY PREDICTED BY IDOCK:   -6.43 KCAL/MOL
REMARK 924 INTRA-LIGAND FREE ENERGY PREDICTED BY IDOCK:   -0.54 KCAL/MOL
REMARK 927      BINDING AFFINITY PREDICTED BY RF-SCORE:    0.00 PKD
ROOT
HETATM    1  N   UNL     1      -7.539  21.196  66.928  1.00  0.00    -0.701 NA 
HETATM    2  C   UNL     1      -8.347  20.081  66.726  1.00  0.00    -0.323 A  
HETATM    3  H2  UNL     1      -6.822  21.235  66.204  1.00  0.00     0.000 HD 
HETATM    4  H1  UNL     1      -8.011  22.098  66.990  1.00  0.00     0.000 HD 
HETATM    5  N   UNL     1      -7.726  18.893  66.643  1.00  0.00    -0.239 NA 
HETATM    6  C   UNL     1      -8.485  17.787  66.471  1.00  0.00    -0.260 A  
HETATM    7  C   UNL     1      -9.892  17.819  66.376  1.00  0.00    -0.324 A  
HETATM    8  N   UNL     1      -7.758  16.602  66.321  1.00  0.00    -0.293 NA 
HETATM    9  H2  UNL     1      -7.118  16.476  67.105  1.00  0.00     0.000 HD 
HETATM   10  C   UNL     1      -9.724  20.215  66.650  1.00  0.00    -0.568 A  
HETATM   11  C   UNL     1     -10.499  19.071  66.467  1.00  0.00    -0.522 A  
HETATM   12  H1  UNL     1      -8.331  15.768  66.191  1.00  0.00     0.000 HD 
ENDROOT
BRANCH   7  13
HETATM   13  N   UNL     1     -10.731  16.695  66.188  1.00  0.00    -0.198 NA 
HETATM   14  H   UNL     1     -11.327  16.302  66.917  1.00  0.00     0.000 HD 
BRANCH  13  15
HETATM   15  N   UNL     1     -10.658  16.239  65.030  1.00  0.00    -0.659 NA 
HETATM   16  H   UNL     1     -10.392  16.804  64.222  1.00  0.00     0.000 HD 
BRANCH  15  17
HETATM   17  C   UNL     1     -10.980  14.869  64.946  1.00  0.00    -0.408 A  
HETATM   18  C   UNL     1     -12.152  14.357  64.369  1.00  0.00    -0.491 A  
HETATM   19  C   UNL     1     -12.411  12.980  64.381  1.00  0.00    -0.442 A  
HETATM   20  C   UNL     1     -11.493  12.102  64.952  1.00  0.00    -0.379 A  
HETATM   21  C   UNL     1     -10.308  12.593  65.495  1.00  0.00    -0.305 A  
HETATM   22  C   UNL     1     -10.055  13.965  65.483  1.00  0.00    -0.319 A  
ENDBRANCH  15  17
ENDBRANCH  13  15
ENDBRANCH   7  13
TORSDOF 3
ENDMDL
MODEL       42
REMARK 921   NORMALIZED FREE ENERGY PREDICTED BY IDOCK:   -5.36 KCAL/MOL
REMARK 922        TOTAL FREE ENERGY PREDICTED BY IDOCK:   -6.83 KCAL/MOL
REMARK 923 INTER-LIGAND FREE ENERGY PREDICTED BY IDOCK:   -6.52 KCAL/MOL
REMARK 924 INTRA-LIGAND FREE ENERGY PREDICTED BY IDOCK:   -0.31 KCAL/MOL
REMARK 927      BINDING AFFINITY PREDICTED BY RF-SCORE:    0.00 PKD
ROOT
HETATM    1  N   UNL     1     -12.528  14.452  63.421  1.00  0.00    -1.068 NA 
HETATM    2  C   UNL     1     -12.104  13.620  64.454  1.00  0.00    -0.427 A  
HETATM    3  H2  UNL     1     -13.039  13.904  62.729  1.00  0.00     0.000 HD 
HETATM    4  H1  UNL     1     -13.079  15.267  63.687  1.00  0.00     0.000 HD 
HETATM    5  N   UNL     1     -11.379  12.546  64.103  1.00  0.00    -0.351 NA 
HETATM    6  C   UNL     1     -10.931  11.731  65.086  1.00  0.00    -0.294 A  
HETATM    7  C   UNL     1     -11.186  11.953  66.455  1.00  0.00    -0.331 A  
HETATM    8  N   UNL     1     -10.249  10.597  64.634  1.00  0.00    -0.349 NA 
HETATM    9  H2  UNL     1      -9.481  10.867  64.018  1.00  0.00     0.000 HD 
HETATM   10  C   UNL     1     -12.402  13.928  65.772  1.00  0.00    -0.518 A  
HETATM   11  C   UNL     1     -11.943  13.080  66.777  1.00  0.00    -0.434 A  
HETATM   12  H1  UNL     1      -9.911   9.983  65.375  1.00  0.00     0.000 HD 
ENDROOT
BRANCH   7  13
HETATM   13  N   UNL     1     -10.749  11.130  67.520  1.00  0.00    -0.220 NA 
HETATM   14  H   UNL     1      -9.776  10.871  67.675  1.00  0.00     0.000 HD 
BRANCH  13  15
HETATM   15  N   UNL     1     -11.692  10.758  68.246  1.00  0.00    -0.696 NA 
HETATM   16  H   UNL     1     -12.674  10.902  68.007  1.00  0.00     0.000 HD 
BRANCH  15  17
HETATM   17  C   UNL     1     -11.269  10.120  69.430  1.00  0.00    -0.215 A  
HETATM   18  C   UNL     1      -9.960   9.675  69.675  1.00  0.00    -0.239 A  
HETATM   19  C   UNL     1      -9.646   9.001  70.862  1.00  0.00    -0.328 A  
HETATM   20  C   UNL     1     -10.632   8.780  71.822  1.00  0.00    -0.417 A  
HETATM   21  C   UNL     1     -11.926   9.249  71.609  1.00  0.00    -0.448 A  
HETATM   22  C   UNL     1     -12.235   9.918  70.424  1.00  0.00    -0.190 A  
ENDBRANCH  15  17
ENDBRANCH  13  15
ENDBRANCH   7  13
TORSDOF 3
ENDMDL
MODEL       43
REMARK 921   NORMALIZED FREE ENERGY PREDICTED BY IDOCK:   -5.36 KCAL/MOL
REMARK 922        TOTAL FREE ENERGY PREDICTED BY IDOCK:   -6.83 KCAL/MOL
REMARK 923 INTER-LIGAND FREE ENERGY PREDICTED BY IDOCK:   -6.41 KCAL/MOL
REMARK 924 INTRA-LIGAND FREE ENERGY PREDICTED BY IDOCK:   -0.42 KCAL/MOL
REMARK 927      BINDING AFFINITY PREDICTED BY RF-SCORE:    0.00 PKD
ROOT
HETATM    1  N   UNL     1     -10.507  20.144  69.470  1.00  0.00    -0.464 NA 
HETATM    2  C   UNL     1     -10.280  19.241  68.436  1.00  0.00    -0.411 A  
HETATM    3  H2  UNL     1      -9.651  20.265  70.012  1.00  0.00     0.000 HD 
HETATM    4  H1  UNL     1     -10.878  21.057  69.208  1.00  0.00     0.000 HD 
HETATM    5  N   UNL     1      -9.791  18.039  68.781  1.00  0.00    -0.361 NA 
HETATM    6  C   UNL     1      -9.582  17.130  67.801  1.00  0.00    -0.256 A  
HETATM    7  C   UNL     1      -9.853  17.380  66.440  1.00  0.00    -0.302 A  
HETATM    8  N   UNL     1      -9.002  15.933  68.234  1.00  0.00    -0.181 NA 
HETATM    9  H2  UNL     1      -9.555  15.523  68.988  1.00  0.00     0.000 HD 
HETATM   10  C   UNL     1     -10.584  19.580  67.127  1.00  0.00    -0.605 A  
HETATM   11  C   UNL     1     -10.361  18.640  66.123  1.00  0.00    -0.481 A  
HETATM   12  H1  UNL     1      -8.846  15.248  67.495  1.00  0.00     0.000 HD 
ENDROOT
BRANCH   7  13
HETATM   13  N   UNL     1      -9.646  16.469  65.377  1.00  0.00    -0.391 NA 
HETATM   14  H   UNL     1      -8.726  16.209  65.022  1.00  0.00     0.000 HD 
BRANCH  13  15
HETATM   15  N   UNL     1     -10.718  16.021  64.924  1.00  0.00    -0.675 NA 
HETATM   16  H   UNL     1     -11.370  16.579  64.372  1.00  0.00     0.000 HD 
BRANCH  15  17
HETATM   17  C   UNL     1     -10.942  14.668  65.252  1.00  0.00    -0.367 A  
HETATM   18  C   UNL     1     -10.362  13.577  64.585  1.00  0.00    -0.406 A  
HETATM   19  C   UNL     1     -10.688  12.264  64.948  1.00  0.00    -0.335 A  
HETATM   20  C   UNL     1     -11.581  12.028  65.990  1.00  0.00    -0.371 A  
HETATM   21  C   UNL     1     -12.135  13.100  66.685  1.00  0.00    -0.409 A  
HETATM   22  C   UNL     1     -11.810  14.408  66.320  1.00  0.00    -0.391 A  
ENDBRANCH  15  17
ENDBRANCH  13  15
ENDBRANCH   7  13
TORSDOF 3
ENDMDL
MODEL       44
REMARK 921   NORMALIZED FREE ENERGY PREDICTED BY IDOCK:   -5.34 KCAL/MOL
REMARK 922        TOTAL FREE ENERGY PREDICTED BY IDOCK:   -6.81 KCAL/MOL
REMARK 923 INTER-LIGAND FREE ENERGY PREDICTED BY IDOCK:   -6.36 KCAL/MOL
REMARK 924 INTRA-LIGAND FREE ENERGY PREDICTED BY IDOCK:   -0.45 KCAL/MOL
REMARK 927      BINDING AFFINITY PREDICTED BY RF-SCORE:    0.00 PKD
ROOT
HETATM    1  N   UNL     1     -11.644  10.380  68.007  1.00  0.00    -0.712 NA 
HETATM    2  C   UNL     1     -11.710  11.769  68.084  1.00  0.00    -0.307 A  
HETATM    3  H2  UNL     1     -12.494   9.976  68.399  1.00  0.00     0.000 HD 
HETATM    4  H1  UNL     1     -11.468   9.981  67.086  1.00  0.00     0.000 HD 
HETATM    5  N   UNL     1     -11.943  12.295  69.298  1.00  0.00    -0.283 NA 
HETATM    6  C   UNL     1     -11.989  13.642  69.411  1.00  0.00    -0.342 A  
HETATM    7  C   UNL     1     -11.804  14.518  68.321  1.00  0.00    -0.312 A  
HETATM    8  N   UNL     1     -12.309  14.106  70.690  1.00  0.00    -0.342 NA 
HETATM    9  H2  UNL     1     -11.669  13.713  71.381  1.00  0.00     0.000 HD 
HETATM   10  C   UNL     1     -11.509  12.546  66.955  1.00  0.00    -0.419 A  
HETATM   11  C   UNL     1     -11.564  13.933  67.079  1.00  0.00    -0.394 A  
HETATM   12  H1  UNL     1     -12.343  15.123  70.775  1.00  0.00     0.000 HD 
ENDROOT
BRANCH   7  13
HETATM   13  N   UNL     1     -11.850  15.932  68.383  1.00  0.00    -0.396 NA 
HETATM   14  H   UNL     1     -12.698  16.480  68.241  1.00  0.00     0.000 HD 
BRANCH  13  15
HETATM   15  N   UNL     1     -10.734  16.430  68.632  1.00  0.00    -0.297 NA 
HETATM   16  H   UNL     1     -10.065  16.010  69.277  1.00  0.00     0.000 HD 
BRANCH  15  17
HETATM   17  C   UNL     1     -10.489  17.630  67.933  1.00  0.00    -0.392 A  
HETATM   18  C   UNL     1     -10.636  17.793  66.547  1.00  0.00    -0.220 A  
HETATM   19  C   UNL     1     -10.314  19.011  65.934  1.00  0.00    -0.435 A  
HETATM   20  C   UNL     1      -9.861  20.082  66.702  1.00  0.00    -0.577 A  
HETATM   21  C   UNL     1      -9.747  19.946  68.083  1.00  0.00    -0.497 A  
HETATM   22  C   UNL     1     -10.066  18.730  68.690  1.00  0.00    -0.432 A  
ENDBRANCH  15  17
ENDBRANCH  13  15
ENDBRANCH   7  13
TORSDOF 3
ENDMDL
MODEL       45
REMARK 921   NORMALIZED FREE ENERGY PREDICTED BY IDOCK:   -5.33 KCAL/MOL
REMARK 922        TOTAL FREE ENERGY PREDICTED BY IDOCK:   -6.80 KCAL/MOL
REMARK 923 INTER-LIGAND FREE ENERGY PREDICTED BY IDOCK:   -6.15 KCAL/MOL
REMARK 924 INTRA-LIGAND FREE ENERGY PREDICTED BY IDOCK:   -0.65 KCAL/MOL
REMARK 927      BINDING AFFINITY PREDICTED BY RF-SCORE:    0.00 PKD
ROOT
HETATM    1  N   UNL     1     -12.081  10.919  67.998  1.00  0.00    -0.704 NA 
HETATM    2  C   UNL     1     -11.464  11.939  67.278  1.00  0.00    -0.317 A  
HETATM    3  H2  UNL     1     -12.334  10.160  67.367  1.00  0.00     0.000 HD 
HETATM    4  H1  UNL     1     -11.566  10.546  68.795  1.00  0.00     0.000 HD 
HETATM    5  N   UNL     1     -12.143  12.431  66.228  1.00  0.00    -0.630 NA 
HETATM    6  C   UNL     1     -11.581  13.439  65.522  1.00  0.00    -0.325 A  
HETATM    7  C   UNL     1     -10.324  13.997  65.833  1.00  0.00    -0.318 A  
HETATM    8  N   UNL     1     -12.315  13.842  64.403  1.00  0.00    -0.623 NA 
HETATM    9  H2  UNL     1     -13.269  14.085  64.673  1.00  0.00     0.000 HD 
HETATM   10  C   UNL     1     -10.226  12.425  67.667  1.00  0.00    -0.210 A  
HETATM   11  C   UNL     1      -9.652  13.460  66.930  1.00  0.00    -0.257 A  
HETATM   12  H1  UNL     1     -11.892  14.603  63.871  1.00  0.00     0.000 HD 
ENDROOT
BRANCH   7  13
HETATM   13  N   UNL     1      -9.689  15.045  65.124  1.00  0.00    -0.363 NA 
HETATM   14  H   UNL     1      -8.843  14.924  64.568  1.00  0.00     0.000 HD 
BRANCH  13  15
HETATM   15  N   UNL     1     -10.284  16.133  65.257  1.00  0.00    -0.549 NA 
HETATM   16  H   UNL     1     -11.086  16.406  64.689  1.00  0.00     0.000 HD 
BRANCH  15  17
HETATM   17  C   UNL     1      -9.738  16.949  66.269  1.00  0.00    -0.280 A  
HETATM   18  C   UNL     1      -8.383  17.299  66.371  1.00  0.00    -0.315 A  
HETATM   19  C   UNL     1      -7.924  18.071  67.446  1.00  0.00    -0.227 A  
HETATM   20  C   UNL     1      -8.817  18.516  68.419  1.00  0.00    -0.346 A  
HETATM   21  C   UNL     1     -10.170  18.207  68.310  1.00  0.00    -0.402 A  
HETATM   22  C   UNL     1     -10.624  17.436  67.239  1.00  0.00    -0.284 A  
ENDBRANCH  15  17
ENDBRANCH  13  15
ENDBRANCH   7  13
TORSDOF 3
ENDMDL
MODEL       46
REMARK 921   NORMALIZED FREE ENERGY PREDICTED BY IDOCK:   -5.33 KCAL/MOL
REMARK 922        TOTAL FREE ENERGY PREDICTED BY IDOCK:   -6.80 KCAL/MOL
REMARK 923 INTER-LIGAND FREE ENERGY PREDICTED BY IDOCK:   -6.27 KCAL/MOL
REMARK 924 INTRA-LIGAND FREE ENERGY PREDICTED BY IDOCK:   -0.53 KCAL/MOL
REMARK 927      BINDING AFFINITY PREDICTED BY RF-SCORE:    0.00 PKD
ROOT
HETATM    1  N   UNL     1     -14.080   8.955  73.194  1.00  0.00    -1.225 NA 
HETATM    2  C   UNL     1     -13.292   9.523  72.197  1.00  0.00    -0.461 A  
HETATM    3  H2  UNL     1     -15.054   9.219  73.052  1.00  0.00     0.000 HD 
HETATM    4  H1  UNL     1     -14.013   7.944  73.309  1.00  0.00     0.000 HD 
HETATM    5  N   UNL     1     -13.380  10.855  72.045  1.00  0.00    -0.398 NA 
HETATM    6  C   UNL     1     -12.609  11.441  71.100  1.00  0.00    -0.386 A  
HETATM    7  C   UNL     1     -11.720  10.727  70.272  1.00  0.00    -0.352 A  
HETATM    8  N   UNL     1     -12.815  12.817  70.955  1.00  0.00    -0.236 NA 
HETATM    9  H2  UNL     1     -12.700  13.290  71.852  1.00  0.00     0.000 HD 
HETATM   10  C   UNL     1     -12.443   8.736  71.436  1.00  0.00    -0.348 A  
HETATM   11  C   UNL     1     -11.656   9.347  70.461  1.00  0.00    -0.291 A  
HETATM   12  H1  UNL     1     -12.233  13.259  70.244  1.00  0.00     0.000 HD 
ENDROOT
BRANCH   7  13
HETATM   13  N   UNL     1     -10.898  11.289  69.266  1.00  0.00    -0.299 NA 
HETATM   14  H   UNL     1      -9.926  11.561  69.411  1.00  0.00     0.000 HD 
BRANCH  13  15
HETATM   15  N   UNL     1     -11.499  11.414  68.180  1.00  0.00    -0.336 NA 
HETATM   16  H   UNL     1     -12.088  10.683  67.779  1.00  0.00     0.000 HD 
BRANCH  15  17
HETATM   17  C   UNL     1     -11.286  12.663  67.562  1.00  0.00    -0.288 A  
HETATM   18  C   UNL     1     -10.523  13.706  68.110  1.00  0.00    -0.250 A  
HETATM   19  C   UNL     1     -10.413  14.934  67.445  1.00  0.00    -0.255 A  
HETATM   20  C   UNL     1     -11.048  15.125  66.220  1.00  0.00    -0.309 A  
HETATM   21  C   UNL     1     -11.777  14.086  65.647  1.00  0.00    -0.356 A  
HETATM   22  C   UNL     1     -11.886  12.865  66.313  1.00  0.00    -0.477 A  
ENDBRANCH  15  17
ENDBRANCH  13  15
ENDBRANCH   7  13
TORSDOF 3
ENDMDL
MODEL       47
REMARK 921   NORMALIZED FREE ENERGY PREDICTED BY IDOCK:   -5.33 KCAL/MOL
REMARK 922        TOTAL FREE ENERGY PREDICTED BY IDOCK:   -6.80 KCAL/MOL
REMARK 923 INTER-LIGAND FREE ENERGY PREDICTED BY IDOCK:   -6.29 KCAL/MOL
REMARK 924 INTRA-LIGAND FREE ENERGY PREDICTED BY IDOCK:   -0.51 KCAL/MOL
REMARK 927      BINDING AFFINITY PREDICTED BY RF-SCORE:    0.00 PKD
ROOT
HETATM    1  N   UNL     1     -10.995  10.995  62.831  1.00  0.00    -0.741 NA 
HETATM    2  C   UNL     1     -11.315  11.862  63.872  1.00  0.00    -0.428 A  
HETATM    3  H2  UNL     1     -11.386  10.073  63.022  1.00  0.00     0.000 HD 
HETATM    4  H1  UNL     1     -11.258  11.291  61.892  1.00  0.00     0.000 HD 
HETATM    5  N   UNL     1     -10.968  11.472  65.110  1.00  0.00    -0.267 NA 
HETATM    6  C   UNL     1     -11.243  12.303  66.141  1.00  0.00    -0.328 A  
HETATM    7  C   UNL     1     -11.872  13.555  65.982  1.00  0.00    -0.379 A  
HETATM    8  N   UNL     1     -10.919  11.791  67.401  1.00  0.00    -0.246 NA 
HETATM    9  H2  UNL     1      -9.940  11.505  67.427  1.00  0.00     0.000 HD 
HETATM   10  C   UNL     1     -11.930  13.076  63.613  1.00  0.00    -0.608 A  
HETATM   11  C   UNL     1     -12.216  13.924  64.681  1.00  0.00    -0.449 A  
HETATM   12  H1  UNL     1     -11.126  12.418  68.179  1.00  0.00     0.000 HD 
ENDROOT
BRANCH   7  13
HETATM   13  N   UNL     1     -12.190  14.457  67.025  1.00  0.00    -0.563 NA 
HETATM   14  H   UNL     1     -13.126  14.825  67.194  1.00  0.00     0.000 HD 
BRANCH  13  15
HETATM   15  N   UNL     1     -11.193  14.751  67.714  1.00  0.00    -0.300 NA 
HETATM   16  H   UNL     1     -10.713  14.082  68.317  1.00  0.00     0.000 HD 
BRANCH  15  17
HETATM   17  C   UNL     1     -10.795  16.096  67.579  1.00  0.00    -0.284 A  
HETATM   18  C   UNL     1     -10.491  16.722  66.360  1.00  0.00    -0.269 A  
HETATM   19  C   UNL     1     -10.051  18.051  66.330  1.00  0.00    -0.363 A  
HETATM   20  C   UNL     1      -9.927  18.773  67.515  1.00  0.00    -0.382 A  
HETATM   21  C   UNL     1     -10.262  18.177  68.728  1.00  0.00    -0.353 A  
HETATM   22  C   UNL     1     -10.698  16.852  68.754  1.00  0.00    -0.333 A  
ENDBRANCH  15  17
ENDBRANCH  13  15
ENDBRANCH   7  13
TORSDOF 3
ENDMDL
MODEL       48
REMARK 921   NORMALIZED FREE ENERGY PREDICTED BY IDOCK:   -5.32 KCAL/MOL
REMARK 922        TOTAL FREE ENERGY PREDICTED BY IDOCK:   -6.78 KCAL/MOL
REMARK 923 INTER-LIGAND FREE ENERGY PREDICTED BY IDOCK:   -6.24 KCAL/MOL
REMARK 924 INTRA-LIGAND FREE ENERGY PREDICTED BY IDOCK:   -0.54 KCAL/MOL
REMARK 927      BINDING AFFINITY PREDICTED BY RF-SCORE:    0.00 PKD
ROOT
HETATM    1  N   UNL     1     -10.705  16.059  64.930  1.00  0.00    -0.675 NA 
HETATM    2  C   UNL     1     -10.760  15.264  66.072  1.00  0.00    -0.320 A  
HETATM    3  H2  UNL     1     -11.635  16.129  64.518  1.00  0.00     0.000 HD 
HETATM    4  H1  UNL     1     -10.309  16.992  65.041  1.00  0.00     0.000 HD 
HETATM    5  N   UNL     1     -11.282  14.035  65.926  1.00  0.00    -0.305 NA 
HETATM    6  C   UNL     1     -11.327  13.229  67.012  1.00  0.00    -0.312 A  
HETATM    7  C   UNL     1     -10.853  13.613  68.283  1.00  0.00    -0.251 A  
HETATM    8  N   UNL     1     -11.952  11.998  66.794  1.00  0.00    -0.610 NA 
HETATM    9  H2  UNL     1     -11.517  11.513  66.008  1.00  0.00     0.000 HD 
HETATM   10  C   UNL     1     -10.262  15.730  67.278  1.00  0.00    -0.268 A  
HETATM   11  C   UNL     1     -10.317  14.896  68.392  1.00  0.00    -0.233 A  
HETATM   12  H1  UNL     1     -11.986  11.390  67.612  1.00  0.00     0.000 HD 
ENDROOT
BRANCH   7  13
HETATM   13  N   UNL     1     -10.884  12.813  69.450  1.00  0.00    -0.442 NA 
HETATM   14  H   UNL     1     -10.067  12.622  70.030  1.00  0.00     0.000 HD 
BRANCH  13  15
HETATM   15  N   UNL     1     -12.024  12.369  69.689  1.00  0.00    -0.298 NA 
HETATM   16  H   UNL     1     -12.881  12.838  69.391  1.00  0.00     0.000 HD 
BRANCH  15  17
HETATM   17  C   UNL     1     -12.014  11.158  70.411  1.00  0.00    -0.378 A  
HETATM   18  C   UNL     1     -13.016  10.752  71.306  1.00  0.00    -0.502 A  
HETATM   19  C   UNL     1     -12.892   9.554  72.020  1.00  0.00    -0.499 A  
HETATM   20  C   UNL     1     -11.775   8.742  71.834  1.00  0.00    -0.429 A  
HETATM   21  C   UNL     1     -10.792   9.113  70.920  1.00  0.00    -0.345 A  
HETATM   22  C   UNL     1     -10.918  10.309  70.212  1.00  0.00    -0.375 A  
ENDBRANCH  15  17
ENDBRANCH  13  15
ENDBRANCH   7  13
TORSDOF 3
ENDMDL
MODEL       49
REMARK 921   NORMALIZED FREE ENERGY PREDICTED BY IDOCK:   -5.29 KCAL/MOL
REMARK 922        TOTAL FREE ENERGY PREDICTED BY IDOCK:   -6.75 KCAL/MOL
REMARK 923 INTER-LIGAND FREE ENERGY PREDICTED BY IDOCK:   -6.39 KCAL/MOL
REMARK 924 INTRA-LIGAND FREE ENERGY PREDICTED BY IDOCK:   -0.36 KCAL/MOL
REMARK 927      BINDING AFFINITY PREDICTED BY RF-SCORE:    0.00 PKD
ROOT
HETATM    1  N   UNL     1     -13.362  10.614  72.379  1.00  0.00    -0.524 NA 
HETATM    2  C   UNL     1     -13.111  11.835  71.758  1.00  0.00    -0.375 A  
HETATM    3  H2  UNL     1     -14.369  10.470  72.454  1.00  0.00     0.000 HD 
HETATM    4  H1  UNL     1     -12.928   9.791  71.963  1.00  0.00     0.000 HD 
HETATM    5  N   UNL     1     -13.683  12.919  72.307  1.00  0.00    -0.526 NA 
HETATM    6  C   UNL     1     -13.439  14.124  71.741  1.00  0.00    -0.390 A  
HETATM    7  C   UNL     1     -12.617  14.296  70.609  1.00  0.00    -0.355 A  
HETATM    8  N   UNL     1     -14.131  15.189  72.325  1.00  0.00    -0.511 NA 
HETATM    9  H2  UNL     1     -13.948  15.224  73.328  1.00  0.00     0.000 HD 
HETATM   10  C   UNL     1     -12.282  11.903  70.650  1.00  0.00    -0.424 A  
HETATM   11  C   UNL     1     -12.041  13.146  70.070  1.00  0.00    -0.375 A  
HETATM   12  H1  UNL     1     -13.947  16.097  71.898  1.00  0.00     0.000 HD 
ENDROOT
BRANCH   7  13
HETATM   13  N   UNL     1     -12.336  15.530  69.974  1.00  0.00    -0.494 NA 
HETATM   14  H   UNL     1     -12.136  16.395  70.476  1.00  0.00     0.000 HD 
BRANCH  13  15
HETATM   15  N   UNL     1     -12.360  15.438  68.731  1.00  0.00    -0.577 NA 
HETATM   16  H   UNL     1     -13.123  14.995  68.218  1.00  0.00     0.000 HD 
BRANCH  15  17
HETATM   17  C   UNL     1     -11.231  16.004  68.105  1.00  0.00    -0.325 A  
HETATM   18  C   UNL     1     -10.700  15.579  66.877  1.00  0.00    -0.317 A  
HETATM   19  C   UNL     1      -9.539  16.168  66.360  1.00  0.00    -0.312 A  
HETATM   20  C   UNL     1      -8.908  17.198  67.055  1.00  0.00    -0.246 A  
HETATM   21  C   UNL     1      -9.445  17.654  68.256  1.00  0.00    -0.295 A  
HETATM   22  C   UNL     1     -10.601  17.064  68.769  1.00  0.00    -0.346 A  
ENDBRANCH  15  17
ENDBRANCH  13  15
ENDBRANCH   7  13
TORSDOF 3
ENDMDL
MODEL       50
REMARK 921   NORMALIZED FREE ENERGY PREDICTED BY IDOCK:   -5.28 KCAL/MOL
REMARK 922        TOTAL FREE ENERGY PREDICTED BY IDOCK:   -6.73 KCAL/MOL
REMARK 923 INTER-LIGAND FREE ENERGY PREDICTED BY IDOCK:   -6.18 KCAL/MOL
REMARK 924 INTRA-LIGAND FREE ENERGY PREDICTED BY IDOCK:   -0.55 KCAL/MOL
REMARK 927      BINDING AFFINITY PREDICTED BY RF-SCORE:    0.00 PKD
ROOT
HETATM    1  N   UNL     1     -11.679  16.672  72.192  1.00  0.00    -0.560 NA 
HETATM    2  C   UNL     1     -11.749  15.744  71.156  1.00  0.00    -0.428 A  
HETATM    3  H2  UNL     1     -12.238  17.491  71.955  1.00  0.00     0.000 HD 
HETATM    4  H1  UNL     1     -11.936  16.339  73.121  1.00  0.00     0.000 HD 
HETATM    5  N   UNL     1     -11.411  16.182  69.931  1.00  0.00    -0.315 NA 
HETATM    6  C   UNL     1     -11.445  15.299  68.907  1.00  0.00    -0.332 A  
HETATM    7  C   UNL     1     -11.814  13.947  69.060  1.00  0.00    -0.358 A  
HETATM    8  N   UNL     1     -11.153  15.851  67.656  1.00  0.00    -0.303 NA 
HETATM    9  H2  UNL     1     -10.254  16.332  67.681  1.00  0.00     0.000 HD 
HETATM   10  C   UNL     1     -12.119  14.433  71.409  1.00  0.00    -0.397 A  
HETATM   11  C   UNL     1     -12.157  13.531  70.347  1.00  0.00    -0.415 A  
HETATM   12  H1  UNL     1     -11.178  15.184  66.884  1.00  0.00     0.000 HD 
ENDROOT
BRANCH   7  13
HETATM   13  N   UNL     1     -11.874  12.985  68.023  1.00  0.00    -0.355 NA 
HETATM   14  H   UNL     1     -12.695  12.414  67.824  1.00  0.00     0.000 HD 
BRANCH  13  15
HETATM   15  N   UNL     1     -10.807  12.917  67.381  1.00  0.00    -0.247 NA 
HETATM   16  H   UNL     1      -9.899  13.161  67.777  1.00  0.00     0.000 HD 
BRANCH  15  17
HETATM   17  C   UNL     1     -10.980  12.473  66.054  1.00  0.00    -0.283 A  
HETATM   18  C   UNL     1     -10.252  11.431  65.458  1.00  0.00    -0.312 A  
HETATM   19  C   UNL     1     -10.456  11.096  64.114  1.00  0.00    -0.442 A  
HETATM   20  C   UNL     1     -11.401  11.786  63.357  1.00  0.00    -0.437 A  
HETATM   21  C   UNL     1     -12.158  12.796  63.946  1.00  0.00    -0.562 A  
HETATM   22  C   UNL     1     -11.950  13.129  65.285  1.00  0.00    -0.437 A  
ENDBRANCH  15  17
ENDBRANCH  13  15
ENDBRANCH   7  13
TORSDOF 3
ENDMDL
MODEL       51
REMARK 921   NORMALIZED FREE ENERGY PREDICTED BY IDOCK:   -5.27 KCAL/MOL
REMARK 922        TOTAL FREE ENERGY PREDICTED BY IDOCK:   -6.73 KCAL/MOL
REMARK 923 INTER-LIGAND FREE ENERGY PREDICTED BY IDOCK:   -6.25 KCAL/MOL
REMARK 924 INTRA-LIGAND FREE ENERGY PREDICTED BY IDOCK:   -0.48 KCAL/MOL
REMARK 927      BINDING AFFINITY PREDICTED BY RF-SCORE:    0.00 PKD
ROOT
HETATM    1  N   UNL     1     -11.163   7.083  73.634  1.00  0.00    -0.465 NA 
HETATM    2  C   UNL     1     -11.042   8.016  72.609  1.00  0.00    -0.387 A  
HETATM    3  H2  UNL     1     -11.857   6.381  73.378  1.00  0.00     0.000 HD 
HETATM    4  H1  UNL     1     -10.306   6.622  73.937  1.00  0.00     0.000 HD 
HETATM    5  N   UNL     1     -12.172   8.624  72.210  1.00  0.00    -0.379 NA 
HETATM    6  C   UNL     1     -12.084   9.554  71.231  1.00  0.00    -0.360 A  
HETATM    7  C   UNL     1     -10.870   9.916  70.612  1.00  0.00    -0.330 A  
HETATM    8  N   UNL     1     -13.312  10.083  70.822  1.00  0.00    -0.578 NA 
HETATM    9  H2  UNL     1     -13.822  10.457  71.623  1.00  0.00     0.000 HD 
HETATM   10  C   UNL     1      -9.801   8.309  72.067  1.00  0.00    -0.327 A  
HETATM   11  C   UNL     1      -9.720   9.264  71.055  1.00  0.00    -0.341 A  
HETATM   12  H1  UNL     1     -13.245  10.784  70.085  1.00  0.00     0.000 HD 
ENDROOT
BRANCH   7  13
HETATM   13  N   UNL     1     -10.724  10.875  69.581  1.00  0.00    -0.397 NA 
HETATM   14  H   UNL     1     -10.261  10.687  68.692  1.00  0.00     0.000 HD 
BRANCH  13  15
HETATM   15  N   UNL     1     -11.228  11.974  69.884  1.00  0.00    -0.493 NA 
HETATM   16  H   UNL     1     -11.459  12.239  70.842  1.00  0.00     0.000 HD 
BRANCH  15  17
HETATM   17  C   UNL     1     -11.447  12.815  68.773  1.00  0.00    -0.304 A  
HETATM   18  C   UNL     1     -11.766  12.367  67.482  1.00  0.00    -0.425 A  
HETATM   19  C   UNL     1     -11.912  13.277  66.427  1.00  0.00    -0.465 A  
HETATM   20  C   UNL     1     -11.758  14.643  66.656  1.00  0.00    -0.345 A  
HETATM   21  C   UNL     1     -11.479  15.104  67.940  1.00  0.00    -0.344 A  
HETATM   22  C   UNL     1     -11.332  14.194  68.988  1.00  0.00    -0.310 A  
ENDBRANCH  15  17
ENDBRANCH  13  15
ENDBRANCH   7  13
TORSDOF 3
ENDMDL
MODEL       52
REMARK 921   NORMALIZED FREE ENERGY PREDICTED BY IDOCK:   -5.27 KCAL/MOL
REMARK 922        TOTAL FREE ENERGY PREDICTED BY IDOCK:   -6.72 KCAL/MOL
REMARK 923 INTER-LIGAND FREE ENERGY PREDICTED BY IDOCK:   -6.26 KCAL/MOL
REMARK 924 INTRA-LIGAND FREE ENERGY PREDICTED BY IDOCK:   -0.46 KCAL/MOL
REMARK 927      BINDING AFFINITY PREDICTED BY RF-SCORE:    0.00 PKD
ROOT
HETATM    1  N   UNL     1     -13.588  14.534  72.929  1.00  0.00    -0.590 NA 
HETATM    2  C   UNL     1     -13.014  14.224  71.699  1.00  0.00    -0.346 A  
HETATM    3  H2  UNL     1     -13.033  14.123  73.678  1.00  0.00     0.000 HD 
HETATM    4  H1  UNL     1     -13.746  15.523  73.123  1.00  0.00     0.000 HD 
HETATM    5  N   UNL     1     -12.805  12.922  71.442  1.00  0.00    -0.341 NA 
HETATM    6  C   UNL     1     -12.272  12.586  70.245  1.00  0.00    -0.267 A  
HETATM    7  C   UNL     1     -11.926  13.531  69.257  1.00  0.00    -0.330 A  
HETATM    8  N   UNL     1     -12.017  11.220  70.087  1.00  0.00    -0.340 NA 
HETATM    9  H2  UNL     1     -12.864  10.679  70.264  1.00  0.00     0.000 HD 
HETATM   10  C   UNL     1     -12.714  15.226  70.789  1.00  0.00    -0.491 A  
HETATM   11  C   UNL     1     -12.160  14.872  69.561  1.00  0.00    -0.315 A  
HETATM   12  H1  UNL     1     -11.615  10.967  69.184  1.00  0.00     0.000 HD 
ENDROOT
BRANCH   7  13
HETATM   13  N   UNL     1     -11.359  13.234  67.994  1.00  0.00    -0.273 NA 
HETATM   14  H   UNL     1     -10.488  13.639  67.653  1.00  0.00     0.000 HD 
BRANCH  13  15
HETATM   15  N   UNL     1     -12.047  12.419  67.348  1.00  0.00    -0.484 NA 
HETATM   16  H   UNL     1     -12.920  12.022  67.697  1.00  0.00     0.000 HD 
BRANCH  15  17
HETATM   17  C   UNL     1     -11.500  12.098  66.089  1.00  0.00    -0.371 A  
HETATM   18  C   UNL     1     -10.645  11.014  65.841  1.00  0.00    -0.270 A  
HETATM   19  C   UNL     1     -10.105  10.807  64.565  1.00  0.00    -0.415 A  
HETATM   20  C   UNL     1     -10.430  11.671  63.521  1.00  0.00    -0.498 A  
HETATM   21  C   UNL     1     -11.307  12.729  63.744  1.00  0.00    -0.520 A  
HETATM   22  C   UNL     1     -11.841  12.933  65.017  1.00  0.00    -0.411 A  
ENDBRANCH  15  17
ENDBRANCH  13  15
ENDBRANCH   7  13
TORSDOF 3
ENDMDL
MODEL       53
REMARK 921   NORMALIZED FREE ENERGY PREDICTED BY IDOCK:   -5.25 KCAL/MOL
REMARK 922        TOTAL FREE ENERGY PREDICTED BY IDOCK:   -6.70 KCAL/MOL
REMARK 923 INTER-LIGAND FREE ENERGY PREDICTED BY IDOCK:   -6.04 KCAL/MOL
REMARK 924 INTRA-LIGAND FREE ENERGY PREDICTED BY IDOCK:   -0.66 KCAL/MOL
REMARK 927      BINDING AFFINITY PREDICTED BY RF-SCORE:    0.00 PKD
ROOT
HETATM    1  N   UNL     1     -10.209   6.593  74.466  1.00  0.00    -0.425 NA 
HETATM    2  C   UNL     1     -10.505   7.320  73.316  1.00  0.00    -0.370 A  
HETATM    3  H2  UNL     1     -10.236   5.596  74.257  1.00  0.00     0.000 HD 
HETATM    4  H1  UNL     1      -9.334   6.820  74.938  1.00  0.00     0.000 HD 
HETATM    5  N   UNL     1     -11.657   7.021  72.694  1.00  0.00    -0.211 NA 
HETATM    6  C   UNL     1     -11.985   7.726  71.587  1.00  0.00    -0.297 A  
HETATM    7  C   UNL     1     -11.182   8.756  71.057  1.00  0.00    -0.273 A  
HETATM    8  N   UNL     1     -13.160   7.303  70.958  1.00  0.00    -0.594 NA 
HETATM    9  H2  UNL     1     -13.937   7.300  71.621  1.00  0.00     0.000 HD 
HETATM   10  C   UNL     1      -9.651   8.319  72.876  1.00  0.00    -0.320 A  
HETATM   11  C   UNL     1      -9.994   9.037  71.732  1.00  0.00    -0.359 A  
HETATM   12  H1  UNL     1     -13.408   7.835  70.123  1.00  0.00     0.000 HD 
ENDROOT
BRANCH   7  13
HETATM   13  N   UNL     1     -11.474   9.517  69.900  1.00  0.00    -0.429 NA 
HETATM   14  H   UNL     1     -10.850   9.595  69.098  1.00  0.00     0.000 HD 
BRANCH  13  15
HETATM   15  N   UNL     1     -12.584  10.082  69.974  1.00  0.00    -0.503 NA 
HETATM   16  H   UNL     1     -13.467   9.608  69.783  1.00  0.00     0.000 HD 
BRANCH  15  17
HETATM   17  C   UNL     1     -12.498  11.438  70.348  1.00  0.00    -0.261 A  
HETATM   18  C   UNL     1     -12.968  11.965  71.561  1.00  0.00    -0.427 A  
HETATM   19  C   UNL     1     -12.888  13.340  71.820  1.00  0.00    -0.367 A  
HETATM   20  C   UNL     1     -12.321  14.197  70.880  1.00  0.00    -0.438 A  
HETATM   21  C   UNL     1     -11.816  13.682  69.688  1.00  0.00    -0.396 A  
HETATM   22  C   UNL     1     -11.899  12.313  69.432  1.00  0.00    -0.370 A  
ENDBRANCH  15  17
ENDBRANCH  13  15
ENDBRANCH   7  13
TORSDOF 3
ENDMDL
MODEL       54
REMARK 921   NORMALIZED FREE ENERGY PREDICTED BY IDOCK:   -5.22 KCAL/MOL
REMARK 922        TOTAL FREE ENERGY PREDICTED BY IDOCK:   -6.66 KCAL/MOL
REMARK 923 INTER-LIGAND FREE ENERGY PREDICTED BY IDOCK:   -6.33 KCAL/MOL
REMARK 924 INTRA-LIGAND FREE ENERGY PREDICTED BY IDOCK:   -0.33 KCAL/MOL
REMARK 927      BINDING AFFINITY PREDICTED BY RF-SCORE:    0.00 PKD
ROOT
HETATM    1  N   UNL     1     -14.106   8.901  73.096  1.00  0.00    -1.225 NA 
HETATM    2  C   UNL     1     -13.097   9.292  72.220  1.00  0.00    -0.441 A  
HETATM    3  H2  UNL     1     -15.012   9.180  72.720  1.00  0.00     0.000 HD 
HETATM    4  H1  UNL     1     -14.131   7.915  73.353  1.00  0.00     0.000 HD 
HETATM    5  N   UNL     1     -13.064  10.591  71.880  1.00  0.00    -0.479 NA 
HETATM    6  C   UNL     1     -12.080  11.007  71.049  1.00  0.00    -0.301 A  
HETATM    7  C   UNL     1     -11.092  10.149  70.525  1.00  0.00    -0.327 A  
HETATM    8  N   UNL     1     -12.161  12.355  70.685  1.00  0.00    -0.490 NA 
HETATM    9  H2  UNL     1     -12.198  12.945  71.517  1.00  0.00     0.000 HD 
HETATM   10  C   UNL     1     -12.167   8.372  71.763  1.00  0.00    -0.377 A  
HETATM   11  C   UNL     1     -11.161   8.808  70.903  1.00  0.00    -0.320 A  
HETATM   12  H1  UNL     1     -11.419  12.669  70.059  1.00  0.00     0.000 HD 
ENDROOT
BRANCH   7  13
HETATM   13  N   UNL     1     -10.049  10.530  69.648  1.00  0.00    -0.388 NA 
HETATM   14  H   UNL     1      -9.513  11.393  69.743  1.00  0.00     0.000 HD 
BRANCH  13  15
HETATM   15  N   UNL     1      -9.860   9.691  68.746  1.00  0.00    -0.160 NA 
HETATM   16  H   UNL     1      -9.551   8.735  68.926  1.00  0.00     0.000 HD 
BRANCH  15  17
HETATM   17  C   UNL     1     -10.114  10.192  67.453  1.00  0.00    -0.205 A  
HETATM   18  C   UNL     1      -9.806   9.519  66.260  1.00  0.00    -0.334 A  
HETATM   19  C   UNL     1     -10.047  10.123  65.018  1.00  0.00    -0.305 A  
HETATM   20  C   UNL     1     -10.613  11.394  64.957  1.00  0.00    -0.359 A  
HETATM   21  C   UNL     1     -10.958  12.057  66.132  1.00  0.00    -0.343 A  
HETATM   22  C   UNL     1     -10.715  11.454  67.367  1.00  0.00    -0.274 A  
ENDBRANCH  15  17
ENDBRANCH  13  15
ENDBRANCH   7  13
TORSDOF 3
ENDMDL
MODEL       55
REMARK 921   NORMALIZED FREE ENERGY PREDICTED BY IDOCK:   -5.21 KCAL/MOL
REMARK 922        TOTAL FREE ENERGY PREDICTED BY IDOCK:   -6.65 KCAL/MOL
REMARK 923 INTER-LIGAND FREE ENERGY PREDICTED BY IDOCK:   -6.10 KCAL/MOL
REMARK 924 INTRA-LIGAND FREE ENERGY PREDICTED BY IDOCK:   -0.56 KCAL/MOL
REMARK 927      BINDING AFFINITY PREDICTED BY RF-SCORE:    0.00 PKD
ROOT
HETATM    1  N   UNL     1     -12.614   6.261  72.306  1.00  0.00    -0.516 NA 
HETATM    2  C   UNL     1     -12.261   7.489  71.755  1.00  0.00    -0.314 A  
HETATM    3  H2  UNL     1     -13.614   6.105  72.183  1.00  0.00     0.000 HD 
HETATM    4  H1  UNL     1     -12.097   5.446  71.975  1.00  0.00     0.000 HD 
HETATM    5  N   UNL     1     -12.942   8.563  72.190  1.00  0.00    -0.358 NA 
HETATM    6  C   UNL     1     -12.606   9.775  71.692  1.00  0.00    -0.416 A  
HETATM    7  C   UNL     1     -11.582   9.967  70.743  1.00  0.00    -0.360 A  
HETATM    8  N   UNL     1     -13.411  10.828  72.139  1.00  0.00    -0.579 NA 
HETATM    9  H2  UNL     1     -13.426  10.855  73.159  1.00  0.00     0.000 HD 
HETATM   10  C   UNL     1     -11.233   7.577  70.830  1.00  0.00    -0.287 A  
HETATM   11  C   UNL     1     -10.898   8.829  70.317  1.00  0.00    -0.252 A  
HETATM   12  H1  UNL     1     -13.158  11.742  71.764  1.00  0.00     0.000 HD 
ENDROOT
BRANCH   7  13
HETATM   13  N   UNL     1     -11.197  11.210  70.185  1.00  0.00    -0.480 NA 
HETATM   14  H   UNL     1     -10.295  11.655  70.354  1.00  0.00     0.000 HD 
BRANCH  13  15
HETATM   15  N   UNL     1     -12.088  11.698  69.462  1.00  0.00    -0.295 NA 
HETATM   16  H   UNL     1     -12.814  11.139  69.013  1.00  0.00     0.000 HD 
BRANCH  15  17
HETATM   17  C   UNL     1     -11.994  13.099  69.326  1.00  0.00    -0.292 A  
HETATM   18  C   UNL     1     -11.734  13.770  68.122  1.00  0.00    -0.392 A  
HETATM   19  C   UNL     1     -11.603  15.164  68.096  1.00  0.00    -0.358 A  
HETATM   20  C   UNL     1     -11.751  15.902  69.268  1.00  0.00    -0.360 A  
HETATM   21  C   UNL     1     -12.047  15.253  70.464  1.00  0.00    -0.395 A  
HETATM   22  C   UNL     1     -12.174  13.863  70.487  1.00  0.00    -0.443 A  
ENDBRANCH  15  17
ENDBRANCH  13  15
ENDBRANCH   7  13
TORSDOF 3
ENDMDL
MODEL       56
REMARK 921   NORMALIZED FREE ENERGY PREDICTED BY IDOCK:   -5.17 KCAL/MOL
REMARK 922        TOTAL FREE ENERGY PREDICTED BY IDOCK:   -6.61 KCAL/MOL
REMARK 923 INTER-LIGAND FREE ENERGY PREDICTED BY IDOCK:   -6.29 KCAL/MOL
REMARK 924 INTRA-LIGAND FREE ENERGY PREDICTED BY IDOCK:   -0.32 KCAL/MOL
REMARK 927      BINDING AFFINITY PREDICTED BY RF-SCORE:    0.00 PKD
ROOT
HETATM    1  N   UNL     1      -6.703  15.373  67.188  1.00  0.00    -0.275 NA 
HETATM    2  C   UNL     1      -8.049  15.403  67.541  1.00  0.00    -0.167 A  
HETATM    3  H2  UNL     1      -6.161  15.915  67.861  1.00  0.00     0.000 HD 
HETATM    4  H1  UNL     1      -6.281  14.452  67.071  1.00  0.00     0.000 HD 
HETATM    5  N   UNL     1      -8.605  16.616  67.695  1.00  0.00    -0.198 NA 
HETATM    6  C   UNL     1      -9.919  16.680  68.014  1.00  0.00    -0.258 A  
HETATM    7  C   UNL     1     -10.730  15.540  68.191  1.00  0.00    -0.282 A  
HETATM    8  N   UNL     1     -10.400  17.974  68.230  1.00  0.00    -0.383 NA 
HETATM    9  H2  UNL     1     -10.201  18.567  67.423  1.00  0.00     0.000 HD 
HETATM   10  C   UNL     1      -8.765  14.226  67.686  1.00  0.00    -0.192 A  
HETATM   11  C   UNL     1     -10.116  14.300  68.020  1.00  0.00    -0.227 A  
HETATM   12  H1  UNL     1     -11.391  18.022  68.470  1.00  0.00     0.000 HD 
ENDROOT
BRANCH   7  13
HETATM   13  N   UNL     1     -12.104  15.551  68.531  1.00  0.00    -0.535 NA 
HETATM   14  H   UNL     1     -12.773  16.231  68.172  1.00  0.00     0.000 HD 
BRANCH  13  15
HETATM   15  N   UNL     1     -12.401  14.633  69.321  1.00  0.00    -0.560 NA 
HETATM   16  H   UNL     1     -12.479  13.655  69.040  1.00  0.00     0.000 HD 
BRANCH  15  17
HETATM   17  C   UNL     1     -12.619  15.079  70.641  1.00  0.00    -0.374 A  
HETATM   18  C   UNL     1     -11.615  15.542  71.505  1.00  0.00    -0.487 A  
HETATM   19  C   UNL     1     -11.921  15.914  72.821  1.00  0.00    -0.616 A  
HETATM   20  C   UNL     1     -13.235  15.843  73.279  1.00  0.00    -0.698 A  
HETATM   21  C   UNL     1     -14.247  15.422  72.421  1.00  0.00    -0.584 A  
HETATM   22  C   UNL     1     -13.938  15.051  71.112  1.00  0.00    -0.451 A  
ENDBRANCH  15  17
ENDBRANCH  13  15
ENDBRANCH   7  13
TORSDOF 3
ENDMDL
MODEL       57
REMARK 921   NORMALIZED FREE ENERGY PREDICTED BY IDOCK:   -5.17 KCAL/MOL
REMARK 922        TOTAL FREE ENERGY PREDICTED BY IDOCK:   -6.61 KCAL/MOL
REMARK 923 INTER-LIGAND FREE ENERGY PREDICTED BY IDOCK:   -6.05 KCAL/MOL
REMARK 924 INTRA-LIGAND FREE ENERGY PREDICTED BY IDOCK:   -0.55 KCAL/MOL
REMARK 927      BINDING AFFINITY PREDICTED BY RF-SCORE:    0.00 PKD
ROOT
HETATM    1  N   UNL     1      -9.314   8.700  72.578  1.00  0.00    -0.321 NA 
HETATM    2  C   UNL     1      -9.945   9.191  71.439  1.00  0.00    -0.303 A  
HETATM    3  H2  UNL     1      -9.809   7.875  72.914  1.00  0.00     0.000 HD 
HETATM    4  H1  UNL     1      -8.319   8.492  72.496  1.00  0.00     0.000 HD 
HETATM    5  N   UNL     1     -11.256   9.464  71.546  1.00  0.00    -0.378 NA 
HETATM    6  C   UNL     1     -11.894   9.965  70.463  1.00  0.00    -0.270 A  
HETATM    7  C   UNL     1     -11.253  10.216  69.233  1.00  0.00    -0.196 A  
HETATM    8  N   UNL     1     -13.269  10.151  70.635  1.00  0.00    -0.575 NA 
HETATM    9  H2  UNL     1     -13.449  10.732  71.455  1.00  0.00     0.000 HD 
HETATM   10  C   UNL     1      -9.226   9.409  70.274  1.00  0.00    -0.285 A  
HETATM   11  C   UNL     1      -9.892   9.920  69.162  1.00  0.00    -0.204 A  
HETATM   12  H1  UNL     1     -13.750  10.530  69.819  1.00  0.00     0.000 HD 
ENDROOT
BRANCH   7  13
HETATM   13  N   UNL     1     -11.874  10.731  68.069  1.00  0.00    -0.773 NA 
HETATM   14  H   UNL     1     -12.128  10.163  67.262  1.00  0.00     0.000 HD 
BRANCH  13  15
HETATM   15  N   UNL     1     -12.074  11.959  68.146  1.00  0.00    -0.486 NA 
HETATM   16  H   UNL     1     -12.501  12.407  68.958  1.00  0.00     0.000 HD 
BRANCH  15  17
HETATM   17  C   UNL     1     -11.654  12.668  67.002  1.00  0.00    -0.365 A  
HETATM   18  C   UNL     1     -11.775  14.056  66.832  1.00  0.00    -0.435 A  
HETATM   19  C   UNL     1     -11.378  14.665  65.635  1.00  0.00    -0.338 A  
HETATM   20  C   UNL     1     -10.840  13.896  64.604  1.00  0.00    -0.420 A  
HETATM   21  C   UNL     1     -10.680  12.523  64.774  1.00  0.00    -0.333 A  
HETATM   22  C   UNL     1     -11.078  11.920  65.967  1.00  0.00    -0.369 A  
ENDBRANCH  15  17
ENDBRANCH  13  15
ENDBRANCH   7  13
TORSDOF 3
ENDMDL
MODEL       58
REMARK 921   NORMALIZED FREE ENERGY PREDICTED BY IDOCK:   -5.15 KCAL/MOL
REMARK 922        TOTAL FREE ENERGY PREDICTED BY IDOCK:   -6.59 KCAL/MOL
REMARK 923 INTER-LIGAND FREE ENERGY PREDICTED BY IDOCK:   -6.13 KCAL/MOL
REMARK 924 INTRA-LIGAND FREE ENERGY PREDICTED BY IDOCK:   -0.46 KCAL/MOL
REMARK 927      BINDING AFFINITY PREDICTED BY RF-SCORE:    0.00 PKD
ROOT
HETATM    1  N   UNL     1      -8.080   7.613  74.424  1.00  0.00    -0.195 NA 
HETATM    2  C   UNL     1      -9.024   7.899  73.442  1.00  0.00    -0.277 A  
HETATM    3  H2  UNL     1      -7.678   8.482  74.774  1.00  0.00     0.000 HD 
HETATM    4  H1  UNL     1      -8.394   7.042  75.208  1.00  0.00     0.000 HD 
HETATM    5  N   UNL     1      -8.610   8.652  72.409  1.00  0.00    -0.391 NA 
HETATM    6  C   UNL     1      -9.497   8.927  71.425  1.00  0.00    -0.274 A  
HETATM    7  C   UNL     1     -10.828   8.463  71.429  1.00  0.00    -0.244 A  
HETATM    8  N   UNL     1      -9.010   9.778  70.428  1.00  0.00    -0.344 NA 
HETATM    9  H2  UNL     1      -8.146   9.405  70.034  1.00  0.00     0.000 HD 
HETATM   10  C   UNL     1     -10.310   7.391  73.532  1.00  0.00    -0.405 A  
HETATM   11  C   UNL     1     -11.219   7.684  72.517  1.00  0.00    -0.399 A  
HETATM   12  H1  UNL     1      -9.679   9.985  69.685  1.00  0.00     0.000 HD 
ENDROOT
BRANCH   7  13
HETATM   13  N   UNL     1     -11.797   8.728  70.431  1.00  0.00    -0.472 NA 
HETATM   14  H   UNL     1     -11.687   8.471  69.450  1.00  0.00     0.000 HD 
BRANCH  13  15
HETATM   15  N   UNL     1     -12.799   9.313  70.889  1.00  0.00    -0.524 NA 
HETATM   16  H   UNL     1     -13.622   8.821  71.239  1.00  0.00     0.000 HD 
BRANCH  15  17
HETATM   17  C   UNL     1     -12.682  10.718  70.875  1.00  0.00    -0.384 A  
HETATM   18  C   UNL     1     -12.030  11.457  69.876  1.00  0.00    -0.434 A  
HETATM   19  C   UNL     1     -11.918  12.849  69.977  1.00  0.00    -0.380 A  
HETATM   20  C   UNL     1     -12.471  13.518  71.067  1.00  0.00    -0.451 A  
HETATM   21  C   UNL     1     -13.154  12.801  72.046  1.00  0.00    -0.474 A  
HETATM   22  C   UNL     1     -13.262  11.414  71.944  1.00  0.00    -0.485 A  
ENDBRANCH  15  17
ENDBRANCH  13  15
ENDBRANCH   7  13
TORSDOF 3
ENDMDL
MODEL       59
REMARK 921   NORMALIZED FREE ENERGY PREDICTED BY IDOCK:   -5.12 KCAL/MOL
REMARK 922        TOTAL FREE ENERGY PREDICTED BY IDOCK:   -6.54 KCAL/MOL
REMARK 923 INTER-LIGAND FREE ENERGY PREDICTED BY IDOCK:   -6.22 KCAL/MOL
REMARK 924 INTRA-LIGAND FREE ENERGY PREDICTED BY IDOCK:   -0.32 KCAL/MOL
REMARK 927      BINDING AFFINITY PREDICTED BY RF-SCORE:    0.00 PKD
ROOT
HETATM    1  N   UNL     1     -10.834  16.181  67.089  1.00  0.00    -0.268 NA 
HETATM    2  C   UNL     1     -11.174  14.888  67.474  1.00  0.00    -0.328 A  
HETATM    3  H2  UNL     1     -11.531  16.538  66.436  1.00  0.00     0.000 HD 
HETATM    4  H1  UNL     1     -10.689  16.858  67.838  1.00  0.00     0.000 HD 
HETATM    5  N   UNL     1     -11.365  13.996  66.488  1.00  0.00    -0.325 NA 
HETATM    6  C   UNL     1     -11.673  12.724  66.830  1.00  0.00    -0.392 A  
HETATM    7  C   UNL     1     -11.801  12.288  68.164  1.00  0.00    -0.311 A  
HETATM    8  N   UNL     1     -11.929  11.878  65.746  1.00  0.00    -0.406 NA 
HETATM    9  H2  UNL     1     -11.146  11.891  65.092  1.00  0.00     0.000 HD 
HETATM   10  C   UNL     1     -11.270  14.555  68.816  1.00  0.00    -0.281 A  
HETATM   11  C   UNL     1     -11.594  13.244  69.159  1.00  0.00    -0.370 A  
HETATM   12  H1  UNL     1     -12.161  10.919  66.003  1.00  0.00     0.000 HD 
ENDROOT
BRANCH   7  13
HETATM   13  N   UNL     1     -12.128  10.974  68.575  1.00  0.00    -0.770 NA 
HETATM   14  H   UNL     1     -11.825  10.133  68.085  1.00  0.00     0.000 HD 
BRANCH  13  15
HETATM   15  N   UNL     1     -12.829  10.963  69.606  1.00  0.00    -0.414 NA 
HETATM   16  H   UNL     1     -13.649  11.558  69.733  1.00  0.00     0.000 HD 
BRANCH  15  17
HETATM   17  C   UNL     1     -12.379  10.048  70.580  1.00  0.00    -0.253 A  
HETATM   18  C   UNL     1     -13.212   9.342  71.461  1.00  0.00    -0.433 A  
HETATM   19  C   UNL     1     -12.667   8.494  72.434  1.00  0.00    -0.394 A  
HETATM   20  C   UNL     1     -11.286   8.330  72.524  1.00  0.00    -0.455 A  
HETATM   21  C   UNL     1     -10.450   8.995  71.631  1.00  0.00    -0.426 A  
HETATM   22  C   UNL     1     -10.996   9.840  70.665  1.00  0.00    -0.398 A  
ENDBRANCH  15  17
ENDBRANCH  13  15
ENDBRANCH   7  13
TORSDOF 3
ENDMDL
MODEL       60
REMARK 921   NORMALIZED FREE ENERGY PREDICTED BY IDOCK:   -5.10 KCAL/MOL
REMARK 922        TOTAL FREE ENERGY PREDICTED BY IDOCK:   -6.53 KCAL/MOL
REMARK 923 INTER-LIGAND FREE ENERGY PREDICTED BY IDOCK:   -6.04 KCAL/MOL
REMARK 924 INTRA-LIGAND FREE ENERGY PREDICTED BY IDOCK:   -0.49 KCAL/MOL
REMARK 927      BINDING AFFINITY PREDICTED BY RF-SCORE:    0.00 PKD
ROOT
HETATM    1  N   UNL     1     -12.762  11.234  62.718  1.00  0.00    -0.532 NA 
HETATM    2  C   UNL     1     -12.136  12.089  63.621  1.00  0.00    -0.527 A  
HETATM    3  H2  UNL     1     -13.562  11.707  62.299  1.00  0.00     0.000 HD 
HETATM    4  H1  UNL     1     -12.177  10.836  61.984  1.00  0.00     0.000 HD 
HETATM    5  N   UNL     1     -12.907  12.614  64.587  1.00  0.00    -0.792 NA 
HETATM    6  C   UNL     1     -12.323  13.429  65.496  1.00  0.00    -0.480 A  
HETATM    7  C   UNL     1     -10.951  13.753  65.479  1.00  0.00    -0.299 A  
HETATM    8  N   UNL     1     -13.207  13.993  66.421  1.00  0.00    -0.045 NA 
HETATM    9  H2  UNL     1     -13.742  13.262  66.892  1.00  0.00     0.000 HD 
HETATM   10  C   UNL     1     -10.777  12.341  63.524  1.00  0.00    -0.497 A  
HETATM   11  C   UNL     1     -10.185  13.187  64.460  1.00  0.00    -0.333 A  
HETATM   12  H1  UNL     1     -12.767  14.607  67.106  1.00  0.00     0.000 HD 
ENDROOT
BRANCH   7  13
HETATM   13  N   UNL     1     -10.293  14.605  66.398  1.00  0.00    -0.282 NA 
HETATM   14  H   UNL     1      -9.432  14.359  66.885  1.00  0.00     0.000 HD 
BRANCH  13  15
HETATM   15  N   UNL     1     -10.888  15.692  66.543  1.00  0.00    -0.295 NA 
HETATM   16  H   UNL     1     -11.905  15.780  66.525  1.00  0.00     0.000 HD 
BRANCH  15  17
HETATM   17  C   UNL     1     -10.018  16.785  66.733  1.00  0.00    -0.282 A  
HETATM   18  C   UNL     1     -10.416  18.056  67.175  1.00  0.00    -0.377 A  
HETATM   19  C   UNL     1      -9.486  19.098  67.280  1.00  0.00    -0.367 A  
HETATM   20  C   UNL     1      -8.147  18.875  66.963  1.00  0.00    -0.272 A  
HETATM   21  C   UNL     1      -7.732  17.609  66.559  1.00  0.00    -0.305 A  
HETATM   22  C   UNL     1      -8.662  16.574  66.453  1.00  0.00    -0.357 A  
ENDBRANCH  15  17
ENDBRANCH  13  15
ENDBRANCH   7  13
TORSDOF 3
ENDMDL
MODEL       61
REMARK 921   NORMALIZED FREE ENERGY PREDICTED BY IDOCK:   -5.06 KCAL/MOL
REMARK 922        TOTAL FREE ENERGY PREDICTED BY IDOCK:   -6.48 KCAL/MOL
REMARK 923 INTER-LIGAND FREE ENERGY PREDICTED BY IDOCK:   -5.96 KCAL/MOL
REMARK 924 INTRA-LIGAND FREE ENERGY PREDICTED BY IDOCK:   -0.52 KCAL/MOL
REMARK 927      BINDING AFFINITY PREDICTED BY RF-SCORE:    0.00 PKD
ROOT
HETATM    1  N   UNL     1     -12.475  11.186  69.141  1.00  0.00    -0.523 NA 
HETATM    2  C   UNL     1     -12.192  10.256  70.137  1.00  0.00    -0.176 A  
HETATM    3  H2  UNL     1     -12.773  12.063  69.567  1.00  0.00     0.000 HD 
HETATM    4  H1  UNL     1     -11.735  11.369  68.463  1.00  0.00     0.000 HD 
HETATM    5  N   UNL     1     -13.166  10.014  71.030  1.00  0.00    -0.374 NA 
HETATM    6  C   UNL     1     -12.932   9.097  71.996  1.00  0.00    -0.424 A  
HETATM    7  C   UNL     1     -11.722   8.383  72.111  1.00  0.00    -0.375 A  
HETATM    8  N   UNL     1     -13.966   8.960  72.928  1.00  0.00    -1.052 NA 
HETATM    9  H2  UNL     1     -14.847   8.760  72.454  1.00  0.00     0.000 HD 
HETATM   10  C   UNL     1     -10.971   9.601  70.162  1.00  0.00    -0.320 A  
HETATM   11  C   UNL     1     -10.736   8.662  71.165  1.00  0.00    -0.303 A  
HETATM   12  H1  UNL     1     -13.789   8.268  73.656  1.00  0.00     0.000 HD 
ENDROOT
BRANCH   7  13
HETATM   13  N   UNL     1     -11.423   7.421  73.106  1.00  0.00    -0.604 NA 
HETATM   14  H   UNL     1     -10.798   7.593  73.893  1.00  0.00     0.000 HD 
BRANCH  13  15
HETATM   15  N   UNL     1     -12.011   6.340  72.908  1.00  0.00    -0.440 NA 
HETATM   16  H   UNL     1     -13.026   6.259  72.839  1.00  0.00     0.000 HD 
BRANCH  15  17
HETATM   17  C   UNL     1     -11.137   5.240  72.790  1.00  0.00    -0.286 A  
HETATM   18  C   UNL     1      -9.940   5.245  72.057  1.00  0.00    -0.238 A  
HETATM   19  C   UNL     1      -9.163   4.084  71.953  1.00  0.00    -0.179 A  
HETATM   20  C   UNL     1      -9.564   2.914  72.593  1.00  0.00    -0.172 A  
HETATM   21  C   UNL     1     -10.730   2.905  73.355  1.00  0.00    -0.283 A  
HETATM   22  C   UNL     1     -11.503   4.063  73.455  1.00  0.00    -0.208 A  
ENDBRANCH  15  17
ENDBRANCH  13  15
ENDBRANCH   7  13
TORSDOF 3
ENDMDL
MODEL       62
REMARK 921   NORMALIZED FREE ENERGY PREDICTED BY IDOCK:   -5.06 KCAL/MOL
REMARK 922        TOTAL FREE ENERGY PREDICTED BY IDOCK:   -6.48 KCAL/MOL
REMARK 923 INTER-LIGAND FREE ENERGY PREDICTED BY IDOCK:   -5.85 KCAL/MOL
REMARK 924 INTRA-LIGAND FREE ENERGY PREDICTED BY IDOCK:   -0.63 KCAL/MOL
REMARK 927      BINDING AFFINITY PREDICTED BY RF-SCORE:    0.00 PKD
ROOT
HETATM    1  N   UNL     1      -9.480  18.514  67.337  1.00  0.00    -0.281 NA 
HETATM    2  C   UNL     1      -9.819  17.174  67.500  1.00  0.00    -0.266 A  
HETATM    3  H2  UNL     1      -9.479  18.979  68.244  1.00  0.00     0.000 HD 
HETATM    4  H1  UNL     1      -8.604  18.709  66.851  1.00  0.00     0.000 HD 
HETATM    5  N   UNL     1     -10.973  16.918  68.139  1.00  0.00    -0.346 NA 
HETATM    6  C   UNL     1     -11.343  15.626  68.292  1.00  0.00    -0.356 A  
HETATM    7  C   UNL     1     -10.583  14.539  67.815  1.00  0.00    -0.250 A  
HETATM    8  N   UNL     1     -12.515  15.443  69.033  1.00  0.00    -0.580 NA 
HETATM    9  H2  UNL     1     -13.279  15.987  68.630  1.00  0.00     0.000 HD 
HETATM   10  C   UNL     1      -9.007  16.175  66.988  1.00  0.00    -0.232 A  
HETATM   11  C   UNL     1      -9.393  14.847  67.155  1.00  0.00    -0.227 A  
HETATM   12  H1  UNL     1     -12.795  14.469  69.148  1.00  0.00     0.000 HD 
ENDROOT
BRANCH   7  13
HETATM   13  N   UNL     1     -10.920  13.171  67.955  1.00  0.00    -0.241 NA 
HETATM   14  H   UNL     1     -10.374  12.504  68.499  1.00  0.00     0.000 HD 
BRANCH  13  15
HETATM   15  N   UNL     1     -11.962  12.877  67.336  1.00  0.00    -0.346 NA 
HETATM   16  H   UNL     1     -12.886  12.868  67.769  1.00  0.00     0.000 HD 
BRANCH  15  17
HETATM   17  C   UNL     1     -11.738  12.557  65.982  1.00  0.00    -0.417 A  
HETATM   18  C   UNL     1     -12.424  13.129  64.900  1.00  0.00    -0.490 A  
HETATM   19  C   UNL     1     -12.169  12.706  63.589  1.00  0.00    -0.624 A  
HETATM   20  C   UNL     1     -11.215  11.721  63.345  1.00  0.00    -0.440 A  
HETATM   21  C   UNL     1     -10.500  11.171  64.406  1.00  0.00    -0.418 A  
HETATM   22  C   UNL     1     -10.757  11.593  65.711  1.00  0.00    -0.331 A  
ENDBRANCH  15  17
ENDBRANCH  13  15
ENDBRANCH   7  13
TORSDOF 3
ENDMDL
MODEL       63
REMARK 921   NORMALIZED FREE ENERGY PREDICTED BY IDOCK:   -5.05 KCAL/MOL
REMARK 922        TOTAL FREE ENERGY PREDICTED BY IDOCK:   -6.47 KCAL/MOL
REMARK 923 INTER-LIGAND FREE ENERGY PREDICTED BY IDOCK:   -6.13 KCAL/MOL
REMARK 924 INTRA-LIGAND FREE ENERGY PREDICTED BY IDOCK:   -0.34 KCAL/MOL
REMARK 927      BINDING AFFINITY PREDICTED BY RF-SCORE:    0.00 PKD
ROOT
HETATM    1  N   UNL     1     -12.509  15.365  70.009  1.00  0.00    -0.551 NA 
HETATM    2  C   UNL     1     -12.379  13.981  69.937  1.00  0.00    -0.310 A  
HETATM    3  H2  UNL     1     -13.152  15.687  69.287  1.00  0.00     0.000 HD 
HETATM    4  H1  UNL     1     -12.786  15.752  70.911  1.00  0.00     0.000 HD 
HETATM    5  N   UNL     1     -12.014  13.471  68.749  1.00  0.00    -0.350 NA 
HETATM    6  C   UNL     1     -11.856  12.131  68.652  1.00  0.00    -0.306 A  
HETATM    7  C   UNL     1     -12.054  11.246  69.732  1.00  0.00    -0.325 A  
HETATM    8  N   UNL     1     -11.549  11.675  67.366  1.00  0.00    -0.539 NA 
HETATM    9  H2  UNL     1     -10.725  12.158  67.006  1.00  0.00     0.000 HD 
HETATM   10  C   UNL     1     -12.590  13.195  71.058  1.00  0.00    -0.397 A  
HETATM   11  C   UNL     1     -12.431  11.815  70.948  1.00  0.00    -0.416 A  
HETATM   12  H1  UNL     1     -11.429  10.665  67.293  1.00  0.00     0.000 HD 
ENDROOT
BRANCH   7  13
HETATM   13  N   UNL     1     -11.910   9.839  69.682  1.00  0.00    -0.445 NA 
HETATM   14  H   UNL     1     -11.297   9.353  69.028  1.00  0.00     0.000 HD 
BRANCH  13  15
HETATM   15  N   UNL     1     -12.618   9.262  70.531  1.00  0.00    -0.466 NA 
HETATM   16  H   UNL     1     -13.613   9.453  70.653  1.00  0.00     0.000 HD 
BRANCH  15  17
HETATM   17  C   UNL     1     -11.910   8.320  71.305  1.00  0.00    -0.288 A  
HETATM   18  C   UNL     1     -11.162   8.628  72.452  1.00  0.00    -0.339 A  
HETATM   19  C   UNL     1     -10.445   7.631  73.125  1.00  0.00    -0.433 A  
HETATM   20  C   UNL     1     -10.483   6.315  72.670  1.00  0.00    -0.234 A  
HETATM   21  C   UNL     1     -11.251   5.988  71.555  1.00  0.00    -0.326 A  
HETATM   22  C   UNL     1     -11.962   6.985  70.885  1.00  0.00    -0.409 A  
ENDBRANCH  15  17
ENDBRANCH  13  15
ENDBRANCH   7  13
TORSDOF 3
ENDMDL
MODEL       64
REMARK 921   NORMALIZED FREE ENERGY PREDICTED BY IDOCK:   -5.05 KCAL/MOL
REMARK 922        TOTAL FREE ENERGY PREDICTED BY IDOCK:   -6.46 KCAL/MOL
REMARK 923 INTER-LIGAND FREE ENERGY PREDICTED BY IDOCK:   -5.87 KCAL/MOL
REMARK 924 INTRA-LIGAND FREE ENERGY PREDICTED BY IDOCK:   -0.59 KCAL/MOL
REMARK 927      BINDING AFFINITY PREDICTED BY RF-SCORE:    0.00 PKD
ROOT
HETATM    1  N   UNL     1     -10.478  18.040  65.336  1.00  0.00    -0.564 NA 
HETATM    2  C   UNL     1     -10.786  16.690  65.480  1.00  0.00    -0.223 A  
HETATM    3  H2  UNL     1     -11.320  18.558  65.087  1.00  0.00     0.000 HD 
HETATM    4  H1  UNL     1     -10.020  18.491  66.127  1.00  0.00     0.000 HD 
HETATM    5  N   UNL     1     -11.390  16.095  64.438  1.00  0.00    -0.615 NA 
HETATM    6  C   UNL     1     -11.680  14.777  64.537  1.00  0.00    -0.391 A  
HETATM    7  C   UNL     1     -11.381  14.000  65.674  1.00  0.00    -0.313 A  
HETATM    8  N   UNL     1     -12.374  14.253  63.442  1.00  0.00    -1.126 NA 
HETATM    9  H2  UNL     1     -11.867  14.442  62.576  1.00  0.00     0.000 HD 
HETATM   10  C   UNL     1     -10.445  16.010  66.638  1.00  0.00    -0.304 A  
HETATM   11  C   UNL     1     -10.753  14.654  66.734  1.00  0.00    -0.301 A  
HETATM   12  H1  UNL     1     -12.593  13.260  63.516  1.00  0.00     0.000 HD 
ENDROOT
BRANCH   7  13
HETATM   13  N   UNL     1     -11.670  12.623  65.832  1.00  0.00    -0.398 NA 
HETATM   14  H   UNL     1     -12.323  12.255  66.522  1.00  0.00     0.000 HD 
BRANCH  13  15
HETATM   15  N   UNL     1     -11.034  11.913  65.028  1.00  0.00    -0.306 NA 
HETATM   16  H   UNL     1     -11.103  12.014  64.015  1.00  0.00     0.000 HD 
BRANCH  15  17
HETATM   17  C   UNL     1     -10.210  10.957  65.657  1.00  0.00    -0.263 A  
HETATM   18  C   UNL     1      -9.913  10.936  67.029  1.00  0.00    -0.227 A  
HETATM   19  C   UNL     1      -9.038   9.976  67.554  1.00  0.00    -0.144 A  
HETATM   20  C   UNL     1      -8.467   9.018  66.719  1.00  0.00    -0.121 A  
HETATM   21  C   UNL     1      -8.783   9.004  65.363  1.00  0.00    -0.221 A  
HETATM   22  C   UNL     1      -9.653   9.963  64.842  1.00  0.00    -0.356 A  
ENDBRANCH  15  17
ENDBRANCH  13  15
ENDBRANCH   7  13
TORSDOF 3
ENDMDL
MODEL       65
REMARK 921   NORMALIZED FREE ENERGY PREDICTED BY IDOCK:   -5.04 KCAL/MOL
REMARK 922        TOTAL FREE ENERGY PREDICTED BY IDOCK:   -6.46 KCAL/MOL
REMARK 923 INTER-LIGAND FREE ENERGY PREDICTED BY IDOCK:   -5.99 KCAL/MOL
REMARK 924 INTRA-LIGAND FREE ENERGY PREDICTED BY IDOCK:   -0.47 KCAL/MOL
REMARK 927      BINDING AFFINITY PREDICTED BY RF-SCORE:    0.00 PKD
ROOT
HETATM    1  N   UNL     1      -7.881  19.314  68.108  1.00  0.00    -0.296 NA 
HETATM    2  C   UNL     1      -8.848  18.315  68.166  1.00  0.00    -0.295 A  
HETATM    3  H2  UNL     1      -7.013  18.928  67.737  1.00  0.00     0.000 HD 
HETATM    4  H1  UNL     1      -8.126  20.159  67.594  1.00  0.00     0.000 HD 
HETATM    5  N   UNL     1      -8.525  17.200  68.842  1.00  0.00    -0.232 NA 
HETATM    6  C   UNL     1      -9.453  16.221  68.937  1.00  0.00    -0.252 A  
HETATM    7  C   UNL     1     -10.738  16.311  68.365  1.00  0.00    -0.311 A  
HETATM    8  N   UNL     1      -9.012  15.066  69.592  1.00  0.00    -0.453 NA 
HETATM    9  H2  UNL     1      -8.646  15.299  70.515  1.00  0.00     0.000 HD 
HETATM   10  C   UNL     1     -10.088  18.501  67.574  1.00  0.00    -0.383 A  
HETATM   11  C   UNL     1     -11.036  17.484  67.671  1.00  0.00    -0.111 A  
HETATM   12  H1  UNL     1      -9.712  14.327  69.664  1.00  0.00     0.000 HD 
ENDROOT
BRANCH   7  13
HETATM   13  N   UNL     1     -11.741  15.314  68.427  1.00  0.00    -0.429 NA 
HETATM   14  H   UNL     1     -11.832  14.556  67.752  1.00  0.00     0.000 HD 
BRANCH  13  15
HETATM   15  N   UNL     1     -12.501  15.470  69.404  1.00  0.00    -0.597 NA 
HETATM   16  H   UNL     1     -13.006  16.338  69.588  1.00  0.00     0.000 HD 
BRANCH  15  17
HETATM   17  C   UNL     1     -12.593  14.331  70.229  1.00  0.00    -0.319 A  
HETATM   18  C   UNL     1     -11.981  13.097  69.960  1.00  0.00    -0.391 A  
HETATM   19  C   UNL     1     -12.175  12.003  70.813  1.00  0.00    -0.382 A  
HETATM   20  C   UNL     1     -12.966  12.136  71.952  1.00  0.00    -0.419 A  
HETATM   21  C   UNL     1     -13.548  13.365  72.252  1.00  0.00    -0.703 A  
HETATM   22  C   UNL     1     -13.354  14.453  71.399  1.00  0.00    -0.420 A  
ENDBRANCH  15  17
ENDBRANCH  13  15
ENDBRANCH   7  13
TORSDOF 3
ENDMDL
MODEL       66
REMARK 921   NORMALIZED FREE ENERGY PREDICTED BY IDOCK:   -5.02 KCAL/MOL
REMARK 922        TOTAL FREE ENERGY PREDICTED BY IDOCK:   -6.43 KCAL/MOL
REMARK 923 INTER-LIGAND FREE ENERGY PREDICTED BY IDOCK:   -6.06 KCAL/MOL
REMARK 924 INTRA-LIGAND FREE ENERGY PREDICTED BY IDOCK:   -0.37 KCAL/MOL
REMARK 927      BINDING AFFINITY PREDICTED BY RF-SCORE:    0.00 PKD
ROOT
HETATM    1  N   UNL     1      -9.040   9.147  64.368  1.00  0.00    -0.430 NA 
HETATM    2  C   UNL     1      -9.809   9.833  65.304  1.00  0.00    -0.265 A  
HETATM    3  H2  UNL     1      -9.446   8.227  64.200  1.00  0.00     0.000 HD 
HETATM    4  H1  UNL     1      -8.877   9.617  63.477  1.00  0.00     0.000 HD 
HETATM    5  N   UNL     1     -10.024   9.215  66.477  1.00  0.00    -0.271 NA 
HETATM    6  C   UNL     1     -10.747   9.866  67.417  1.00  0.00    -0.260 A  
HETATM    7  C   UNL     1     -11.283  11.156  67.228  1.00  0.00    -0.277 A  
HETATM    8  N   UNL     1     -10.988   9.125  68.578  1.00  0.00    -0.456 NA 
HETATM    9  H2  UNL     1     -10.110   8.790  68.974  1.00  0.00     0.000 HD 
HETATM   10  C   UNL     1     -10.288  11.104  65.026  1.00  0.00    -0.362 A  
HETATM   11  C   UNL     1     -11.037  11.764  65.997  1.00  0.00    -0.363 A  
HETATM   12  H1  UNL     1     -11.533   9.616  69.287  1.00  0.00     0.000 HD 
ENDROOT
BRANCH   7  13
HETATM   13  N   UNL     1     -12.052  11.876  68.173  1.00  0.00    -0.486 NA 
HETATM   14  H   UNL     1     -13.069  11.834  68.230  1.00  0.00     0.000 HD 
BRANCH  13  15
HETATM   15  N   UNL     1     -11.342  12.568  68.930  1.00  0.00    -0.277 NA 
HETATM   16  H   UNL     1     -10.330  12.653  68.826  1.00  0.00     0.000 HD 
BRANCH  15  17
HETATM   17  C   UNL     1     -12.073  13.220  69.944  1.00  0.00    -0.308 A  
HETATM   18  C   UNL     1     -12.263  14.608  70.027  1.00  0.00    -0.385 A  
HETATM   19  C   UNL     1     -12.961  15.170  71.104  1.00  0.00    -0.488 A  
HETATM   20  C   UNL     1     -13.491  14.349  72.097  1.00  0.00    -0.507 A  
HETATM   21  C   UNL     1     -13.343  12.968  72.008  1.00  0.00    -0.588 A  
HETATM   22  C   UNL     1     -12.645  12.411  70.935  1.00  0.00    -0.337 A  
ENDBRANCH  15  17
ENDBRANCH  13  15
ENDBRANCH   7  13
TORSDOF 3
ENDMDL
MODEL       67
REMARK 921   NORMALIZED FREE ENERGY PREDICTED BY IDOCK:   -5.01 KCAL/MOL
REMARK 922        TOTAL FREE ENERGY PREDICTED BY IDOCK:   -6.42 KCAL/MOL
REMARK 923 INTER-LIGAND FREE ENERGY PREDICTED BY IDOCK:   -5.88 KCAL/MOL
REMARK 924 INTRA-LIGAND FREE ENERGY PREDICTED BY IDOCK:   -0.54 KCAL/MOL
REMARK 927      BINDING AFFINITY PREDICTED BY RF-SCORE:    0.00 PKD
ROOT
HETATM    1  N   UNL     1     -12.109  16.153  63.838  1.00  0.00    -1.261 NA 
HETATM    2  C   UNL     1     -11.875  14.841  64.239  1.00  0.00    -0.319 A  
HETATM    3  H2  UNL     1     -13.113  16.313  63.761  1.00  0.00     0.000 HD 
HETATM    4  H1  UNL     1     -11.687  16.887  64.407  1.00  0.00     0.000 HD 
HETATM    5  N   UNL     1     -12.430  13.873  63.490  1.00  0.00    -0.812 NA 
HETATM    6  C   UNL     1     -12.201  12.586  63.839  1.00  0.00    -0.503 A  
HETATM    7  C   UNL     1     -11.411  12.211  64.945  1.00  0.00    -0.326 A  
HETATM    8  N   UNL     1     -12.875  11.645  63.055  1.00  0.00    -0.889 NA 
HETATM    9  H2  UNL     1     -12.663  11.788  62.067  1.00  0.00     0.000 HD 
HETATM   10  C   UNL     1     -11.077  14.573  65.340  1.00  0.00    -0.345 A  
HETATM   11  C   UNL     1     -10.851  13.245  65.696  1.00  0.00    -0.291 A  
HETATM   12  H1  UNL     1     -12.702  10.674  63.318  1.00  0.00     0.000 HD 
ENDROOT
BRANCH   7  13
HETATM   13  N   UNL     1     -11.147  10.883  65.357  1.00  0.00     0.047 NA 
HETATM   14  H   UNL     1     -11.612  10.429  66.143  1.00  0.00     0.000 HD 
BRANCH  13  15
HETATM   15  N   UNL     1     -10.281  10.332  64.649  1.00  0.00    -0.288 NA 
HETATM   16  H   UNL     1     -10.350  10.264  63.633  1.00  0.00     0.000 HD 
BRANCH  15  17
HETATM   17  C   UNL     1      -9.199   9.814  65.389  1.00  0.00    -0.227 A  
HETATM   18  C   UNL     1      -9.062   8.470  65.771  1.00  0.00    -0.222 A  
HETATM   19  C   UNL     1      -7.977   8.058  66.555  1.00  0.00    -0.102 A  
HETATM   20  C   UNL     1      -7.010   8.980  66.949  1.00  0.00    -0.078 A  
HETATM   21  C   UNL     1      -7.113  10.309  66.546  1.00  0.00    -0.108 A  
HETATM   22  C   UNL     1      -8.197  10.716  65.767  1.00  0.00    -0.161 A  
ENDBRANCH  15  17
ENDBRANCH  13  15
ENDBRANCH   7  13
TORSDOF 3
ENDMDL
MODEL       68
REMARK 921   NORMALIZED FREE ENERGY PREDICTED BY IDOCK:   -4.97 KCAL/MOL
REMARK 922        TOTAL FREE ENERGY PREDICTED BY IDOCK:   -6.38 KCAL/MOL
REMARK 923 INTER-LIGAND FREE ENERGY PREDICTED BY IDOCK:   -5.92 KCAL/MOL
REMARK 924 INTRA-LIGAND FREE ENERGY PREDICTED BY IDOCK:   -0.46 KCAL/MOL
REMARK 927      BINDING AFFINITY PREDICTED BY RF-SCORE:    0.00 PKD
ROOT
HETATM    1  N   UNL     1     -10.473  16.476  66.244  1.00  0.00    -0.303 NA 
HETATM    2  C   UNL     1     -10.878  15.467  67.113  1.00  0.00    -0.321 A  
HETATM    3  H2  UNL     1      -9.480  16.665  66.379  1.00  0.00     0.000 HD 
HETATM    4  H1  UNL     1     -10.661  16.329  65.253  1.00  0.00     0.000 HD 
HETATM    5  N   UNL     1     -10.630  15.660  68.419  1.00  0.00    -0.244 NA 
HETATM    6  C   UNL     1     -11.033  14.709  69.292  1.00  0.00    -0.260 A  
HETATM    7  C   UNL     1     -11.700  13.529  68.901  1.00  0.00    -0.339 A  
HETATM    8  N   UNL     1     -10.671  14.950  70.621  1.00  0.00    -0.519 NA 
HETATM    9  H2  UNL     1     -11.002  15.869  70.918  1.00  0.00     0.000 HD 
HETATM   10  C   UNL     1     -11.533  14.344  66.632  1.00  0.00    -0.372 A  
HETATM   11  C   UNL     1     -11.940  13.366  67.537  1.00  0.00    -0.381 A  
HETATM   12  H1  UNL     1     -10.975  14.233  71.279  1.00  0.00     0.000 HD 
ENDROOT
BRANCH   7  13
HETATM   13  N   UNL     1     -12.135  12.501  69.771  1.00  0.00    -0.264 NA 
HETATM   14  H   UNL     1     -13.086  12.425  70.130  1.00  0.00     0.000 HD 
BRANCH  13  15
HETATM   15  N   UNL     1     -11.221  11.699  70.049  1.00  0.00    -0.489 NA 
HETATM   16  H   UNL     1     -10.236  11.885  69.858  1.00  0.00     0.000 HD 
BRANCH  15  17
HETATM   17  C   UNL     1     -11.682  10.511  70.651  1.00  0.00    -0.357 A  
HETATM   18  C   UNL     1     -11.043   9.265  70.555  1.00  0.00    -0.317 A  
HETATM   19  C   UNL     1     -11.608   8.126  71.143  1.00  0.00    -0.306 A  
HETATM   20  C   UNL     1     -12.806   8.224  71.848  1.00  0.00    -0.371 A  
HETATM   21  C   UNL     1     -13.432   9.461  71.983  1.00  0.00    -0.522 A  
HETATM   22  C   UNL     1     -12.867  10.594  71.394  1.00  0.00    -0.556 A  
ENDBRANCH  15  17
ENDBRANCH  13  15
ENDBRANCH   7  13
TORSDOF 3
ENDMDL
MODEL       69
REMARK 921   NORMALIZED FREE ENERGY PREDICTED BY IDOCK:   -4.92 KCAL/MOL
REMARK 922        TOTAL FREE ENERGY PREDICTED BY IDOCK:   -6.32 KCAL/MOL
REMARK 923 INTER-LIGAND FREE ENERGY PREDICTED BY IDOCK:   -5.85 KCAL/MOL
REMARK 924 INTRA-LIGAND FREE ENERGY PREDICTED BY IDOCK:   -0.46 KCAL/MOL
REMARK 927      BINDING AFFINITY PREDICTED BY RF-SCORE:    0.00 PKD
ROOT
HETATM    1  N   UNL     1      -8.751   2.997  67.241  1.00  0.00    -0.114 NA 
HETATM    2  C   UNL     1      -9.452   4.007  67.893  1.00  0.00    -0.173 A  
HETATM    3  H2  UNL     1      -8.102   3.409  66.571  1.00  0.00     0.000 HD 
HETATM    4  H1  UNL     1      -8.255   2.330  67.831  1.00  0.00     0.000 HD 
HETATM    5  N   UNL     1     -10.106   4.886  67.115  1.00  0.00    -0.196 NA 
HETATM    6  C   UNL     1     -10.817   5.865  67.719  1.00  0.00    -0.235 A  
HETATM    7  C   UNL     1     -10.908   6.008  69.119  1.00  0.00    -0.352 A  
HETATM    8  N   UNL     1     -11.405   6.781  66.840  1.00  0.00    -0.792 NA 
HETATM    9  H2  UNL     1     -11.981   6.294  66.153  1.00  0.00     0.000 HD 
HETATM   10  C   UNL     1      -9.486   4.060  69.277  1.00  0.00    -0.260 A  
HETATM   11  C   UNL     1     -10.217   5.075  69.891  1.00  0.00    -0.340 A  
HETATM   12  H1  UNL     1     -11.942   7.519  67.295  1.00  0.00     0.000 HD 
ENDROOT
BRANCH   7  13
HETATM   13  N   UNL     1     -11.631   7.017  69.800  1.00  0.00    -0.564 NA 
HETATM   14  H   UNL     1     -12.532   6.865  70.250  1.00  0.00     0.000 HD 
BRANCH  13  15
HETATM   15  N   UNL     1     -11.037   8.114  69.785  1.00  0.00    -0.431 NA 
HETATM   16  H   UNL     1     -10.144   8.261  69.314  1.00  0.00     0.000 HD 
BRANCH  15  17
HETATM   17  C   UNL     1     -11.721   9.129  70.484  1.00  0.00    -0.152 A  
HETATM   18  C   UNL     1     -12.605   8.910  71.552  1.00  0.00    -0.385 A  
HETATM   19  C   UNL     1     -13.281   9.981  72.150  1.00  0.00    -0.489 A  
HETATM   20  C   UNL     1     -13.067  11.282  71.700  1.00  0.00    -0.513 A  
HETATM   21  C   UNL     1     -12.164  11.518  70.667  1.00  0.00    -0.473 A  
HETATM   22  C   UNL     1     -11.493  10.449  70.072  1.00  0.00    -0.382 A  
ENDBRANCH  15  17
ENDBRANCH  13  15
ENDBRANCH   7  13
TORSDOF 3
ENDMDL
MODEL       70
REMARK 921   NORMALIZED FREE ENERGY PREDICTED BY IDOCK:   -4.91 KCAL/MOL
REMARK 922        TOTAL FREE ENERGY PREDICTED BY IDOCK:   -6.30 KCAL/MOL
REMARK 923 INTER-LIGAND FREE ENERGY PREDICTED BY IDOCK:   -5.73 KCAL/MOL
REMARK 924 INTRA-LIGAND FREE ENERGY PREDICTED BY IDOCK:   -0.57 KCAL/MOL
REMARK 927      BINDING AFFINITY PREDICTED BY RF-SCORE:    0.00 PKD
ROOT
HETATM    1  N   UNL     1      -5.923  20.520  68.482  1.00  0.00    -0.301 NA 
HETATM    2  C   UNL     1      -7.047  19.821  68.051  1.00  0.00    -0.277 A  
HETATM    3  H2  UNL     1      -6.201  21.441  68.819  1.00  0.00     0.000 HD 
HETATM    4  H1  UNL     1      -5.340  20.062  69.182  1.00  0.00     0.000 HD 
HETATM    5  N   UNL     1      -7.815  20.425  67.129  1.00  0.00    -0.332 NA 
HETATM    6  C   UNL     1      -8.902  19.762  66.671  1.00  0.00    -0.359 A  
HETATM    7  C   UNL     1      -9.267  18.473  67.111  1.00  0.00    -0.277 A  
HETATM    8  N   UNL     1      -9.688  20.489  65.772  1.00  0.00    -0.569 NA 
HETATM    9  H2  UNL     1      -9.120  20.821  64.992  1.00  0.00     0.000 HD 
HETATM   10  C   UNL     1      -7.318  18.554  68.540  1.00  0.00    -0.314 A  
HETATM   11  C   UNL     1      -8.443  17.880  68.068  1.00  0.00    -0.256 A  
HETATM   12  H1  UNL     1     -10.507  19.989  65.426  1.00  0.00     0.000 HD 
ENDROOT
BRANCH   7  13
HETATM   13  N   UNL     1     -10.395  17.740  66.672  1.00  0.00    -0.352 NA 
HETATM   14  H   UNL     1     -11.202  17.533  67.259  1.00  0.00     0.000 HD 
BRANCH  13  15
HETATM   15  N   UNL     1     -10.288  17.378  65.484  1.00  0.00    -0.644 NA 
HETATM   16  H   UNL     1     -10.001  18.004  64.731  1.00  0.00     0.000 HD 
BRANCH  15  17
HETATM   17  C   UNL     1     -10.605  16.018  65.283  1.00  0.00    -0.402 A  
HETATM   18  C   UNL     1      -9.940  14.944  65.893  1.00  0.00    -0.357 A  
HETATM   19  C   UNL     1     -10.291  13.622  65.589  1.00  0.00    -0.309 A  
HETATM   20  C   UNL     1     -11.320  13.362  64.686  1.00  0.00    -0.372 A  
HETATM   21  C   UNL     1     -12.012  14.419  64.101  1.00  0.00    -0.373 A  
HETATM   22  C   UNL     1     -11.659  15.734  64.405  1.00  0.00    -0.240 A  
ENDBRANCH  15  17
ENDBRANCH  13  15
ENDBRANCH   7  13
TORSDOF 3
ENDMDL
MODEL       71
REMARK 921   NORMALIZED FREE ENERGY PREDICTED BY IDOCK:   -4.91 KCAL/MOL
REMARK 922        TOTAL FREE ENERGY PREDICTED BY IDOCK:   -6.30 KCAL/MOL
REMARK 923 INTER-LIGAND FREE ENERGY PREDICTED BY IDOCK:   -5.73 KCAL/MOL
REMARK 924 INTRA-LIGAND FREE ENERGY PREDICTED BY IDOCK:   -0.57 KCAL/MOL
REMARK 927      BINDING AFFINITY PREDICTED BY RF-SCORE:    0.00 PKD
ROOT
HETATM    1  N   UNL     1     -10.561   5.503  68.462  1.00  0.00    -0.173 NA 
HETATM    2  C   UNL     1     -10.848   6.617  69.245  1.00  0.00    -0.289 A  
HETATM    3  H2  UNL     1     -11.426   5.119  68.082  1.00  0.00     0.000 HD 
HETATM    4  H1  UNL     1      -9.886   5.635  67.709  1.00  0.00     0.000 HD 
HETATM    5  N   UNL     1     -11.738   6.444  70.237  1.00  0.00    -0.393 NA 
HETATM    6  C   UNL     1     -12.021   7.502  71.031  1.00  0.00    -0.290 A  
HETATM    7  C   UNL     1     -11.430   8.772  70.872  1.00  0.00    -0.284 A  
HETATM    8  N   UNL     1     -13.009   7.258  71.989  1.00  0.00    -0.517 NA 
HETATM    9  H2  UNL     1     -12.764   6.445  72.554  1.00  0.00     0.000 HD 
HETATM   10  C   UNL     1     -10.210   7.825  69.012  1.00  0.00    -0.213 A  
HETATM   11  C   UNL     1     -10.511   8.911  69.832  1.00  0.00    -0.223 A  
HETATM   12  H1  UNL     1     -13.223   8.056  72.589  1.00  0.00     0.000 HD 
ENDROOT
BRANCH   7  13
HETATM   13  N   UNL     1     -11.696   9.911  71.668  1.00  0.00    -0.338 NA 
HETATM   14  H   UNL     1     -11.036  10.302  72.340  1.00  0.00     0.000 HD 
BRANCH  13  15
HETATM   15  N   UNL     1     -12.831  10.381  71.455  1.00  0.00    -0.414 NA 
HETATM   16  H   UNL     1     -13.672   9.807  71.390  1.00  0.00     0.000 HD 
BRANCH  15  17
HETATM   17  C   UNL     1     -12.838  11.784  71.311  1.00  0.00    -0.308 A  
HETATM   18  C   UNL     1     -12.150  12.489  70.310  1.00  0.00    -0.373 A  
HETATM   19  C   UNL     1     -12.172  13.889  70.281  1.00  0.00    -0.428 A  
HETATM   20  C   UNL     1     -12.895  14.597  71.239  1.00  0.00    -0.405 A  
HETATM   21  C   UNL     1     -13.613  13.910  72.214  1.00  0.00    -0.642 A  
HETATM   22  C   UNL     1     -13.587  12.515  72.242  1.00  0.00    -0.443 A  
ENDBRANCH  15  17
ENDBRANCH  13  15
ENDBRANCH   7  13
TORSDOF 3
ENDMDL
MODEL       72
REMARK 921   NORMALIZED FREE ENERGY PREDICTED BY IDOCK:   -4.89 KCAL/MOL
REMARK 922        TOTAL FREE ENERGY PREDICTED BY IDOCK:   -6.28 KCAL/MOL
REMARK 923 INTER-LIGAND FREE ENERGY PREDICTED BY IDOCK:   -5.81 KCAL/MOL
REMARK 924 INTRA-LIGAND FREE ENERGY PREDICTED BY IDOCK:   -0.47 KCAL/MOL
REMARK 927      BINDING AFFINITY PREDICTED BY RF-SCORE:    0.00 PKD
ROOT
HETATM    1  N   UNL     1      -7.302  21.381  67.081  1.00  0.00    -0.815 NA 
HETATM    2  C   UNL     1      -7.816  20.106  66.861  1.00  0.00    -0.315 A  
HETATM    3  H2  UNL     1      -7.261  21.564  68.083  1.00  0.00     0.000 HD 
HETATM    4  H1  UNL     1      -6.399  21.589  66.657  1.00  0.00     0.000 HD 
HETATM    5  N   UNL     1      -9.006  19.830  67.419  1.00  0.00    -0.314 NA 
HETATM    6  C   UNL     1      -9.544  18.608  67.204  1.00  0.00    -0.298 A  
HETATM    7  C   UNL     1      -8.920  17.612  66.424  1.00  0.00    -0.231 A  
HETATM    8  N   UNL     1     -10.745  18.376  67.880  1.00  0.00    -0.361 NA 
HETATM    9  H2  UNL     1     -11.423  19.106  67.661  1.00  0.00     0.000 HD 
HETATM   10  C   UNL     1      -7.128  19.197  66.073  1.00  0.00    -0.291 A  
HETATM   11  C   UNL     1      -7.686  17.938  65.861  1.00  0.00    -0.141 A  
HETATM   12  H1  UNL     1     -11.151  17.454  67.717  1.00  0.00     0.000 HD 
ENDROOT
BRANCH   7  13
HETATM   13  N   UNL     1      -9.434  16.318  66.174  1.00  0.00    -0.317 NA 
HETATM   14  H   UNL     1      -9.117  15.477  66.656  1.00  0.00     0.000 HD 
BRANCH  13  15
HETATM   15  N   UNL     1     -10.321  16.323  65.297  1.00  0.00    -0.596 NA 
HETATM   16  H   UNL     1     -10.501  17.122  64.688  1.00  0.00     0.000 HD 
BRANCH  15  17
HETATM   17  C   UNL     1     -11.050  15.118  65.230  1.00  0.00    -0.383 A  
HETATM   18  C   UNL     1     -11.694  14.636  64.080  1.00  0.00    -0.196 A  
HETATM   19  C   UNL     1     -12.442  13.453  64.125  1.00  0.00    -0.312 A  
HETATM   20  C   UNL     1     -12.539  12.731  65.313  1.00  0.00    -0.460 A  
HETATM   21  C   UNL     1     -11.874  13.178  66.452  1.00  0.00    -0.455 A  
HETATM   22  C   UNL     1     -11.131  14.358  66.404  1.00  0.00    -0.326 A  
ENDBRANCH  15  17
ENDBRANCH  13  15
ENDBRANCH   7  13
TORSDOF 3
ENDMDL
MODEL       73
REMARK 921   NORMALIZED FREE ENERGY PREDICTED BY IDOCK:   -4.87 KCAL/MOL
REMARK 922        TOTAL FREE ENERGY PREDICTED BY IDOCK:   -6.26 KCAL/MOL
REMARK 923 INTER-LIGAND FREE ENERGY PREDICTED BY IDOCK:   -5.86 KCAL/MOL
REMARK 924 INTRA-LIGAND FREE ENERGY PREDICTED BY IDOCK:   -0.39 KCAL/MOL
REMARK 927      BINDING AFFINITY PREDICTED BY RF-SCORE:    0.00 PKD
ROOT
HETATM    1  N   UNL     1      -9.957   8.928  65.945  1.00  0.00    -0.445 NA 
HETATM    2  C   UNL     1     -10.180  10.091  66.677  1.00  0.00    -0.223 A  
HETATM    3  H2  UNL     1      -8.992   8.913  65.614  1.00  0.00     0.000 HD 
HETATM    4  H1  UNL     1     -10.173   8.047  66.409  1.00  0.00     0.000 HD 
HETATM    5  N   UNL     1      -9.894  11.253  66.066  1.00  0.00    -0.219 NA 
HETATM    6  C   UNL     1     -10.123  12.402  66.742  1.00  0.00    -0.214 A  
HETATM    7  C   UNL     1     -10.646  12.441  68.051  1.00  0.00    -0.221 A  
HETATM    8  N   UNL     1      -9.729  13.561  66.066  1.00  0.00    -0.419 NA 
HETATM    9  H2  UNL     1     -10.164  13.598  65.143  1.00  0.00     0.000 HD 
HETATM   10  C   UNL     1     -10.703  10.026  67.958  1.00  0.00    -0.303 A  
HETATM   11  C   UNL     1     -10.931  11.214  68.650  1.00  0.00    -0.268 A  
HETATM   12  H1  UNL     1      -9.902  14.427  66.575  1.00  0.00     0.000 HD 
ENDROOT
BRANCH   7  13
HETATM   13  N   UNL     1     -10.897  13.613  68.804  1.00  0.00    -0.253 NA 
HETATM   14  H   UNL     1     -10.164  14.201  69.201  1.00  0.00     0.000 HD 
BRANCH  13  15
HETATM   15  N   UNL     1     -12.116  13.843  68.927  1.00  0.00    -0.421 NA 
HETATM   16  H   UNL     1     -12.781  13.761  68.158  1.00  0.00     0.000 HD 
BRANCH  15  17
HETATM   17  C   UNL     1     -12.484  14.228  70.233  1.00  0.00    -0.361 A  
HETATM   18  C   UNL     1     -12.511  15.551  70.699  1.00  0.00    -0.483 A  
HETATM   19  C   UNL     1     -12.838  15.831  72.032  1.00  0.00    -0.511 A  
HETATM   20  C   UNL     1     -13.158  14.795  72.906  1.00  0.00    -0.596 A  
HETATM   21  C   UNL     1     -13.172  13.480  72.447  1.00  0.00    -0.577 A  
HETATM   22  C   UNL     1     -12.844  13.204  71.119  1.00  0.00    -0.349 A  
ENDBRANCH  15  17
ENDBRANCH  13  15
ENDBRANCH   7  13
TORSDOF 3
ENDMDL
MODEL       74
REMARK 921   NORMALIZED FREE ENERGY PREDICTED BY IDOCK:   -4.86 KCAL/MOL
REMARK 922        TOTAL FREE ENERGY PREDICTED BY IDOCK:   -6.24 KCAL/MOL
REMARK 923 INTER-LIGAND FREE ENERGY PREDICTED BY IDOCK:   -5.69 KCAL/MOL
REMARK 924 INTRA-LIGAND FREE ENERGY PREDICTED BY IDOCK:   -0.56 KCAL/MOL
REMARK 927      BINDING AFFINITY PREDICTED BY RF-SCORE:    0.00 PKD
ROOT
HETATM    1  N   UNL     1      -9.451   8.346  65.874  1.00  0.00    -0.425 NA 
HETATM    2  C   UNL     1     -10.106   9.567  66.004  1.00  0.00    -0.249 A  
HETATM    3  H2  UNL     1     -10.112   7.585  66.029  1.00  0.00     0.000 HD 
HETATM    4  H1  UNL     1      -8.946   8.188  65.003  1.00  0.00     0.000 HD 
HETATM    5  N   UNL     1     -10.772   9.775  67.152  1.00  0.00    -0.237 NA 
HETATM    6  C   UNL     1     -11.399  10.962  67.320  1.00  0.00    -0.151 A  
HETATM    7  C   UNL     1     -11.387  11.988  66.353  1.00  0.00    -0.354 A  
HETATM    8  N   UNL     1     -12.129  11.069  68.507  1.00  0.00    -0.770 NA 
HETATM    9  H2  UNL     1     -11.534  10.865  69.310  1.00  0.00     0.000 HD 
HETATM   10  C   UNL     1     -10.031  10.516  64.998  1.00  0.00    -0.388 A  
HETATM   11  C   UNL     1     -10.685  11.734  65.176  1.00  0.00    -0.343 A  
HETATM   12  H1  UNL     1     -12.602  11.965  68.633  1.00  0.00     0.000 HD 
ENDROOT
BRANCH   7  13
HETATM   13  N   UNL     1     -12.032  13.243  66.475  1.00  0.00    -0.391 NA 
HETATM   14  H   UNL     1     -12.697  13.609  65.793  1.00  0.00     0.000 HD 
BRANCH  13  15
HETATM   15  N   UNL     1     -11.694  13.849  67.511  1.00  0.00    -0.359 NA 
HETATM   16  H   UNL     1     -11.771  13.446  68.445  1.00  0.00     0.000 HD 
BRANCH  15  17
HETATM   17  C   UNL     1     -11.195  15.144  67.264  1.00  0.00    -0.324 A  
HETATM   18  C   UNL     1     -10.672  15.580  66.036  1.00  0.00    -0.331 A  
HETATM   19  C   UNL     1     -10.148  16.872  65.902  1.00  0.00    -0.302 A  
HETATM   20  C   UNL     1     -10.158  17.746  66.987  1.00  0.00    -0.337 A  
HETATM   21  C   UNL     1     -10.708  17.340  68.200  1.00  0.00    -0.363 A  
HETATM   22  C   UNL     1     -11.227  16.052  68.331  1.00  0.00    -0.364 A  
ENDBRANCH  15  17
ENDBRANCH  13  15
ENDBRANCH   7  13
TORSDOF 3
ENDMDL
MODEL       75
REMARK 921   NORMALIZED FREE ENERGY PREDICTED BY IDOCK:   -4.84 KCAL/MOL
REMARK 922        TOTAL FREE ENERGY PREDICTED BY IDOCK:   -6.23 KCAL/MOL
REMARK 923 INTER-LIGAND FREE ENERGY PREDICTED BY IDOCK:   -5.78 KCAL/MOL
REMARK 924 INTRA-LIGAND FREE ENERGY PREDICTED BY IDOCK:   -0.44 KCAL/MOL
REMARK 927      BINDING AFFINITY PREDICTED BY RF-SCORE:    0.00 PKD
ROOT
HETATM    1  N   UNL     1     -10.274   6.961  69.774  1.00  0.00    -0.191 NA 
HETATM    2  C   UNL     1     -10.783   8.256  69.730  1.00  0.00    -0.221 A  
HETATM    3  H2  UNL     1     -11.024   6.306  69.994  1.00  0.00     0.000 HD 
HETATM    4  H1  UNL     1      -9.771   6.639  68.947  1.00  0.00     0.000 HD 
HETATM    5  N   UNL     1     -11.446   8.680  70.819  1.00  0.00    -0.271 NA 
HETATM    6  C   UNL     1     -11.932   9.942  70.817  1.00  0.00    -0.323 A  
HETATM    7  C   UNL     1     -11.777  10.832  69.735  1.00  0.00    -0.324 A  
HETATM    8  N   UNL     1     -12.672  10.280  71.955  1.00  0.00    -0.414 NA 
HETATM    9  H2  UNL     1     -12.124  10.111  72.799  1.00  0.00     0.000 HD 
HETATM   10  C   UNL     1     -10.573   9.058  68.620  1.00  0.00    -0.194 A  
HETATM   11  C   UNL     1     -11.082  10.355  68.624  1.00  0.00    -0.313 A  
HETATM   12  H1  UNL     1     -13.038  11.232  71.954  1.00  0.00     0.000 HD 
ENDROOT
BRANCH   7  13
HETATM   13  N   UNL     1     -12.271  12.157  69.679  1.00  0.00    -0.178 NA 
HETATM   14  H   UNL     1     -13.179  12.410  69.289  1.00  0.00     0.000 HD 
BRANCH  13  15
HETATM   15  N   UNL     1     -11.470  12.981  70.163  1.00  0.00    -0.519 NA 
HETATM   16  H   UNL     1     -10.472  12.982  69.950  1.00  0.00     0.000 HD 
BRANCH  15  17
HETATM   17  C   UNL     1     -12.077  13.910  71.032  1.00  0.00    -0.277 A  
HETATM   18  C   UNL     1     -11.472  15.089  71.492  1.00  0.00    -0.377 A  
HETATM   19  C   UNL     1     -12.135  15.925  72.400  1.00  0.00    -0.605 A  
HETATM   20  C   UNL     1     -13.416  15.600  72.842  1.00  0.00    -0.657 A  
HETATM   21  C   UNL     1     -14.044  14.452  72.364  1.00  0.00    -0.544 A  
HETATM   22  C   UNL     1     -13.379  13.621  71.462  1.00  0.00    -0.372 A  
ENDBRANCH  15  17
ENDBRANCH  13  15
ENDBRANCH   7  13
TORSDOF 3
ENDMDL
MODEL       76
REMARK 921   NORMALIZED FREE ENERGY PREDICTED BY IDOCK:   -4.82 KCAL/MOL
REMARK 922        TOTAL FREE ENERGY PREDICTED BY IDOCK:   -6.19 KCAL/MOL
REMARK 923 INTER-LIGAND FREE ENERGY PREDICTED BY IDOCK:   -5.64 KCAL/MOL
REMARK 924 INTRA-LIGAND FREE ENERGY PREDICTED BY IDOCK:   -0.55 KCAL/MOL
REMARK 927      BINDING AFFINITY PREDICTED BY RF-SCORE:    0.00 PKD
ROOT
HETATM    1  N   UNL     1      -7.317  20.442  65.303  1.00  0.00    -0.480 NA 
HETATM    2  C   UNL     1      -7.952  19.550  66.162  1.00  0.00    -0.330 A  
HETATM    3  H2  UNL     1      -6.947  21.228  65.837  1.00  0.00     0.000 HD 
HETATM    4  H1  UNL     1      -6.583  20.059  64.706  1.00  0.00     0.000 HD 
HETATM    5  N   UNL     1      -8.917  20.055  66.948  1.00  0.00    -0.339 NA 
HETATM    6  C   UNL     1      -9.571  19.209  67.777  1.00  0.00    -0.313 A  
HETATM    7  C   UNL     1      -9.290  17.829  67.857  1.00  0.00    -0.266 A  
HETATM    8  N   UNL     1     -10.507  19.825  68.613  1.00  0.00    -0.531 NA 
HETATM    9  H2  UNL     1     -11.173  20.367  68.062  1.00  0.00     0.000 HD 
HETATM   10  C   UNL     1      -7.608  18.208  66.163  1.00  0.00    -0.278 A  
HETATM   11  C   UNL     1      -8.282  17.345  67.025  1.00  0.00    -0.240 A  
HETATM   12  H1  UNL     1     -11.000  19.187  69.239  1.00  0.00     0.000 HD 
ENDROOT
BRANCH   7  13
HETATM   13  N   UNL     1      -9.937  16.904  68.711  1.00  0.00    -0.261 NA 
HETATM   14  H   UNL     1      -9.505  16.500  69.542  1.00  0.00     0.000 HD 
BRANCH  13  15
HETATM   15  N   UNL     1     -11.095  16.642  68.332  1.00  0.00    -0.350 NA 
HETATM   16  H   UNL     1     -11.772  17.356  68.063  1.00  0.00     0.000 HD 
BRANCH  15  17
HETATM   17  C   UNL     1     -11.378  15.260  68.310  1.00  0.00    -0.336 A  
HETATM   18  C   UNL     1     -11.485  14.448  69.450  1.00  0.00    -0.330 A  
HETATM   19  C   UNL     1     -11.714  13.072  69.326  1.00  0.00    -0.375 A  
HETATM   20  C   UNL     1     -11.856  12.497  68.064  1.00  0.00    -0.382 A  
HETATM   21  C   UNL     1     -11.789  13.298  66.926  1.00  0.00    -0.446 A  
HETATM   22  C   UNL     1     -11.559  14.668  67.053  1.00  0.00    -0.385 A  
ENDBRANCH  15  17
ENDBRANCH  13  15
ENDBRANCH   7  13
TORSDOF 3
ENDMDL
MODEL       77
REMARK 921   NORMALIZED FREE ENERGY PREDICTED BY IDOCK:   -4.81 KCAL/MOL
REMARK 922        TOTAL FREE ENERGY PREDICTED BY IDOCK:   -6.18 KCAL/MOL
REMARK 923 INTER-LIGAND FREE ENERGY PREDICTED BY IDOCK:   -5.83 KCAL/MOL
REMARK 924 INTRA-LIGAND FREE ENERGY PREDICTED BY IDOCK:   -0.35 KCAL/MOL
REMARK 927      BINDING AFFINITY PREDICTED BY RF-SCORE:    0.00 PKD
ROOT
HETATM    1  N   UNL     1     -12.651  13.991  66.958  1.00  0.00    -0.455 NA 
HETATM    2  C   UNL     1     -12.054  13.214  65.969  1.00  0.00    -0.436 A  
HETATM    3  H2  UNL     1     -13.513  13.544  67.269  1.00  0.00     0.000 HD 
HETATM    4  H1  UNL     1     -12.075  14.225  67.766  1.00  0.00     0.000 HD 
HETATM    5  N   UNL     1     -12.812  12.905  64.905  1.00  0.00    -0.783 NA 
HETATM    6  C   UNL     1     -12.253  12.171  63.915  1.00  0.00    -0.489 A  
HETATM    7  C   UNL     1     -10.919  11.717  63.945  1.00  0.00    -0.407 A  
HETATM    8  N   UNL     1     -13.130  11.830  62.881  1.00  0.00    -0.703 NA 
HETATM    9  H2  UNL     1     -13.570  12.667  62.497  1.00  0.00     0.000 HD 
HETATM   10  C   UNL     1     -10.730  12.820  66.088  1.00  0.00    -0.297 A  
HETATM   11  C   UNL     1     -10.164  12.060  65.067  1.00  0.00    -0.308 A  
HETATM   12  H1  UNL     1     -12.708  11.277  62.134  1.00  0.00     0.000 HD 
ENDROOT
BRANCH   7  13
HETATM   13  N   UNL     1     -10.289  10.942  62.942  1.00  0.00    -0.782 NA 
HETATM   14  H   UNL     1     -10.747  10.181  62.440  1.00  0.00     0.000 HD 
BRANCH  13  15
HETATM   15  N   UNL     1      -9.110  11.296  62.743  1.00  0.00    -0.448 NA 
HETATM   16  H   UNL     1      -8.830  12.270  62.626  1.00  0.00     0.000 HD 
BRANCH  15  17
HETATM   17  C   UNL     1      -8.202  10.218  62.696  1.00  0.00    -0.158 A  
HETATM   18  C   UNL     1      -8.569   8.868  62.579  1.00  0.00    -0.195 A  
HETATM   19  C   UNL     1      -7.596   7.860  62.596  1.00  0.00    -0.115 A  
HETATM   20  C   UNL     1      -6.247   8.192  62.712  1.00  0.00    -0.082 A  
HETATM   21  C   UNL     1      -5.867   9.530  62.791  1.00  0.00    -0.089 A  
HETATM   22  C   UNL     1      -6.839  10.531  62.776  1.00  0.00    -0.081 A  
ENDBRANCH  15  17
ENDBRANCH  13  15
ENDBRANCH   7  13
TORSDOF 3
ENDMDL
MODEL       78
REMARK 921   NORMALIZED FREE ENERGY PREDICTED BY IDOCK:   -4.75 KCAL/MOL
REMARK 922        TOTAL FREE ENERGY PREDICTED BY IDOCK:   -6.12 KCAL/MOL
REMARK 923 INTER-LIGAND FREE ENERGY PREDICTED BY IDOCK:   -5.51 KCAL/MOL
REMARK 924 INTRA-LIGAND FREE ENERGY PREDICTED BY IDOCK:   -0.61 KCAL/MOL
REMARK 927      BINDING AFFINITY PREDICTED BY RF-SCORE:    0.00 PKD
ROOT
HETATM    1  N   UNL     1     -13.791  14.515  72.893  1.00  0.00    -0.540 NA 
HETATM    2  C   UNL     1     -12.982  14.185  71.810  1.00  0.00    -0.348 A  
HETATM    3  H2  UNL     1     -13.574  13.906  73.681  1.00  0.00     0.000 HD 
HETATM    4  H1  UNL     1     -13.772  15.488  73.198  1.00  0.00     0.000 HD 
HETATM    5  N   UNL     1     -13.007  12.903  71.408  1.00  0.00    -0.328 NA 
HETATM    6  C   UNL     1     -12.250  12.555  70.342  1.00  0.00    -0.286 A  
HETATM    7  C   UNL     1     -11.440  13.467  69.634  1.00  0.00    -0.207 A  
HETATM    8  N   UNL     1     -12.274  11.191  70.036  1.00  0.00    -0.326 NA 
HETATM    9  H2  UNL     1     -13.235  10.872  69.909  1.00  0.00     0.000 HD 
HETATM   10  C   UNL     1     -12.224  15.156  71.175  1.00  0.00    -0.392 A  
HETATM   11  C   UNL     1     -11.443  14.787  70.082  1.00  0.00    -0.313 A  
HETATM   12  H1  UNL     1     -11.703  10.928  69.232  1.00  0.00     0.000 HD 
ENDROOT
BRANCH   7  13
HETATM   13  N   UNL     1     -10.625  13.153  68.520  1.00  0.00    -0.256 NA 
HETATM   14  H   UNL     1      -9.609  13.245  68.516  1.00  0.00     0.000 HD 
BRANCH  13  15
HETATM   15  N   UNL     1     -11.291  12.752  67.546  1.00  0.00    -0.292 NA 
HETATM   16  H   UNL     1     -11.751  11.841  67.519  1.00  0.00     0.000 HD 
BRANCH  15  17
HETATM   17  C   UNL     1     -11.347  13.679  66.486  1.00  0.00    -0.319 A  
HETATM   18  C   UNL     1     -10.577  14.850  66.406  1.00  0.00    -0.307 A  
HETATM   19  C   UNL     1     -10.742  15.741  65.338  1.00  0.00    -0.420 A  
HETATM   20  C   UNL     1     -11.664  15.462  64.331  1.00  0.00    -0.261 A  
HETATM   21  C   UNL     1     -12.408  14.286  64.378  1.00  0.00    -0.417 A  
HETATM   22  C   UNL     1     -12.242  13.401  65.444  1.00  0.00    -0.492 A  
ENDBRANCH  15  17
ENDBRANCH  13  15
ENDBRANCH   7  13
TORSDOF 3
ENDMDL
MODEL       79
REMARK 921   NORMALIZED FREE ENERGY PREDICTED BY IDOCK:   -4.75 KCAL/MOL
REMARK 922        TOTAL FREE ENERGY PREDICTED BY IDOCK:   -6.12 KCAL/MOL
REMARK 923 INTER-LIGAND FREE ENERGY PREDICTED BY IDOCK:   -5.71 KCAL/MOL
REMARK 924 INTRA-LIGAND FREE ENERGY PREDICTED BY IDOCK:   -0.40 KCAL/MOL
REMARK 927      BINDING AFFINITY PREDICTED BY RF-SCORE:    0.00 PKD
ROOT
HETATM    1  N   UNL     1     -11.385  16.767  63.858  1.00  0.00    -1.237 NA 
HETATM    2  C   UNL     1     -11.164  15.597  64.580  1.00  0.00    -0.369 A  
HETATM    3  H2  UNL     1     -12.308  17.137  64.083  1.00  0.00     0.000 HD 
HETATM    4  H1  UNL     1     -10.687  17.503  63.956  1.00  0.00     0.000 HD 
HETATM    5  N   UNL     1     -12.083  14.626  64.453  1.00  0.00    -0.483 NA 
HETATM    6  C   UNL     1     -11.884  13.468  65.122  1.00  0.00    -0.343 A  
HETATM    7  C   UNL     1     -10.763  13.229  65.944  1.00  0.00    -0.275 A  
HETATM    8  N   UNL     1     -12.922  12.540  64.996  1.00  0.00    -0.730 NA 
HETATM    9  H2  UNL     1     -13.114  12.353  64.011  1.00  0.00     0.000 HD 
HETATM   10  C   UNL     1     -10.026  15.456  65.358  1.00  0.00    -0.356 A  
HETATM   11  C   UNL     1      -9.831  14.261  66.049  1.00  0.00    -0.336 A  
HETATM   12  H1  UNL     1     -12.772  11.666  65.501  1.00  0.00     0.000 HD 
ENDROOT
BRANCH   7  13
HETATM   13  N   UNL     1     -10.512  12.041  66.671  1.00  0.00    -0.212 NA 
HETATM   14  H   UNL     1     -10.067  12.019  67.588  1.00  0.00     0.000 HD 
BRANCH  13  15
HETATM   15  N   UNL     1     -10.896  11.024  66.060  1.00  0.00    -0.176 NA 
HETATM   16  H   UNL     1     -11.830  10.627  66.167  1.00  0.00     0.000 HD 
BRANCH  15  17
HETATM   17  C   UNL     1      -9.914  10.477  65.210  1.00  0.00    -0.299 A  
HETATM   18  C   UNL     1     -10.011  10.416  63.811  1.00  0.00    -0.230 A  
HETATM   19  C   UNL     1      -9.006   9.803  63.052  1.00  0.00    -0.271 A  
HETATM   20  C   UNL     1      -7.887   9.261  63.681  1.00  0.00    -0.130 A  
HETATM   21  C   UNL     1      -7.759   9.349  65.065  1.00  0.00    -0.110 A  
HETATM   22  C   UNL     1      -8.763   9.958  65.818  1.00  0.00    -0.157 A  
ENDBRANCH  15  17
ENDBRANCH  13  15
ENDBRANCH   7  13
TORSDOF 3
ENDMDL
MODEL       80
REMARK 921   NORMALIZED FREE ENERGY PREDICTED BY IDOCK:   -4.71 KCAL/MOL
REMARK 922        TOTAL FREE ENERGY PREDICTED BY IDOCK:   -6.06 KCAL/MOL
REMARK 923 INTER-LIGAND FREE ENERGY PREDICTED BY IDOCK:   -5.71 KCAL/MOL
REMARK 924 INTRA-LIGAND FREE ENERGY PREDICTED BY IDOCK:   -0.36 KCAL/MOL
REMARK 927      BINDING AFFINITY PREDICTED BY RF-SCORE:    0.00 PKD
ROOT
HETATM    1  N   UNL     1     -10.171   7.317  70.909  1.00  0.00    -0.197 NA 
HETATM    2  C   UNL     1     -10.618   8.433  70.207  1.00  0.00    -0.227 A  
HETATM    3  H2  UNL     1     -10.965   6.843  71.338  1.00  0.00     0.000 HD 
HETATM    4  H1  UNL     1      -9.611   6.644  70.387  1.00  0.00     0.000 HD 
HETATM    5  N   UNL     1     -11.357   9.321  70.894  1.00  0.00    -0.285 NA 
HETATM    6  C   UNL     1     -11.786  10.429  70.247  1.00  0.00    -0.312 A  
HETATM    7  C   UNL     1     -11.498  10.698  68.893  1.00  0.00    -0.265 A  
HETATM    8  N   UNL     1     -12.610  11.263  71.009  1.00  0.00    -0.399 NA 
HETATM    9  H2  UNL     1     -12.147  11.518  71.882  1.00  0.00     0.000 HD 
HETATM   10  C   UNL     1     -10.276   8.612  68.876  1.00  0.00    -0.221 A  
HETATM   11  C   UNL     1     -10.727   9.753  68.216  1.00  0.00    -0.277 A  
HETATM   12  H1  UNL     1     -12.934  12.098  70.522  1.00  0.00     0.000 HD 
ENDROOT
BRANCH   7  13
HETATM   13  N   UNL     1     -11.928  11.835  68.168  1.00  0.00    -0.557 NA 
HETATM   14  H   UNL     1     -12.238  12.703  68.604  1.00  0.00     0.000 HD 
BRANCH  13  15
HETATM   15  N   UNL     1     -11.885  11.652  66.935  1.00  0.00    -0.547 NA 
HETATM   16  H   UNL     1     -11.968  10.732  66.502  1.00  0.00     0.000 HD 
BRANCH  15  17
HETATM   17  C   UNL     1     -11.709  12.842  66.199  1.00  0.00    -0.403 A  
HETATM   18  C   UNL     1     -12.635  13.357  65.278  1.00  0.00    -0.518 A  
HETATM   19  C   UNL     1     -12.347  14.519  64.552  1.00  0.00    -0.434 A  
HETATM   20  C   UNL     1     -11.142  15.189  64.752  1.00  0.00    -0.395 A  
HETATM   21  C   UNL     1     -10.231  14.710  65.690  1.00  0.00    -0.382 A  
HETATM   22  C   UNL     1     -10.519  13.550  66.411  1.00  0.00    -0.287 A  
ENDBRANCH  15  17
ENDBRANCH  13  15
ENDBRANCH   7  13
TORSDOF 3
ENDMDL
MODEL       81
REMARK 921   NORMALIZED FREE ENERGY PREDICTED BY IDOCK:   -4.69 KCAL/MOL
REMARK 922        TOTAL FREE ENERGY PREDICTED BY IDOCK:   -6.05 KCAL/MOL
REMARK 923 INTER-LIGAND FREE ENERGY PREDICTED BY IDOCK:   -5.70 KCAL/MOL
REMARK 924 INTRA-LIGAND FREE ENERGY PREDICTED BY IDOCK:   -0.35 KCAL/MOL
REMARK 927      BINDING AFFINITY PREDICTED BY RF-SCORE:    0.00 PKD
ROOT
HETATM    1  N   UNL     1     -10.201  16.285  65.092  1.00  0.00    -0.558 NA 
HETATM    2  C   UNL     1     -10.690  15.110  65.655  1.00  0.00    -0.363 A  
HETATM    3  H2  UNL     1     -10.979  16.898  64.851  1.00  0.00     0.000 HD 
HETATM    4  H1  UNL     1      -9.514  16.803  65.640  1.00  0.00     0.000 HD 
HETATM    5  N   UNL     1     -11.595  14.427  64.934  1.00  0.00    -0.376 NA 
HETATM    6  C   UNL     1     -12.072  13.268  65.443  1.00  0.00    -0.422 A  
HETATM    7  C   UNL     1     -11.667  12.741  66.687  1.00  0.00    -0.393 A  
HETATM    8  N   UNL     1     -13.063  12.659  64.667  1.00  0.00    -0.848 NA 
HETATM    9  H2  UNL     1     -12.730  12.518  63.712  1.00  0.00     0.000 HD 
HETATM   10  C   UNL     1     -10.224  14.671  66.884  1.00  0.00    -0.262 A  
HETATM   11  C   UNL     1     -10.725  13.479  67.404  1.00  0.00    -0.269 A  
HETATM   12  H1  UNL     1     -13.422  11.784  65.050  1.00  0.00     0.000 HD 
ENDROOT
BRANCH   7  13
HETATM   13  N   UNL     1     -12.139  11.540  67.267  1.00  0.00    -0.345 NA 
HETATM   14  H   UNL     1     -12.734  10.870  66.781  1.00  0.00     0.000 HD 
BRANCH  13  15
HETATM   15  N   UNL     1     -11.743  11.395  68.440  1.00  0.00    -0.454 NA 
HETATM   16  H   UNL     1     -11.782  12.136  69.140  1.00  0.00     0.000 HD 
BRANCH  15  17
HETATM   17  C   UNL     1     -11.235  10.106  68.704  1.00  0.00    -0.168 A  
HETATM   18  C   UNL     1     -10.579   9.297  67.764  1.00  0.00    -0.307 A  
HETATM   19  C   UNL     1     -10.157   8.005  68.105  1.00  0.00    -0.234 A  
HETATM   20  C   UNL     1     -10.370   7.518  69.393  1.00  0.00    -0.213 A  
HETATM   21  C   UNL     1     -10.985   8.324  70.347  1.00  0.00    -0.244 A  
HETATM   22  C   UNL     1     -11.406   9.610  70.003  1.00  0.00    -0.239 A  
ENDBRANCH  15  17
ENDBRANCH  13  15
ENDBRANCH   7  13
TORSDOF 3
ENDMDL
MODEL       82
REMARK 921   NORMALIZED FREE ENERGY PREDICTED BY IDOCK:   -4.68 KCAL/MOL
REMARK 922        TOTAL FREE ENERGY PREDICTED BY IDOCK:   -6.03 KCAL/MOL
REMARK 923 INTER-LIGAND FREE ENERGY PREDICTED BY IDOCK:   -5.41 KCAL/MOL
REMARK 924 INTRA-LIGAND FREE ENERGY PREDICTED BY IDOCK:   -0.63 KCAL/MOL
REMARK 927      BINDING AFFINITY PREDICTED BY RF-SCORE:    0.00 PKD
ROOT
HETATM    1  N   UNL     1      -7.450   6.802  69.657  1.00  0.00    -0.094 NA 
HETATM    2  C   UNL     1      -8.608   7.373  70.177  1.00  0.00    -0.139 A  
HETATM    3  H2  UNL     1      -7.527   6.738  68.642  1.00  0.00     0.000 HD 
HETATM    4  H1  UNL     1      -6.568   7.249  69.906  1.00  0.00     0.000 HD 
HETATM    5  N   UNL     1      -9.770   6.785  69.849  1.00  0.00    -0.159 NA 
HETATM    6  C   UNL     1     -10.912   7.301  70.359  1.00  0.00    -0.252 A  
HETATM    7  C   UNL     1     -10.943   8.421  71.215  1.00  0.00    -0.252 A  
HETATM    8  N   UNL     1     -12.081   6.679  69.909  1.00  0.00    -0.579 NA 
HETATM    9  H2  UNL     1     -12.037   5.674  70.081  1.00  0.00     0.000 HD 
HETATM   10  C   UNL     1      -8.534   8.473  71.017  1.00  0.00    -0.185 A  
HETATM   11  C   UNL     1      -9.715   9.002  71.533  1.00  0.00    -0.365 A  
HETATM   12  H1  UNL     1     -12.942   7.068  70.294  1.00  0.00     0.000 HD 
ENDROOT
BRANCH   7  13
HETATM   13  N   UNL     1     -12.108   9.004  71.768  1.00  0.00    -0.343 NA 
HETATM   14  H   UNL     1     -12.364   8.938  72.753  1.00  0.00     0.000 HD 
BRANCH  13  15
HETATM   15  N   UNL     1     -12.784   9.608  70.913  1.00  0.00    -0.494 NA 
HETATM   16  H   UNL     1     -13.295   9.135  70.166  1.00  0.00     0.000 HD 
BRANCH  15  17
HETATM   17  C   UNL     1     -12.774  11.008  71.078  1.00  0.00    -0.386 A  
HETATM   18  C   UNL     1     -13.390  11.694  72.136  1.00  0.00    -0.310 A  
HETATM   19  C   UNL     1     -13.373  13.094  72.186  1.00  0.00    -0.621 A  
HETATM   20  C   UNL     1     -12.726  13.821  71.189  1.00  0.00    -0.438 A  
HETATM   21  C   UNL     1     -12.079  13.153  70.153  1.00  0.00    -0.392 A  
HETATM   22  C   UNL     1     -12.099  11.758  70.105  1.00  0.00    -0.398 A  
ENDBRANCH  15  17
ENDBRANCH  13  15
ENDBRANCH   7  13
TORSDOF 3
ENDMDL
MODEL       83
REMARK 921   NORMALIZED FREE ENERGY PREDICTED BY IDOCK:   -4.67 KCAL/MOL
REMARK 922        TOTAL FREE ENERGY PREDICTED BY IDOCK:   -6.01 KCAL/MOL
REMARK 923 INTER-LIGAND FREE ENERGY PREDICTED BY IDOCK:   -5.65 KCAL/MOL
REMARK 924 INTRA-LIGAND FREE ENERGY PREDICTED BY IDOCK:   -0.36 KCAL/MOL
REMARK 927      BINDING AFFINITY PREDICTED BY RF-SCORE:    0.00 PKD
ROOT
HETATM    1  N   UNL     1      -9.171   8.679  65.314  1.00  0.00    -0.434 NA 
HETATM    2  C   UNL     1      -9.816   9.896  65.521  1.00  0.00    -0.311 A  
HETATM    3  H2  UNL     1      -8.196   8.847  65.067  1.00  0.00     0.000 HD 
HETATM    4  H1  UNL     1      -9.220   8.001  66.074  1.00  0.00     0.000 HD 
HETATM    5  N   UNL     1      -9.751  10.790  64.521  1.00  0.00    -0.267 NA 
HETATM    6  C   UNL     1     -10.388  11.973  64.681  1.00  0.00    -0.287 A  
HETATM    7  C   UNL     1     -11.114  12.312  65.841  1.00  0.00    -0.322 A  
HETATM    8  N   UNL     1     -10.209  12.875  63.628  1.00  0.00    -0.682 NA 
HETATM    9  H2  UNL     1     -10.477  12.444  62.742  1.00  0.00     0.000 HD 
HETATM   10  C   UNL     1     -10.510  10.133  66.697  1.00  0.00    -0.254 A  
HETATM   11  C   UNL     1     -11.158  11.356  66.856  1.00  0.00    -0.356 A  
HETATM   12  H1  UNL     1     -10.690  13.766  63.749  1.00  0.00     0.000 HD 
ENDROOT
BRANCH   7  13
HETATM   13  N   UNL     1     -11.790  13.536  66.063  1.00  0.00    -0.359 NA 
HETATM   14  H   UNL     1     -12.362  14.004  65.360  1.00  0.00     0.000 HD 
BRANCH  13  15
HETATM   15  N   UNL     1     -11.606  13.974  67.215  1.00  0.00    -0.348 NA 
HETATM   16  H   UNL     1     -11.768  13.422  68.057  1.00  0.00     0.000 HD 
BRANCH  15  17
HETATM   17  C   UNL     1     -11.153  15.309  67.240  1.00  0.00    -0.325 A  
HETATM   18  C   UNL     1     -11.190  16.146  68.367  1.00  0.00    -0.358 A  
HETATM   19  C   UNL     1     -10.767  17.478  68.280  1.00  0.00    -0.309 A  
HETATM   20  C   UNL     1     -10.286  17.982  67.073  1.00  0.00    -0.377 A  
HETATM   21  C   UNL     1     -10.209  17.153  65.957  1.00  0.00    -0.332 A  
HETATM   22  C   UNL     1     -10.634  15.827  66.046  1.00  0.00    -0.334 A  
ENDBRANCH  15  17
ENDBRANCH  13  15
ENDBRANCH   7  13
TORSDOF 3
ENDMDL
MODEL       84
REMARK 921   NORMALIZED FREE ENERGY PREDICTED BY IDOCK:   -4.65 KCAL/MOL
REMARK 922        TOTAL FREE ENERGY PREDICTED BY IDOCK:   -5.99 KCAL/MOL
REMARK 923 INTER-LIGAND FREE ENERGY PREDICTED BY IDOCK:   -5.49 KCAL/MOL
REMARK 924 INTRA-LIGAND FREE ENERGY PREDICTED BY IDOCK:   -0.50 KCAL/MOL
REMARK 927      BINDING AFFINITY PREDICTED BY RF-SCORE:    0.00 PKD
ROOT
HETATM    1  N   UNL     1      -6.559  20.853  65.498  1.00  0.00    -0.468 NA 
HETATM    2  C   UNL     1      -7.186  19.967  66.369  1.00  0.00    -0.264 A  
HETATM    3  H2  UNL     1      -7.257  21.448  65.055  1.00  0.00     0.000 HD 
HETATM    4  H1  UNL     1      -5.816  21.430  65.891  1.00  0.00     0.000 HD 
HETATM    5  N   UNL     1      -8.166  19.206  65.853  1.00  0.00    -0.454 NA 
HETATM    6  C   UNL     1      -8.779  18.317  66.668  1.00  0.00    -0.277 A  
HETATM    7  C   UNL     1      -8.442  18.149  68.027  1.00  0.00    -0.262 A  
HETATM    8  N   UNL     1      -9.835  17.619  66.074  1.00  0.00    -0.524 NA 
HETATM    9  H2  UNL     1      -9.520  17.159  65.219  1.00  0.00     0.000 HD 
HETATM   10  C   UNL     1      -6.779  19.871  67.690  1.00  0.00    -0.274 A  
HETATM   11  C   UNL     1      -7.420  18.957  68.525  1.00  0.00    -0.339 A  
HETATM   12  H1  UNL     1     -10.297  16.948  66.688  1.00  0.00     0.000 HD 
ENDROOT
BRANCH   7  13
HETATM   13  N   UNL     1      -9.056  17.242  68.923  1.00  0.00    -0.221 NA 
HETATM   14  H   UNL     1      -8.556  16.501  69.413  1.00  0.00     0.000 HD 
BRANCH  13  15
HETATM   15  N   UNL     1     -10.279  17.454  69.045  1.00  0.00    -0.335 NA 
HETATM   16  H   UNL     1     -10.720  18.342  68.804  1.00  0.00     0.000 HD 
BRANCH  15  17
HETATM   17  C   UNL     1     -10.992  16.346  69.547  1.00  0.00    -0.317 A  
HETATM   18  C   UNL     1     -11.203  15.147  68.849  1.00  0.00    -0.292 A  
HETATM   19  C   UNL     1     -11.973  14.120  69.411  1.00  0.00    -0.382 A  
HETATM   20  C   UNL     1     -12.523  14.274  70.681  1.00  0.00    -0.428 A  
HETATM   21  C   UNL     1     -12.291  15.444  71.400  1.00  0.00    -0.442 A  
HETATM   22  C   UNL     1     -11.525  16.465  70.837  1.00  0.00    -0.213 A  
ENDBRANCH  15  17
ENDBRANCH  13  15
ENDBRANCH   7  13
TORSDOF 3
ENDMDL
MODEL       85
REMARK 921   NORMALIZED FREE ENERGY PREDICTED BY IDOCK:   -4.62 KCAL/MOL
REMARK 922        TOTAL FREE ENERGY PREDICTED BY IDOCK:   -5.97 KCAL/MOL
REMARK 923 INTER-LIGAND FREE ENERGY PREDICTED BY IDOCK:   -5.67 KCAL/MOL
REMARK 924 INTRA-LIGAND FREE ENERGY PREDICTED BY IDOCK:   -0.29 KCAL/MOL
REMARK 927      BINDING AFFINITY PREDICTED BY RF-SCORE:    0.00 PKD
ROOT
HETATM    1  N   UNL     1     -11.869  11.955  66.520  1.00  0.00    -0.570 NA 
HETATM    2  C   UNL     1     -11.374  13.085  67.165  1.00  0.00    -0.305 A  
HETATM    3  H2  UNL     1     -12.807  12.145  66.168  1.00  0.00     0.000 HD 
HETATM    4  H1  UNL     1     -11.295  11.567  65.772  1.00  0.00     0.000 HD 
HETATM    5  N   UNL     1     -12.130  13.596  68.150  1.00  0.00    -0.339 NA 
HETATM    6  C   UNL     1     -11.665  14.680  68.813  1.00  0.00    -0.324 A  
HETATM    7  C   UNL     1     -10.431  15.297  68.522  1.00  0.00    -0.235 A  
HETATM    8  N   UNL     1     -12.544  15.195  69.771  1.00  0.00    -0.601 NA 
HETATM    9  H2  UNL     1     -12.818  14.465  70.430  1.00  0.00     0.000 HD 
HETATM   10  C   UNL     1     -10.144  13.615  66.810  1.00  0.00    -0.269 A  
HETATM   11  C   UNL     1      -9.675  14.735  67.494  1.00  0.00    -0.213 A  
HETATM   12  H1  UNL     1     -12.193  16.012  70.271  1.00  0.00     0.000 HD 
ENDROOT
BRANCH   7  13
HETATM   13  N   UNL     1      -9.903  16.435  69.178  1.00  0.00    -0.271 NA 
HETATM   14  H   UNL     1     -10.283  16.820  70.042  1.00  0.00     0.000 HD 
BRANCH  13  15
HETATM   15  N   UNL     1      -8.919  16.911  68.578  1.00  0.00    -0.247 NA 
HETATM   16  H   UNL     1      -8.041  16.406  68.453  1.00  0.00     0.000 HD 
BRANCH  15  17
HETATM   17  C   UNL     1      -9.138  18.215  68.091  1.00  0.00    -0.290 A  
HETATM   18  C   UNL     1     -10.398  18.753  67.783  1.00  0.00    -0.467 A  
HETATM   19  C   UNL     1     -10.512  20.043  67.250  1.00  0.00    -0.505 A  
HETATM   20  C   UNL     1      -9.371  20.815  67.037  1.00  0.00    -0.354 A  
HETATM   21  C   UNL     1      -8.118  20.309  67.373  1.00  0.00    -0.377 A  
HETATM   22  C   UNL     1      -8.008  19.022  67.902  1.00  0.00    -0.307 A  
ENDBRANCH  15  17
ENDBRANCH  13  15
ENDBRANCH   7  13
TORSDOF 3
ENDMDL
MODEL       86
REMARK 921   NORMALIZED FREE ENERGY PREDICTED BY IDOCK:   -4.62 KCAL/MOL
REMARK 922        TOTAL FREE ENERGY PREDICTED BY IDOCK:   -5.96 KCAL/MOL
REMARK 923 INTER-LIGAND FREE ENERGY PREDICTED BY IDOCK:   -5.41 KCAL/MOL
REMARK 924 INTRA-LIGAND FREE ENERGY PREDICTED BY IDOCK:   -0.55 KCAL/MOL
REMARK 927      BINDING AFFINITY PREDICTED BY RF-SCORE:    0.00 PKD
ROOT
HETATM    1  N   UNL     1     -11.052   7.213  73.506  1.00  0.00    -0.547 NA 
HETATM    2  C   UNL     1     -10.806   7.691  72.223  1.00  0.00    -0.267 A  
HETATM    3  H2  UNL     1     -10.676   6.270  73.598  1.00  0.00     0.000 HD 
HETATM    4  H1  UNL     1     -10.724   7.790  74.280  1.00  0.00     0.000 HD 
HETATM    5  N   UNL     1     -11.238   6.931  71.203  1.00  0.00    -0.262 NA 
HETATM    6  C   UNL     1     -11.036   7.380  69.943  1.00  0.00    -0.223 A  
HETATM    7  C   UNL     1     -10.396   8.601  69.648  1.00  0.00    -0.213 A  
HETATM    8  N   UNL     1     -11.447   6.496  68.940  1.00  0.00    -0.608 NA 
HETATM    9  H2  UNL     1     -12.426   6.239  69.073  1.00  0.00     0.000 HD 
HETATM   10  C   UNL     1     -10.173   8.909  72.035  1.00  0.00    -0.363 A  
HETATM   11  C   UNL     1      -9.963   9.361  70.733  1.00  0.00    -0.358 A  
HETATM   12  H1  UNL     1     -11.295   6.835  67.990  1.00  0.00     0.000 HD 
ENDROOT
BRANCH   7  13
HETATM   13  N   UNL     1     -10.153   9.112  68.350  1.00  0.00    -0.189 NA 
HETATM   14  H   UNL     1      -9.243   9.087  67.891  1.00  0.00     0.000 HD 
BRANCH  13  15
HETATM   15  N   UNL     1     -11.179   9.596  67.833  1.00  0.00    -0.501 NA 
HETATM   16  H   UNL     1     -12.067   9.096  67.777  1.00  0.00     0.000 HD 
BRANCH  15  17
HETATM   17  C   UNL     1     -10.992  10.901  67.334  1.00  0.00    -0.293 A  
HETATM   18  C   UNL     1     -10.088  11.247  66.317  1.00  0.00    -0.271 A  
HETATM   19  C   UNL     1      -9.932  12.582  65.925  1.00  0.00    -0.269 A  
HETATM   20  C   UNL     1     -10.690  13.582  66.531  1.00  0.00    -0.287 A  
HETATM   21  C   UNL     1     -11.618  13.249  67.515  1.00  0.00    -0.388 A  
HETATM   22  C   UNL     1     -11.769  11.917  67.905  1.00  0.00    -0.368 A  
ENDBRANCH  15  17
ENDBRANCH  13  15
ENDBRANCH   7  13
TORSDOF 3
ENDMDL
MODEL       87
REMARK 921   NORMALIZED FREE ENERGY PREDICTED BY IDOCK:   -4.60 KCAL/MOL
REMARK 922        TOTAL FREE ENERGY PREDICTED BY IDOCK:   -5.94 KCAL/MOL
REMARK 923 INTER-LIGAND FREE ENERGY PREDICTED BY IDOCK:   -5.46 KCAL/MOL
REMARK 924 INTRA-LIGAND FREE ENERGY PREDICTED BY IDOCK:   -0.48 KCAL/MOL
REMARK 927      BINDING AFFINITY PREDICTED BY RF-SCORE:    0.00 PKD
ROOT
HETATM    1  N   UNL     1     -12.467  14.939  63.767  1.00  0.00    -1.062 NA 
HETATM    2  C   UNL     1     -11.714  13.819  64.110  1.00  0.00    -0.364 A  
HETATM    3  H2  UNL     1     -11.844  15.699  63.495  1.00  0.00     0.000 HD 
HETATM    4  H1  UNL     1     -13.180  14.808  63.050  1.00  0.00     0.000 HD 
HETATM    5  N   UNL     1     -10.774  13.990  65.054  1.00  0.00    -0.372 NA 
HETATM    6  C   UNL     1     -10.042  12.915  65.427  1.00  0.00    -0.251 A  
HETATM    7  C   UNL     1     -10.218  11.629  64.877  1.00  0.00    -0.270 A  
HETATM    8  N   UNL     1      -9.037  13.194  66.358  1.00  0.00    -0.447 NA 
HETATM    9  H2  UNL     1      -9.430  13.658  67.177  1.00  0.00     0.000 HD 
HETATM   10  C   UNL     1     -11.967  12.593  63.516  1.00  0.00    -0.630 A  
HETATM   11  C   UNL     1     -11.204  11.492  63.902  1.00  0.00    -0.439 A  
HETATM   12  H1  UNL     1      -8.485  12.383  66.639  1.00  0.00     0.000 HD 
ENDROOT
BRANCH   7  13
HETATM   13  N   UNL     1      -9.475  10.475  65.226  1.00  0.00    -0.210 NA 
HETATM   14  H   UNL     1      -8.521  10.297  64.914  1.00  0.00     0.000 HD 
BRANCH  13  15
HETATM   15  N   UNL     1     -10.123   9.701  65.959  1.00  0.00    -0.276 NA 
HETATM   16  H   UNL     1     -10.885   9.114  65.619  1.00  0.00     0.000 HD 
BRANCH  15  17
HETATM   17  C   UNL     1      -9.698   9.717  67.303  1.00  0.00    -0.166 A  
HETATM   18  C   UNL     1     -10.545   9.899  68.408  1.00  0.00    -0.258 A  
HETATM   19  C   UNL     1     -10.023   9.955  69.706  1.00  0.00    -0.275 A  
HETATM   20  C   UNL     1      -8.652   9.812  69.915  1.00  0.00    -0.236 A  
HETATM   21  C   UNL     1      -7.805   9.594  68.832  1.00  0.00    -0.081 A  
HETATM   22  C   UNL     1      -8.329   9.540  67.539  1.00  0.00    -0.125 A  
ENDBRANCH  15  17
ENDBRANCH  13  15
ENDBRANCH   7  13
TORSDOF 3
ENDMDL
MODEL       88
REMARK 921   NORMALIZED FREE ENERGY PREDICTED BY IDOCK:   -4.60 KCAL/MOL
REMARK 922        TOTAL FREE ENERGY PREDICTED BY IDOCK:   -5.94 KCAL/MOL
REMARK 923 INTER-LIGAND FREE ENERGY PREDICTED BY IDOCK:   -5.52 KCAL/MOL
REMARK 924 INTRA-LIGAND FREE ENERGY PREDICTED BY IDOCK:   -0.42 KCAL/MOL
REMARK 927      BINDING AFFINITY PREDICTED BY RF-SCORE:    0.00 PKD
ROOT
HETATM    1  N   UNL     1     -12.354  15.068  63.606  1.00  0.00    -0.986 NA 
HETATM    2  C   UNL     1     -11.858  14.657  64.840  1.00  0.00    -0.403 A  
HETATM    3  H2  UNL     1     -11.777  14.681  62.860  1.00  0.00     0.000 HD 
HETATM    4  H1  UNL     1     -13.336  14.868  63.419  1.00  0.00     0.000 HD 
HETATM    5  N   UNL     1     -10.564  14.920  65.087  1.00  0.00    -0.399 NA 
HETATM    6  C   UNL     1     -10.057  14.555  66.288  1.00  0.00    -0.295 A  
HETATM    7  C   UNL     1     -10.817  13.915  67.288  1.00  0.00    -0.286 A  
HETATM    8  N   UNL     1      -8.688  14.796  66.436  1.00  0.00    -0.465 NA 
HETATM    9  H2  UNL     1      -8.477  15.776  66.244  1.00  0.00     0.000 HD 
HETATM   10  C   UNL     1     -12.688  14.039  65.762  1.00  0.00    -0.487 A  
HETATM   11  C   UNL     1     -12.156  13.661  66.993  1.00  0.00    -0.423 A  
HETATM   12  H1  UNL     1      -8.306  14.521  67.341  1.00  0.00     0.000 HD 
ENDROOT
BRANCH   7  13
HETATM   13  N   UNL     1     -10.335  13.506  68.555  1.00  0.00    -0.243 NA 
HETATM   14  H   UNL     1      -9.673  14.045  69.112  1.00  0.00     0.000 HD 
BRANCH  13  15
HETATM   15  N   UNL     1     -10.814  12.411  68.910  1.00  0.00    -0.319 NA 
HETATM   16  H   UNL     1     -11.660  12.326  69.474  1.00  0.00     0.000 HD 
BRANCH  15  17
HETATM   17  C   UNL     1     -10.070  11.301  68.457  1.00  0.00    -0.204 A  
HETATM   18  C   UNL     1      -8.672  11.197  68.517  1.00  0.00    -0.161 A  
HETATM   19  C   UNL     1      -8.017  10.077  67.990  1.00  0.00    -0.101 A  
HETATM   20  C   UNL     1      -8.753   9.043  67.415  1.00  0.00    -0.122 A  
HETATM   21  C   UNL     1     -10.143   9.116  67.383  1.00  0.00    -0.289 A  
HETATM   22  C   UNL     1     -10.793  10.234  67.907  1.00  0.00    -0.337 A  
ENDBRANCH  15  17
ENDBRANCH  13  15
ENDBRANCH   7  13
TORSDOF 3
ENDMDL
MODEL       89
REMARK 921   NORMALIZED FREE ENERGY PREDICTED BY IDOCK:   -4.59 KCAL/MOL
REMARK 922        TOTAL FREE ENERGY PREDICTED BY IDOCK:   -5.93 KCAL/MOL
REMARK 923 INTER-LIGAND FREE ENERGY PREDICTED BY IDOCK:   -5.56 KCAL/MOL
REMARK 924 INTRA-LIGAND FREE ENERGY PREDICTED BY IDOCK:   -0.37 KCAL/MOL
REMARK 927      BINDING AFFINITY PREDICTED BY RF-SCORE:    0.00 PKD
ROOT
HETATM    1  N   UNL     1      -9.284  11.326  64.293  1.00  0.00    -0.388 NA 
HETATM    2  C   UNL     1      -9.676  11.621  65.596  1.00  0.00    -0.236 A  
HETATM    3  H2  UNL     1      -8.817  10.420  64.274  1.00  0.00     0.000 HD 
HETATM    4  H1  UNL     1     -10.011  11.353  63.579  1.00  0.00     0.000 HD 
HETATM    5  N   UNL     1      -8.719  11.585  66.537  1.00  0.00    -0.181 NA 
HETATM    6  C   UNL     1      -9.064  11.890  67.809  1.00  0.00    -0.180 A  
HETATM    7  C   UNL     1     -10.373  12.243  68.195  1.00  0.00    -0.216 A  
HETATM    8  N   UNL     1      -8.027  11.757  68.738  1.00  0.00    -0.292 NA 
HETATM    9  H2  UNL     1      -7.217  12.306  68.448  1.00  0.00     0.000 HD 
HETATM   10  C   UNL     1     -10.990  11.962  65.874  1.00  0.00    -0.354 A  
HETATM   11  C   UNL     1     -11.338  12.269  67.188  1.00  0.00    -0.398 A  
HETATM   12  H1  UNL     1      -8.287  11.987  69.698  1.00  0.00     0.000 HD 
ENDROOT
BRANCH   7  13
HETATM   13  N   UNL     1     -10.788  12.562  69.510  1.00  0.00    -0.442 NA 
HETATM   14  H   UNL     1     -10.177  12.976  70.214  1.00  0.00     0.000 HD 
BRANCH  13  15
HETATM   15  N   UNL     1     -11.986  12.280  69.708  1.00  0.00    -0.313 NA 
HETATM   16  H   UNL     1     -12.469  11.520  69.229  1.00  0.00     0.000 HD 
BRANCH  15  17
HETATM   17  C   UNL     1     -12.608  13.115  70.659  1.00  0.00    -0.211 A  
HETATM   18  C   UNL     1     -13.313  12.660  71.784  1.00  0.00    -0.405 A  
HETATM   19  C   UNL     1     -13.945  13.567  72.645  1.00  0.00    -0.388 A  
HETATM   20  C   UNL     1     -13.864  14.936  72.400  1.00  0.00    -0.587 A  
HETATM   21  C   UNL     1     -13.136  15.403  71.309  1.00  0.00    -0.564 A  
HETATM   22  C   UNL     1     -12.509  14.497  70.452  1.00  0.00    -0.407 A  
ENDBRANCH  15  17
ENDBRANCH  13  15
ENDBRANCH   7  13
TORSDOF 3
ENDMDL
MODEL       90
REMARK 921   NORMALIZED FREE ENERGY PREDICTED BY IDOCK:   -4.58 KCAL/MOL
REMARK 922        TOTAL FREE ENERGY PREDICTED BY IDOCK:   -5.91 KCAL/MOL
REMARK 923 INTER-LIGAND FREE ENERGY PREDICTED BY IDOCK:   -5.39 KCAL/MOL
REMARK 924 INTRA-LIGAND FREE ENERGY PREDICTED BY IDOCK:   -0.52 KCAL/MOL
REMARK 927      BINDING AFFINITY PREDICTED BY RF-SCORE:    0.00 PKD
ROOT
HETATM    1  N   UNL     1      -8.357   3.900  70.591  1.00  0.00    -0.068 NA 
HETATM    2  C   UNL     1      -9.425   4.793  70.602  1.00  0.00    -0.171 A  
HETATM    3  H2  UNL     1      -8.679   2.979  70.889  1.00  0.00     0.000 HD 
HETATM    4  H1  UNL     1      -7.840   3.815  69.717  1.00  0.00     0.000 HD 
HETATM    5  N   UNL     1     -10.107   4.904  71.753  1.00  0.00    -0.196 NA 
HETATM    6  C   UNL     1     -11.135   5.782  71.803  1.00  0.00    -0.238 A  
HETATM    7  C   UNL     1     -11.524   6.584  70.711  1.00  0.00    -0.360 A  
HETATM    8  N   UNL     1     -11.838   5.783  73.012  1.00  0.00    -0.510 NA 
HETATM    9  H2  UNL     1     -11.201   5.937  73.794  1.00  0.00     0.000 HD 
HETATM   10  C   UNL     1      -9.726   5.543  69.476  1.00  0.00    -0.218 A  
HETATM   11  C   UNL     1     -10.790   6.440  69.534  1.00  0.00    -0.381 A  
HETATM   12  H1  UNL     1     -12.613   6.445  73.049  1.00  0.00     0.000 HD 
ENDROOT
BRANCH   7  13
HETATM   13  N   UNL     1     -12.594   7.511  70.708  1.00  0.00    -0.554 NA 
HETATM   14  H   UNL     1     -13.306   7.555  69.979  1.00  0.00     0.000 HD 
BRANCH  13  15
HETATM   15  N   UNL     1     -12.567   8.267  71.699  1.00  0.00    -0.318 NA 
HETATM   16  H   UNL     1     -12.565   7.928  72.661  1.00  0.00     0.000 HD 
BRANCH  15  17
HETATM   17  C   UNL     1     -12.539   9.635  71.359  1.00  0.00    -0.371 A  
HETATM   18  C   UNL     1     -11.850  10.172  70.260  1.00  0.00    -0.342 A  
HETATM   19  C   UNL     1     -11.835  11.554  70.034  1.00  0.00    -0.435 A  
HETATM   20  C   UNL     1     -12.522  12.410  70.892  1.00  0.00    -0.367 A  
HETATM   21  C   UNL     1     -13.241  11.888  71.965  1.00  0.00    -0.461 A  
HETATM   22  C   UNL     1     -13.252  10.510  72.188  1.00  0.00    -0.398 A  
ENDBRANCH  15  17
ENDBRANCH  13  15
ENDBRANCH   7  13
TORSDOF 3
ENDMDL
MODEL       91
REMARK 921   NORMALIZED FREE ENERGY PREDICTED BY IDOCK:   -4.55 KCAL/MOL
REMARK 922        TOTAL FREE ENERGY PREDICTED BY IDOCK:   -5.87 KCAL/MOL
REMARK 923 INTER-LIGAND FREE ENERGY PREDICTED BY IDOCK:   -5.42 KCAL/MOL
REMARK 924 INTRA-LIGAND FREE ENERGY PREDICTED BY IDOCK:   -0.45 KCAL/MOL
REMARK 927      BINDING AFFINITY PREDICTED BY RF-SCORE:    0.00 PKD
ROOT
HETATM    1  N   UNL     1      -9.158  14.017  66.268  1.00  0.00    -0.490 NA 
HETATM    2  C   UNL     1      -9.290  12.921  67.116  1.00  0.00    -0.229 A  
HETATM    3  H2  UNL     1      -9.837  14.732  66.526  1.00  0.00     0.000 HD 
HETATM    4  H1  UNL     1      -8.230  14.434  66.201  1.00  0.00     0.000 HD 
HETATM    5  N   UNL     1     -10.512  12.371  67.205  1.00  0.00    -0.219 NA 
HETATM    6  C   UNL     1     -10.668  11.289  68.002  1.00  0.00    -0.203 A  
HETATM    7  C   UNL     1      -9.615  10.711  68.740  1.00  0.00    -0.186 A  
HETATM    8  N   UNL     1     -11.983  10.824  68.097  1.00  0.00    -0.801 NA 
HETATM    9  H2  UNL     1     -12.363  10.639  67.168  1.00  0.00     0.000 HD 
HETATM   10  C   UNL     1      -8.191  12.421  67.796  1.00  0.00    -0.163 A  
HETATM   11  C   UNL     1      -8.361  11.310  68.620  1.00  0.00    -0.146 A  
HETATM   12  H1  UNL     1     -12.101  10.008  68.698  1.00  0.00     0.000 HD 
ENDROOT
BRANCH   7  13
HETATM   13  N   UNL     1      -9.726   9.587  69.593  1.00  0.00    -0.187 NA 
HETATM   14  H   UNL     1      -9.536   8.629  69.298  1.00  0.00     0.000 HD 
BRANCH  13  15
HETATM   15  N   UNL     1     -10.082   9.902  70.745  1.00  0.00    -0.350 NA 
HETATM   16  H   UNL     1      -9.516  10.480  71.368  1.00  0.00     0.000 HD 
BRANCH  15  17
HETATM   17  C   UNL     1     -11.342   9.381  71.104  1.00  0.00    -0.351 A  
HETATM   18  C   UNL     1     -12.445  10.155  71.497  1.00  0.00    -0.526 A  
HETATM   19  C   UNL     1     -13.643   9.544  71.889  1.00  0.00    -0.468 A  
HETATM   20  C   UNL     1     -13.756   8.155  71.874  1.00  0.00    -0.395 A  
HETATM   21  C   UNL     1     -12.682   7.376  71.450  1.00  0.00    -0.408 A  
HETATM   22  C   UNL     1     -11.490   7.989  71.063  1.00  0.00    -0.300 A  
ENDBRANCH  15  17
ENDBRANCH  13  15
ENDBRANCH   7  13
TORSDOF 3
ENDMDL
MODEL       92
REMARK 921   NORMALIZED FREE ENERGY PREDICTED BY IDOCK:   -4.53 KCAL/MOL
REMARK 922        TOTAL FREE ENERGY PREDICTED BY IDOCK:   -5.86 KCAL/MOL
REMARK 923 INTER-LIGAND FREE ENERGY PREDICTED BY IDOCK:   -5.29 KCAL/MOL
REMARK 924 INTRA-LIGAND FREE ENERGY PREDICTED BY IDOCK:   -0.57 KCAL/MOL
REMARK 927      BINDING AFFINITY PREDICTED BY RF-SCORE:    0.00 PKD
ROOT
HETATM    1  N   UNL     1      -7.677  14.700  67.019  1.00  0.00    -0.323 NA 
HETATM    2  C   UNL     1      -8.696  13.865  67.467  1.00  0.00    -0.193 A  
HETATM    3  H2  UNL     1      -7.551  15.469  67.676  1.00  0.00     0.000 HD 
HETATM    4  H1  UNL     1      -6.776  14.261  66.829  1.00  0.00     0.000 HD 
HETATM    5  N   UNL     1      -9.883  14.443  67.717  1.00  0.00    -0.219 NA 
HETATM    6  C   UNL     1     -10.902  13.655  68.130  1.00  0.00    -0.246 A  
HETATM    7  C   UNL     1     -10.781  12.262  68.310  1.00  0.00    -0.221 A  
HETATM    8  N   UNL     1     -12.078  14.344  68.440  1.00  0.00    -0.574 NA 
HETATM    9  H2  UNL     1     -12.372  14.919  67.650  1.00  0.00     0.000 HD 
HETATM   10  C   UNL     1      -8.481  12.503  67.607  1.00  0.00    -0.171 A  
HETATM   11  C   UNL     1      -9.534  11.699  68.039  1.00  0.00    -0.185 A  
HETATM   12  H1  UNL     1     -12.847  13.749  68.751  1.00  0.00     0.000 HD 
ENDROOT
BRANCH   7  13
HETATM   13  N   UNL     1     -11.811  11.394  68.747  1.00  0.00    -0.399 NA 
HETATM   14  H   UNL     1     -12.219  10.660  68.169  1.00  0.00     0.000 HD 
BRANCH  13  15
HETATM   15  N   UNL     1     -12.161  11.631  69.920  1.00  0.00    -0.310 NA 
HETATM   16  H   UNL     1     -12.460  12.553  70.240  1.00  0.00     0.000 HD 
BRANCH  15  17
HETATM   17  C   UNL     1     -12.101  10.501  70.761  1.00  0.00    -0.370 A  
HETATM   18  C   UNL     1     -11.089   9.529  70.724  1.00  0.00    -0.390 A  
HETATM   19  C   UNL     1     -11.145   8.409  71.564  1.00  0.00    -0.329 A  
HETATM   20  C   UNL     1     -12.201   8.260  72.461  1.00  0.00    -0.367 A  
HETATM   21  C   UNL     1     -13.192   9.235  72.534  1.00  0.00    -0.439 A  
HETATM   22  C   UNL     1     -13.134  10.349  71.695  1.00  0.00    -0.553 A  
ENDBRANCH  15  17
ENDBRANCH  13  15
ENDBRANCH   7  13
TORSDOF 3
ENDMDL
MODEL       93
REMARK 921   NORMALIZED FREE ENERGY PREDICTED BY IDOCK:   -4.52 KCAL/MOL
REMARK 922        TOTAL FREE ENERGY PREDICTED BY IDOCK:   -5.85 KCAL/MOL
REMARK 923 INTER-LIGAND FREE ENERGY PREDICTED BY IDOCK:   -5.81 KCAL/MOL
REMARK 924 INTRA-LIGAND FREE ENERGY PREDICTED BY IDOCK:   -0.04 KCAL/MOL
REMARK 927      BINDING AFFINITY PREDICTED BY RF-SCORE:    0.00 PKD
ROOT
HETATM    1  N   UNL     1      -8.020  10.037  64.046  1.00  0.00    -0.148 NA 
HETATM    2  C   UNL     1      -9.207  10.713  64.316  1.00  0.00    -0.233 A  
HETATM    3  H2  UNL     1      -8.136   9.046  64.255  1.00  0.00     0.000 HD 
HETATM    4  H1  UNL     1      -7.634  10.146  63.109  1.00  0.00     0.000 HD 
HETATM    5  N   UNL     1      -9.715  10.568  65.552  1.00  0.00    -0.223 NA 
HETATM    6  C   UNL     1     -10.855  11.232  65.853  1.00  0.00    -0.202 A  
HETATM    7  C   UNL     1     -11.532  12.065  64.940  1.00  0.00    -0.294 A  
HETATM    8  N   UNL     1     -11.357  10.969  67.132  1.00  0.00    -0.427 NA 
HETATM    9  H2  UNL     1     -10.643  11.150  67.838  1.00  0.00     0.000 HD 
HETATM   10  C   UNL     1      -9.795  11.514  63.352  1.00  0.00    -0.422 A  
HETATM   11  C   UNL     1     -10.972  12.189  63.669  1.00  0.00    -0.527 A  
HETATM   12  H1  UNL     1     -12.216  11.469  67.359  1.00  0.00     0.000 HD 
ENDROOT
BRANCH   7  13
HETATM   13  N   UNL     1     -12.730  12.773  65.202  1.00  0.00    -0.740 NA 
HETATM   14  H   UNL     1     -13.524  12.380  65.706  1.00  0.00     0.000 HD 
BRANCH  13  15
HETATM   15  N   UNL     1     -12.701  13.933  64.745  1.00  0.00    -0.685 NA 
HETATM   16  H   UNL     1     -13.261  14.235  63.947  1.00  0.00     0.000 HD 
BRANCH  15  17
HETATM   17  C   UNL     1     -11.817  14.786  65.437  1.00  0.00    -0.249 A  
HETATM   18  C   UNL     1     -10.988  15.742  64.831  1.00  0.00    -0.443 A  
HETATM   19  C   UNL     1     -10.100  16.507  65.599  1.00  0.00    -0.278 A  
HETATM   20  C   UNL     1     -10.046  16.337  66.981  1.00  0.00    -0.270 A  
HETATM   21  C   UNL     1     -10.890  15.418  67.600  1.00  0.00    -0.304 A  
HETATM   22  C   UNL     1     -11.772  14.657  66.832  1.00  0.00    -0.366 A  
ENDBRANCH  15  17
ENDBRANCH  13  15
ENDBRANCH   7  13
TORSDOF 3
ENDMDL
MODEL       94
REMARK 921   NORMALIZED FREE ENERGY PREDICTED BY IDOCK:   -4.50 KCAL/MOL
REMARK 922        TOTAL FREE ENERGY PREDICTED BY IDOCK:   -5.82 KCAL/MOL
REMARK 923 INTER-LIGAND FREE ENERGY PREDICTED BY IDOCK:   -5.28 KCAL/MOL
REMARK 924 INTRA-LIGAND FREE ENERGY PREDICTED BY IDOCK:   -0.55 KCAL/MOL
REMARK 927      BINDING AFFINITY PREDICTED BY RF-SCORE:    0.00 PKD
ROOT
HETATM    1  N   UNL     1      -6.945  18.324  68.641  1.00  0.00    -0.253 NA 
HETATM    2  C   UNL     1      -8.002  17.565  68.148  1.00  0.00    -0.250 A  
HETATM    3  H2  UNL     1      -7.293  19.226  68.966  1.00  0.00     0.000 HD 
HETATM    4  H1  UNL     1      -6.374  17.895  69.369  1.00  0.00     0.000 HD 
HETATM    5  N   UNL     1      -8.754  18.131  67.189  1.00  0.00    -0.244 NA 
HETATM    6  C   UNL     1      -9.775  17.409  66.671  1.00  0.00    -0.290 A  
HETATM    7  C   UNL     1     -10.087  16.098  67.086  1.00  0.00    -0.269 A  
HETATM    8  N   UNL     1     -10.553  18.096  65.734  1.00  0.00    -0.553 NA 
HETATM    9  H2  UNL     1      -9.965  18.467  64.987  1.00  0.00     0.000 HD 
HETATM   10  C   UNL     1      -8.225  16.281  68.616  1.00  0.00    -0.214 A  
HETATM   11  C   UNL     1      -9.282  15.547  68.082  1.00  0.00    -0.189 A  
HETATM   12  H1  UNL     1     -11.323  17.552  65.344  1.00  0.00     0.000 HD 
ENDROOT
BRANCH   7  13
HETATM   13  N   UNL     1     -11.146  15.305  66.584  1.00  0.00    -0.309 NA 
HETATM   14  H   UNL     1     -11.881  14.904  67.166  1.00  0.00     0.000 HD 
BRANCH  13  15
HETATM   15  N   UNL     1     -11.078  15.154  65.348  1.00  0.00    -0.358 NA 
HETATM   16  H   UNL     1     -11.113  15.929  64.686  1.00  0.00     0.000 HD 
BRANCH  15  17
HETATM   17  C   UNL     1     -10.947  13.806  64.956  1.00  0.00    -0.357 A  
HETATM   18  C   UNL     1      -9.989  12.914  65.462  1.00  0.00    -0.226 A  
HETATM   19  C   UNL     1      -9.901  11.606  64.970  1.00  0.00    -0.280 A  
HETATM   20  C   UNL     1     -10.781  11.170  63.981  1.00  0.00    -0.409 A  
HETATM   21  C   UNL     1     -11.762  12.032  63.497  1.00  0.00    -0.566 A  
HETATM   22  C   UNL     1     -11.845  13.336  63.988  1.00  0.00    -0.512 A  
ENDBRANCH  15  17
ENDBRANCH  13  15
ENDBRANCH   7  13
TORSDOF 3
ENDMDL
MODEL       95
REMARK 921   NORMALIZED FREE ENERGY PREDICTED BY IDOCK:   -4.49 KCAL/MOL
REMARK 922        TOTAL FREE ENERGY PREDICTED BY IDOCK:   -5.81 KCAL/MOL
REMARK 923 INTER-LIGAND FREE ENERGY PREDICTED BY IDOCK:   -5.42 KCAL/MOL
REMARK 924 INTRA-LIGAND FREE ENERGY PREDICTED BY IDOCK:   -0.39 KCAL/MOL
REMARK 927      BINDING AFFINITY PREDICTED BY RF-SCORE:    0.00 PKD
ROOT
HETATM    1  N   UNL     1      -8.706   8.829  64.323  1.00  0.00    -0.402 NA 
HETATM    2  C   UNL     1      -9.103   9.422  65.518  1.00  0.00    -0.218 A  
HETATM    3  H2  UNL     1      -8.492   9.552  63.637  1.00  0.00     0.000 HD 
HETATM    4  H1  UNL     1      -7.931   8.168  64.375  1.00  0.00     0.000 HD 
HETATM    5  N   UNL     1     -10.123  10.293  65.449  1.00  0.00    -0.298 NA 
HETATM    6  C   UNL     1     -10.549  10.868  66.597  1.00  0.00    -0.249 A  
HETATM    7  C   UNL     1      -9.979  10.598  67.858  1.00  0.00    -0.166 A  
HETATM    8  N   UNL     1     -11.563  11.816  66.428  1.00  0.00    -0.485 NA 
HETATM    9  H2  UNL     1     -12.350  11.409  65.921  1.00  0.00     0.000 HD 
HETATM   10  C   UNL     1      -8.482   9.087  66.710  1.00  0.00    -0.121 A  
HETATM   11  C   UNL     1      -8.923   9.688  67.887  1.00  0.00    -0.120 A  
HETATM   12  H1  UNL     1     -11.885  12.250  67.294  1.00  0.00     0.000 HD 
ENDROOT
BRANCH   7  13
HETATM   13  N   UNL     1     -10.381  11.177  69.085  1.00  0.00    -0.338 NA 
HETATM   14  H   UNL     1     -10.957  12.015  69.157  1.00  0.00     0.000 HD 
BRANCH  13  15
HETATM   15  N   UNL     1      -9.949  10.544  70.069  1.00  0.00    -0.400 NA 
HETATM   16  H   UNL     1      -8.955  10.416  70.260  1.00  0.00     0.000 HD 
BRANCH  15  17
HETATM   17  C   UNL     1     -10.969  10.024  70.891  1.00  0.00    -0.267 A  
HETATM   18  C   UNL     1     -10.859   8.853  71.657  1.00  0.00    -0.420 A  
HETATM   19  C   UNL     1     -11.949   8.383  72.402  1.00  0.00    -0.451 A  
HETATM   20  C   UNL     1     -13.151   9.088  72.403  1.00  0.00    -0.487 A  
HETATM   21  C   UNL     1     -13.261  10.271  71.678  1.00  0.00    -0.509 A  
HETATM   22  C   UNL     1     -12.175  10.735  70.935  1.00  0.00    -0.487 A  
ENDBRANCH  15  17
ENDBRANCH  13  15
ENDBRANCH   7  13
TORSDOF 3
ENDMDL
MODEL       96
REMARK 921   NORMALIZED FREE ENERGY PREDICTED BY IDOCK:   -4.49 KCAL/MOL
REMARK 922        TOTAL FREE ENERGY PREDICTED BY IDOCK:   -5.81 KCAL/MOL
REMARK 923 INTER-LIGAND FREE ENERGY PREDICTED BY IDOCK:   -5.19 KCAL/MOL
REMARK 924 INTRA-LIGAND FREE ENERGY PREDICTED BY IDOCK:   -0.62 KCAL/MOL
REMARK 927      BINDING AFFINITY PREDICTED BY RF-SCORE:    0.00 PKD
ROOT
HETATM    1  N   UNL     1      -5.363  21.107  69.197  1.00  0.00    -0.416 NA 
HETATM    2  C   UNL     1      -6.038  20.237  68.345  1.00  0.00    -0.288 A  
HETATM    3  H2  UNL     1      -6.030  21.555  69.825  1.00  0.00     0.000 HD 
HETATM    4  H1  UNL     1      -4.595  20.713  69.738  1.00  0.00     0.000 HD 
HETATM    5  N   UNL     1      -7.051  20.756  67.632  1.00  0.00    -0.325 NA 
HETATM    6  C   UNL     1      -7.711  19.942  66.776  1.00  0.00    -0.290 A  
HETATM    7  C   UNL     1      -7.389  18.582  66.596  1.00  0.00    -0.224 A  
HETATM    8  N   UNL     1      -8.797  20.540  66.130  1.00  0.00    -0.545 NA 
HETATM    9  H2  UNL     1      -8.502  21.392  65.653  1.00  0.00     0.000 HD 
HETATM   10  C   UNL     1      -5.641  18.914  68.232  1.00  0.00    -0.191 A  
HETATM   11  C   UNL     1      -6.330  18.081  67.353  1.00  0.00    -0.174 A  
HETATM   12  H1  UNL     1      -9.295  19.926  65.484  1.00  0.00     0.000 HD 
ENDROOT
BRANCH   7  13
HETATM   13  N   UNL     1      -8.051  17.686  65.722  1.00  0.00    -0.538 NA 
HETATM   14  H   UNL     1      -7.572  17.099  65.040  1.00  0.00     0.000 HD 
BRANCH  13  15
HETATM   15  N   UNL     1      -9.288  17.699  65.881  1.00  0.00    -0.524 NA 
HETATM   16  H   UNL     1      -9.925  18.222  65.279  1.00  0.00     0.000 HD 
BRANCH  15  17
HETATM   17  C   UNL     1      -9.719  16.923  66.976  1.00  0.00    -0.253 A  
HETATM   18  C   UNL     1     -10.490  17.406  68.045  1.00  0.00    -0.383 A  
HETATM   19  C   UNL     1     -10.825  16.570  69.118  1.00  0.00    -0.334 A  
HETATM   20  C   UNL     1     -10.408  15.240  69.125  1.00  0.00    -0.248 A  
HETATM   21  C   UNL     1      -9.674  14.738  68.053  1.00  0.00    -0.213 A  
HETATM   22  C   UNL     1      -9.341  15.574  66.986  1.00  0.00    -0.239 A  
ENDBRANCH  15  17
ENDBRANCH  13  15
ENDBRANCH   7  13
TORSDOF 3
ENDMDL
MODEL       97
REMARK 921   NORMALIZED FREE ENERGY PREDICTED BY IDOCK:   -4.49 KCAL/MOL
REMARK 922        TOTAL FREE ENERGY PREDICTED BY IDOCK:   -5.80 KCAL/MOL
REMARK 923 INTER-LIGAND FREE ENERGY PREDICTED BY IDOCK:   -5.42 KCAL/MOL
REMARK 924 INTRA-LIGAND FREE ENERGY PREDICTED BY IDOCK:   -0.39 KCAL/MOL
REMARK 927      BINDING AFFINITY PREDICTED BY RF-SCORE:    0.00 PKD
ROOT
HETATM    1  N   UNL     1     -10.691   4.908  72.514  1.00  0.00    -0.211 NA 
HETATM    2  C   UNL     1     -11.143   6.110  71.978  1.00  0.00    -0.274 A  
HETATM    3  H2  UNL     1     -11.488   4.314  72.742  1.00  0.00     0.000 HD 
HETATM    4  H1  UNL     1     -10.021   4.381  71.954  1.00  0.00     0.000 HD 
HETATM    5  N   UNL     1     -12.025   6.805  72.715  1.00  0.00     0.077 NA 
HETATM    6  C   UNL     1     -12.465   7.990  72.234  1.00  0.00    -0.261 A  
HETATM    7  C   UNL     1     -12.045   8.531  71.002  1.00  0.00    -0.205 A  
HETATM    8  N   UNL     1     -13.436   8.612  73.025  1.00  0.00    -0.866 NA 
HETATM    9  H2  UNL     1     -13.099   8.720  73.982  1.00  0.00     0.000 HD 
HETATM   10  C   UNL     1     -10.664   6.561  70.758  1.00  0.00    -0.290 A  
HETATM   11  C   UNL     1     -11.128   7.780  70.267  1.00  0.00    -0.242 A  
HETATM   12  H1  UNL     1     -13.768   9.506  72.661  1.00  0.00     0.000 HD 
ENDROOT
BRANCH   7  13
HETATM   13  N   UNL     1     -12.479   9.760  70.449  1.00  0.00    -0.495 NA 
HETATM   14  H   UNL     1     -12.723   9.887  69.467  1.00  0.00     0.000 HD 
BRANCH  13  15
HETATM   15  N   UNL     1     -12.531  10.668  71.302  1.00  0.00    -0.390 NA 
HETATM   16  H   UNL     1     -12.686  10.495  72.295  1.00  0.00     0.000 HD 
BRANCH  15  17
HETATM   17  C   UNL     1     -12.355  11.957  70.758  1.00  0.00    -0.320 A  
HETATM   18  C   UNL     1     -11.722  12.229  69.535  1.00  0.00    -0.398 A  
HETATM   19  C   UNL     1     -11.545  13.550  69.102  1.00  0.00    -0.359 A  
HETATM   20  C   UNL     1     -12.015  14.609  69.877  1.00  0.00    -0.381 A  
HETATM   21  C   UNL     1     -12.678  14.351  71.074  1.00  0.00    -0.416 A  
HETATM   22  C   UNL     1     -12.851  13.034  71.503  1.00  0.00    -0.386 A  
ENDBRANCH  15  17
ENDBRANCH  13  15
ENDBRANCH   7  13
TORSDOF 3
ENDMDL
MODEL       98
REMARK 921   NORMALIZED FREE ENERGY PREDICTED BY IDOCK:   -4.48 KCAL/MOL
REMARK 922        TOTAL FREE ENERGY PREDICTED BY IDOCK:   -5.79 KCAL/MOL
REMARK 923 INTER-LIGAND FREE ENERGY PREDICTED BY IDOCK:   -5.23 KCAL/MOL
REMARK 924 INTRA-LIGAND FREE ENERGY PREDICTED BY IDOCK:   -0.56 KCAL/MOL
REMARK 927      BINDING AFFINITY PREDICTED BY RF-SCORE:    0.00 PKD
ROOT
HETATM    1  N   UNL     1      -9.239   7.472  74.557  1.00  0.00    -0.405 NA 
HETATM    2  C   UNL     1      -9.828   7.847  73.353  1.00  0.00    -0.230 A  
HETATM    3  H2  UNL     1      -8.861   8.296  75.024  1.00  0.00     0.000 HD 
HETATM    4  H1  UNL     1      -9.822   6.947  75.208  1.00  0.00     0.000 HD 
HETATM    5  N   UNL     1      -9.059   8.538  72.495  1.00  0.00    -0.312 NA 
HETATM    6  C   UNL     1      -9.595   8.897  71.306  1.00  0.00    -0.278 A  
HETATM    7  C   UNL     1     -10.914   8.581  70.922  1.00  0.00    -0.251 A  
HETATM    8  N   UNL     1      -8.756   9.677  70.504  1.00  0.00    -0.286 NA 
HETATM    9  H2  UNL     1      -7.861   9.207  70.364  1.00  0.00     0.000 HD 
HETATM   10  C   UNL     1     -11.133   7.483  73.065  1.00  0.00    -0.413 A  
HETATM   11  C   UNL     1     -11.679   7.862  71.840  1.00  0.00    -0.342 A  
HETATM   12  H1  UNL     1      -9.159   9.947  69.607  1.00  0.00     0.000 HD 
ENDROOT
BRANCH   7  13
HETATM   13  N   UNL     1     -11.525   8.938  69.696  1.00  0.00    -0.420 NA 
HETATM   14  H   UNL     1     -11.712   8.279  68.941  1.00  0.00     0.000 HD 
BRANCH  13  15
HETATM   15  N   UNL     1     -11.807  10.151  69.646  1.00  0.00    -0.469 NA 
HETATM   16  H   UNL     1     -12.208  10.666  70.430  1.00  0.00     0.000 HD 
BRANCH  15  17
HETATM   17  C   UNL     1     -11.520  10.741  68.398  1.00  0.00    -0.288 A  
HETATM   18  C   UNL     1     -11.027  10.050  67.280  1.00  0.00    -0.225 A  
HETATM   19  C   UNL     1     -10.718  10.733  66.097  1.00  0.00    -0.187 A  
HETATM   20  C   UNL     1     -10.916  12.110  66.013  1.00  0.00    -0.332 A  
HETATM   21  C   UNL     1     -11.440  12.803  67.101  1.00  0.00    -0.394 A  
HETATM   22  C   UNL     1     -11.744  12.119  68.279  1.00  0.00    -0.401 A  
ENDBRANCH  15  17
ENDBRANCH  13  15
ENDBRANCH   7  13
TORSDOF 3
ENDMDL
MODEL       99
REMARK 921   NORMALIZED FREE ENERGY PREDICTED BY IDOCK:   -4.47 KCAL/MOL
REMARK 922        TOTAL FREE ENERGY PREDICTED BY IDOCK:   -5.79 KCAL/MOL
REMARK 923 INTER-LIGAND FREE ENERGY PREDICTED BY IDOCK:   -5.34 KCAL/MOL
REMARK 924 INTRA-LIGAND FREE ENERGY PREDICTED BY IDOCK:   -0.45 KCAL/MOL
REMARK 927      BINDING AFFINITY PREDICTED BY RF-SCORE:    0.00 PKD
ROOT
HETATM    1  N   UNL     1     -13.506   9.001  72.762  1.00  0.00    -0.803 NA 
HETATM    2  C   UNL     1     -13.088  10.005  71.892  1.00  0.00    -0.460 A  
HETATM    3  H2  UNL     1     -12.701   8.452  73.062  1.00  0.00     0.000 HD 
HETATM    4  H1  UNL     1     -14.043   9.296  73.577  1.00  0.00     0.000 HD 
HETATM    5  N   UNL     1     -12.381   9.617  70.819  1.00  0.00    -0.244 NA 
HETATM    6  C   UNL     1     -11.981  10.566  69.942  1.00  0.00    -0.264 A  
HETATM    7  C   UNL     1     -12.269  11.937  70.098  1.00  0.00    -0.241 A  
HETATM    8  N   UNL     1     -11.187  10.089  68.893  1.00  0.00    -0.427 NA 
HETATM    9  H2  UNL     1     -11.664   9.331  68.404  1.00  0.00     0.000 HD 
HETATM   10  C   UNL     1     -13.427  11.327  72.130  1.00  0.00    -0.197 A  
HETATM   11  C   UNL     1     -13.006  12.300  71.225  1.00  0.00    -0.299 A  
HETATM   12  H1  UNL     1     -10.886  10.805  68.232  1.00  0.00     0.000 HD 
ENDROOT
BRANCH   7  13
HETATM   13  N   UNL     1     -11.868  12.970  69.216  1.00  0.00    -0.317 NA 
HETATM   14  H   UNL     1     -12.474  13.376  68.503  1.00  0.00     0.000 HD 
BRANCH  13  15
HETATM   15  N   UNL     1     -10.689  13.326  69.411  1.00  0.00    -0.438 NA 
HETATM   16  H   UNL     1     -10.152  13.055  70.236  1.00  0.00     0.000 HD 
BRANCH  15  17
HETATM   17  C   UNL     1     -10.172  14.139  68.382  1.00  0.00    -0.247 A  
HETATM   18  C   UNL     1     -10.941  14.984  67.567  1.00  0.00    -0.307 A  
HETATM   19  C   UNL     1     -10.344  15.714  66.532  1.00  0.00    -0.296 A  
HETATM   20  C   UNL     1      -8.972  15.621  66.312  1.00  0.00    -0.377 A  
HETATM   21  C   UNL     1      -8.190  14.816  67.137  1.00  0.00    -0.239 A  
HETATM   22  C   UNL     1      -8.789  14.088  68.166  1.00  0.00    -0.182 A  
ENDBRANCH  15  17
ENDBRANCH  13  15
ENDBRANCH   7  13
TORSDOF 3
ENDMDL
MODEL      100
REMARK 921   NORMALIZED FREE ENERGY PREDICTED BY IDOCK:   -4.47 KCAL/MOL
REMARK 922        TOTAL FREE ENERGY PREDICTED BY IDOCK:   -5.78 KCAL/MOL
REMARK 923 INTER-LIGAND FREE ENERGY PREDICTED BY IDOCK:   -5.43 KCAL/MOL
REMARK 924 INTRA-LIGAND FREE ENERGY PREDICTED BY IDOCK:   -0.36 KCAL/MOL
REMARK 927      BINDING AFFINITY PREDICTED BY RF-SCORE:    0.00 PKD
ROOT
HETATM    1  N   UNL     1     -12.515  13.623  63.385  1.00  0.00    -1.016 NA 
HETATM    2  C   UNL     1     -11.667  14.368  64.199  1.00  0.00    -0.227 A  
HETATM    3  H2  UNL     1     -13.006  12.929  63.947  1.00  0.00     0.000 HD 
HETATM    4  H1  UNL     1     -13.186  14.146  62.823  1.00  0.00     0.000 HD 
HETATM    5  N   UNL     1     -10.783  13.680  64.940  1.00  0.00    -0.367 NA 
HETATM    6  C   UNL     1      -9.928  14.377  65.724  1.00  0.00    -0.329 A  
HETATM    7  C   UNL     1      -9.919  15.784  65.801  1.00  0.00    -0.358 A  
HETATM    8  N   UNL     1      -9.093  13.584  66.517  1.00  0.00    -0.436 NA 
HETATM    9  H2  UNL     1      -8.581  12.918  65.938  1.00  0.00     0.000 HD 
HETATM   10  C   UNL     1     -11.732  15.753  64.202  1.00  0.00    -0.070 A  
HETATM   11  C   UNL     1     -10.852  16.463  65.017  1.00  0.00    -0.289 A  
HETATM   12  H1  UNL     1      -8.448  14.110  67.108  1.00  0.00     0.000 HD 
ENDROOT
BRANCH   7  13
HETATM   13  N   UNL     1      -9.054  16.560  66.609  1.00  0.00    -0.236 NA 
HETATM   14  H   UNL     1      -8.246  16.182  67.103  1.00  0.00     0.000 HD 
BRANCH  13  15
HETATM   15  N   UNL     1      -9.393  17.760  66.647  1.00  0.00    -0.279 NA 
HETATM   16  H   UNL     1     -10.363  18.065  66.734  1.00  0.00     0.000 HD 
BRANCH  15  17
HETATM   17  C   UNL     1      -8.305  18.652  66.558  1.00  0.00    -0.291 A  
HETATM   18  C   UNL     1      -7.106  18.386  65.880  1.00  0.00    -0.290 A  
HETATM   19  C   UNL     1      -6.057  19.314  65.892  1.00  0.00    -0.213 A  
HETATM   20  C   UNL     1      -6.204  20.525  66.567  1.00  0.00    -0.253 A  
HETATM   21  C   UNL     1      -7.402  20.818  67.212  1.00  0.00    -0.397 A  
HETATM   22  C   UNL     1      -8.444  19.890  67.199  1.00  0.00    -0.376 A  
ENDBRANCH  15  17
ENDBRANCH  13  15
ENDBRANCH   7  13
TORSDOF 3
ENDMDL
MODEL      101
REMARK 921   NORMALIZED FREE ENERGY PREDICTED BY IDOCK:   -4.47 KCAL/MOL
REMARK 922        TOTAL FREE ENERGY PREDICTED BY IDOCK:   -5.78 KCAL/MOL
REMARK 923 INTER-LIGAND FREE ENERGY PREDICTED BY IDOCK:   -5.27 KCAL/MOL
REMARK 924 INTRA-LIGAND FREE ENERGY PREDICTED BY IDOCK:   -0.51 KCAL/MOL
REMARK 927      BINDING AFFINITY PREDICTED BY RF-SCORE:    0.00 PKD
ROOT
HETATM    1  N   UNL     1      -8.417   6.818  71.423  1.00  0.00    -0.120 NA 
HETATM    2  C   UNL     1      -9.184   7.672  70.636  1.00  0.00    -0.162 A  
HETATM    3  H2  UNL     1      -7.677   6.405  70.857  1.00  0.00     0.000 HD 
HETATM    4  H1  UNL     1      -8.017   7.215  72.273  1.00  0.00     0.000 HD 
HETATM    5  N   UNL     1      -9.711   7.149  69.517  1.00  0.00    -0.157 NA 
HETATM    6  C   UNL     1     -10.483   7.947  68.743  1.00  0.00    -0.176 A  
HETATM    7  C   UNL     1     -10.761   9.294  69.052  1.00  0.00    -0.167 A  
HETATM    8  N   UNL     1     -10.930   7.350  67.560  1.00  0.00    -0.537 NA 
HETATM    9  H2  UNL     1     -11.416   6.476  67.765  1.00  0.00     0.000 HD 
HETATM   10  C   UNL     1      -9.405   8.983  71.029  1.00  0.00    -0.339 A  
HETATM   11  C   UNL     1     -10.196   9.799  70.223  1.00  0.00    -0.346 A  
HETATM   12  H1  UNL     1     -11.512   7.951  66.976  1.00  0.00     0.000 HD 
ENDROOT
BRANCH   7  13
HETATM   13  N   UNL     1     -11.553  10.173  68.274  1.00  0.00    -0.663 NA 
HETATM   14  H   UNL     1     -12.480  10.495  68.548  1.00  0.00     0.000 HD 
BRANCH  13  15
HETATM   15  N   UNL     1     -10.985  10.507  67.215  1.00  0.00    -0.285 NA 
HETATM   16  H   UNL     1     -10.263   9.944  66.765  1.00  0.00     0.000 HD 
BRANCH  15  17
HETATM   17  C   UNL     1     -11.438  11.740  66.702  1.00  0.00    -0.267 A  
HETATM   18  C   UNL     1     -11.573  12.918  67.453  1.00  0.00    -0.414 A  
HETATM   19  C   UNL     1     -12.085  14.083  66.868  1.00  0.00    -0.465 A  
HETATM   20  C   UNL     1     -12.450  14.087  65.523  1.00  0.00    -0.533 A  
HETATM   21  C   UNL     1     -12.287  12.936  64.757  1.00  0.00    -0.516 A  
HETATM   22  C   UNL     1     -11.778  11.776  65.344  1.00  0.00    -0.117 A  
ENDBRANCH  15  17
ENDBRANCH  13  15
ENDBRANCH   7  13
TORSDOF 3
ENDMDL
MODEL      102
REMARK 921   NORMALIZED FREE ENERGY PREDICTED BY IDOCK:   -4.46 KCAL/MOL
REMARK 922        TOTAL FREE ENERGY PREDICTED BY IDOCK:   -5.77 KCAL/MOL
REMARK 923 INTER-LIGAND FREE ENERGY PREDICTED BY IDOCK:   -5.27 KCAL/MOL
REMARK 924 INTRA-LIGAND FREE ENERGY PREDICTED BY IDOCK:   -0.50 KCAL/MOL
REMARK 927      BINDING AFFINITY PREDICTED BY RF-SCORE:    0.00 PKD
ROOT
HETATM    1  N   UNL     1     -14.232   8.944  73.221  1.00  0.00    -1.237 NA 
HETATM    2  C   UNL     1     -13.182   9.206  72.345  1.00  0.00    -0.444 A  
HETATM    3  H2  UNL     1     -13.885   8.939  74.179  1.00  0.00     0.000 HD 
HETATM    4  H1  UNL     1     -15.046   9.555  73.155  1.00  0.00     0.000 HD 
HETATM    5  N   UNL     1     -12.110   8.402  72.431  1.00  0.00    -0.389 NA 
HETATM    6  C   UNL     1     -11.083   8.615  71.578  1.00  0.00    -0.288 A  
HETATM    7  C   UNL     1     -11.082   9.635  70.604  1.00  0.00    -0.319 A  
HETATM    8  N   UNL     1      -9.977   7.784  71.783  1.00  0.00    -0.172 NA 
HETATM    9  H2  UNL     1     -10.260   6.804  71.761  1.00  0.00     0.000 HD 
HETATM   10  C   UNL     1     -13.279  10.231  71.418  1.00  0.00    -0.464 A  
HETATM   11  C   UNL     1     -12.213  10.448  70.546  1.00  0.00    -0.412 A  
HETATM   12  H1  UNL     1      -9.202   7.945  71.139  1.00  0.00     0.000 HD 
ENDROOT
BRANCH   7  13
HETATM   13  N   UNL     1     -10.032   9.906  69.694  1.00  0.00    -0.218 NA 
HETATM   14  H   UNL     1      -9.436  10.732  69.743  1.00  0.00     0.000 HD 
BRANCH  13  15
HETATM   15  N   UNL     1      -9.919   9.017  68.826  1.00  0.00    -0.176 NA 
HETATM   16  H   UNL     1     -10.155   8.038  68.993  1.00  0.00     0.000 HD 
BRANCH  15  17
HETATM   17  C   UNL     1      -9.433   9.498  67.593  1.00  0.00    -0.131 A  
HETATM   18  C   UNL     1      -8.430  10.468  67.452  1.00  0.00    -0.122 A  
HETATM   19  C   UNL     1      -8.051  10.924  66.183  1.00  0.00    -0.160 A  
HETATM   20  C   UNL     1      -8.657  10.401  65.043  1.00  0.00    -0.190 A  
HETATM   21  C   UNL     1      -9.628   9.410  65.166  1.00  0.00    -0.195 A  
HETATM   22  C   UNL     1     -10.005   8.960  66.432  1.00  0.00    -0.354 A  
ENDBRANCH  15  17
ENDBRANCH  13  15
ENDBRANCH   7  13
TORSDOF 3
ENDMDL
MODEL      103
REMARK 921   NORMALIZED FREE ENERGY PREDICTED BY IDOCK:   -4.45 KCAL/MOL
REMARK 922        TOTAL FREE ENERGY PREDICTED BY IDOCK:   -5.76 KCAL/MOL
REMARK 923 INTER-LIGAND FREE ENERGY PREDICTED BY IDOCK:   -5.28 KCAL/MOL
REMARK 924 INTRA-LIGAND FREE ENERGY PREDICTED BY IDOCK:   -0.48 KCAL/MOL
REMARK 927      BINDING AFFINITY PREDICTED BY RF-SCORE:    0.00 PKD
ROOT
HETATM    1  N   UNL     1      -9.947  12.638  63.664  1.00  0.00    -0.678 NA 
HETATM    2  C   UNL     1     -10.345  12.012  64.843  1.00  0.00    -0.278 A  
HETATM    3  H2  UNL     1     -10.179  12.045  62.868  1.00  0.00     0.000 HD 
HETATM    4  H1  UNL     1     -10.303  13.580  63.504  1.00  0.00     0.000 HD 
HETATM    5  N   UNL     1      -9.877  10.771  65.054  1.00  0.00    -0.264 NA 
HETATM    6  C   UNL     1     -10.225  10.145  66.202  1.00  0.00    -0.215 A  
HETATM    7  C   UNL     1     -11.050  10.730  67.185  1.00  0.00    -0.227 A  
HETATM    8  N   UNL     1      -9.759   8.831  66.310  1.00  0.00    -0.276 NA 
HETATM    9  H2  UNL     1      -8.747   8.802  66.182  1.00  0.00     0.000 HD 
HETATM   10  C   UNL     1     -11.156  12.673  65.751  1.00  0.00    -0.332 A  
HETATM   11  C   UNL     1     -11.514  12.020  66.929  1.00  0.00    -0.402 A  
HETATM   12  H1  UNL     1     -10.021   8.360  67.176  1.00  0.00     0.000 HD 
ENDROOT
BRANCH   7  13
HETATM   13  N   UNL     1     -11.450  10.117  68.396  1.00  0.00    -0.552 NA 
HETATM   14  H   UNL     1     -12.411  10.108  68.739  1.00  0.00     0.000 HD 
BRANCH  13  15
HETATM   15  N   UNL     1     -10.493   9.590  68.997  1.00  0.00    -0.208 NA 
HETATM   16  H   UNL     1      -9.535   9.938  68.938  1.00  0.00     0.000 HD 
BRANCH  15  17
HETATM   17  C   UNL     1     -10.863   8.467  69.764  1.00  0.00    -0.183 A  
HETATM   18  C   UNL     1     -10.836   7.141  69.306  1.00  0.00    -0.204 A  
HETATM   19  C   UNL     1     -11.276   6.093  70.126  1.00  0.00    -0.452 A  
HETATM   20  C   UNL     1     -11.731   6.359  71.416  1.00  0.00    -0.364 A  
HETATM   21  C   UNL     1     -11.728   7.666  71.897  1.00  0.00    -0.328 A  
HETATM   22  C   UNL     1     -11.291   8.707  71.077  1.00  0.00    -0.322 A  
ENDBRANCH  15  17
ENDBRANCH  13  15
ENDBRANCH   7  13
TORSDOF 3
ENDMDL
MODEL      104
REMARK 921   NORMALIZED FREE ENERGY PREDICTED BY IDOCK:   -4.44 KCAL/MOL
REMARK 922        TOTAL FREE ENERGY PREDICTED BY IDOCK:   -5.75 KCAL/MOL
REMARK 923 INTER-LIGAND FREE ENERGY PREDICTED BY IDOCK:   -5.53 KCAL/MOL
REMARK 924 INTRA-LIGAND FREE ENERGY PREDICTED BY IDOCK:   -0.22 KCAL/MOL
REMARK 927      BINDING AFFINITY PREDICTED BY RF-SCORE:    0.00 PKD
ROOT
HETATM    1  N   UNL     1     -11.049  16.274  70.475  1.00  0.00    -0.329 NA 
HETATM    2  C   UNL     1     -11.190  15.895  69.143  1.00  0.00    -0.334 A  
HETATM    3  H2  UNL     1     -11.296  17.258  70.579  1.00  0.00     0.000 HD 
HETATM    4  H1  UNL     1     -11.555  15.720  71.165  1.00  0.00     0.000 HD 
HETATM    5  N   UNL     1     -10.524  16.626  68.234  1.00  0.00    -0.304 NA 
HETATM    6  C   UNL     1     -10.621  16.268  66.933  1.00  0.00    -0.270 A  
HETATM    7  C   UNL     1     -11.384  15.170  66.486  1.00  0.00    -0.234 A  
HETATM    8  N   UNL     1      -9.960  17.123  66.046  1.00  0.00    -0.478 NA 
HETATM    9  H2  UNL     1      -8.980  17.224  66.315  1.00  0.00     0.000 HD 
HETATM   10  C   UNL     1     -11.960  14.795  68.803  1.00  0.00    -0.292 A  
HETATM   11  C   UNL     1     -12.060  14.437  67.460  1.00  0.00    -0.327 A  
HETATM   12  H1  UNL     1     -10.033  16.853  65.065  1.00  0.00     0.000 HD 
ENDROOT
BRANCH   7  13
HETATM   13  N   UNL     1     -11.526  14.759  65.139  1.00  0.00    -0.361 NA 
HETATM   14  H   UNL     1     -12.416  14.736  64.642  1.00  0.00     0.000 HD 
BRANCH  13  15
HETATM   15  N   UNL     1     -10.437  14.428  64.629  1.00  0.00    -0.569 NA 
HETATM   16  H   UNL     1      -9.767  15.101  64.254  1.00  0.00     0.000 HD 
BRANCH  15  17
HETATM   17  C   UNL     1     -10.222  13.035  64.623  1.00  0.00    -0.302 A  
HETATM   18  C   UNL     1     -10.353  12.210  63.495  1.00  0.00    -0.473 A  
HETATM   19  C   UNL     1     -10.172  10.825  63.598  1.00  0.00    -0.327 A  
HETATM   20  C   UNL     1      -9.841  10.253  64.825  1.00  0.00    -0.403 A  
HETATM   21  C   UNL     1      -9.670  11.064  65.944  1.00  0.00    -0.267 A  
HETATM   22  C   UNL     1      -9.853  12.443  65.838  1.00  0.00    -0.265 A  
ENDBRANCH  15  17
ENDBRANCH  13  15
ENDBRANCH   7  13
TORSDOF 3
ENDMDL
MODEL      105
REMARK 921   NORMALIZED FREE ENERGY PREDICTED BY IDOCK:   -4.41 KCAL/MOL
REMARK 922        TOTAL FREE ENERGY PREDICTED BY IDOCK:   -5.72 KCAL/MOL
REMARK 923 INTER-LIGAND FREE ENERGY PREDICTED BY IDOCK:   -5.16 KCAL/MOL
REMARK 924 INTRA-LIGAND FREE ENERGY PREDICTED BY IDOCK:   -0.56 KCAL/MOL
REMARK 927      BINDING AFFINITY PREDICTED BY RF-SCORE:    0.00 PKD
ROOT
HETATM    1  N   UNL     1      -9.778  20.587  65.995  1.00  0.00    -0.629 NA 
HETATM    2  C   UNL     1      -9.543  19.274  66.395  1.00  0.00    -0.371 A  
HETATM    3  H2  UNL     1      -9.548  20.690  65.007  1.00  0.00     0.000 HD 
HETATM    4  H1  UNL     1     -10.712  20.957  66.169  1.00  0.00     0.000 HD 
HETATM    5  N   UNL     1      -8.313  18.786  66.165  1.00  0.00    -0.461 NA 
HETATM    6  C   UNL     1      -8.044  17.521  66.564  1.00  0.00    -0.270 A  
HETATM    7  C   UNL     1      -8.987  16.694  67.207  1.00  0.00    -0.200 A  
HETATM    8  N   UNL     1      -6.768  17.064  66.221  1.00  0.00    -0.184 NA 
HETATM    9  H2  UNL     1      -6.055  17.706  66.570  1.00  0.00     0.000 HD 
HETATM   10  C   UNL     1     -10.535  18.542  67.026  1.00  0.00    -0.440 A  
HETATM   11  C   UNL     1     -10.252  17.238  67.428  1.00  0.00    -0.325 A  
HETATM   12  H1  UNL     1      -6.565  16.111  66.522  1.00  0.00     0.000 HD 
ENDROOT
BRANCH   7  13
HETATM   13  N   UNL     1      -8.761  15.364  67.636  1.00  0.00    -0.163 NA 
HETATM   14  H   UNL     1      -8.550  15.106  68.600  1.00  0.00     0.000 HD 
BRANCH  13  15
HETATM   15  N   UNL     1      -8.848  14.545  66.700  1.00  0.00    -0.412 NA 
HETATM   16  H   UNL     1      -8.362  14.658  65.810  1.00  0.00     0.000 HD 
BRANCH  15  17
HETATM   17  C   UNL     1      -9.685  13.449  66.993  1.00  0.00    -0.239 A  
HETATM   18  C   UNL     1     -10.111  13.088  68.281  1.00  0.00    -0.239 A  
HETATM   19  C   UNL     1     -10.899  11.947  68.479  1.00  0.00    -0.257 A  
HETATM   20  C   UNL     1     -11.285  11.167  67.391  1.00  0.00    -0.363 A  
HETATM   21  C   UNL     1     -10.901  11.534  66.103  1.00  0.00    -0.330 A  
HETATM   22  C   UNL     1     -10.114  12.670  65.910  1.00  0.00    -0.276 A  
ENDBRANCH  15  17
ENDBRANCH  13  15
ENDBRANCH   7  13
TORSDOF 3
ENDMDL
MODEL      106
REMARK 921   NORMALIZED FREE ENERGY PREDICTED BY IDOCK:   -4.40 KCAL/MOL
REMARK 922        TOTAL FREE ENERGY PREDICTED BY IDOCK:   -5.70 KCAL/MOL
REMARK 923 INTER-LIGAND FREE ENERGY PREDICTED BY IDOCK:   -5.34 KCAL/MOL
REMARK 924 INTRA-LIGAND FREE ENERGY PREDICTED BY IDOCK:   -0.36 KCAL/MOL
REMARK 927      BINDING AFFINITY PREDICTED BY RF-SCORE:    0.00 PKD
ROOT
HETATM    1  N   UNL     1     -11.844   8.457  72.253  1.00  0.00    -0.373 NA 
HETATM    2  C   UNL     1     -11.458   8.858  70.978  1.00  0.00    -0.294 A  
HETATM    3  H2  UNL     1     -11.069   7.977  72.709  1.00  0.00     0.000 HD 
HETATM    4  H1  UNL     1     -12.207   9.183  72.871  1.00  0.00     0.000 HD 
HETATM    5  N   UNL     1     -10.978   7.903  70.164  1.00  0.00    -0.251 NA 
HETATM    6  C   UNL     1     -10.617   8.256  68.909  1.00  0.00    -0.139 A  
HETATM    7  C   UNL     1     -10.720   9.573  68.414  1.00  0.00    -0.186 A  
HETATM    8  N   UNL     1     -10.059   7.221  68.153  1.00  0.00    -0.166 NA 
HETATM    9  H2  UNL     1     -10.690   6.419  68.130  1.00  0.00     0.000 HD 
HETATM   10  C   UNL     1     -11.603  10.178  70.581  1.00  0.00    -0.429 A  
HETATM   11  C   UNL     1     -11.223  10.535  69.289  1.00  0.00    -0.320 A  
HETATM   12  H1  UNL     1      -9.787   7.487  67.207  1.00  0.00     0.000 HD 
ENDROOT
BRANCH   7  13
HETATM   13  N   UNL     1     -10.350   9.996  67.115  1.00  0.00    -0.227 NA 
HETATM   14  H   UNL     1     -10.154   9.359  66.344  1.00  0.00     0.000 HD 
BRANCH  13  15
HETATM   15  N   UNL     1     -10.291  11.238  67.023  1.00  0.00    -0.218 NA 
HETATM   16  H   UNL     1      -9.807  11.828  67.701  1.00  0.00     0.000 HD 
BRANCH  15  17
HETATM   17  C   UNL     1     -10.959  11.748  65.891  1.00  0.00    -0.304 A  
HETATM   18  C   UNL     1     -11.953  12.737  65.926  1.00  0.00    -0.506 A  
HETATM   19  C   UNL     1     -12.600  13.142  64.752  1.00  0.00    -0.426 A  
HETATM   20  C   UNL     1     -12.248  12.575  63.529  1.00  0.00    -0.652 A  
HETATM   21  C   UNL     1     -11.236  11.619  63.473  1.00  0.00    -0.462 A  
HETATM   22  C   UNL     1     -10.595  11.217  64.646  1.00  0.00    -0.392 A  
ENDBRANCH  15  17
ENDBRANCH  13  15
ENDBRANCH   7  13
TORSDOF 3
ENDMDL
MODEL      107
REMARK 921   NORMALIZED FREE ENERGY PREDICTED BY IDOCK:   -4.38 KCAL/MOL
REMARK 922        TOTAL FREE ENERGY PREDICTED BY IDOCK:   -5.68 KCAL/MOL
REMARK 923 INTER-LIGAND FREE ENERGY PREDICTED BY IDOCK:   -5.37 KCAL/MOL
REMARK 924 INTRA-LIGAND FREE ENERGY PREDICTED BY IDOCK:   -0.31 KCAL/MOL
REMARK 927      BINDING AFFINITY PREDICTED BY RF-SCORE:    0.00 PKD
ROOT
HETATM    1  N   UNL     1     -10.202   7.729  70.966  1.00  0.00    -0.197 NA 
HETATM    2  C   UNL     1     -10.608   8.724  70.081  1.00  0.00    -0.221 A  
HETATM    3  H2  UNL     1      -9.184   7.707  71.012  1.00  0.00     0.000 HD 
HETATM    4  H1  UNL     1     -10.586   7.772  71.910  1.00  0.00     0.000 HD 
HETATM    5  N   UNL     1     -10.102   8.668  68.838  1.00  0.00    -0.197 NA 
HETATM    6  C   UNL     1     -10.496   9.607  67.947  1.00  0.00    -0.246 A  
HETATM    7  C   UNL     1     -11.408  10.637  68.257  1.00  0.00    -0.289 A  
HETATM    8  N   UNL     1      -9.867   9.523  66.701  1.00  0.00    -0.213 NA 
HETATM    9  H2  UNL     1      -9.982   8.588  66.307  1.00  0.00     0.000 HD 
HETATM   10  C   UNL     1     -11.515   9.693  70.480  1.00  0.00    -0.352 A  
HETATM   11  C   UNL     1     -11.911  10.660  69.557  1.00  0.00    -0.345 A  
HETATM   12  H1  UNL     1     -10.164  10.230  66.029  1.00  0.00     0.000 HD 
ENDROOT
BRANCH   7  13
HETATM   13  N   UNL     1     -11.846  11.646  67.366  1.00  0.00    -0.630 NA 
HETATM   14  H   UNL     1     -12.300  11.458  66.472  1.00  0.00     0.000 HD 
BRANCH  13  15
HETATM   15  N   UNL     1     -11.613  12.791  67.800  1.00  0.00    -0.332 NA 
HETATM   16  H   UNL     1     -11.585  13.018  68.794  1.00  0.00     0.000 HD 
BRANCH  15  17
HETATM   17  C   UNL     1     -11.394  13.742  66.781  1.00  0.00    -0.330 A  
HETATM   18  C   UNL     1     -10.443  14.773  66.841  1.00  0.00    -0.277 A  
HETATM   19  C   UNL     1     -10.336  15.705  65.800  1.00  0.00    -0.386 A  
HETATM   20  C   UNL     1     -11.163  15.605  64.684  1.00  0.00    -0.380 A  
HETATM   21  C   UNL     1     -12.085  14.564  64.595  1.00  0.00    -0.486 A  
HETATM   22  C   UNL     1     -12.191  13.639  65.634  1.00  0.00    -0.490 A  
ENDBRANCH  15  17
ENDBRANCH  13  15
ENDBRANCH   7  13
TORSDOF 3
ENDMDL
MODEL      108
REMARK 921   NORMALIZED FREE ENERGY PREDICTED BY IDOCK:   -4.37 KCAL/MOL
REMARK 922        TOTAL FREE ENERGY PREDICTED BY IDOCK:   -5.66 KCAL/MOL
REMARK 923 INTER-LIGAND FREE ENERGY PREDICTED BY IDOCK:   -5.13 KCAL/MOL
REMARK 924 INTRA-LIGAND FREE ENERGY PREDICTED BY IDOCK:   -0.54 KCAL/MOL
REMARK 927      BINDING AFFINITY PREDICTED BY RF-SCORE:    0.00 PKD
ROOT
HETATM    1  N   UNL     1      -8.407   4.218  66.087  1.00  0.00    -0.109 NA 
HETATM    2  C   UNL     1      -9.259   4.769  67.039  1.00  0.00    -0.126 A  
HETATM    3  H2  UNL     1      -8.497   3.202  66.094  1.00  0.00     0.000 HD 
HETATM    4  H1  UNL     1      -8.503   4.563  65.132  1.00  0.00     0.000 HD 
HETATM    5  N   UNL     1      -9.133   4.314  68.297  1.00  0.00    -0.122 NA 
HETATM    6  C   UNL     1      -9.931   4.848  69.250  1.00  0.00    -0.199 A  
HETATM    7  C   UNL     1     -10.884   5.854  68.991  1.00  0.00    -0.313 A  
HETATM    8  N   UNL     1      -9.789   4.268  70.515  1.00  0.00    -0.209 NA 
HETATM    9  H2  UNL     1      -8.813   4.296  70.811  1.00  0.00     0.000 HD 
HETATM   10  C   UNL     1     -10.161   5.760  66.686  1.00  0.00    -0.261 A  
HETATM   11  C   UNL     1     -10.983   6.300  67.674  1.00  0.00    -0.438 A  
HETATM   12  H1  UNL     1     -10.391   4.670  71.234  1.00  0.00     0.000 HD 
ENDROOT
BRANCH   7  13
HETATM   13  N   UNL     1     -11.747   6.439  69.949  1.00  0.00    -0.556 NA 
HETATM   14  H   UNL     1     -12.759   6.316  69.952  1.00  0.00     0.000 HD 
BRANCH  13  15
HETATM   15  N   UNL     1     -11.126   7.122  70.788  1.00  0.00    -0.259 NA 
HETATM   16  H   UNL     1     -10.248   6.823  71.213  1.00  0.00     0.000 HD 
BRANCH  15  17
HETATM   17  C   UNL     1     -11.758   8.345  71.092  1.00  0.00    -0.280 A  
HETATM   18  C   UNL     1     -11.318   9.603  70.653  1.00  0.00    -0.379 A  
HETATM   19  C   UNL     1     -11.982  10.770  71.053  1.00  0.00    -0.409 A  
HETATM   20  C   UNL     1     -13.100  10.690  71.879  1.00  0.00    -0.563 A  
HETATM   21  C   UNL     1     -13.570   9.446  72.292  1.00  0.00    -0.532 A  
HETATM   22  C   UNL     1     -12.906   8.285  71.893  1.00  0.00    -0.371 A  
ENDBRANCH  15  17
ENDBRANCH  13  15
ENDBRANCH   7  13
TORSDOF 3
ENDMDL
MODEL      109
REMARK 921   NORMALIZED FREE ENERGY PREDICTED BY IDOCK:   -4.36 KCAL/MOL
REMARK 922        TOTAL FREE ENERGY PREDICTED BY IDOCK:   -5.66 KCAL/MOL
REMARK 923 INTER-LIGAND FREE ENERGY PREDICTED BY IDOCK:   -5.14 KCAL/MOL
REMARK 924 INTRA-LIGAND FREE ENERGY PREDICTED BY IDOCK:   -0.51 KCAL/MOL
REMARK 927      BINDING AFFINITY PREDICTED BY RF-SCORE:    0.00 PKD
ROOT
HETATM    1  N   UNL     1      -9.267   3.914  66.566  1.00  0.00    -0.154 NA 
HETATM    2  C   UNL     1      -9.689   5.188  66.935  1.00  0.00    -0.161 A  
HETATM    3  H2  UNL     1     -10.077   3.306  66.449  1.00  0.00     0.000 HD 
HETATM    4  H1  UNL     1      -8.670   3.851  65.742  1.00  0.00     0.000 HD 
HETATM    5  N   UNL     1     -10.475   5.272  68.020  1.00  0.00    -0.121 NA 
HETATM    6  C   UNL     1     -10.883   6.499  68.419  1.00  0.00    -0.289 A  
HETATM    7  C   UNL     1     -10.523   7.690  67.755  1.00  0.00    -0.216 A  
HETATM    8  N   UNL     1     -11.758   6.493  69.509  1.00  0.00    -0.645 NA 
HETATM    9  H2  UNL     1     -11.347   5.983  70.292  1.00  0.00     0.000 HD 
HETATM   10  C   UNL     1      -9.275   6.301  66.219  1.00  0.00    -0.165 A  
HETATM   11  C   UNL     1      -9.704   7.561  66.633  1.00  0.00    -0.273 A  
HETATM   12  H1  UNL     1     -12.065   7.418  69.810  1.00  0.00     0.000 HD 
ENDROOT
BRANCH   7  13
HETATM   13  N   UNL     1     -10.927   8.995  68.125  1.00  0.00    -0.482 NA 
HETATM   14  H   UNL     1     -11.583   9.561  67.587  1.00  0.00     0.000 HD 
BRANCH  13  15
HETATM   15  N   UNL     1     -10.390   9.373  69.185  1.00  0.00    -0.205 NA 
HETATM   16  H   UNL     1      -9.417   9.174  69.421  1.00  0.00     0.000 HD 
BRANCH  15  17
HETATM   17  C   UNL     1     -11.258  10.100  70.025  1.00  0.00    -0.299 A  
HETATM   18  C   UNL     1     -11.955   9.559  71.116  1.00  0.00    -0.429 A  
HETATM   19  C   UNL     1     -12.840  10.350  71.860  1.00  0.00    -0.519 A  
HETATM   20  C   UNL     1     -13.022  11.693  71.533  1.00  0.00    -0.463 A  
HETATM   21  C   UNL     1     -12.307  12.252  70.477  1.00  0.00    -0.349 A  
HETATM   22  C   UNL     1     -11.428  11.461  69.736  1.00  0.00    -0.376 A  
ENDBRANCH  15  17
ENDBRANCH  13  15
ENDBRANCH   7  13
TORSDOF 3
ENDMDL
MODEL      110
REMARK 921   NORMALIZED FREE ENERGY PREDICTED BY IDOCK:   -4.36 KCAL/MOL
REMARK 922        TOTAL FREE ENERGY PREDICTED BY IDOCK:   -5.65 KCAL/MOL
REMARK 923 INTER-LIGAND FREE ENERGY PREDICTED BY IDOCK:   -5.24 KCAL/MOL
REMARK 924 INTRA-LIGAND FREE ENERGY PREDICTED BY IDOCK:   -0.41 KCAL/MOL
REMARK 927      BINDING AFFINITY PREDICTED BY RF-SCORE:    0.00 PKD
ROOT
HETATM    1  N   UNL     1     -11.956  16.025  68.710  1.00  0.00    -0.426 NA 
HETATM    2  C   UNL     1     -11.949  14.636  68.618  1.00  0.00    -0.270 A  
HETATM    3  H2  UNL     1     -12.756  16.398  68.201  1.00  0.00     0.000 HD 
HETATM    4  H1  UNL     1     -11.933  16.421  69.650  1.00  0.00     0.000 HD 
HETATM    5  N   UNL     1     -11.978  14.114  67.381  1.00  0.00    -0.412 NA 
HETATM    6  C   UNL     1     -11.948  12.767  67.256  1.00  0.00    -0.280 A  
HETATM    7  C   UNL     1     -11.887  11.888  68.357  1.00  0.00    -0.289 A  
HETATM    8  N   UNL     1     -12.058  12.304  65.941  1.00  0.00    -0.620 NA 
HETATM    9  H2  UNL     1     -11.341  12.732  65.353  1.00  0.00     0.000 HD 
HETATM   10  C   UNL     1     -11.881  13.856  69.761  1.00  0.00    -0.390 A  
HETATM   11  C   UNL     1     -11.857  12.469  69.624  1.00  0.00    -0.382 A  
HETATM   12  H1  UNL     1     -12.035  11.289  65.847  1.00  0.00     0.000 HD 
ENDROOT
BRANCH   7  13
HETATM   13  N   UNL     1     -11.861  10.475  68.282  1.00  0.00    -0.785 NA 
HETATM   14  H   UNL     1     -12.659   9.906  68.001  1.00  0.00     0.000 HD 
BRANCH  13  15
HETATM   15  N   UNL     1     -10.751  10.005  68.600  1.00  0.00    -0.217 NA 
HETATM   16  H   UNL     1     -10.515   9.718  69.550  1.00  0.00     0.000 HD 
BRANCH  15  17
HETATM   17  C   UNL     1      -9.852   9.913  67.517  1.00  0.00    -0.169 A  
HETATM   18  C   UNL     1     -10.026   9.078  66.402  1.00  0.00    -0.370 A  
HETATM   19  C   UNL     1      -9.049   9.013  65.401  1.00  0.00    -0.250 A  
HETATM   20  C   UNL     1      -7.899   9.794  65.494  1.00  0.00    -0.120 A  
HETATM   21  C   UNL     1      -7.731  10.655  66.576  1.00  0.00    -0.137 A  
HETATM   22  C   UNL     1      -8.705  10.716  67.573  1.00  0.00    -0.125 A  
ENDBRANCH  15  17
ENDBRANCH  13  15
ENDBRANCH   7  13
TORSDOF 3
ENDMDL
MODEL      111
REMARK 921   NORMALIZED FREE ENERGY PREDICTED BY IDOCK:   -4.35 KCAL/MOL
REMARK 922        TOTAL FREE ENERGY PREDICTED BY IDOCK:   -5.65 KCAL/MOL
REMARK 923 INTER-LIGAND FREE ENERGY PREDICTED BY IDOCK:   -5.13 KCAL/MOL
REMARK 924 INTRA-LIGAND FREE ENERGY PREDICTED BY IDOCK:   -0.52 KCAL/MOL
REMARK 927      BINDING AFFINITY PREDICTED BY RF-SCORE:    0.00 PKD
ROOT
HETATM    1  N   UNL     1      -8.365   5.845  68.681  1.00  0.00    -0.108 NA 
HETATM    2  C   UNL     1      -9.120   6.980  68.400  1.00  0.00    -0.127 A  
HETATM    3  H2  UNL     1      -8.734   5.386  69.514  1.00  0.00     0.000 HD 
HETATM    4  H1  UNL     1      -8.269   5.162  67.929  1.00  0.00     0.000 HD 
HETATM    5  N   UNL     1      -9.248   7.879  69.391  1.00  0.00    -0.146 NA 
HETATM    6  C   UNL     1      -9.955   9.005  69.142  1.00  0.00    -0.185 A  
HETATM    7  C   UNL     1     -10.562   9.282  67.900  1.00  0.00    -0.231 A  
HETATM    8  N   UNL     1     -10.103   9.852  70.245  1.00  0.00    -0.337 NA 
HETATM    9  H2  UNL     1      -9.191  10.084  70.639  1.00  0.00     0.000 HD 
HETATM   10  C   UNL     1      -9.673   7.164  67.143  1.00  0.00    -0.212 A  
HETATM   11  C   UNL     1     -10.406   8.324  66.898  1.00  0.00    -0.391 A  
HETATM   12  H1  UNL     1     -10.637  10.701  70.058  1.00  0.00     0.000 HD 
ENDROOT
BRANCH   7  13
HETATM   13  N   UNL     1     -11.318  10.438  67.590  1.00  0.00    -0.538 NA 
HETATM   14  H   UNL     1     -12.334  10.486  67.653  1.00  0.00     0.000 HD 
BRANCH  13  15
HETATM   15  N   UNL     1     -10.597  11.391  67.233  1.00  0.00    -0.216 NA 
HETATM   16  H   UNL     1      -9.796  11.719  67.772  1.00  0.00     0.000 HD 
BRANCH  15  17
HETATM   17  C   UNL     1     -11.000  11.969  66.012  1.00  0.00    -0.304 A  
HETATM   18  C   UNL     1     -10.511  11.596  64.750  1.00  0.00    -0.346 A  
HETATM   19  C   UNL     1     -10.931  12.267  63.595  1.00  0.00    -0.532 A  
HETATM   20  C   UNL     1     -11.856  13.305  63.687  1.00  0.00    -0.515 A  
HETATM   21  C   UNL     1     -12.377  13.661  64.928  1.00  0.00    -0.442 A  
HETATM   22  C   UNL     1     -11.955  12.991  66.077  1.00  0.00    -0.498 A  
ENDBRANCH  15  17
ENDBRANCH  13  15
ENDBRANCH   7  13
TORSDOF 3
ENDMDL
MODEL      112
REMARK 921   NORMALIZED FREE ENERGY PREDICTED BY IDOCK:   -4.33 KCAL/MOL
REMARK 922        TOTAL FREE ENERGY PREDICTED BY IDOCK:   -5.62 KCAL/MOL
REMARK 923 INTER-LIGAND FREE ENERGY PREDICTED BY IDOCK:   -5.26 KCAL/MOL
REMARK 924 INTRA-LIGAND FREE ENERGY PREDICTED BY IDOCK:   -0.35 KCAL/MOL
REMARK 927      BINDING AFFINITY PREDICTED BY RF-SCORE:    0.00 PKD
ROOT
HETATM    1  N   UNL     1     -13.245  13.327  65.310  1.00  0.00    -0.581 NA 
HETATM    2  C   UNL     1     -12.106  14.095  65.535  1.00  0.00    -0.414 A  
HETATM    3  H2  UNL     1     -13.825  13.323  66.149  1.00  0.00     0.000 HD 
HETATM    4  H1  UNL     1     -13.814  13.578  64.502  1.00  0.00     0.000 HD 
HETATM    5  N   UNL     1     -11.357  13.765  66.599  1.00  0.00    -0.318 NA 
HETATM    6  C   UNL     1     -10.229  14.477  66.831  1.00  0.00    -0.264 A  
HETATM    7  C   UNL     1      -9.804  15.543  66.012  1.00  0.00    -0.335 A  
HETATM    8  N   UNL     1      -9.548  14.120  67.998  1.00  0.00    -0.211 NA 
HETATM    9  H2  UNL     1      -9.343  13.120  67.998  1.00  0.00     0.000 HD 
HETATM   10  C   UNL     1     -11.768  15.122  64.668  1.00  0.00    -0.348 A  
HETATM   11  C   UNL     1     -10.608  15.854  64.917  1.00  0.00    -0.281 A  
HETATM   12  H1  UNL     1      -8.698  14.657  68.172  1.00  0.00     0.000 HD 
ENDROOT
BRANCH   7  13
HETATM   13  N   UNL     1      -8.640  16.324  66.214  1.00  0.00    -0.326 NA 
HETATM   14  H   UNL     1      -7.814  15.995  66.713  1.00  0.00     0.000 HD 
BRANCH  13  15
HETATM   15  N   UNL     1      -8.741  17.460  65.710  1.00  0.00    -0.480 NA 
HETATM   16  H   UNL     1      -9.174  17.634  64.803  1.00  0.00     0.000 HD 
BRANCH  15  17
HETATM   17  C   UNL     1      -8.197  18.480  66.517  1.00  0.00    -0.281 A  
HETATM   18  C   UNL     1      -8.578  19.830  66.464  1.00  0.00    -0.396 A  
HETATM   19  C   UNL     1      -7.940  20.783  67.269  1.00  0.00    -0.270 A  
HETATM   20  C   UNL     1      -6.930  20.394  68.147  1.00  0.00    -0.286 A  
HETATM   21  C   UNL     1      -6.568  19.052  68.236  1.00  0.00    -0.265 A  
HETATM   22  C   UNL     1      -7.204  18.106  67.432  1.00  0.00    -0.208 A  
ENDBRANCH  15  17
ENDBRANCH  13  15
ENDBRANCH   7  13
TORSDOF 3
ENDMDL
MODEL      113
REMARK 921   NORMALIZED FREE ENERGY PREDICTED BY IDOCK:   -4.30 KCAL/MOL
REMARK 922        TOTAL FREE ENERGY PREDICTED BY IDOCK:   -5.58 KCAL/MOL
REMARK 923 INTER-LIGAND FREE ENERGY PREDICTED BY IDOCK:   -4.94 KCAL/MOL
REMARK 924 INTRA-LIGAND FREE ENERGY PREDICTED BY IDOCK:   -0.64 KCAL/MOL
REMARK 927      BINDING AFFINITY PREDICTED BY RF-SCORE:    0.00 PKD
ROOT
HETATM    1  N   UNL     1      -9.552   9.075  65.236  1.00  0.00    -0.448 NA 
HETATM    2  C   UNL     1      -9.699   9.355  66.591  1.00  0.00    -0.219 A  
HETATM    3  H2  UNL     1      -9.697   9.926  64.693  1.00  0.00     0.000 HD 
HETATM    4  H1  UNL     1      -8.678   8.633  64.952  1.00  0.00     0.000 HD 
HETATM    5  N   UNL     1     -10.850   9.937  66.966  1.00  0.00    -0.173 NA 
HETATM    6  C   UNL     1     -11.033  10.200  68.280  1.00  0.00    -0.248 A  
HETATM    7  C   UNL     1     -10.080   9.894  69.273  1.00  0.00    -0.203 A  
HETATM    8  N   UNL     1     -12.222  10.874  68.576  1.00  0.00    -0.809 NA 
HETATM    9  H2  UNL     1     -13.023  10.364  68.200  1.00  0.00     0.000 HD 
HETATM   10  C   UNL     1      -8.705   9.009  67.493  1.00  0.00    -0.121 A  
HETATM   11  C   UNL     1      -8.899   9.289  68.844  1.00  0.00    -0.135 A  
HETATM   12  H1  UNL     1     -12.361  11.072  69.567  1.00  0.00     0.000 HD 
ENDROOT
BRANCH   7  13
HETATM   13  N   UNL     1     -10.219  10.154  70.657  1.00  0.00    -0.347 NA 
HETATM   14  H   UNL     1      -9.507  10.616  71.223  1.00  0.00     0.000 HD 
BRANCH  13  15
HETATM   15  N   UNL     1     -11.312   9.755  71.106  1.00  0.00    -0.373 NA 
HETATM   16  H   UNL     1     -12.182  10.280  71.010  1.00  0.00     0.000 HD 
BRANCH  15  17
HETATM   17  C   UNL     1     -11.227   8.508  71.758  1.00  0.00    -0.309 A  
HETATM   18  C   UNL     1     -11.995   7.379  71.429  1.00  0.00    -0.340 A  
HETATM   19  C   UNL     1     -11.880   6.197  72.171  1.00  0.00    -0.339 A  
HETATM   20  C   UNL     1     -10.984   6.125  73.236  1.00  0.00    -0.230 A  
HETATM   21  C   UNL     1     -10.189   7.224  73.550  1.00  0.00    -0.404 A  
HETATM   22  C   UNL     1     -10.308   8.401  72.809  1.00  0.00    -0.239 A  
ENDBRANCH  15  17
ENDBRANCH  13  15
ENDBRANCH   7  13
TORSDOF 3
ENDMDL
MODEL      114
REMARK 921   NORMALIZED FREE ENERGY PREDICTED BY IDOCK:   -4.29 KCAL/MOL
REMARK 922        TOTAL FREE ENERGY PREDICTED BY IDOCK:   -5.57 KCAL/MOL
REMARK 923 INTER-LIGAND FREE ENERGY PREDICTED BY IDOCK:   -5.22 KCAL/MOL
REMARK 924 INTRA-LIGAND FREE ENERGY PREDICTED BY IDOCK:   -0.36 KCAL/MOL
REMARK 927      BINDING AFFINITY PREDICTED BY RF-SCORE:    0.00 PKD
ROOT
HETATM    1  N   UNL     1     -12.715  16.301  71.277  1.00  0.00    -0.353 NA 
HETATM    2  C   UNL     1     -12.308  15.391  70.305  1.00  0.00    -0.388 A  
HETATM    3  H2  UNL     1     -12.077  16.261  72.071  1.00  0.00     0.000 HD 
HETATM    4  H1  UNL     1     -12.830  17.269  70.978  1.00  0.00     0.000 HD 
HETATM    5  N   UNL     1     -12.157  14.116  70.698  1.00  0.00    -0.334 NA 
HETATM    6  C   UNL     1     -11.786  13.203  69.771  1.00  0.00    -0.316 A  
HETATM    7  C   UNL     1     -11.552  13.522  68.418  1.00  0.00    -0.343 A  
HETATM    8  N   UNL     1     -11.578  11.916  70.276  1.00  0.00    -0.531 NA 
HETATM    9  H2  UNL     1     -12.405  11.594  70.781  1.00  0.00     0.000 HD 
HETATM   10  C   UNL     1     -12.109  15.802  68.996  1.00  0.00    -0.190 A  
HETATM   11  C   UNL     1     -11.721  14.857  68.049  1.00  0.00    -0.344 A  
HETATM   12  H1  UNL     1     -11.299  11.227  69.577  1.00  0.00     0.000 HD 
ENDROOT
BRANCH   7  13
HETATM   13  N   UNL     1     -11.156  12.609  67.412  1.00  0.00    -0.261 NA 
HETATM   14  H   UNL     1     -10.485  12.829  66.676  1.00  0.00     0.000 HD 
BRANCH  13  15
HETATM   15  N   UNL     1     -11.721  11.504  67.528  1.00  0.00    -0.604 NA 
HETATM   16  H   UNL     1     -12.637  11.386  67.963  1.00  0.00     0.000 HD 
BRANCH  15  17
HETATM   17  C   UNL     1     -10.971  10.433  67.001  1.00  0.00    -0.154 A  
HETATM   18  C   UNL     1     -10.784   9.197  67.639  1.00  0.00    -0.257 A  
HETATM   19  C   UNL     1      -9.974   8.210  67.061  1.00  0.00    -0.329 A  
HETATM   20  C   UNL     1      -9.359   8.443  65.832  1.00  0.00    -0.205 A  
HETATM   21  C   UNL     1      -9.566   9.651  65.171  1.00  0.00    -0.324 A  
HETATM   22  C   UNL     1     -10.372  10.631  65.750  1.00  0.00    -0.287 A  
ENDBRANCH  15  17
ENDBRANCH  13  15
ENDBRANCH   7  13
TORSDOF 3
ENDMDL
MODEL      115
REMARK 921   NORMALIZED FREE ENERGY PREDICTED BY IDOCK:   -4.29 KCAL/MOL
REMARK 922        TOTAL FREE ENERGY PREDICTED BY IDOCK:   -5.57 KCAL/MOL
REMARK 923 INTER-LIGAND FREE ENERGY PREDICTED BY IDOCK:   -5.14 KCAL/MOL
REMARK 924 INTRA-LIGAND FREE ENERGY PREDICTED BY IDOCK:   -0.43 KCAL/MOL
REMARK 927      BINDING AFFINITY PREDICTED BY RF-SCORE:    0.00 PKD
ROOT
HETATM    1  N   UNL     1     -10.247  18.818  68.912  1.00  0.00    -0.481 NA 
HETATM    2  C   UNL     1      -9.914  17.622  68.283  1.00  0.00    -0.339 A  
HETATM    3  H2  UNL     1      -9.669  18.940  69.743  1.00  0.00     0.000 HD 
HETATM    4  H1  UNL     1     -10.206  19.662  68.341  1.00  0.00     0.000 HD 
HETATM    5  N   UNL     1      -9.966  16.511  69.035  1.00  0.00    -0.262 NA 
HETATM    6  C   UNL     1      -9.672  15.328  68.447  1.00  0.00    -0.213 A  
HETATM    7  C   UNL     1      -9.315  15.205  67.089  1.00  0.00    -0.212 A  
HETATM    8  N   UNL     1      -9.676  14.232  69.315  1.00  0.00    -0.415 NA 
HETATM    9  H2  UNL     1     -10.569  14.172  69.807  1.00  0.00     0.000 HD 
HETATM   10  C   UNL     1      -9.581  17.603  66.938  1.00  0.00    -0.286 A  
HETATM   11  C   UNL     1      -9.273  16.382  66.341  1.00  0.00    -0.335 A  
HETATM   12  H1  UNL     1      -9.455  13.340  68.871  1.00  0.00     0.000 HD 
ENDROOT
BRANCH   7  13
HETATM   13  N   UNL     1      -8.991  13.996  66.427  1.00  0.00    -0.476 NA 
HETATM   14  H   UNL     1      -8.057  13.586  66.419  1.00  0.00     0.000 HD 
BRANCH  13  15
HETATM   15  N   UNL     1      -9.977  13.492  65.856  1.00  0.00    -0.345 NA 
HETATM   16  H   UNL     1     -10.596  14.017  65.237  1.00  0.00     0.000 HD 
BRANCH  15  17
HETATM   17  C   UNL     1     -10.155  12.124  66.150  1.00  0.00    -0.228 A  
HETATM   18  C   UNL     1     -10.928  11.628  67.211  1.00  0.00    -0.318 A  
HETATM   19  C   UNL     1     -11.001  10.251  67.458  1.00  0.00    -0.344 A  
HETATM   20  C   UNL     1     -10.318   9.357  66.636  1.00  0.00    -0.284 A  
HETATM   21  C   UNL     1      -9.578   9.833  65.557  1.00  0.00    -0.348 A  
HETATM   22  C   UNL     1      -9.506  11.205  65.315  1.00  0.00    -0.257 A  
ENDBRANCH  15  17
ENDBRANCH  13  15
ENDBRANCH   7  13
TORSDOF 3
ENDMDL
MODEL      116
REMARK 921   NORMALIZED FREE ENERGY PREDICTED BY IDOCK:   -4.28 KCAL/MOL
REMARK 922        TOTAL FREE ENERGY PREDICTED BY IDOCK:   -5.56 KCAL/MOL
REMARK 923 INTER-LIGAND FREE ENERGY PREDICTED BY IDOCK:   -5.63 KCAL/MOL
REMARK 924 INTRA-LIGAND FREE ENERGY PREDICTED BY IDOCK:    0.07 KCAL/MOL
REMARK 927      BINDING AFFINITY PREDICTED BY RF-SCORE:    0.00 PKD
ROOT
HETATM    1  N   UNL     1      -9.727  10.879  62.390  1.00  0.00    -0.581 NA 
HETATM    2  C   UNL     1     -10.261  11.262  63.617  1.00  0.00    -0.392 A  
HETATM    3  H2  UNL     1      -9.771  11.662  61.738  1.00  0.00     0.000 HD 
HETATM    4  H1  UNL     1      -8.782  10.496  62.401  1.00  0.00     0.000 HD 
HETATM    5  N   UNL     1     -11.506  11.767  63.602  1.00  0.00    -0.441 NA 
HETATM    6  C   UNL     1     -12.062  12.126  64.781  1.00  0.00    -0.294 A  
HETATM    7  C   UNL     1     -11.403  11.997  66.021  1.00  0.00    -0.343 A  
HETATM    8  N   UNL     1     -13.327  12.711  64.671  1.00  0.00    -0.576 NA 
HETATM    9  H2  UNL     1     -13.958  12.098  64.153  1.00  0.00     0.000 HD 
HETATM   10  C   UNL     1      -9.535  11.090  64.784  1.00  0.00    -0.267 A  
HETATM   11  C   UNL     1     -10.113  11.468  65.995  1.00  0.00    -0.270 A  
HETATM   12  H1  UNL     1     -13.747  12.982  65.561  1.00  0.00     0.000 HD 
ENDROOT
BRANCH   7  13
HETATM   13  N   UNL     1     -11.936  12.364  67.280  1.00  0.00    -0.537 NA 
HETATM   14  H   UNL     1     -12.038  11.720  68.064  1.00  0.00     0.000 HD 
BRANCH  13  15
HETATM   15  N   UNL     1     -12.265  13.566  67.321  1.00  0.00    -0.318 NA 
HETATM   16  H   UNL     1     -13.155  13.915  66.963  1.00  0.00     0.000 HD 
BRANCH  15  17
HETATM   17  C   UNL     1     -11.288  14.395  67.908  1.00  0.00    -0.301 A  
HETATM   18  C   UNL     1     -11.500  15.724  68.307  1.00  0.00    -0.338 A  
HETATM   19  C   UNL     1     -10.450  16.488  68.832  1.00  0.00    -0.304 A  
HETATM   20  C   UNL     1      -9.183  15.927  68.981  1.00  0.00    -0.242 A  
HETATM   21  C   UNL     1      -8.968  14.598  68.624  1.00  0.00    -0.184 A  
HETATM   22  C   UNL     1     -10.016  13.840  68.099  1.00  0.00    -0.242 A  
ENDBRANCH  15  17
ENDBRANCH  13  15
ENDBRANCH   7  13
TORSDOF 3
ENDMDL
MODEL      117
REMARK 921   NORMALIZED FREE ENERGY PREDICTED BY IDOCK:   -4.27 KCAL/MOL
REMARK 922        TOTAL FREE ENERGY PREDICTED BY IDOCK:   -5.55 KCAL/MOL
REMARK 923 INTER-LIGAND FREE ENERGY PREDICTED BY IDOCK:   -4.94 KCAL/MOL
REMARK 924 INTRA-LIGAND FREE ENERGY PREDICTED BY IDOCK:   -0.61 KCAL/MOL
REMARK 927      BINDING AFFINITY PREDICTED BY RF-SCORE:    0.00 PKD
ROOT
HETATM    1  N   UNL     1      -7.204   7.849  66.960  1.00  0.00    -0.088 NA 
HETATM    2  C   UNL     1      -7.897   8.684  66.089  1.00  0.00    -0.098 A  
HETATM    3  H2  UNL     1      -6.369   8.326  67.298  1.00  0.00     0.000 HD 
HETATM    4  H1  UNL     1      -7.729   7.476  67.750  1.00  0.00     0.000 HD 
HETATM    5  N   UNL     1      -7.205   9.177  65.047  1.00  0.00    -0.095 NA 
HETATM    6  C   UNL     1      -7.857   9.972  64.168  1.00  0.00    -0.144 A  
HETATM    7  C   UNL     1      -9.221  10.309  64.290  1.00  0.00    -0.257 A  
HETATM    8  N   UNL     1      -7.049  10.502  63.158  1.00  0.00    -0.319 NA 
HETATM    9  H2  UNL     1      -6.559   9.755  62.665  1.00  0.00     0.000 HD 
HETATM   10  C   UNL     1      -9.242   8.952  66.290  1.00  0.00    -0.261 A  
HETATM   11  C   UNL     1      -9.903   9.777  65.383  1.00  0.00    -0.365 A  
HETATM   12  H1  UNL     1      -7.540  11.102  62.494  1.00  0.00     0.000 HD 
ENDROOT
BRANCH   7  13
HETATM   13  N   UNL     1      -9.946  11.142  63.404  1.00  0.00    -0.349 NA 
HETATM   14  H   UNL     1     -10.624  10.796  62.726  1.00  0.00     0.000 HD 
BRANCH  13  15
HETATM   15  N   UNL     1      -9.661  12.347  63.550  1.00  0.00    -0.663 NA 
HETATM   16  H   UNL     1      -8.891  12.803  63.061  1.00  0.00     0.000 HD 
BRANCH  15  17
HETATM   17  C   UNL     1     -10.508  13.016  64.458  1.00  0.00    -0.392 A  
HETATM   18  C   UNL     1     -10.066  13.819  65.520  1.00  0.00    -0.303 A  
HETATM   19  C   UNL     1     -10.983  14.401  66.405  1.00  0.00    -0.319 A  
HETATM   20  C   UNL     1     -12.350  14.199  66.227  1.00  0.00    -0.451 A  
HETATM   21  C   UNL     1     -12.804  13.435  65.155  1.00  0.00    -0.380 A  
HETATM   22  C   UNL     1     -11.888  12.856  64.276  1.00  0.00    -0.457 A  
ENDBRANCH  15  17
ENDBRANCH  13  15
ENDBRANCH   7  13
TORSDOF 3
ENDMDL
MODEL      118
REMARK 921   NORMALIZED FREE ENERGY PREDICTED BY IDOCK:   -4.25 KCAL/MOL
REMARK 922        TOTAL FREE ENERGY PREDICTED BY IDOCK:   -5.53 KCAL/MOL
REMARK 923 INTER-LIGAND FREE ENERGY PREDICTED BY IDOCK:   -5.00 KCAL/MOL
REMARK 924 INTRA-LIGAND FREE ENERGY PREDICTED BY IDOCK:   -0.53 KCAL/MOL
REMARK 927      BINDING AFFINITY PREDICTED BY RF-SCORE:    0.00 PKD
ROOT
HETATM    1  N   UNL     1     -10.072   3.835  73.732  1.00  0.00    -0.121 NA 
HETATM    2  C   UNL     1     -10.436   4.614  72.638  1.00  0.00    -0.199 A  
HETATM    3  H2  UNL     1     -10.904   3.408  74.139  1.00  0.00     0.000 HD 
HETATM    4  H1  UNL     1      -9.365   3.119  73.569  1.00  0.00     0.000 HD 
HETATM    5  N   UNL     1     -11.368   5.557  72.853  1.00  0.00    -0.301 NA 
HETATM    6  C   UNL     1     -11.726   6.348  71.815  1.00  0.00    -0.324 A  
HETATM    7  C   UNL     1     -11.171   6.232  70.524  1.00  0.00    -0.354 A  
HETATM    8  N   UNL     1     -12.754   7.252  72.103  1.00  0.00    -0.514 NA 
HETATM    9  H2  UNL     1     -12.510   7.819  72.915  1.00  0.00     0.000 HD 
HETATM   10  C   UNL     1      -9.827   4.428  71.408  1.00  0.00    -0.262 A  
HETATM   11  C   UNL     1     -10.206   5.242  70.342  1.00  0.00    -0.338 A  
HETATM   12  H1  UNL     1     -13.023   7.848  71.320  1.00  0.00     0.000 HD 
ENDROOT
BRANCH   7  13
HETATM   13  N   UNL     1     -11.515   7.027  69.404  1.00  0.00    -0.536 NA 
HETATM   14  H   UNL     1     -12.083   6.696  68.626  1.00  0.00     0.000 HD 
BRANCH  13  15
HETATM   15  N   UNL     1     -11.043   8.179  69.480  1.00  0.00    -0.439 NA 
HETATM   16  H   UNL     1     -10.953   8.690  70.359  1.00  0.00     0.000 HD 
BRANCH  15  17
HETATM   17  C   UNL     1     -10.647   8.705  68.233  1.00  0.00    -0.128 A  
HETATM   18  C   UNL     1      -9.936   7.993  67.254  1.00  0.00    -0.282 A  
HETATM   19  C   UNL     1      -9.538   8.619  66.066  1.00  0.00    -0.265 A  
HETATM   20  C   UNL     1      -9.862   9.955  65.837  1.00  0.00    -0.342 A  
HETATM   21  C   UNL     1     -10.599  10.662  66.783  1.00  0.00    -0.297 A  
HETATM   22  C   UNL     1     -10.992  10.036  67.967  1.00  0.00    -0.296 A  
ENDBRANCH  15  17
ENDBRANCH  13  15
ENDBRANCH   7  13
TORSDOF 3
ENDMDL
MODEL      119
REMARK 921   NORMALIZED FREE ENERGY PREDICTED BY IDOCK:   -4.23 KCAL/MOL
REMARK 922        TOTAL FREE ENERGY PREDICTED BY IDOCK:   -5.50 KCAL/MOL
REMARK 923 INTER-LIGAND FREE ENERGY PREDICTED BY IDOCK:   -5.00 KCAL/MOL
REMARK 924 INTRA-LIGAND FREE ENERGY PREDICTED BY IDOCK:   -0.51 KCAL/MOL
REMARK 927      BINDING AFFINITY PREDICTED BY RF-SCORE:    0.00 PKD
ROOT
HETATM    1  N   UNL     1      -8.519   5.741  68.632  1.00  0.00    -0.107 NA 
HETATM    2  C   UNL     1      -9.181   6.937  68.369  1.00  0.00    -0.124 A  
HETATM    3  H2  UNL     1      -8.827   5.370  69.530  1.00  0.00     0.000 HD 
HETATM    4  H1  UNL     1      -8.588   5.014  67.920  1.00  0.00     0.000 HD 
HETATM    5  N   UNL     1      -9.091   7.894  69.306  1.00  0.00    -0.148 NA 
HETATM    6  C   UNL     1      -9.703   9.078  69.069  1.00  0.00    -0.167 A  
HETATM    7  C   UNL     1     -10.426   9.355  67.892  1.00  0.00    -0.243 A  
HETATM    8  N   UNL     1      -9.625   9.992  70.125  1.00  0.00    -0.398 NA 
HETATM    9  H2  UNL     1      -8.652  10.142  70.393  1.00  0.00     0.000 HD 
HETATM   10  C   UNL     1      -9.863   7.116  67.176  1.00  0.00    -0.235 A  
HETATM   11  C   UNL     1     -10.495   8.335  66.943  1.00  0.00    -0.365 A  
HETATM   12  H1  UNL     1     -10.086  10.884  69.946  1.00  0.00     0.000 HD 
ENDROOT
BRANCH   7  13
HETATM   13  N   UNL     1     -11.090  10.570  67.598  1.00  0.00    -0.316 NA 
HETATM   14  H   UNL     1     -10.870  11.159  66.796  1.00  0.00     0.000 HD 
BRANCH  13  15
HETATM   15  N   UNL     1     -11.976  10.837  68.434  1.00  0.00    -0.809 NA 
HETATM   16  H   UNL     1     -12.622  10.141  68.808  1.00  0.00     0.000 HD 
BRANCH  15  17
HETATM   17  C   UNL     1     -11.998  12.196  68.812  1.00  0.00    -0.239 A  
HETATM   18  C   UNL     1     -11.814  13.273  67.932  1.00  0.00    -0.388 A  
HETATM   19  C   UNL     1     -11.798  14.590  68.409  1.00  0.00    -0.351 A  
HETATM   20  C   UNL     1     -11.983  14.843  69.767  1.00  0.00    -0.366 A  
HETATM   21  C   UNL     1     -12.205  13.786  70.646  1.00  0.00    -0.434 A  
HETATM   22  C   UNL     1     -12.218  12.475  70.167  1.00  0.00    -0.307 A  
ENDBRANCH  15  17
ENDBRANCH  13  15
ENDBRANCH   7  13
TORSDOF 3
ENDMDL
MODEL      120
REMARK 921   NORMALIZED FREE ENERGY PREDICTED BY IDOCK:   -4.23 KCAL/MOL
REMARK 922        TOTAL FREE ENERGY PREDICTED BY IDOCK:   -5.50 KCAL/MOL
REMARK 923 INTER-LIGAND FREE ENERGY PREDICTED BY IDOCK:   -5.19 KCAL/MOL
REMARK 924 INTRA-LIGAND FREE ENERGY PREDICTED BY IDOCK:   -0.31 KCAL/MOL
REMARK 927      BINDING AFFINITY PREDICTED BY RF-SCORE:    0.00 PKD
ROOT
HETATM    1  N   UNL     1      -8.013   7.777  68.414  1.00  0.00    -0.121 NA 
HETATM    2  C   UNL     1      -8.742   8.914  68.749  1.00  0.00    -0.137 A  
HETATM    3  H2  UNL     1      -7.024   8.014  68.343  1.00  0.00     0.000 HD 
HETATM    4  H1  UNL     1      -8.128   6.965  69.020  1.00  0.00     0.000 HD 
HETATM    5  N   UNL     1      -8.590   9.984  67.951  1.00  0.00    -0.121 NA 
HETATM    6  C   UNL     1      -9.304  11.098  68.235  1.00  0.00    -0.176 A  
HETATM    7  C   UNL     1     -10.197  11.191  69.323  1.00  0.00    -0.083 A  
HETATM    8  N   UNL     1      -9.033  12.188  67.403  1.00  0.00    -0.173 NA 
HETATM    9  H2  UNL     1      -9.156  11.928  66.424  1.00  0.00     0.000 HD 
HETATM   10  C   UNL     1      -9.600   8.905  69.837  1.00  0.00    -0.185 A  
HETATM   11  C   UNL     1     -10.327  10.058  70.126  1.00  0.00    -0.321 A  
HETATM   12  H1  UNL     1      -9.571  13.028  67.617  1.00  0.00     0.000 HD 
ENDROOT
BRANCH   7  13
HETATM   13  N   UNL     1     -10.960  12.332  69.668  1.00  0.00    -0.462 NA 
HETATM   14  H   UNL     1     -10.817  13.256  69.261  1.00  0.00     0.000 HD 
BRANCH  13  15
HETATM   15  N   UNL     1     -11.827  12.077  70.528  1.00  0.00    -0.510 NA 
HETATM   16  H   UNL     1     -12.002  11.137  70.885  1.00  0.00     0.000 HD 
BRANCH  15  17
HETATM   17  C   UNL     1     -12.542  13.214  70.955  1.00  0.00    -0.312 A  
HETATM   18  C   UNL     1     -12.435  14.489  70.380  1.00  0.00    -0.407 A  
HETATM   19  C   UNL     1     -13.147  15.573  70.910  1.00  0.00    -0.508 A  
HETATM   20  C   UNL     1     -13.985  15.390  72.008  1.00  0.00    -0.640 A  
HETATM   21  C   UNL     1     -14.130  14.122  72.565  1.00  0.00    -0.452 A  
HETATM   22  C   UNL     1     -13.418  13.045  72.036  1.00  0.00    -0.584 A  
ENDBRANCH  15  17
ENDBRANCH  13  15
ENDBRANCH   7  13
TORSDOF 3
ENDMDL
MODEL      121
REMARK 921   NORMALIZED FREE ENERGY PREDICTED BY IDOCK:   -4.21 KCAL/MOL
REMARK 922        TOTAL FREE ENERGY PREDICTED BY IDOCK:   -5.48 KCAL/MOL
REMARK 923 INTER-LIGAND FREE ENERGY PREDICTED BY IDOCK:   -4.94 KCAL/MOL
REMARK 924 INTRA-LIGAND FREE ENERGY PREDICTED BY IDOCK:   -0.54 KCAL/MOL
REMARK 927      BINDING AFFINITY PREDICTED BY RF-SCORE:    0.00 PKD
ROOT
HETATM    1  N   UNL     1     -14.143   8.897  73.149  1.00  0.00    -1.225 NA 
HETATM    2  C   UNL     1     -13.183   9.293  72.223  1.00  0.00    -0.460 A  
HETATM    3  H2  UNL     1     -13.688   8.443  73.941  1.00  0.00     0.000 HD 
HETATM    4  H1  UNL     1     -14.778   9.620  73.487  1.00  0.00     0.000 HD 
HETATM    5  N   UNL     1     -12.346   8.340  71.777  1.00  0.00    -0.312 NA 
HETATM    6  C   UNL     1     -11.417   8.688  70.858  1.00  0.00    -0.275 A  
HETATM    7  C   UNL     1     -11.283   9.994  70.345  1.00  0.00    -0.323 A  
HETATM    8  N   UNL     1     -10.539   7.658  70.503  1.00  0.00    -0.222 NA 
HETATM    9  H2  UNL     1     -11.061   6.839  70.190  1.00  0.00     0.000 HD 
HETATM   10  C   UNL     1     -13.135  10.603  71.775  1.00  0.00    -0.571 A  
HETATM   11  C   UNL     1     -12.171  10.954  70.832  1.00  0.00    -0.485 A  
HETATM   12  H1  UNL     1      -9.839   7.920  69.810  1.00  0.00     0.000 HD 
ENDROOT
BRANCH   7  13
HETATM   13  N   UNL     1     -10.325  10.412  69.391  1.00  0.00    -0.225 NA 
HETATM   14  H   UNL     1     -10.545  10.617  68.416  1.00  0.00     0.000 HD 
BRANCH  13  15
HETATM   15  N   UNL     1      -9.180  10.499  69.878  1.00  0.00    -0.357 NA 
HETATM   16  H   UNL     1      -8.996  10.874  70.809  1.00  0.00     0.000 HD 
BRANCH  15  17
HETATM   17  C   UNL     1      -8.168  10.030  69.017  1.00  0.00    -0.124 A  
HETATM   18  C   UNL     1      -8.298   9.901  67.625  1.00  0.00    -0.114 A  
HETATM   19  C   UNL     1      -7.252   9.372  66.857  1.00  0.00    -0.087 A  
HETATM   20  C   UNL     1      -6.062   8.985  67.469  1.00  0.00    -0.051 A  
HETATM   21  C   UNL     1      -5.905   9.143  68.844  1.00  0.00    -0.040 A  
HETATM   22  C   UNL     1      -6.949   9.668  69.606  1.00  0.00    -0.071 A  
ENDBRANCH  15  17
ENDBRANCH  13  15
ENDBRANCH   7  13
TORSDOF 3
ENDMDL
MODEL      122
REMARK 921   NORMALIZED FREE ENERGY PREDICTED BY IDOCK:   -4.16 KCAL/MOL
REMARK 922        TOTAL FREE ENERGY PREDICTED BY IDOCK:   -5.42 KCAL/MOL
REMARK 923 INTER-LIGAND FREE ENERGY PREDICTED BY IDOCK:   -4.78 KCAL/MOL
REMARK 924 INTRA-LIGAND FREE ENERGY PREDICTED BY IDOCK:   -0.64 KCAL/MOL
REMARK 927      BINDING AFFINITY PREDICTED BY RF-SCORE:    0.00 PKD
ROOT
HETATM    1  N   UNL     1     -10.740  11.110  62.948  1.00  0.00    -0.804 NA 
HETATM    2  C   UNL     1     -10.962  12.035  63.964  1.00  0.00    -0.381 A  
HETATM    3  H2  UNL     1     -11.548  10.494  62.865  1.00  0.00     0.000 HD 
HETATM    4  H1  UNL     1     -10.500  11.486  62.031  1.00  0.00     0.000 HD 
HETATM    5  N   UNL     1     -11.278  11.540  65.172  1.00  0.00    -0.201 NA 
HETATM    6  C   UNL     1     -11.476  12.412  66.187  1.00  0.00    -0.379 A  
HETATM    7  C   UNL     1     -11.366  13.810  66.041  1.00  0.00    -0.314 A  
HETATM    8  N   UNL     1     -11.874  11.821  67.390  1.00  0.00    -0.624 NA 
HETATM    9  H2  UNL     1     -11.210  11.098  67.668  1.00  0.00     0.000 HD 
HETATM   10  C   UNL     1     -10.824  13.392  63.722  1.00  0.00     0.087 A  
HETATM   11  C   UNL     1     -11.035  14.285  64.772  1.00  0.00    -0.408 A  
HETATM   12  H1  UNL     1     -12.023  12.479  68.156  1.00  0.00     0.000 HD 
ENDROOT
BRANCH   7  13
HETATM   13  N   UNL     1     -11.570  14.765  67.065  1.00  0.00    -0.361 NA 
HETATM   14  H   UNL     1     -12.253  15.520  67.011  1.00  0.00     0.000 HD 
BRANCH  13  15
HETATM   15  N   UNL     1     -10.818  14.577  68.042  1.00  0.00    -0.241 NA 
HETATM   16  H   UNL     1     -11.113  14.092  68.890  1.00  0.00     0.000 HD 
BRANCH  15  17
HETATM   17  C   UNL     1      -9.522  15.100  67.861  1.00  0.00    -0.194 A  
HETATM   18  C   UNL     1      -9.238  16.429  67.508  1.00  0.00    -0.199 A  
HETATM   19  C   UNL     1      -7.917  16.844  67.295  1.00  0.00    -0.198 A  
HETATM   20  C   UNL     1      -6.867  15.941  67.450  1.00  0.00    -0.228 A  
HETATM   21  C   UNL     1      -7.132  14.630  67.837  1.00  0.00    -0.170 A  
HETATM   22  C   UNL     1      -8.449  14.219  68.046  1.00  0.00    -0.164 A  
ENDBRANCH  15  17
ENDBRANCH  13  15
ENDBRANCH   7  13
TORSDOF 3
ENDMDL
MODEL      123
REMARK 921   NORMALIZED FREE ENERGY PREDICTED BY IDOCK:   -4.16 KCAL/MOL
REMARK 922        TOTAL FREE ENERGY PREDICTED BY IDOCK:   -5.42 KCAL/MOL
REMARK 923 INTER-LIGAND FREE ENERGY PREDICTED BY IDOCK:   -4.87 KCAL/MOL
REMARK 924 INTRA-LIGAND FREE ENERGY PREDICTED BY IDOCK:   -0.55 KCAL/MOL
REMARK 927      BINDING AFFINITY PREDICTED BY RF-SCORE:    0.00 PKD
ROOT
HETATM    1  N   UNL     1      -9.174   5.946  71.721  1.00  0.00    -0.148 NA 
HETATM    2  C   UNL     1      -9.868   7.037  71.207  1.00  0.00    -0.175 A  
HETATM    3  H2  UNL     1      -8.268   5.870  71.260  1.00  0.00     0.000 HD 
HETATM    4  H1  UNL     1      -9.046   5.921  72.733  1.00  0.00     0.000 HD 
HETATM    5  N   UNL     1     -10.036   7.071  69.874  1.00  0.00    -0.176 NA 
HETATM    6  C   UNL     1     -10.728   8.106  69.345  1.00  0.00    -0.156 A  
HETATM    7  C   UNL     1     -11.281   9.146  70.119  1.00  0.00    -0.187 A  
HETATM    8  N   UNL     1     -10.793   8.106  67.948  1.00  0.00    -0.479 NA 
HETATM    9  H2  UNL     1     -11.166   7.218  67.610  1.00  0.00     0.000 HD 
HETATM   10  C   UNL     1     -10.380   8.008  72.052  1.00  0.00    -0.298 A  
HETATM   11  C   UNL     1     -11.087   9.074  71.498  1.00  0.00    -0.419 A  
HETATM   12  H1  UNL     1     -11.315   8.886  67.549  1.00  0.00     0.000 HD 
ENDROOT
BRANCH   7  13
HETATM   13  N   UNL     1     -12.006  10.253  69.616  1.00  0.00    -0.481 NA 
HETATM   14  H   UNL     1     -12.969  10.467  69.873  1.00  0.00     0.000 HD 
BRANCH  13  15
HETATM   15  N   UNL     1     -11.330  10.937  68.822  1.00  0.00    -0.269 NA 
HETATM   16  H   UNL     1     -10.705  10.532  68.125  1.00  0.00     0.000 HD 
BRANCH  15  17
HETATM   17  C   UNL     1     -11.514  12.326  68.983  1.00  0.00    -0.297 A  
HETATM   18  C   UNL     1     -11.209  13.291  68.011  1.00  0.00    -0.307 A  
HETATM   19  C   UNL     1     -11.375  14.655  68.283  1.00  0.00    -0.317 A  
HETATM   20  C   UNL     1     -11.863  15.067  69.521  1.00  0.00    -0.360 A  
HETATM   21  C   UNL     1     -12.206  14.118  70.481  1.00  0.00    -0.431 A  
HETATM   22  C   UNL     1     -12.037  12.760  70.208  1.00  0.00    -0.373 A  
ENDBRANCH  15  17
ENDBRANCH  13  15
ENDBRANCH   7  13
TORSDOF 3
ENDMDL
MODEL      124
REMARK 921   NORMALIZED FREE ENERGY PREDICTED BY IDOCK:   -4.16 KCAL/MOL
REMARK 922        TOTAL FREE ENERGY PREDICTED BY IDOCK:   -5.42 KCAL/MOL
REMARK 923 INTER-LIGAND FREE ENERGY PREDICTED BY IDOCK:   -5.05 KCAL/MOL
REMARK 924 INTRA-LIGAND FREE ENERGY PREDICTED BY IDOCK:   -0.36 KCAL/MOL
REMARK 927      BINDING AFFINITY PREDICTED BY RF-SCORE:    0.00 PKD
ROOT
HETATM    1  N   UNL     1      -6.865   4.617  66.834  1.00  0.00    -0.054 NA 
HETATM    2  C   UNL     1      -8.042   5.101  67.397  1.00  0.00    -0.100 A  
HETATM    3  H2  UNL     1      -6.641   5.153  65.996  1.00  0.00     0.000 HD 
HETATM    4  H1  UNL     1      -6.049   4.578  67.443  1.00  0.00     0.000 HD 
HETATM    5  N   UNL     1      -9.118   5.154  66.594  1.00  0.00    -0.118 NA 
HETATM    6  C   UNL     1     -10.284   5.597  67.118  1.00  0.00    -0.212 A  
HETATM    7  C   UNL     1     -10.426   6.004  68.461  1.00  0.00    -0.234 A  
HETATM    8  N   UNL     1     -11.334   5.692  66.200  1.00  0.00    -0.629 NA 
HETATM    9  H2  UNL     1     -11.473   4.798  65.727  1.00  0.00     0.000 HD 
HETATM   10  C   UNL     1      -8.083   5.473  68.731  1.00  0.00    -0.099 A  
HETATM   11  C   UNL     1      -9.286   5.934  69.262  1.00  0.00    -0.147 A  
HETATM   12  H1  UNL     1     -12.213   6.026  66.595  1.00  0.00     0.000 HD 
ENDROOT
BRANCH   7  13
HETATM   13  N   UNL     1     -11.618   6.483  69.056  1.00  0.00    -0.594 NA 
HETATM   14  H   UNL     1     -12.385   6.904  68.533  1.00  0.00     0.000 HD 
BRANCH  13  15
HETATM   15  N   UNL     1     -11.621   6.330  70.294  1.00  0.00    -0.374 NA 
HETATM   16  H   UNL     1     -11.144   5.560  70.764  1.00  0.00     0.000 HD 
BRANCH  15  17
HETATM   17  C   UNL     1     -12.351   7.323  70.978  1.00  0.00    -0.297 A  
HETATM   18  C   UNL     1     -13.651   7.158  71.480  1.00  0.00    -0.408 A  
HETATM   19  C   UNL     1     -14.318   8.223  72.099  1.00  0.00    -0.498 A  
HETATM   20  C   UNL     1     -13.685   9.456  72.240  1.00  0.00    -0.495 A  
HETATM   21  C   UNL     1     -12.381   9.623  71.781  1.00  0.00    -0.474 A  
HETATM   22  C   UNL     1     -11.721   8.561  71.162  1.00  0.00    -0.322 A  
ENDBRANCH  15  17
ENDBRANCH  13  15
ENDBRANCH   7  13
TORSDOF 3
ENDMDL
MODEL      125
REMARK 921   NORMALIZED FREE ENERGY PREDICTED BY IDOCK:   -4.15 KCAL/MOL
REMARK 922        TOTAL FREE ENERGY PREDICTED BY IDOCK:   -5.41 KCAL/MOL
REMARK 923 INTER-LIGAND FREE ENERGY PREDICTED BY IDOCK:   -5.01 KCAL/MOL
REMARK 924 INTRA-LIGAND FREE ENERGY PREDICTED BY IDOCK:   -0.39 KCAL/MOL
REMARK 927      BINDING AFFINITY PREDICTED BY RF-SCORE:    0.00 PKD
ROOT
HETATM    1  N   UNL     1     -10.158  10.515  63.190  1.00  0.00    -0.529 NA 
HETATM    2  C   UNL     1     -10.238  10.614  64.576  1.00  0.00    -0.329 A  
HETATM    3  H2  UNL     1      -9.966  11.433  62.792  1.00  0.00     0.000 HD 
HETATM    4  H1  UNL     1      -9.496   9.835  62.817  1.00  0.00     0.000 HD 
HETATM    5  N   UNL     1     -11.110  11.509  65.067  1.00  0.00    -0.244 NA 
HETATM    6  C   UNL     1     -11.229  11.613  66.411  1.00  0.00    -0.287 A  
HETATM    7  C   UNL     1     -10.486  10.829  67.318  1.00  0.00    -0.237 A  
HETATM    8  N   UNL     1     -12.101  12.618  66.840  1.00  0.00    -0.499 NA 
HETATM    9  H2  UNL     1     -13.019  12.500  66.410  1.00  0.00     0.000 HD 
HETATM   10  C   UNL     1      -9.468   9.794  65.385  1.00  0.00    -0.333 A  
HETATM   11  C   UNL     1      -9.592   9.911  66.768  1.00  0.00    -0.231 A  
HETATM   12  H1  UNL     1     -12.191  12.696  67.853  1.00  0.00     0.000 HD 
ENDROOT
BRANCH   7  13
HETATM   13  N   UNL     1     -10.566  10.903  68.729  1.00  0.00    -0.189 NA 
HETATM   14  H   UNL     1      -9.943  11.469  69.305  1.00  0.00     0.000 HD 
BRANCH  13  15
HETATM   15  N   UNL     1     -11.486  10.197  69.187  1.00  0.00    -0.450 NA 
HETATM   16  H   UNL     1     -12.456  10.271  68.878  1.00  0.00     0.000 HD 
BRANCH  15  17
HETATM   17  C   UNL     1     -11.055   9.286  70.173  1.00  0.00    -0.230 A  
HETATM   18  C   UNL     1     -11.385   9.366  71.535  1.00  0.00    -0.464 A  
HETATM   19  C   UNL     1     -10.863   8.444  72.451  1.00  0.00    -0.416 A  
HETATM   20  C   UNL     1     -10.021   7.424  72.013  1.00  0.00    -0.196 A  
HETATM   21  C   UNL     1      -9.715   7.311  70.660  1.00  0.00    -0.175 A  
HETATM   22  C   UNL     1     -10.235   8.232  69.750  1.00  0.00    -0.204 A  
ENDBRANCH  15  17
ENDBRANCH  13  15
ENDBRANCH   7  13
TORSDOF 3
ENDMDL
MODEL      126
REMARK 921   NORMALIZED FREE ENERGY PREDICTED BY IDOCK:   -4.14 KCAL/MOL
REMARK 922        TOTAL FREE ENERGY PREDICTED BY IDOCK:   -5.40 KCAL/MOL
REMARK 923 INTER-LIGAND FREE ENERGY PREDICTED BY IDOCK:   -5.09 KCAL/MOL
REMARK 924 INTRA-LIGAND FREE ENERGY PREDICTED BY IDOCK:   -0.31 KCAL/MOL
REMARK 927      BINDING AFFINITY PREDICTED BY RF-SCORE:    0.00 PKD
ROOT
HETATM    1  N   UNL     1     -12.750   7.949  72.945  1.00  0.00    -0.351 NA 
HETATM    2  C   UNL     1     -11.937   8.658  72.066  1.00  0.00    -0.372 A  
HETATM    3  H2  UNL     1     -12.454   8.127  73.904  1.00  0.00     0.000 HD 
HETATM    4  H1  UNL     1     -13.755   8.102  72.863  1.00  0.00     0.000 HD 
HETATM    5  N   UNL     1     -10.613   8.457  72.174  1.00  0.00    -0.304 NA 
HETATM    6  C   UNL     1      -9.796   9.113  71.318  1.00  0.00    -0.293 A  
HETATM    7  C   UNL     1     -10.264   9.993  70.321  1.00  0.00    -0.206 A  
HETATM    8  N   UNL     1      -8.432   8.907  71.545  1.00  0.00    -0.310 NA 
HETATM    9  H2  UNL     1      -8.219   7.909  71.546  1.00  0.00     0.000 HD 
HETATM   10  C   UNL     1     -12.493   9.498  71.114  1.00  0.00    -0.399 A  
HETATM   11  C   UNL     1     -11.644  10.175  70.240  1.00  0.00    -0.379 A  
HETATM   12  H1  UNL     1      -7.816   9.401  70.900  1.00  0.00     0.000 HD 
ENDROOT
BRANCH   7  13
HETATM   13  N   UNL     1      -9.454  10.709  69.407  1.00  0.00    -0.395 NA 
HETATM   14  H   UNL     1      -8.505  10.435  69.152  1.00  0.00     0.000 HD 
BRANCH  13  15
HETATM   15  N   UNL     1     -10.034  11.714  68.949  1.00  0.00    -0.387 NA 
HETATM   16  H   UNL     1     -10.401  12.464  69.535  1.00  0.00     0.000 HD 
BRANCH  15  17
HETATM   17  C   UNL     1     -10.132  11.710  67.543  1.00  0.00    -0.191 A  
HETATM   18  C   UNL     1      -9.270  11.014  66.682  1.00  0.00    -0.182 A  
HETATM   19  C   UNL     1      -9.414  11.115  65.292  1.00  0.00    -0.257 A  
HETATM   20  C   UNL     1     -10.431  11.898  64.750  1.00  0.00    -0.333 A  
HETATM   21  C   UNL     1     -11.317  12.565  65.592  1.00  0.00    -0.372 A  
HETATM   22  C   UNL     1     -11.170  12.463  66.976  1.00  0.00    -0.358 A  
ENDBRANCH  15  17
ENDBRANCH  13  15
ENDBRANCH   7  13
TORSDOF 3
ENDMDL
MODEL      127
REMARK 921   NORMALIZED FREE ENERGY PREDICTED BY IDOCK:   -4.09 KCAL/MOL
REMARK 922        TOTAL FREE ENERGY PREDICTED BY IDOCK:   -5.34 KCAL/MOL
REMARK 923 INTER-LIGAND FREE ENERGY PREDICTED BY IDOCK:   -4.76 KCAL/MOL
REMARK 924 INTRA-LIGAND FREE ENERGY PREDICTED BY IDOCK:   -0.57 KCAL/MOL
REMARK 927      BINDING AFFINITY PREDICTED BY RF-SCORE:    0.00 PKD
ROOT
HETATM    1  N   UNL     1      -9.069   6.111  65.467  1.00  0.00    -0.365 NA 
HETATM    2  C   UNL     1      -9.230   7.129  66.403  1.00  0.00    -0.157 A  
HETATM    3  H2  UNL     1      -8.478   5.379  65.857  1.00  0.00     0.000 HD 
HETATM    4  H1  UNL     1      -9.922   5.698  65.089  1.00  0.00     0.000 HD 
HETATM    5  N   UNL     1      -8.108   7.673  66.901  1.00  0.00    -0.114 NA 
HETATM    6  C   UNL     1      -8.230   8.681  67.795  1.00  0.00    -0.118 A  
HETATM    7  C   UNL     1      -9.473   9.188  68.227  1.00  0.00    -0.142 A  
HETATM    8  N   UNL     1      -7.018   9.140  68.320  1.00  0.00    -0.075 NA 
HETATM    9  H2  UNL     1      -6.384   9.408  67.567  1.00  0.00     0.000 HD 
HETATM   10  C   UNL     1     -10.497   7.562  66.760  1.00  0.00    -0.319 A  
HETATM   11  C   UNL     1     -10.614   8.597  67.686  1.00  0.00    -0.272 A  
HETATM   12  H1  UNL     1      -7.111   9.901  68.994  1.00  0.00     0.000 HD 
ENDROOT
BRANCH   7  13
HETATM   13  N   UNL     1      -9.656  10.233  69.164  1.00  0.00    -0.207 NA 
HETATM   14  H   UNL     1      -9.842  11.201  68.906  1.00  0.00     0.000 HD 
BRANCH  13  15
HETATM   15  N   UNL     1      -9.564   9.832  70.342  1.00  0.00    -0.352 NA 
HETATM   16  H   UNL     1      -8.674   9.620  70.793  1.00  0.00     0.000 HD 
BRANCH  15  17
HETATM   17  C   UNL     1     -10.811   9.701  70.987  1.00  0.00    -0.342 A  
HETATM   18  C   UNL     1     -11.841  10.653  70.940  1.00  0.00    -0.433 A  
HETATM   19  C   UNL     1     -13.026  10.459  71.661  1.00  0.00    -0.581 A  
HETATM   20  C   UNL     1     -13.201   9.303  72.419  1.00  0.00    -0.501 A  
HETATM   21  C   UNL     1     -12.203   8.332  72.445  1.00  0.00    -0.412 A  
HETATM   22  C   UNL     1     -11.022   8.530  71.727  1.00  0.00    -0.376 A  
ENDBRANCH  15  17
ENDBRANCH  13  15
ENDBRANCH   7  13
TORSDOF 3
ENDMDL
MODEL      128
REMARK 921   NORMALIZED FREE ENERGY PREDICTED BY IDOCK:   -4.08 KCAL/MOL
REMARK 922        TOTAL FREE ENERGY PREDICTED BY IDOCK:   -5.32 KCAL/MOL
REMARK 923 INTER-LIGAND FREE ENERGY PREDICTED BY IDOCK:   -4.73 KCAL/MOL
REMARK 924 INTRA-LIGAND FREE ENERGY PREDICTED BY IDOCK:   -0.60 KCAL/MOL
REMARK 927      BINDING AFFINITY PREDICTED BY RF-SCORE:    0.00 PKD
ROOT
HETATM    1  N   UNL     1     -11.826  14.339  69.122  1.00  0.00    -0.312 NA 
HETATM    2  C   UNL     1     -11.717  13.810  67.839  1.00  0.00    -0.360 A  
HETATM    3  H2  UNL     1     -12.433  15.158  69.103  1.00  0.00     0.000 HD 
HETATM    4  H1  UNL     1     -12.135  13.700  69.854  1.00  0.00     0.000 HD 
HETATM    5  N   UNL     1     -11.310  14.651  66.873  1.00  0.00    -0.347 NA 
HETATM    6  C   UNL     1     -11.169  14.162  65.620  1.00  0.00    -0.308 A  
HETATM    7  C   UNL     1     -11.427  12.819  65.278  1.00  0.00    -0.325 A  
HETATM    8  N   UNL     1     -10.816  15.117  64.661  1.00  0.00    -0.632 NA 
HETATM    9  H2  UNL     1      -9.970  15.611  64.947  1.00  0.00     0.000 HD 
HETATM   10  C   UNL     1     -11.987  12.472  67.603  1.00  0.00    -0.287 A  
HETATM   11  C   UNL     1     -11.846  11.978  66.308  1.00  0.00    -0.225 A  
HETATM   12  H1  UNL     1     -10.710  14.748  63.716  1.00  0.00     0.000 HD 
ENDROOT
BRANCH   7  13
HETATM   13  N   UNL     1     -11.304  12.259  63.983  1.00  0.00    -0.365 NA 
HETATM   14  H   UNL     1     -12.065  11.793  63.490  1.00  0.00     0.000 HD 
BRANCH  13  15
HETATM   15  N   UNL     1     -10.157  12.402  63.515  1.00  0.00    -0.541 NA 
HETATM   16  H   UNL     1      -9.810  13.287  63.144  1.00  0.00     0.000 HD 
BRANCH  15  17
HETATM   17  C   UNL     1      -9.388  11.221  63.547  1.00  0.00    -0.204 A  
HETATM   18  C   UNL     1      -8.551  10.840  64.608  1.00  0.00    -0.064 A  
HETATM   19  C   UNL     1      -7.781   9.673  64.526  1.00  0.00    -0.131 A  
HETATM   20  C   UNL     1      -7.855   8.865  63.393  1.00  0.00    -0.144 A  
HETATM   21  C   UNL     1      -8.710   9.211  62.349  1.00  0.00    -0.226 A  
HETATM   22  C   UNL     1      -9.473  10.376  62.433  1.00  0.00    -0.256 A  
ENDBRANCH  15  17
ENDBRANCH  13  15
ENDBRANCH   7  13
TORSDOF 3
ENDMDL
MODEL      129
REMARK 921   NORMALIZED FREE ENERGY PREDICTED BY IDOCK:   -4.03 KCAL/MOL
REMARK 922        TOTAL FREE ENERGY PREDICTED BY IDOCK:   -5.27 KCAL/MOL
REMARK 923 INTER-LIGAND FREE ENERGY PREDICTED BY IDOCK:   -4.89 KCAL/MOL
REMARK 924 INTRA-LIGAND FREE ENERGY PREDICTED BY IDOCK:   -0.38 KCAL/MOL
REMARK 927      BINDING AFFINITY PREDICTED BY RF-SCORE:    0.00 PKD
ROOT
HETATM    1  N   UNL     1      -7.126   4.434  71.386  1.00  0.00    -0.042 NA 
HETATM    2  C   UNL     1      -8.313   5.100  71.675  1.00  0.00    -0.117 A  
HETATM    3  H2  UNL     1      -6.779   3.974  72.226  1.00  0.00     0.000 HD 
HETATM    4  H1  UNL     1      -7.152   3.766  70.616  1.00  0.00     0.000 HD 
HETATM    5  N   UNL     1      -8.279   5.980  72.689  1.00  0.00    -0.111 NA 
HETATM    6  C   UNL     1      -9.411   6.662  72.980  1.00  0.00    -0.135 A  
HETATM    7  C   UNL     1     -10.619   6.497  72.273  1.00  0.00    -0.212 A  
HETATM    8  N   UNL     1      -9.312   7.501  74.094  1.00  0.00    -0.412 NA 
HETATM    9  H2  UNL     1      -8.527   8.144  73.986  1.00  0.00     0.000 HD 
HETATM   10  C   UNL     1      -9.451   4.873  70.916  1.00  0.00    -0.227 A  
HETATM   11  C   UNL     1     -10.614   5.575  71.226  1.00  0.00    -0.304 A  
HETATM   12  H1  UNL     1     -10.165   8.016  74.313  1.00  0.00     0.000 HD 
ENDROOT
BRANCH   7  13
HETATM   13  N   UNL     1     -11.831   7.178  72.540  1.00  0.00    -0.482 NA 
HETATM   14  H   UNL     1     -12.189   7.355  73.478  1.00  0.00     0.000 HD 
BRANCH  13  15
HETATM   15  N   UNL     1     -12.411   7.537  71.496  1.00  0.00    -0.332 NA 
HETATM   16  H   UNL     1     -12.873   6.886  70.860  1.00  0.00     0.000 HD 
BRANCH  15  17
HETATM   17  C   UNL     1     -12.365   8.929  71.281  1.00  0.00    -0.291 A  
HETATM   18  C   UNL     1     -13.208   9.863  71.903  1.00  0.00    -0.558 A  
HETATM   19  C   UNL     1     -13.123  11.225  71.584  1.00  0.00    -0.513 A  
HETATM   20  C   UNL     1     -12.185  11.668  70.653  1.00  0.00    -0.461 A  
HETATM   21  C   UNL     1     -11.318  10.757  70.056  1.00  0.00    -0.397 A  
HETATM   22  C   UNL     1     -11.406   9.401  70.375  1.00  0.00    -0.295 A  
ENDBRANCH  15  17
ENDBRANCH  13  15
ENDBRANCH   7  13
TORSDOF 3
ENDMDL
MODEL      130
REMARK 921   NORMALIZED FREE ENERGY PREDICTED BY IDOCK:   -4.02 KCAL/MOL
REMARK 922        TOTAL FREE ENERGY PREDICTED BY IDOCK:   -5.26 KCAL/MOL
REMARK 923 INTER-LIGAND FREE ENERGY PREDICTED BY IDOCK:   -4.94 KCAL/MOL
REMARK 924 INTRA-LIGAND FREE ENERGY PREDICTED BY IDOCK:   -0.33 KCAL/MOL
REMARK 927      BINDING AFFINITY PREDICTED BY RF-SCORE:    0.00 PKD
ROOT
HETATM    1  N   UNL     1     -10.188   9.782  66.876  1.00  0.00    -0.236 NA 
HETATM    2  C   UNL     1     -10.066  11.142  67.148  1.00  0.00    -0.191 A  
HETATM    3  H2  UNL     1      -9.685   9.246  67.582  1.00  0.00     0.000 HD 
HETATM    4  H1  UNL     1     -11.136   9.418  66.781  1.00  0.00     0.000 HD 
HETATM    5  N   UNL     1      -8.817  11.621  67.273  1.00  0.00    -0.159 NA 
HETATM    6  C   UNL     1      -8.663  12.944  67.513  1.00  0.00    -0.190 A  
HETATM    7  C   UNL     1      -9.744  13.841  67.636  1.00  0.00    -0.227 A  
HETATM    8  N   UNL     1      -7.338  13.348  67.705  1.00  0.00    -0.155 NA 
HETATM    9  H2  UNL     1      -6.761  13.061  66.913  1.00  0.00     0.000 HD 
HETATM   10  C   UNL     1     -11.191  11.944  67.245  1.00  0.00    -0.376 A  
HETATM   11  C   UNL     1     -11.024  13.304  67.499  1.00  0.00    -0.281 A  
HETATM   12  H1  UNL     1      -7.222  14.345  67.885  1.00  0.00     0.000 HD 
ENDROOT
BRANCH   7  13
HETATM   13  N   UNL     1      -9.639  15.229  67.894  1.00  0.00    -0.199 NA 
HETATM   14  H   UNL     1      -9.355  15.620  68.792  1.00  0.00     0.000 HD 
BRANCH  13  15
HETATM   15  N   UNL     1      -9.933  15.918  66.898  1.00  0.00    -0.243 NA 
HETATM   16  H   UNL     1     -10.054  15.527  65.963  1.00  0.00     0.000 HD 
BRANCH  15  17
HETATM   17  C   UNL     1     -10.081  17.289  67.189  1.00  0.00    -0.297 A  
HETATM   18  C   UNL     1     -10.401  18.277  66.245  1.00  0.00    -0.422 A  
HETATM   19  C   UNL     1     -10.472  19.625  66.619  1.00  0.00    -0.610 A  
HETATM   20  C   UNL     1     -10.242  19.996  67.943  1.00  0.00    -0.545 A  
HETATM   21  C   UNL     1      -9.960  19.022  68.897  1.00  0.00    -0.460 A  
HETATM   22  C   UNL     1      -9.888  17.680  68.520  1.00  0.00    -0.346 A  
ENDBRANCH  15  17
ENDBRANCH  13  15
ENDBRANCH   7  13
TORSDOF 3
ENDMDL
MODEL      131
REMARK 921   NORMALIZED FREE ENERGY PREDICTED BY IDOCK:   -4.02 KCAL/MOL
REMARK 922        TOTAL FREE ENERGY PREDICTED BY IDOCK:   -5.26 KCAL/MOL
REMARK 923 INTER-LIGAND FREE ENERGY PREDICTED BY IDOCK:   -4.89 KCAL/MOL
REMARK 924 INTRA-LIGAND FREE ENERGY PREDICTED BY IDOCK:   -0.37 KCAL/MOL
REMARK 927      BINDING AFFINITY PREDICTED BY RF-SCORE:    0.00 PKD
ROOT
HETATM    1  N   UNL     1     -12.336  14.334  67.423  1.00  0.00    -0.591 NA 
HETATM    2  C   UNL     1     -11.827  13.040  67.365  1.00  0.00    -0.357 A  
HETATM    3  H2  UNL     1     -13.044  14.456  66.699  1.00  0.00     0.000 HD 
HETATM    4  H1  UNL     1     -12.710  14.639  68.321  1.00  0.00     0.000 HD 
HETATM    5  N   UNL     1     -11.335  12.638  66.182  1.00  0.00    -0.312 NA 
HETATM    6  C   UNL     1     -10.811  11.393  66.099  1.00  0.00    -0.255 A  
HETATM    7  C   UNL     1     -10.755  10.501  67.190  1.00  0.00    -0.265 A  
HETATM    8  N   UNL     1     -10.390  11.026  64.818  1.00  0.00    -0.313 NA 
HETATM    9  H2  UNL     1      -9.732  11.714  64.449  1.00  0.00     0.000 HD 
HETATM   10  C   UNL     1     -11.811  12.240  68.496  1.00  0.00    -0.359 A  
HETATM   11  C   UNL     1     -11.275  10.957  68.401  1.00  0.00    -0.347 A  
HETATM   12  H1  UNL     1      -9.994  10.088  64.755  1.00  0.00     0.000 HD 
ENDROOT
BRANCH   7  13
HETATM   13  N   UNL     1     -10.225   9.189  67.155  1.00  0.00    -0.240 NA 
HETATM   14  H   UNL     1      -9.302   8.958  66.790  1.00  0.00     0.000 HD 
BRANCH  13  15
HETATM   15  N   UNL     1     -11.018   8.348  67.623  1.00  0.00    -0.483 NA 
HETATM   16  H   UNL     1     -12.024   8.371  67.452  1.00  0.00     0.000 HD 
BRANCH  15  17
HETATM   17  C   UNL     1     -10.388   7.364  68.413  1.00  0.00    -0.194 A  
HETATM   18  C   UNL     1      -9.030   7.020  68.329  1.00  0.00    -0.128 A  
HETATM   19  C   UNL     1      -8.506   5.988  69.118  1.00  0.00    -0.114 A  
HETATM   20  C   UNL     1      -9.328   5.304  70.011  1.00  0.00    -0.201 A  
HETATM   21  C   UNL     1     -10.669   5.661  70.132  1.00  0.00    -0.376 A  
HETATM   22  C   UNL     1     -11.188   6.688  69.343  1.00  0.00    -0.356 A  
ENDBRANCH  15  17
ENDBRANCH  13  15
ENDBRANCH   7  13
TORSDOF 3
ENDMDL
MODEL      132
REMARK 921   NORMALIZED FREE ENERGY PREDICTED BY IDOCK:   -4.02 KCAL/MOL
REMARK 922        TOTAL FREE ENERGY PREDICTED BY IDOCK:   -5.25 KCAL/MOL
REMARK 923 INTER-LIGAND FREE ENERGY PREDICTED BY IDOCK:   -4.69 KCAL/MOL
REMARK 924 INTRA-LIGAND FREE ENERGY PREDICTED BY IDOCK:   -0.56 KCAL/MOL
REMARK 927      BINDING AFFINITY PREDICTED BY RF-SCORE:    0.00 PKD
ROOT
HETATM    1  N   UNL     1      -6.823   9.330  66.274  1.00  0.00    -0.081 NA 
HETATM    2  C   UNL     1      -8.062   9.858  66.623  1.00  0.00    -0.117 A  
HETATM    3  H2  UNL     1      -6.289  10.025  65.754  1.00  0.00     0.000 HD 
HETATM    4  H1  UNL     1      -6.254   8.959  67.034  1.00  0.00     0.000 HD 
HETATM    5  N   UNL     1      -8.813  10.347  65.622  1.00  0.00    -0.166 NA 
HETATM    6  C   UNL     1     -10.033  10.846  65.925  1.00  0.00    -0.243 A  
HETATM    7  C   UNL     1     -10.555  10.878  67.234  1.00  0.00    -0.251 A  
HETATM    8  N   UNL     1     -10.718  11.403  64.840  1.00  0.00    -0.298 NA 
HETATM    9  H2  UNL     1     -10.789  10.725  64.080  1.00  0.00     0.000 HD 
HETATM   10  C   UNL     1      -8.490   9.838  67.941  1.00  0.00    -0.125 A  
HETATM   11  C   UNL     1      -9.746  10.360  68.245  1.00  0.00    -0.162 A  
HETATM   12  H1  UNL     1     -11.638  11.779  65.068  1.00  0.00     0.000 HD 
ENDROOT
BRANCH   7  13
HETATM   13  N   UNL     1     -11.820  11.395  67.606  1.00  0.00    -0.636 NA 
HETATM   14  H   UNL     1     -12.515  10.870  68.135  1.00  0.00     0.000 HD 
BRANCH  13  15
HETATM   15  N   UNL     1     -11.984  12.566  67.212  1.00  0.00    -0.505 NA 
HETATM   16  H   UNL     1     -12.094  12.816  66.229  1.00  0.00     0.000 HD 
BRANCH  15  17
HETATM   17  C   UNL     1     -12.004  13.511  68.258  1.00  0.00    -0.342 A  
HETATM   18  C   UNL     1     -11.879  14.898  68.085  1.00  0.00    -0.307 A  
HETATM   19  C   UNL     1     -11.854  15.756  69.193  1.00  0.00    -0.367 A  
HETATM   20  C   UNL     1     -11.972  15.238  70.481  1.00  0.00    -0.384 A  
HETATM   21  C   UNL     1     -12.134  13.867  70.665  1.00  0.00    -0.417 A  
HETATM   22  C   UNL     1     -12.156  13.015  69.559  1.00  0.00    -0.289 A  
ENDBRANCH  15  17
ENDBRANCH  13  15
ENDBRANCH   7  13
TORSDOF 3
ENDMDL
MODEL      133
REMARK 921   NORMALIZED FREE ENERGY PREDICTED BY IDOCK:   -4.00 KCAL/MOL
REMARK 922        TOTAL FREE ENERGY PREDICTED BY IDOCK:   -5.23 KCAL/MOL
REMARK 923 INTER-LIGAND FREE ENERGY PREDICTED BY IDOCK:   -4.87 KCAL/MOL
REMARK 924 INTRA-LIGAND FREE ENERGY PREDICTED BY IDOCK:   -0.35 KCAL/MOL
REMARK 927      BINDING AFFINITY PREDICTED BY RF-SCORE:    0.00 PKD
ROOT
HETATM    1  N   UNL     1     -12.523  14.085  63.133  1.00  0.00    -1.070 NA 
HETATM    2  C   UNL     1     -11.954  13.132  63.973  1.00  0.00    -0.460 A  
HETATM    3  H2  UNL     1     -13.049  13.620  62.395  1.00  0.00     0.000 HD 
HETATM    4  H1  UNL     1     -13.108  14.794  63.575  1.00  0.00     0.000 HD 
HETATM    5  N   UNL     1     -11.184  12.199  63.391  1.00  0.00    -0.429 NA 
HETATM    6  C   UNL     1     -10.597  11.272  64.184  1.00  0.00    -0.373 A  
HETATM    7  C   UNL     1     -10.752  11.239  65.585  1.00  0.00    -0.217 A  
HETATM    8  N   UNL     1      -9.874  10.294  63.494  1.00  0.00    -0.460 NA 
HETATM    9  H2  UNL     1      -9.182  10.728  62.882  1.00  0.00     0.000 HD 
HETATM   10  C   UNL     1     -12.162  13.188  65.342  1.00  0.00    -0.510 A  
HETATM   11  C   UNL     1     -11.558  12.226  66.151  1.00  0.00    -0.450 A  
HETATM   12  H1  UNL     1      -9.431   9.596  64.091  1.00  0.00     0.000 HD 
ENDROOT
BRANCH   7  13
HETATM   13  N   UNL     1     -10.167  10.289  66.457  1.00  0.00    -0.228 NA 
HETATM   14  H   UNL     1     -10.649   9.882  67.258  1.00  0.00     0.000 HD 
BRANCH  13  15
HETATM   15  N   UNL     1      -8.996  10.009  66.132  1.00  0.00    -0.146 NA 
HETATM   16  H   UNL     1      -8.744   9.626  65.221  1.00  0.00     0.000 HD 
BRANCH  15  17
HETATM   17  C   UNL     1      -8.056  10.273  67.149  1.00  0.00    -0.121 A  
HETATM   18  C   UNL     1      -7.353   9.290  67.863  1.00  0.00    -0.080 A  
HETATM   19  C   UNL     1      -6.477   9.648  68.896  1.00  0.00    -0.046 A  
HETATM   20  C   UNL     1      -6.281  10.991  69.213  1.00  0.00    -0.059 A  
HETATM   21  C   UNL     1      -6.943  11.978  68.487  1.00  0.00    -0.090 A  
HETATM   22  C   UNL     1      -7.817  11.618  67.460  1.00  0.00    -0.137 A  
ENDBRANCH  15  17
ENDBRANCH  13  15
ENDBRANCH   7  13
TORSDOF 3
ENDMDL
MODEL      134
REMARK 921   NORMALIZED FREE ENERGY PREDICTED BY IDOCK:   -3.97 KCAL/MOL
REMARK 922        TOTAL FREE ENERGY PREDICTED BY IDOCK:   -5.20 KCAL/MOL
REMARK 923 INTER-LIGAND FREE ENERGY PREDICTED BY IDOCK:   -4.55 KCAL/MOL
REMARK 924 INTRA-LIGAND FREE ENERGY PREDICTED BY IDOCK:   -0.64 KCAL/MOL
REMARK 927      BINDING AFFINITY PREDICTED BY RF-SCORE:    0.00 PKD
ROOT
HETATM    1  N   UNL     1     -11.858  12.057  67.613  1.00  0.00    -0.564 NA 
HETATM    2  C   UNL     1     -11.582  11.322  68.762  1.00  0.00    -0.316 A  
HETATM    3  H2  UNL     1     -12.318  12.930  67.869  1.00  0.00     0.000 HD 
HETATM    4  H1  UNL     1     -11.072  12.252  66.995  1.00  0.00     0.000 HD 
HETATM    5  N   UNL     1     -12.618  11.064  69.578  1.00  0.00    -0.256 NA 
HETATM    6  C   UNL     1     -12.386  10.331  70.691  1.00  0.00    -0.325 A  
HETATM    7  C   UNL     1     -11.117   9.824  71.036  1.00  0.00    -0.361 A  
HETATM    8  N   UNL     1     -13.500  10.172  71.522  1.00  0.00    -0.308 NA 
HETATM    9  H2  UNL     1     -14.283   9.783  70.996  1.00  0.00     0.000 HD 
HETATM   10  C   UNL     1     -10.299  10.862  69.012  1.00  0.00    -0.230 A  
HETATM   11  C   UNL     1     -10.068  10.112  70.163  1.00  0.00    -0.197 A  
HETATM   12  H1  UNL     1     -13.325   9.619  72.361  1.00  0.00     0.000 HD 
ENDROOT
BRANCH   7  13
HETATM   13  N   UNL     1     -10.820   9.060  72.190  1.00  0.00    -0.280 NA 
HETATM   14  H   UNL     1     -10.134   9.336  72.893  1.00  0.00     0.000 HD 
BRANCH  13  15
HETATM   15  N   UNL     1     -11.492   8.012  72.248  1.00  0.00    -0.333 NA 
HETATM   16  H   UNL     1     -12.465   7.987  72.557  1.00  0.00     0.000 HD 
BRANCH  15  17
HETATM   17  C   UNL     1     -10.778   6.865  71.845  1.00  0.00    -0.218 A  
HETATM   18  C   UNL     1      -9.672   6.332  72.525  1.00  0.00    -0.163 A  
HETATM   19  C   UNL     1      -8.991   5.218  72.017  1.00  0.00    -0.144 A  
HETATM   20  C   UNL     1      -9.418   4.617  70.835  1.00  0.00    -0.233 A  
HETATM   21  C   UNL     1     -10.536   5.113  70.169  1.00  0.00    -0.225 A  
HETATM   22  C   UNL     1     -11.211   6.224  70.677  1.00  0.00    -0.401 A  
ENDBRANCH  15  17
ENDBRANCH  13  15
ENDBRANCH   7  13
TORSDOF 3
ENDMDL
MODEL      135
REMARK 921   NORMALIZED FREE ENERGY PREDICTED BY IDOCK:   -3.96 KCAL/MOL
REMARK 922        TOTAL FREE ENERGY PREDICTED BY IDOCK:   -5.19 KCAL/MOL
REMARK 923 INTER-LIGAND FREE ENERGY PREDICTED BY IDOCK:   -4.81 KCAL/MOL
REMARK 924 INTRA-LIGAND FREE ENERGY PREDICTED BY IDOCK:   -0.37 KCAL/MOL
REMARK 927      BINDING AFFINITY PREDICTED BY RF-SCORE:    0.00 PKD
ROOT
HETATM    1  N   UNL     1      -8.355   9.108  71.392  1.00  0.00    -0.337 NA 
HETATM    2  C   UNL     1      -8.600   9.695  70.154  1.00  0.00    -0.214 A  
HETATM    3  H2  UNL     1      -8.653   8.133  71.373  1.00  0.00     0.000 HD 
HETATM    4  H1  UNL     1      -7.401   9.167  71.746  1.00  0.00     0.000 HD 
HETATM    5  N   UNL     1      -9.857   9.617  69.687  1.00  0.00    -0.201 NA 
HETATM    6  C   UNL     1     -10.132  10.199  68.498  1.00  0.00    -0.169 A  
HETATM    7  C   UNL     1      -9.170  10.883  67.727  1.00  0.00    -0.153 A  
HETATM    8  N   UNL     1     -11.443  10.007  68.049  1.00  0.00    -0.610 NA 
HETATM    9  H2  UNL     1     -12.110  10.314  68.758  1.00  0.00     0.000 HD 
HETATM   10  C   UNL     1      -7.586  10.351  69.474  1.00  0.00    -0.158 A  
HETATM   11  C   UNL     1      -7.877  10.943  68.247  1.00  0.00    -0.118 A  
HETATM   12  H1  UNL     1     -11.651  10.447  67.152  1.00  0.00     0.000 HD 
ENDROOT
BRANCH   7  13
HETATM   13  N   UNL     1      -9.403  11.501  66.475  1.00  0.00    -0.192 NA 
HETATM   14  H   UNL     1      -9.749  11.007  65.653  1.00  0.00     0.000 HD 
BRANCH  13  15
HETATM   15  N   UNL     1      -9.138  12.720  66.494  1.00  0.00    -0.376 NA 
HETATM   16  H   UNL     1      -8.313  13.106  66.955  1.00  0.00     0.000 HD 
BRANCH  15  17
HETATM   17  C   UNL     1     -10.089  13.510  65.818  1.00  0.00    -0.287 A  
HETATM   18  C   UNL     1      -9.903  14.854  65.458  1.00  0.00    -0.348 A  
HETATM   19  C   UNL     1     -10.929  15.575  64.836  1.00  0.00    -0.452 A  
HETATM   20  C   UNL     1     -12.145  14.957  64.550  1.00  0.00    -0.420 A  
HETATM   21  C   UNL     1     -12.330  13.613  64.867  1.00  0.00    -0.442 A  
HETATM   22  C   UNL     1     -11.306  12.898  65.490  1.00  0.00    -0.340 A  
ENDBRANCH  15  17
ENDBRANCH  13  15
ENDBRANCH   7  13
TORSDOF 3
ENDMDL
MODEL      136
REMARK 921   NORMALIZED FREE ENERGY PREDICTED BY IDOCK:   -3.96 KCAL/MOL
REMARK 922        TOTAL FREE ENERGY PREDICTED BY IDOCK:   -5.18 KCAL/MOL
REMARK 923 INTER-LIGAND FREE ENERGY PREDICTED BY IDOCK:   -4.69 KCAL/MOL
REMARK 924 INTRA-LIGAND FREE ENERGY PREDICTED BY IDOCK:   -0.50 KCAL/MOL
REMARK 927      BINDING AFFINITY PREDICTED BY RF-SCORE:    0.00 PKD
ROOT
HETATM    1  N   UNL     1     -11.567  14.608  64.032  1.00  0.00    -0.625 NA 
HETATM    2  C   UNL     1     -11.218  13.315  64.410  1.00  0.00    -0.381 A  
HETATM    3  H2  UNL     1     -12.283  14.571  63.307  1.00  0.00     0.000 HD 
HETATM    4  H1  UNL     1     -11.865  15.238  64.776  1.00  0.00     0.000 HD 
HETATM    5  N   UNL     1     -10.825  12.485  63.429  1.00  0.00    -0.399 NA 
HETATM    6  C   UNL     1     -10.457  11.228  63.767  1.00  0.00    -0.399 A  
HETATM    7  C   UNL     1     -10.464  10.747  65.093  1.00  0.00    -0.229 A  
HETATM    8  N   UNL     1     -10.134  10.407  62.682  1.00  0.00    -0.689 NA 
HETATM    9  H2  UNL     1      -9.414  10.846  62.107  1.00  0.00     0.000 HD 
HETATM   10  C   UNL     1     -11.253  12.938  65.743  1.00  0.00    -0.324 A  
HETATM   11  C   UNL     1     -10.878  11.639  66.082  1.00  0.00    -0.343 A  
HETATM   12  H1  UNL     1      -9.856   9.459  62.937  1.00  0.00     0.000 HD 
ENDROOT
BRANCH   7  13
HETATM   13  N   UNL     1     -10.097   9.442  65.499  1.00  0.00    -0.350 NA 
HETATM   14  H   UNL     1     -10.705   8.819  66.029  1.00  0.00     0.000 HD 
BRANCH  13  15
HETATM   15  N   UNL     1      -8.943   9.141  65.133  1.00  0.00    -0.264 NA 
HETATM   16  H   UNL     1      -8.388   9.719  64.502  1.00  0.00     0.000 HD 
BRANCH  15  17
HETATM   17  C   UNL     1      -8.483   7.924  65.676  1.00  0.00    -0.147 A  
HETATM   18  C   UNL     1      -7.352   7.225  65.228  1.00  0.00    -0.080 A  
HETATM   19  C   UNL     1      -7.004   5.992  65.795  1.00  0.00    -0.061 A  
HETATM   20  C   UNL     1      -7.772   5.455  66.826  1.00  0.00    -0.100 A  
HETATM   21  C   UNL     1      -8.876   6.156  67.305  1.00  0.00    -0.107 A  
HETATM   22  C   UNL     1      -9.221   7.383  66.737  1.00  0.00    -0.190 A  
ENDBRANCH  15  17
ENDBRANCH  13  15
ENDBRANCH   7  13
TORSDOF 3
ENDMDL
MODEL      137
REMARK 921   NORMALIZED FREE ENERGY PREDICTED BY IDOCK:   -3.96 KCAL/MOL
REMARK 922        TOTAL FREE ENERGY PREDICTED BY IDOCK:   -5.18 KCAL/MOL
REMARK 923 INTER-LIGAND FREE ENERGY PREDICTED BY IDOCK:   -4.83 KCAL/MOL
REMARK 924 INTRA-LIGAND FREE ENERGY PREDICTED BY IDOCK:   -0.35 KCAL/MOL
REMARK 927      BINDING AFFINITY PREDICTED BY RF-SCORE:    0.00 PKD
ROOT
HETATM    1  N   UNL     1      -6.175  18.666  69.438  1.00  0.00    -0.259 NA 
HETATM    2  C   UNL     1      -6.796  17.585  68.816  1.00  0.00    -0.233 A  
HETATM    3  H2  UNL     1      -5.218  18.415  69.682  1.00  0.00     0.000 HD 
HETATM    4  H1  UNL     1      -6.179  19.549  68.929  1.00  0.00     0.000 HD 
HETATM    5  N   UNL     1      -6.791  16.421  69.486  1.00  0.00    -0.222 NA 
HETATM    6  C   UNL     1      -7.407  15.358  68.920  1.00  0.00    -0.147 A  
HETATM    7  C   UNL     1      -8.053  15.412  67.667  1.00  0.00    -0.150 A  
HETATM    8  N   UNL     1      -7.292  14.168  69.645  1.00  0.00    -0.354 NA 
HETATM    9  H2  UNL     1      -7.621  14.301  70.601  1.00  0.00     0.000 HD 
HETATM   10  C   UNL     1      -7.409  17.740  67.584  1.00  0.00    -0.207 A  
HETATM   11  C   UNL     1      -8.037  16.639  67.005  1.00  0.00    -0.228 A  
HETATM   12  H1  UNL     1      -7.757  13.366  69.218  1.00  0.00     0.000 HD 
ENDROOT
BRANCH   7  13
HETATM   13  N   UNL     1      -8.704  14.329  67.028  1.00  0.00    -0.261 NA 
HETATM   14  H   UNL     1      -8.835  13.412  67.455  1.00  0.00     0.000 HD 
BRANCH  13  15
HETATM   15  N   UNL     1      -9.100  14.627  65.884  1.00  0.00    -0.476 NA 
HETATM   16  H   UNL     1      -8.632  15.311  65.290  1.00  0.00     0.000 HD 
BRANCH  15  17
HETATM   17  C   UNL     1     -10.258  13.924  65.492  1.00  0.00    -0.331 A  
HETATM   18  C   UNL     1     -10.260  12.654  64.896  1.00  0.00    -0.295 A  
HETATM   19  C   UNL     1     -11.461  12.058  64.490  1.00  0.00    -0.385 A  
HETATM   20  C   UNL     1     -12.672  12.717  64.693  1.00  0.00    -0.458 A  
HETATM   21  C   UNL     1     -12.688  13.962  65.317  1.00  0.00    -0.485 A  
HETATM   22  C   UNL     1     -11.490  14.553  65.718  1.00  0.00    -0.342 A  
ENDBRANCH  15  17
ENDBRANCH  13  15
ENDBRANCH   7  13
TORSDOF 3
ENDMDL
MODEL      138
REMARK 921   NORMALIZED FREE ENERGY PREDICTED BY IDOCK:   -3.93 KCAL/MOL
REMARK 922        TOTAL FREE ENERGY PREDICTED BY IDOCK:   -5.15 KCAL/MOL
REMARK 923 INTER-LIGAND FREE ENERGY PREDICTED BY IDOCK:   -4.69 KCAL/MOL
REMARK 924 INTRA-LIGAND FREE ENERGY PREDICTED BY IDOCK:   -0.46 KCAL/MOL
REMARK 927      BINDING AFFINITY PREDICTED BY RF-SCORE:    0.00 PKD
ROOT
HETATM    1  N   UNL     1      -8.184  12.304  67.693  1.00  0.00    -0.154 NA 
HETATM    2  C   UNL     1      -8.970  11.424  68.431  1.00  0.00    -0.172 A  
HETATM    3  H2  UNL     1      -8.484  13.262  67.870  1.00  0.00     0.000 HD 
HETATM    4  H1  UNL     1      -7.175  12.233  67.820  1.00  0.00     0.000 HD 
HETATM    5  N   UNL     1     -10.299  11.518  68.264  1.00  0.00    -0.190 NA 
HETATM    6  C   UNL     1     -11.090  10.660  68.949  1.00  0.00    -0.261 A  
HETATM    7  C   UNL     1     -10.590   9.675  69.826  1.00  0.00    -0.242 A  
HETATM    8  N   UNL     1     -12.461  10.873  68.778  1.00  0.00    -0.706 NA 
HETATM    9  H2  UNL     1     -12.701  10.862  67.786  1.00  0.00     0.000 HD 
HETATM   10  C   UNL     1      -8.382  10.485  69.264  1.00  0.00    -0.144 A  
HETATM   11  C   UNL     1      -9.204   9.609  69.971  1.00  0.00    -0.275 A  
HETATM   12  H1  UNL     1     -13.057  10.225  69.294  1.00  0.00     0.000 HD 
ENDROOT
BRANCH   7  13
HETATM   13  N   UNL     1     -11.371   8.760  70.571  1.00  0.00    -0.322 NA 
HETATM   14  H   UNL     1     -11.745   8.956  71.499  1.00  0.00     0.000 HD 
BRANCH  13  15
HETATM   15  N   UNL     1     -11.551   7.687  69.961  1.00  0.00    -0.480 NA 
HETATM   16  H   UNL     1     -11.921   7.638  69.012  1.00  0.00     0.000 HD 
BRANCH  15  17
HETATM   17  C   UNL     1     -11.194   6.550  70.713  1.00  0.00    -0.321 A  
HETATM   18  C   UNL     1     -11.433   6.391  72.087  1.00  0.00    -0.344 A  
HETATM   19  C   UNL     1     -10.991   5.246  72.761  1.00  0.00    -0.331 A  
HETATM   20  C   UNL     1     -10.323   4.240  72.066  1.00  0.00    -0.169 A  
HETATM   21  C   UNL     1     -10.113   4.366  70.695  1.00  0.00    -0.191 A  
HETATM   22  C   UNL     1     -10.552   5.510  70.027  1.00  0.00    -0.384 A  
ENDBRANCH  15  17
ENDBRANCH  13  15
ENDBRANCH   7  13
TORSDOF 3
ENDMDL
MODEL      139
REMARK 921   NORMALIZED FREE ENERGY PREDICTED BY IDOCK:   -3.93 KCAL/MOL
REMARK 922        TOTAL FREE ENERGY PREDICTED BY IDOCK:   -5.15 KCAL/MOL
REMARK 923 INTER-LIGAND FREE ENERGY PREDICTED BY IDOCK:   -4.59 KCAL/MOL
REMARK 924 INTRA-LIGAND FREE ENERGY PREDICTED BY IDOCK:   -0.55 KCAL/MOL
REMARK 927      BINDING AFFINITY PREDICTED BY RF-SCORE:    0.00 PKD
ROOT
HETATM    1  N   UNL     1     -12.575  14.678  63.573  1.00  0.00    -0.907 NA 
HETATM    2  C   UNL     1     -11.719  13.666  64.000  1.00  0.00    -0.364 A  
HETATM    3  H2  UNL     1     -12.036  15.522  63.382  1.00  0.00     0.000 HD 
HETATM    4  H1  UNL     1     -13.172  14.465  62.775  1.00  0.00     0.000 HD 
HETATM    5  N   UNL     1     -10.932  13.946  65.051  1.00  0.00    -0.347 NA 
HETATM    6  C   UNL     1     -10.106  12.975  65.506  1.00  0.00    -0.259 A  
HETATM    7  C   UNL     1     -10.033  11.688  64.933  1.00  0.00    -0.255 A  
HETATM    8  N   UNL     1      -9.268  13.370  66.553  1.00  0.00    -0.407 NA 
HETATM    9  H2  UNL     1      -9.817  13.758  67.320  1.00  0.00     0.000 HD 
HETATM   10  C   UNL     1     -11.725  12.429  63.374  1.00  0.00    -0.554 A  
HETATM   11  C   UNL     1     -10.867  11.437  63.845  1.00  0.00    -0.463 A  
HETATM   12  H1  UNL     1      -8.646  12.637  66.895  1.00  0.00     0.000 HD 
ENDROOT
BRANCH   7  13
HETATM   13  N   UNL     1      -9.183  10.641  65.364  1.00  0.00    -0.183 NA 
HETATM   14  H   UNL     1      -9.519   9.744  65.714  1.00  0.00     0.000 HD 
BRANCH  13  15
HETATM   15  N   UNL     1      -7.977  10.942  65.266  1.00  0.00    -0.359 NA 
HETATM   16  H   UNL     1      -7.605  11.855  65.528  1.00  0.00     0.000 HD 
BRANCH  15  17
HETATM   17  C   UNL     1      -7.179   9.896  64.759  1.00  0.00    -0.136 A  
HETATM   18  C   UNL     1      -5.906   9.556  65.241  1.00  0.00    -0.064 A  
HETATM   19  C   UNL     1      -5.163   8.534  64.635  1.00  0.00    -0.039 A  
HETATM   20  C   UNL     1      -5.693   7.832  63.554  1.00  0.00    -0.053 A  
HETATM   21  C   UNL     1      -6.970   8.134  63.090  1.00  0.00    -0.086 A  
HETATM   22  C   UNL     1      -7.707   9.153  63.695  1.00  0.00    -0.118 A  
ENDBRANCH  15  17
ENDBRANCH  13  15
ENDBRANCH   7  13
TORSDOF 3
ENDMDL
MODEL      140
REMARK 921   NORMALIZED FREE ENERGY PREDICTED BY IDOCK:   -3.92 KCAL/MOL
REMARK 922        TOTAL FREE ENERGY PREDICTED BY IDOCK:   -5.14 KCAL/MOL
REMARK 923 INTER-LIGAND FREE ENERGY PREDICTED BY IDOCK:   -4.86 KCAL/MOL
REMARK 924 INTRA-LIGAND FREE ENERGY PREDICTED BY IDOCK:   -0.28 KCAL/MOL
REMARK 927      BINDING AFFINITY PREDICTED BY RF-SCORE:    0.00 PKD
ROOT
HETATM    1  N   UNL     1     -12.420  14.263  66.980  1.00  0.00    -0.543 NA 
HETATM    2  C   UNL     1     -11.800  13.101  66.528  1.00  0.00    -0.400 A  
HETATM    3  H2  UNL     1     -13.181  14.512  66.350  1.00  0.00     0.000 HD 
HETATM    4  H1  UNL     1     -12.760  14.255  67.941  1.00  0.00     0.000 HD 
HETATM    5  N   UNL     1     -11.352  13.111  65.262  1.00  0.00    -0.292 NA 
HETATM    6  C   UNL     1     -10.723  12.006  64.799  1.00  0.00    -0.306 A  
HETATM    7  C   UNL     1     -10.514  10.850  65.578  1.00  0.00    -0.219 A  
HETATM    8  N   UNL     1     -10.355  12.070  63.452  1.00  0.00    -0.507 NA 
HETATM    9  H2  UNL     1      -9.788  12.901  63.277  1.00  0.00     0.000 HD 
HETATM   10  C   UNL     1     -11.637  12.016  67.373  1.00  0.00    -0.388 A  
HETATM   11  C   UNL     1     -10.993  10.879  66.887  1.00  0.00    -0.286 A  
HETATM   12  H1  UNL     1      -9.880  11.237  63.103  1.00  0.00     0.000 HD 
ENDROOT
BRANCH   7  13
HETATM   13  N   UNL     1      -9.871   9.667  65.141  1.00  0.00    -0.435 NA 
HETATM   14  H   UNL     1      -9.926   9.308  64.189  1.00  0.00     0.000 HD 
BRANCH  13  15
HETATM   15  N   UNL     1      -9.228   9.115  66.056  1.00  0.00    -0.197 NA 
HETATM   16  H   UNL     1      -8.522   9.596  66.614  1.00  0.00     0.000 HD 
BRANCH  15  17
HETATM   17  C   UNL     1      -9.571   7.760  66.242  1.00  0.00    -0.108 A  
HETATM   18  C   UNL     1     -10.588   7.302  67.093  1.00  0.00    -0.416 A  
HETATM   19  C   UNL     1     -10.820   5.930  67.255  1.00  0.00    -0.351 A  
HETATM   20  C   UNL     1     -10.050   5.004  66.554  1.00  0.00    -0.278 A  
HETATM   21  C   UNL     1      -9.062   5.445  65.678  1.00  0.00    -0.148 A  
HETATM   22  C   UNL     1      -8.832   6.812  65.521  1.00  0.00     0.014 A  
ENDBRANCH  15  17
ENDBRANCH  13  15
ENDBRANCH   7  13
TORSDOF 3
ENDMDL
MODEL      141
REMARK 921   NORMALIZED FREE ENERGY PREDICTED BY IDOCK:   -3.92 KCAL/MOL
REMARK 922        TOTAL FREE ENERGY PREDICTED BY IDOCK:   -5.14 KCAL/MOL
REMARK 923 INTER-LIGAND FREE ENERGY PREDICTED BY IDOCK:   -4.79 KCAL/MOL
REMARK 924 INTRA-LIGAND FREE ENERGY PREDICTED BY IDOCK:   -0.35 KCAL/MOL
REMARK 927      BINDING AFFINITY PREDICTED BY RF-SCORE:    0.00 PKD
ROOT
HETATM    1  N   UNL     1     -12.298  14.312  67.058  1.00  0.00    -0.580 NA 
HETATM    2  C   UNL     1     -11.864  13.095  67.576  1.00  0.00    -0.360 A  
HETATM    3  H2  UNL     1     -13.001  14.146  66.339  1.00  0.00     0.000 HD 
HETATM    4  H1  UNL     1     -12.648  14.996  67.729  1.00  0.00     0.000 HD 
HETATM    5  N   UNL     1     -11.403  12.194  66.693  1.00  0.00    -0.331 NA 
HETATM    6  C   UNL     1     -10.951  11.010  67.167  1.00  0.00    -0.283 A  
HETATM    7  C   UNL     1     -10.939  10.677  68.537  1.00  0.00    -0.248 A  
HETATM    8  N   UNL     1     -10.559  10.102  66.179  1.00  0.00    -0.093 NA 
HETATM    9  H2  UNL     1      -9.865  10.526  65.561  1.00  0.00     0.000 HD 
HETATM   10  C   UNL     1     -11.886  12.863  68.942  1.00  0.00    -0.352 A  
HETATM   11  C   UNL     1     -11.425  11.639  69.421  1.00  0.00    -0.372 A  
HETATM   12  H1  UNL     1     -10.218   9.209  66.536  1.00  0.00     0.000 HD 
ENDROOT
BRANCH   7  13
HETATM   13  N   UNL     1     -10.485   9.452  69.083  1.00  0.00    -0.213 NA 
HETATM   14  H   UNL     1      -9.618   8.993  68.808  1.00  0.00     0.000 HD 
BRANCH  13  15
HETATM   15  N   UNL     1     -11.269   9.000  69.942  1.00  0.00    -0.411 NA 
HETATM   16  H   UNL     1     -12.281   9.120  69.894  1.00  0.00     0.000 HD 
BRANCH  15  17
HETATM   17  C   UNL     1     -10.619   8.307  70.983  1.00  0.00    -0.204 A  
HETATM   18  C   UNL     1      -9.359   7.697  70.875  1.00  0.00    -0.158 A  
HETATM   19  C   UNL     1      -8.817   6.983  71.951  1.00  0.00    -0.128 A  
HETATM   20  C   UNL     1      -9.520   6.886  73.150  1.00  0.00    -0.174 A  
HETATM   21  C   UNL     1     -10.753   7.518  73.285  1.00  0.00    -0.437 A  
HETATM   22  C   UNL     1     -11.291   8.228  72.210  1.00  0.00    -0.446 A  
ENDBRANCH  15  17
ENDBRANCH  13  15
ENDBRANCH   7  13
TORSDOF 3
ENDMDL
MODEL      142
REMARK 921   NORMALIZED FREE ENERGY PREDICTED BY IDOCK:   -3.88 KCAL/MOL
REMARK 922        TOTAL FREE ENERGY PREDICTED BY IDOCK:   -5.10 KCAL/MOL
REMARK 923 INTER-LIGAND FREE ENERGY PREDICTED BY IDOCK:   -4.48 KCAL/MOL
REMARK 924 INTRA-LIGAND FREE ENERGY PREDICTED BY IDOCK:   -0.61 KCAL/MOL
REMARK 927      BINDING AFFINITY PREDICTED BY RF-SCORE:    0.00 PKD
ROOT
HETATM    1  N   UNL     1     -11.870  15.323  65.060  1.00  0.00    -0.170 NA 
HETATM    2  C   UNL     1     -11.229  14.089  64.998  1.00  0.00    -0.352 A  
HETATM    3  H2  UNL     1     -12.879  15.182  65.097  1.00  0.00     0.000 HD 
HETATM    4  H1  UNL     1     -11.584  15.950  65.811  1.00  0.00     0.000 HD 
HETATM    5  N   UNL     1     -11.606  13.262  64.008  1.00  0.00    -0.406 NA 
HETATM    6  C   UNL     1     -10.985  12.065  63.906  1.00  0.00    -0.401 A  
HETATM    7  C   UNL     1      -9.964  11.644  64.782  1.00  0.00    -0.254 A  
HETATM    8  N   UNL     1     -11.487  11.236  62.898  1.00  0.00    -0.692 NA 
HETATM    9  H2  UNL     1     -11.474  11.721  62.000  1.00  0.00     0.000 HD 
HETATM   10  C   UNL     1     -10.231  13.768  65.904  1.00  0.00    -0.322 A  
HETATM   11  C   UNL     1      -9.600  12.530  65.795  1.00  0.00    -0.137 A  
HETATM   12  H1  UNL     1     -11.018  10.333  62.821  1.00  0.00     0.000 HD 
ENDROOT
BRANCH   7  13
HETATM   13  N   UNL     1      -9.288  10.401  64.724  1.00  0.00    -0.226 NA 
HETATM   14  H   UNL     1      -8.346  10.283  64.352  1.00  0.00     0.000 HD 
BRANCH  13  15
HETATM   15  N   UNL     1      -9.977   9.468  65.182  1.00  0.00    -0.384 NA 
HETATM   16  H   UNL     1     -10.755   9.045  64.674  1.00  0.00     0.000 HD 
BRANCH  15  17
HETATM   17  C   UNL     1      -9.577   9.055  66.469  1.00  0.00    -0.223 A  
HETATM   18  C   UNL     1      -8.262   8.724  66.830  1.00  0.00    -0.108 A  
HETATM   19  C   UNL     1      -7.969   8.271  68.123  1.00  0.00    -0.123 A  
HETATM   20  C   UNL     1      -8.984   8.161  69.072  1.00  0.00    -0.144 A  
HETATM   21  C   UNL     1     -10.287   8.522  68.738  1.00  0.00    -0.233 A  
HETATM   22  C   UNL     1     -10.575   8.971  67.449  1.00  0.00    -0.309 A  
ENDBRANCH  15  17
ENDBRANCH  13  15
ENDBRANCH   7  13
TORSDOF 3
ENDMDL
MODEL      143
REMARK 921   NORMALIZED FREE ENERGY PREDICTED BY IDOCK:   -3.85 KCAL/MOL
REMARK 922        TOTAL FREE ENERGY PREDICTED BY IDOCK:   -5.06 KCAL/MOL
REMARK 923 INTER-LIGAND FREE ENERGY PREDICTED BY IDOCK:   -4.57 KCAL/MOL
REMARK 924 INTRA-LIGAND FREE ENERGY PREDICTED BY IDOCK:   -0.49 KCAL/MOL
REMARK 927      BINDING AFFINITY PREDICTED BY RF-SCORE:    0.00 PKD
ROOT
HETATM    1  N   UNL     1     -12.379  14.841  68.181  1.00  0.00    -0.572 NA 
HETATM    2  C   UNL     1     -11.752  13.853  67.427  1.00  0.00    -0.389 A  
HETATM    3  H2  UNL     1     -13.101  15.292  67.621  1.00  0.00     0.000 HD 
HETATM    4  H1  UNL     1     -12.771  14.552  69.077  1.00  0.00     0.000 HD 
HETATM    5  N   UNL     1     -11.235  14.234  66.247  1.00  0.00    -0.330 NA 
HETATM    6  C   UNL     1     -10.597  13.303  65.500  1.00  0.00    -0.287 A  
HETATM    7  C   UNL     1     -10.447  11.959  65.898  1.00  0.00    -0.258 A  
HETATM    8  N   UNL     1     -10.155  13.762  64.255  1.00  0.00    -0.734 NA 
HETATM    9  H2  UNL     1      -9.569  14.589  64.369  1.00  0.00     0.000 HD 
HETATM   10  C   UNL     1     -11.650  12.558  67.908  1.00  0.00    -0.403 A  
HETATM   11  C   UNL     1     -10.996  11.604  67.130  1.00  0.00    -0.330 A  
HETATM   12  H1  UNL     1      -9.674  13.060  63.693  1.00  0.00     0.000 HD 
ENDROOT
BRANCH   7  13
HETATM   13  N   UNL     1      -9.797  10.946  65.154  1.00  0.00    -0.254 NA 
HETATM   14  H   UNL     1     -10.285  10.180  64.689  1.00  0.00     0.000 HD 
BRANCH  13  15
HETATM   15  N   UNL     1      -8.560  11.097  65.130  1.00  0.00    -0.384 NA 
HETATM   16  H   UNL     1      -8.103  11.996  65.287  1.00  0.00     0.000 HD 
BRANCH  15  17
HETATM   17  C   UNL     1      -7.855   9.905  64.865  1.00  0.00    -0.136 A  
HETATM   18  C   UNL     1      -6.716   9.478  65.565  1.00  0.00    -0.080 A  
HETATM   19  C   UNL     1      -6.049   8.303  65.193  1.00  0.00    -0.045 A  
HETATM   20  C   UNL     1      -6.524   7.536  64.131  1.00  0.00    -0.048 A  
HETATM   21  C   UNL     1      -7.675   7.929  63.452  1.00  0.00    -0.140 A  
HETATM   22  C   UNL     1      -8.335   9.101  63.824  1.00  0.00    -0.183 A  
ENDBRANCH  15  17
ENDBRANCH  13  15
ENDBRANCH   7  13
TORSDOF 3
ENDMDL
MODEL      144
REMARK 921   NORMALIZED FREE ENERGY PREDICTED BY IDOCK:   -3.85 KCAL/MOL
REMARK 922        TOTAL FREE ENERGY PREDICTED BY IDOCK:   -5.05 KCAL/MOL
REMARK 923 INTER-LIGAND FREE ENERGY PREDICTED BY IDOCK:   -4.63 KCAL/MOL
REMARK 924 INTRA-LIGAND FREE ENERGY PREDICTED BY IDOCK:   -0.42 KCAL/MOL
REMARK 927      BINDING AFFINITY PREDICTED BY RF-SCORE:    0.00 PKD
ROOT
HETATM    1  N   UNL     1     -10.104  13.659  64.537  1.00  0.00    -0.655 NA 
HETATM    2  C   UNL     1     -10.094  13.094  65.809  1.00  0.00    -0.285 A  
HETATM    3  H2  UNL     1     -11.067  13.788  64.227  1.00  0.00     0.000 HD 
HETATM    4  H1  UNL     1      -9.587  14.530  64.419  1.00  0.00     0.000 HD 
HETATM    5  N   UNL     1     -10.775  11.946  65.964  1.00  0.00    -0.275 NA 
HETATM    6  C   UNL     1     -10.765  11.359  67.183  1.00  0.00    -0.249 A  
HETATM    7  C   UNL     1     -10.077  11.889  68.294  1.00  0.00    -0.203 A  
HETATM    8  N   UNL     1     -11.558  10.212  67.280  1.00  0.00    -0.170 NA 
HETATM    9  H2  UNL     1     -11.298   9.538  66.559  1.00  0.00     0.000 HD 
HETATM   10  C   UNL     1      -9.382  13.689  66.837  1.00  0.00    -0.261 A  
HETATM   11  C   UNL     1      -9.381  13.081  68.091  1.00  0.00    -0.217 A  
HETATM   12  H1  UNL     1     -11.550   9.769  68.199  1.00  0.00     0.000 HD 
ENDROOT
BRANCH   7  13
HETATM   13  N   UNL     1     -10.041  11.320  69.590  1.00  0.00    -0.352 NA 
HETATM   14  H   UNL     1     -10.599  11.657  70.374  1.00  0.00     0.000 HD 
BRANCH  13  15
HETATM   15  N   UNL     1      -9.248  10.360  69.661  1.00  0.00    -0.401 NA 
HETATM   16  H   UNL     1      -8.364  10.325  69.153  1.00  0.00     0.000 HD 
BRANCH  15  17
HETATM   17  C   UNL     1      -9.694   9.329  70.513  1.00  0.00    -0.260 A  
HETATM   18  C   UNL     1      -9.072   8.959  71.715  1.00  0.00    -0.241 A  
HETATM   19  C   UNL     1      -9.558   7.882  72.468  1.00  0.00    -0.278 A  
HETATM   20  C   UNL     1     -10.680   7.177  72.036  1.00  0.00    -0.243 A  
HETATM   21  C   UNL     1     -11.329   7.557  70.865  1.00  0.00    -0.297 A  
HETATM   22  C   UNL     1     -10.841   8.629  70.116  1.00  0.00    -0.242 A  
ENDBRANCH  15  17
ENDBRANCH  13  15
ENDBRANCH   7  13
TORSDOF 3
ENDMDL
MODEL      145
REMARK 921   NORMALIZED FREE ENERGY PREDICTED BY IDOCK:   -3.81 KCAL/MOL
REMARK 922        TOTAL FREE ENERGY PREDICTED BY IDOCK:   -5.00 KCAL/MOL
REMARK 923 INTER-LIGAND FREE ENERGY PREDICTED BY IDOCK:   -5.58 KCAL/MOL
REMARK 924 INTRA-LIGAND FREE ENERGY PREDICTED BY IDOCK:    0.57 KCAL/MOL
REMARK 927      BINDING AFFINITY PREDICTED BY RF-SCORE:    0.00 PKD
ROOT
HETATM    1  N   UNL     1      -6.752  20.338  68.749  1.00  0.00    -0.276 NA 
HETATM    2  C   UNL     1      -7.733  19.735  67.967  1.00  0.00    -0.304 A  
HETATM    3  H2  UNL     1      -5.922  20.510  68.183  1.00  0.00     0.000 HD 
HETATM    4  H1  UNL     1      -7.017  21.193  69.237  1.00  0.00     0.000 HD 
HETATM    5  N   UNL     1      -7.384  18.608  67.324  1.00  0.00    -0.216 NA 
HETATM    6  C   UNL     1      -8.323  17.985  66.575  1.00  0.00    -0.268 A  
HETATM    7  C   UNL     1      -9.644  18.456  66.437  1.00  0.00    -0.310 A  
HETATM    8  N   UNL     1      -7.859  16.863  65.881  1.00  0.00    -0.333 NA 
HETATM    9  H2  UNL     1      -7.421  16.203  66.524  1.00  0.00     0.000 HD 
HETATM   10  C   UNL     1      -9.008  20.273  67.900  1.00  0.00    -0.274 A  
HETATM   11  C   UNL     1      -9.967  19.628  67.121  1.00  0.00    -0.507 A  
HETATM   12  H1  UNL     1      -8.566  16.393  65.316  1.00  0.00     0.000 HD 
ENDROOT
BRANCH   7  13
HETATM   13  N   UNL     1     -10.660  17.848  65.662  1.00  0.00    -0.587 NA 
HETATM   14  H   UNL     1     -11.431  18.359  65.233  1.00  0.00     0.000 HD 
BRANCH  13  15
HETATM   15  N   UNL     1     -10.503  16.615  65.563  1.00  0.00    -0.568 NA 
HETATM   16  H   UNL     1     -10.047  16.170  64.766  1.00  0.00     0.000 HD 
BRANCH  15  17
HETATM   17  C   UNL     1     -11.020  15.895  66.660  1.00  0.00    -0.136 A  
HETATM   18  C   UNL     1     -11.113  16.392  67.970  1.00  0.00    -0.292 A  
HETATM   19  C   UNL     1     -11.591  15.581  69.008  1.00  0.00    -0.377 A  
HETATM   20  C   UNL     1     -11.997  14.274  68.744  1.00  0.00    -0.346 A  
HETATM   21  C   UNL     1     -11.945  13.781  67.443  1.00  0.00    -0.423 A  
HETATM   22  C   UNL     1     -11.467  14.591  66.411  1.00  0.00    -0.362 A  
ENDBRANCH  15  17
ENDBRANCH  13  15
ENDBRANCH   7  13
TORSDOF 3
ENDMDL
MODEL      146
REMARK 921   NORMALIZED FREE ENERGY PREDICTED BY IDOCK:   -3.81 KCAL/MOL
REMARK 922        TOTAL FREE ENERGY PREDICTED BY IDOCK:   -5.00 KCAL/MOL
REMARK 923 INTER-LIGAND FREE ENERGY PREDICTED BY IDOCK:   -4.63 KCAL/MOL
REMARK 924 INTRA-LIGAND FREE ENERGY PREDICTED BY IDOCK:   -0.37 KCAL/MOL
REMARK 927      BINDING AFFINITY PREDICTED BY RF-SCORE:    0.00 PKD
ROOT
HETATM    1  N   UNL     1      -8.184   2.292  67.636  1.00  0.00    -0.064 NA 
HETATM    2  C   UNL     1      -8.919   3.472  67.577  1.00  0.00    -0.145 A  
HETATM    3  H2  UNL     1      -7.625   2.194  66.789  1.00  0.00     0.000 HD 
HETATM    4  H1  UNL     1      -7.589   2.164  68.454  1.00  0.00     0.000 HD 
HETATM    5  N   UNL     1      -9.702   3.641  66.498  1.00  0.00    -0.139 NA 
HETATM    6  C   UNL     1     -10.448   4.767  66.422  1.00  0.00    -0.239 A  
HETATM    7  C   UNL     1     -10.446   5.768  67.416  1.00  0.00    -0.254 A  
HETATM    8  N   UNL     1     -11.177   4.901  65.236  1.00  0.00    -0.833 NA 
HETATM    9  H2  UNL     1     -11.759   4.077  65.082  1.00  0.00     0.000 HD 
HETATM   10  C   UNL     1      -8.853   4.395  68.608  1.00  0.00    -0.135 A  
HETATM   11  C   UNL     1      -9.620   5.555  68.519  1.00  0.00    -0.162 A  
HETATM   12  H1  UNL     1     -11.739   5.750  65.179  1.00  0.00     0.000 HD 
ENDROOT
BRANCH   7  13
HETATM   13  N   UNL     1     -11.199   6.965  67.381  1.00  0.00    -0.624 NA 
HETATM   14  H   UNL     1     -12.204   7.009  67.546  1.00  0.00     0.000 HD 
BRANCH  13  15
HETATM   15  N   UNL     1     -10.492   7.960  67.126  1.00  0.00    -0.326 NA 
HETATM   16  H   UNL     1      -9.829   7.992  66.351  1.00  0.00     0.000 HD 
BRANCH  15  17
HETATM   17  C   UNL     1     -10.699   9.036  68.014  1.00  0.00    -0.125 A  
HETATM   18  C   UNL     1     -10.608   8.948  69.412  1.00  0.00    -0.226 A  
HETATM   19  C   UNL     1     -10.885  10.061  70.216  1.00  0.00    -0.370 A  
HETATM   20  C   UNL     1     -11.237  11.276  69.632  1.00  0.00    -0.321 A  
HETATM   21  C   UNL     1     -11.295  11.387  68.245  1.00  0.00    -0.354 A  
HETATM   22  C   UNL     1     -11.020  10.276  67.447  1.00  0.00    -0.317 A  
ENDBRANCH  15  17
ENDBRANCH  13  15
ENDBRANCH   7  13
TORSDOF 3
ENDMDL
MODEL      147
REMARK 921   NORMALIZED FREE ENERGY PREDICTED BY IDOCK:   -3.80 KCAL/MOL
REMARK 922        TOTAL FREE ENERGY PREDICTED BY IDOCK:   -5.00 KCAL/MOL
REMARK 923 INTER-LIGAND FREE ENERGY PREDICTED BY IDOCK:   -4.64 KCAL/MOL
REMARK 924 INTRA-LIGAND FREE ENERGY PREDICTED BY IDOCK:   -0.36 KCAL/MOL
REMARK 927      BINDING AFFINITY PREDICTED BY RF-SCORE:    0.00 PKD
ROOT
HETATM    1  N   UNL     1     -10.962   8.478  70.451  1.00  0.00    -0.239 NA 
HETATM    2  C   UNL     1     -11.235   9.765  69.994  1.00  0.00    -0.251 A  
HETATM    3  H2  UNL     1      -9.972   8.273  70.321  1.00  0.00     0.000 HD 
HETATM    4  H1  UNL     1     -11.232   8.267  71.411  1.00  0.00     0.000 HD 
HETATM    5  N   UNL     1     -10.879  10.044  68.730  1.00  0.00    -0.221 NA 
HETATM    6  C   UNL     1     -11.153  11.278  68.248  1.00  0.00    -0.240 A  
HETATM    7  C   UNL     1     -11.794  12.281  69.004  1.00  0.00    -0.305 A  
HETATM    8  N   UNL     1     -10.683  11.512  66.952  1.00  0.00    -0.250 NA 
HETATM    9  H2  UNL     1     -11.030  10.796  66.313  1.00  0.00     0.000 HD 
HETATM   10  C   UNL     1     -11.875  10.681  70.814  1.00  0.00    -0.459 A  
HETATM   11  C   UNL     1     -12.149  11.952  70.311  1.00  0.00    -0.409 A  
HETATM   12  H1  UNL     1     -10.890  12.442  66.588  1.00  0.00     0.000 HD 
ENDROOT
BRANCH   7  13
HETATM   13  N   UNL     1     -12.096  13.588  68.551  1.00  0.00    -0.334 NA 
HETATM   14  H   UNL     1     -12.553  13.790  67.663  1.00  0.00     0.000 HD 
BRANCH  13  15
HETATM   15  N   UNL     1     -11.740  14.463  69.365  1.00  0.00    -0.297 NA 
HETATM   16  H   UNL     1     -11.873  14.378  70.373  1.00  0.00     0.000 HD 
BRANCH  15  17
HETATM   17  C   UNL     1     -11.137  15.582  68.755  1.00  0.00    -0.291 A  
HETATM   18  C   UNL     1     -10.454  16.597  69.444  1.00  0.00    -0.320 A  
HETATM   19  C   UNL     1      -9.934  17.701  68.756  1.00  0.00    -0.358 A  
HETATM   20  C   UNL     1     -10.075  17.792  67.372  1.00  0.00    -0.338 A  
HETATM   21  C   UNL     1     -10.716  16.773  66.672  1.00  0.00    -0.107 A  
HETATM   22  C   UNL     1     -11.235  15.676  67.361  1.00  0.00    -0.219 A  
ENDBRANCH  15  17
ENDBRANCH  13  15
ENDBRANCH   7  13
TORSDOF 3
ENDMDL
MODEL      148
REMARK 921   NORMALIZED FREE ENERGY PREDICTED BY IDOCK:   -3.80 KCAL/MOL
REMARK 922        TOTAL FREE ENERGY PREDICTED BY IDOCK:   -5.00 KCAL/MOL
REMARK 923 INTER-LIGAND FREE ENERGY PREDICTED BY IDOCK:   -4.41 KCAL/MOL
REMARK 924 INTRA-LIGAND FREE ENERGY PREDICTED BY IDOCK:   -0.59 KCAL/MOL
REMARK 927      BINDING AFFINITY PREDICTED BY RF-SCORE:    0.00 PKD
ROOT
HETATM    1  N   UNL     1      -7.927   7.376  66.682  1.00  0.00    -0.118 NA 
HETATM    2  C   UNL     1      -8.826   8.403  66.412  1.00  0.00    -0.153 A  
HETATM    3  H2  UNL     1      -8.438   6.539  66.961  1.00  0.00     0.000 HD 
HETATM    4  H1  UNL     1      -7.264   7.143  65.943  1.00  0.00     0.000 HD 
HETATM    5  N   UNL     1      -9.700   8.711  67.385  1.00  0.00    -0.165 NA 
HETATM    6  C   UNL     1     -10.572   9.722  67.163  1.00  0.00    -0.229 A  
HETATM    7  C   UNL     1     -10.608  10.466  65.966  1.00  0.00    -0.065 A  
HETATM    8  N   UNL     1     -11.494   9.928  68.193  1.00  0.00    -0.577 NA 
HETATM    9  H2  UNL     1     -11.010  10.065  69.081  1.00  0.00     0.000 HD 
HETATM   10  C   UNL     1      -8.779   9.081  65.204  1.00  0.00    -0.223 A  
HETATM   11  C   UNL     1      -9.684  10.116  64.981  1.00  0.00    -0.384 A  
HETATM   12  H1  UNL     1     -12.151  10.691  68.026  1.00  0.00     0.000 HD 
ENDROOT
BRANCH   7  13
HETATM   13  N   UNL     1     -11.503  11.525  65.680  1.00  0.00    -0.157 NA 
HETATM   14  H   UNL     1     -12.047  11.593  64.820  1.00  0.00     0.000 HD 
BRANCH  13  15
HETATM   15  N   UNL     1     -11.549  12.365  66.600  1.00  0.00    -0.391 NA 
HETATM   16  H   UNL     1     -11.957  12.170  67.515  1.00  0.00     0.000 HD 
BRANCH  15  17
HETATM   17  C   UNL     1     -10.984  13.608  66.252  1.00  0.00    -0.299 A  
HETATM   18  C   UNL     1      -9.878  14.191  66.890  1.00  0.00    -0.265 A  
HETATM   19  C   UNL     1      -9.420  15.459  66.509  1.00  0.00    -0.298 A  
HETATM   20  C   UNL     1     -10.052  16.148  65.476  1.00  0.00    -0.308 A  
HETATM   21  C   UNL     1     -11.127  15.566  64.809  1.00  0.00    -0.421 A  
HETATM   22  C   UNL     1     -11.581  14.304  65.193  1.00  0.00    -0.355 A  
ENDBRANCH  15  17
ENDBRANCH  13  15
ENDBRANCH   7  13
TORSDOF 3
ENDMDL
MODEL      149
REMARK 921   NORMALIZED FREE ENERGY PREDICTED BY IDOCK:   -3.79 KCAL/MOL
REMARK 922        TOTAL FREE ENERGY PREDICTED BY IDOCK:   -4.99 KCAL/MOL
REMARK 923 INTER-LIGAND FREE ENERGY PREDICTED BY IDOCK:   -4.65 KCAL/MOL
REMARK 924 INTRA-LIGAND FREE ENERGY PREDICTED BY IDOCK:   -0.34 KCAL/MOL
REMARK 927      BINDING AFFINITY PREDICTED BY RF-SCORE:    0.00 PKD
ROOT
HETATM    1  N   UNL     1      -8.150   4.607  66.989  1.00  0.00    -0.102 NA 
HETATM    2  C   UNL     1      -8.905   5.761  67.180  1.00  0.00    -0.107 A  
HETATM    3  H2  UNL     1      -8.763   3.838  66.719  1.00  0.00     0.000 HD 
HETATM    4  H1  UNL     1      -7.374   4.672  66.331  1.00  0.00     0.000 HD 
HETATM    5  N   UNL     1      -9.928   5.675  68.046  1.00  0.00    -0.134 NA 
HETATM    6  C   UNL     1     -10.667   6.786  68.272  1.00  0.00    -0.235 A  
HETATM    7  C   UNL     1     -10.416   8.025  67.648  1.00  0.00    -0.232 A  
HETATM    8  N   UNL     1     -11.756   6.593  69.128  1.00  0.00    -0.589 NA 
HETATM    9  H2  UNL     1     -11.447   6.186  70.011  1.00  0.00     0.000 HD 
HETATM   10  C   UNL     1      -8.575   6.935  66.522  1.00  0.00    -0.129 A  
HETATM   11  C   UNL     1      -9.344   8.073  66.756  1.00  0.00    -0.229 A  
HETATM   12  H1  UNL     1     -12.313   7.431  69.299  1.00  0.00     0.000 HD 
ENDROOT
BRANCH   7  13
HETATM   13  N   UNL     1     -11.161   9.212  67.843  1.00  0.00    -0.489 NA 
HETATM   14  H   UNL     1     -11.848   9.337  68.586  1.00  0.00     0.000 HD 
BRANCH  13  15
HETATM   15  N   UNL     1     -10.880  10.089  67.001  1.00  0.00    -0.179 NA 
HETATM   16  H   UNL     1     -10.395   9.890  66.126  1.00  0.00     0.000 HD 
BRANCH  15  17
HETATM   17  C   UNL     1     -11.298  11.382  67.379  1.00  0.00    -0.288 A  
HETATM   18  C   UNL     1     -11.780  12.357  66.493  1.00  0.00    -0.443 A  
HETATM   19  C   UNL     1     -12.120  13.635  66.955  1.00  0.00    -0.431 A  
HETATM   20  C   UNL     1     -11.999  13.944  68.308  1.00  0.00    -0.392 A  
HETATM   21  C   UNL     1     -11.558  12.974  69.205  1.00  0.00    -0.368 A  
HETATM   22  C   UNL     1     -11.218  11.703  68.741  1.00  0.00    -0.304 A  
ENDBRANCH  15  17
ENDBRANCH  13  15
ENDBRANCH   7  13
TORSDOF 3
ENDMDL
MODEL      150
REMARK 921   NORMALIZED FREE ENERGY PREDICTED BY IDOCK:   -3.75 KCAL/MOL
REMARK 922        TOTAL FREE ENERGY PREDICTED BY IDOCK:   -4.94 KCAL/MOL
REMARK 923 INTER-LIGAND FREE ENERGY PREDICTED BY IDOCK:   -4.55 KCAL/MOL
REMARK 924 INTRA-LIGAND FREE ENERGY PREDICTED BY IDOCK:   -0.39 KCAL/MOL
REMARK 927      BINDING AFFINITY PREDICTED BY RF-SCORE:    0.00 PKD
ROOT
HETATM    1  N   UNL     1      -8.843   4.498  70.191  1.00  0.00    -0.084 NA 
HETATM    2  C   UNL     1      -9.490   5.714  70.388  1.00  0.00    -0.166 A  
HETATM    3  H2  UNL     1      -8.449   4.173  71.073  1.00  0.00     0.000 HD 
HETATM    4  H1  UNL     1      -9.392   3.751  69.766  1.00  0.00     0.000 HD 
HETATM    5  N   UNL     1      -8.766   6.698  70.949  1.00  0.00    -0.138 NA 
HETATM    6  C   UNL     1      -9.359   7.900  71.132  1.00  0.00    -0.151 A  
HETATM    7  C   UNL     1     -10.693   8.171  70.764  1.00  0.00    -0.222 A  
HETATM    8  N   UNL     1      -8.564   8.845  71.788  1.00  0.00    -0.358 NA 
HETATM    9  H2  UNL     1      -7.673   8.958  71.302  1.00  0.00     0.000 HD 
HETATM   10  C   UNL     1     -10.805   5.885  69.987  1.00  0.00    -0.421 A  
HETATM   11  C   UNL     1     -11.410   7.125  70.185  1.00  0.00    -0.277 A  
HETATM   12  H1  UNL     1      -9.010   9.751  71.926  1.00  0.00     0.000 HD 
ENDROOT
BRANCH   7  13
HETATM   13  N   UNL     1     -11.362   9.406  70.941  1.00  0.00    -0.293 NA 
HETATM   14  H   UNL     1     -11.256   9.998  71.765  1.00  0.00     0.000 HD 
BRANCH  13  15
HETATM   15  N   UNL     1     -12.097   9.687  69.973  1.00  0.00    -0.454 NA 
HETATM   16  H   UNL     1     -12.895   9.117  69.692  1.00  0.00     0.000 HD 
BRANCH  15  17
HETATM   17  C   UNL     1     -11.716  10.870  69.306  1.00  0.00    -0.324 A  
HETATM   18  C   UNL     1     -11.093  10.914  68.050  1.00  0.00    -0.351 A  
HETATM   19  C   UNL     1     -10.701  12.137  67.490  1.00  0.00    -0.265 A  
HETATM   20  C   UNL     1     -10.944  13.328  68.172  1.00  0.00    -0.278 A  
HETATM   21  C   UNL     1     -11.596  13.301  69.403  1.00  0.00    -0.364 A  
HETATM   22  C   UNL     1     -11.983  12.081  69.958  1.00  0.00    -0.400 A  
ENDBRANCH  15  17
ENDBRANCH  13  15
ENDBRANCH   7  13
TORSDOF 3
ENDMDL
MODEL      151
REMARK 921   NORMALIZED FREE ENERGY PREDICTED BY IDOCK:   -3.74 KCAL/MOL
REMARK 922        TOTAL FREE ENERGY PREDICTED BY IDOCK:   -4.92 KCAL/MOL
REMARK 923 INTER-LIGAND FREE ENERGY PREDICTED BY IDOCK:   -4.44 KCAL/MOL
REMARK 924 INTRA-LIGAND FREE ENERGY PREDICTED BY IDOCK:   -0.49 KCAL/MOL
REMARK 927      BINDING AFFINITY PREDICTED BY RF-SCORE:    0.00 PKD
ROOT
HETATM    1  N   UNL     1     -10.037   2.522  73.370  1.00  0.00    -0.101 NA 
HETATM    2  C   UNL     1     -10.166   3.643  72.555  1.00  0.00    -0.159 A  
HETATM    3  H2  UNL     1     -10.932   2.037  73.429  1.00  0.00     0.000 HD 
HETATM    4  H1  UNL     1      -9.304   1.858  73.122  1.00  0.00     0.000 HD 
HETATM    5  N   UNL     1     -11.132   4.517  72.882  1.00  0.00    -0.187 NA 
HETATM    6  C   UNL     1     -11.268   5.630  72.124  1.00  0.00    -0.227 A  
HETATM    7  C   UNL     1     -10.448   5.916  71.013  1.00  0.00    -0.237 A  
HETATM    8  N   UNL     1     -12.342   6.449  72.484  1.00  0.00    -0.526 NA 
HETATM    9  H2  UNL     1     -12.283   6.697  73.472  1.00  0.00     0.000 HD 
HETATM   10  C   UNL     1      -9.306   3.838  71.487  1.00  0.00    -0.203 A  
HETATM   11  C   UNL     1      -9.457   4.984  70.707  1.00  0.00    -0.230 A  
HETATM   12  H1  UNL     1     -12.444   7.288  71.912  1.00  0.00     0.000 HD 
ENDROOT
BRANCH   7  13
HETATM   13  N   UNL     1     -10.553   7.058  70.183  1.00  0.00    -0.221 NA 
HETATM   14  H   UNL     1     -10.655   7.017  69.170  1.00  0.00     0.000 HD 
BRANCH  13  15
HETATM   15  N   UNL     1     -10.505   8.120  70.835  1.00  0.00    -0.201 NA 
HETATM   16  H   UNL     1     -10.164   8.173  71.795  1.00  0.00     0.000 HD 
BRANCH  15  17
HETATM   17  C   UNL     1     -10.969   9.240  70.115  1.00  0.00    -0.246 A  
HETATM   18  C   UNL     1     -10.774   9.444  68.740  1.00  0.00    -0.200 A  
HETATM   19  C   UNL     1     -11.226  10.617  68.121  1.00  0.00    -0.366 A  
HETATM   20  C   UNL     1     -11.892  11.588  68.866  1.00  0.00    -0.406 A  
HETATM   21  C   UNL     1     -12.125  11.382  70.223  1.00  0.00    -0.459 A  
HETATM   22  C   UNL     1     -11.672  10.213  70.837  1.00  0.00    -0.468 A  
ENDBRANCH  15  17
ENDBRANCH  13  15
ENDBRANCH   7  13
TORSDOF 3
ENDMDL
MODEL      152
REMARK 921   NORMALIZED FREE ENERGY PREDICTED BY IDOCK:   -3.73 KCAL/MOL
REMARK 922        TOTAL FREE ENERGY PREDICTED BY IDOCK:   -4.92 KCAL/MOL
REMARK 923 INTER-LIGAND FREE ENERGY PREDICTED BY IDOCK:   -4.36 KCAL/MOL
REMARK 924 INTRA-LIGAND FREE ENERGY PREDICTED BY IDOCK:   -0.55 KCAL/MOL
REMARK 927      BINDING AFFINITY PREDICTED BY RF-SCORE:    0.00 PKD
ROOT
HETATM    1  N   UNL     1      -9.183   4.320  71.091  1.00  0.00    -0.130 NA 
HETATM    2  C   UNL     1      -9.660   5.611  70.884  1.00  0.00    -0.169 A  
HETATM    3  H2  UNL     1      -9.637   3.680  70.440  1.00  0.00     0.000 HD 
HETATM    4  H1  UNL     1      -8.172   4.193  71.047  1.00  0.00     0.000 HD 
HETATM    5  N   UNL     1     -10.991   5.779  70.941  1.00  0.00    -0.264 NA 
HETATM    6  C   UNL     1     -11.485   7.026  70.769  1.00  0.00    -0.318 A  
HETATM    7  C   UNL     1     -10.674   8.156  70.533  1.00  0.00    -0.225 A  
HETATM    8  N   UNL     1     -12.881   7.102  70.768  1.00  0.00    -0.591 NA 
HETATM    9  H2  UNL     1     -13.260   6.685  71.618  1.00  0.00     0.000 HD 
HETATM   10  C   UNL     1      -8.780   6.659  70.665  1.00  0.00    -0.143 A  
HETATM   11  C   UNL     1      -9.297   7.940  70.482  1.00  0.00    -0.162 A  
HETATM   12  H1  UNL     1     -13.253   8.043  70.638  1.00  0.00     0.000 HD 
ENDROOT
BRANCH   7  13
HETATM   13  N   UNL     1     -11.139   9.478  70.338  1.00  0.00    -0.259 NA 
HETATM   14  H   UNL     1     -10.959  10.245  70.985  1.00  0.00     0.000 HD 
BRANCH  13  15
HETATM   15  N   UNL     1     -11.794   9.598  69.284  1.00  0.00    -0.221 NA 
HETATM   16  H   UNL     1     -12.524   8.943  69.001  1.00  0.00     0.000 HD 
BRANCH  15  17
HETATM   17  C   UNL     1     -11.426  10.725  68.521  1.00  0.00    -0.292 A  
HETATM   18  C   UNL     1     -11.767  12.049  68.836  1.00  0.00    -0.383 A  
HETATM   19  C   UNL     1     -11.402  13.101  67.986  1.00  0.00    -0.327 A  
HETATM   20  C   UNL     1     -10.679  12.842  66.824  1.00  0.00    -0.276 A  
HETATM   21  C   UNL     1     -10.302  11.537  66.518  1.00  0.00    -0.269 A  
HETATM   22  C   UNL     1     -10.668  10.491  67.366  1.00  0.00    -0.334 A  
ENDBRANCH  15  17
ENDBRANCH  13  15
ENDBRANCH   7  13
TORSDOF 3
ENDMDL
MODEL      153
REMARK 921   NORMALIZED FREE ENERGY PREDICTED BY IDOCK:   -3.71 KCAL/MOL
REMARK 922        TOTAL FREE ENERGY PREDICTED BY IDOCK:   -4.89 KCAL/MOL
REMARK 923 INTER-LIGAND FREE ENERGY PREDICTED BY IDOCK:   -4.31 KCAL/MOL
REMARK 924 INTRA-LIGAND FREE ENERGY PREDICTED BY IDOCK:   -0.58 KCAL/MOL
REMARK 927      BINDING AFFINITY PREDICTED BY RF-SCORE:    0.00 PKD
ROOT
HETATM    1  N   UNL     1     -11.371   9.519  68.307  1.00  0.00    -0.457 NA 
HETATM    2  C   UNL     1     -10.811  10.697  67.820  1.00  0.00    -0.286 A  
HETATM    3  H2  UNL     1     -10.630   8.857  68.536  1.00  0.00     0.000 HD 
HETATM    4  H1  UNL     1     -12.006   9.609  69.099  1.00  0.00     0.000 HD 
HETATM    5  N   UNL     1      -9.973  10.580  66.777  1.00  0.00    -0.196 NA 
HETATM    6  C   UNL     1      -9.431  11.708  66.264  1.00  0.00    -0.218 A  
HETATM    7  C   UNL     1      -9.701  12.997  66.769  1.00  0.00    -0.248 A  
HETATM    8  N   UNL     1      -8.514  11.493  65.231  1.00  0.00    -0.306 NA 
HETATM    9  H2  UNL     1      -8.938  10.935  64.490  1.00  0.00     0.000 HD 
HETATM   10  C   UNL     1     -11.144  11.919  68.381  1.00  0.00    -0.292 A  
HETATM   11  C   UNL     1     -10.576  13.077  67.852  1.00  0.00    -0.239 A  
HETATM   12  H1  UNL     1      -8.105  12.345  64.844  1.00  0.00     0.000 HD 
ENDROOT
BRANCH   7  13
HETATM   13  N   UNL     1      -9.155  14.207  66.276  1.00  0.00    -0.493 NA 
HETATM   14  H   UNL     1      -9.681  14.884  65.725  1.00  0.00     0.000 HD 
BRANCH  13  15
HETATM   15  N   UNL     1      -7.957  14.348  66.594  1.00  0.00    -0.225 NA 
HETATM   16  H   UNL     1      -7.240  13.650  66.397  1.00  0.00     0.000 HD 
BRANCH  15  17
HETATM   17  C   UNL     1      -7.693  15.566  67.253  1.00  0.00    -0.212 A  
HETATM   18  C   UNL     1      -7.763  16.832  66.653  1.00  0.00    -0.308 A  
HETATM   19  C   UNL     1      -7.429  17.984  67.376  1.00  0.00    -0.212 A  
HETATM   20  C   UNL     1      -7.039  17.884  68.710  1.00  0.00    -0.268 A  
HETATM   21  C   UNL     1      -7.001  16.637  69.329  1.00  0.00    -0.225 A  
HETATM   22  C   UNL     1      -7.333  15.491  68.605  1.00  0.00    -0.125 A  
ENDBRANCH  15  17
ENDBRANCH  13  15
ENDBRANCH   7  13
TORSDOF 3
ENDMDL
MODEL      154
REMARK 921   NORMALIZED FREE ENERGY PREDICTED BY IDOCK:   -3.70 KCAL/MOL
REMARK 922        TOTAL FREE ENERGY PREDICTED BY IDOCK:   -4.88 KCAL/MOL
REMARK 923 INTER-LIGAND FREE ENERGY PREDICTED BY IDOCK:   -4.22 KCAL/MOL
REMARK 924 INTRA-LIGAND FREE ENERGY PREDICTED BY IDOCK:   -0.66 KCAL/MOL
REMARK 927      BINDING AFFINITY PREDICTED BY RF-SCORE:    0.00 PKD
ROOT
HETATM    1  N   UNL     1     -10.136   7.347  66.352  1.00  0.00    -0.471 NA 
HETATM    2  C   UNL     1     -10.473   7.570  67.684  1.00  0.00    -0.250 A  
HETATM    3  H2  UNL     1      -9.169   7.627  66.193  1.00  0.00     0.000 HD 
HETATM    4  H1  UNL     1     -10.282   6.403  65.994  1.00  0.00     0.000 HD 
HETATM    5  N   UNL     1     -10.280   8.813  68.155  1.00  0.00    -0.197 NA 
HETATM    6  C   UNL     1     -10.621   9.067  69.440  1.00  0.00    -0.221 A  
HETATM    7  C   UNL     1     -11.168   8.097  70.304  1.00  0.00    -0.182 A  
HETATM    8  N   UNL     1     -10.320  10.362  69.873  1.00  0.00    -0.398 NA 
HETATM    9  H2  UNL     1     -10.740  11.052  69.250  1.00  0.00     0.000 HD 
HETATM   10  C   UNL     1     -11.011   6.550  68.453  1.00  0.00    -0.358 A  
HETATM   11  C   UNL     1     -11.354   6.819  69.777  1.00  0.00    -0.350 A  
HETATM   12  H1  UNL     1     -10.577  10.554  70.842  1.00  0.00     0.000 HD 
ENDROOT
BRANCH   7  13
HETATM   13  N   UNL     1     -11.533   8.309  71.655  1.00  0.00    -0.264 NA 
HETATM   14  H   UNL     1     -12.442   8.058  72.044  1.00  0.00     0.000 HD 
BRANCH  13  15
HETATM   15  N   UNL     1     -10.616   8.837  72.315  1.00  0.00    -0.313 NA 
HETATM   16  H   UNL     1     -10.504   9.847  72.408  1.00  0.00     0.000 HD 
BRANCH  15  17
HETATM   17  C   UNL     1      -9.750   7.902  72.918  1.00  0.00    -0.273 A  
HETATM   18  C   UNL     1     -10.161   6.859  73.762  1.00  0.00    -0.396 A  
HETATM   19  C   UNL     1      -9.220   6.012  74.359  1.00  0.00    -0.148 A  
HETATM   20  C   UNL     1      -7.861   6.187  74.105  1.00  0.00    -0.099 A  
HETATM   21  C   UNL     1      -7.441   7.194  73.240  1.00  0.00    -0.080 A  
HETATM   22  C   UNL     1      -8.382   8.038  72.648  1.00  0.00    -0.221 A  
ENDBRANCH  15  17
ENDBRANCH  13  15
ENDBRANCH   7  13
TORSDOF 3
ENDMDL
MODEL      155
REMARK 921   NORMALIZED FREE ENERGY PREDICTED BY IDOCK:   -3.69 KCAL/MOL
REMARK 922        TOTAL FREE ENERGY PREDICTED BY IDOCK:   -4.87 KCAL/MOL
REMARK 923 INTER-LIGAND FREE ENERGY PREDICTED BY IDOCK:   -4.33 KCAL/MOL
REMARK 924 INTRA-LIGAND FREE ENERGY PREDICTED BY IDOCK:   -0.53 KCAL/MOL
REMARK 927      BINDING AFFINITY PREDICTED BY RF-SCORE:    0.00 PKD
ROOT
HETATM    1  N   UNL     1     -13.599   8.748  73.064  1.00  0.00    -0.959 NA 
HETATM    2  C   UNL     1     -12.687   8.766  72.013  1.00  0.00    -0.387 A  
HETATM    3  H2  UNL     1     -13.273   8.111  73.790  1.00  0.00     0.000 HD 
HETATM    4  H1  UNL     1     -13.835   9.649  73.481  1.00  0.00     0.000 HD 
HETATM    5  N   UNL     1     -12.376   7.580  71.465  1.00  0.00    -0.325 NA 
HETATM    6  C   UNL     1     -11.510   7.566  70.425  1.00  0.00    -0.198 A  
HETATM    7  C   UNL     1     -10.921   8.730  69.890  1.00  0.00    -0.179 A  
HETATM    8  N   UNL     1     -11.182   6.288  69.961  1.00  0.00    -0.385 NA 
HETATM    9  H2  UNL     1     -12.028   5.767  69.727  1.00  0.00     0.000 HD 
HETATM   10  C   UNL     1     -12.166   9.965  71.554  1.00  0.00    -0.505 A  
HETATM   11  C   UNL     1     -11.270   9.941  70.486  1.00  0.00    -0.399 A  
HETATM   12  H1  UNL     1     -10.530   6.278  69.177  1.00  0.00     0.000 HD 
ENDROOT
BRANCH   7  13
HETATM   13  N   UNL     1     -10.006   8.770  68.811  1.00  0.00    -0.180 NA 
HETATM   14  H   UNL     1     -10.182   9.259  67.934  1.00  0.00     0.000 HD 
BRANCH  13  15
HETATM   15  N   UNL     1      -8.959   8.138  69.057  1.00  0.00    -0.144 NA 
HETATM   16  H   UNL     1      -8.475   8.184  69.954  1.00  0.00     0.000 HD 
BRANCH  15  17
HETATM   17  C   UNL     1      -8.510   7.356  67.973  1.00  0.00    -0.123 A  
HETATM   18  C   UNL     1      -7.992   6.056  68.085  1.00  0.00    -0.110 A  
HETATM   19  C   UNL     1      -7.519   5.377  66.956  1.00  0.00    -0.088 A  
HETATM   20  C   UNL     1      -7.574   5.982  65.702  1.00  0.00    -0.084 A  
HETATM   21  C   UNL     1      -8.119   7.257  65.571  1.00  0.00    -0.132 A  
HETATM   22  C   UNL     1      -8.589   7.931  66.698  1.00  0.00    -0.138 A  
ENDBRANCH  15  17
ENDBRANCH  13  15
ENDBRANCH   7  13
TORSDOF 3
ENDMDL
MODEL      156
REMARK 921   NORMALIZED FREE ENERGY PREDICTED BY IDOCK:   -3.67 KCAL/MOL
REMARK 922        TOTAL FREE ENERGY PREDICTED BY IDOCK:   -4.84 KCAL/MOL
REMARK 923 INTER-LIGAND FREE ENERGY PREDICTED BY IDOCK:   -4.49 KCAL/MOL
REMARK 924 INTRA-LIGAND FREE ENERGY PREDICTED BY IDOCK:   -0.35 KCAL/MOL
REMARK 927      BINDING AFFINITY PREDICTED BY RF-SCORE:    0.00 PKD
ROOT
HETATM    1  N   UNL     1      -8.974  16.950  65.605  1.00  0.00    -0.416 NA 
HETATM    2  C   UNL     1      -9.354  15.876  66.404  1.00  0.00    -0.297 A  
HETATM    3  H2  UNL     1      -9.469  17.790  65.903  1.00  0.00     0.000 HD 
HETATM    4  H1  UNL     1      -7.974  17.145  65.547  1.00  0.00     0.000 HD 
HETATM    5  N   UNL     1     -10.670  15.619  66.482  1.00  0.00    -0.307 NA 
HETATM    6  C   UNL     1     -11.071  14.566  67.232  1.00  0.00    -0.312 A  
HETATM    7  C   UNL     1     -10.179  13.728  67.931  1.00  0.00    -0.245 A  
HETATM    8  N   UNL     1     -12.458  14.413  67.321  1.00  0.00    -0.529 NA 
HETATM    9  H2  UNL     1     -12.871  14.363  66.389  1.00  0.00     0.000 HD 
HETATM   10  C   UNL     1      -8.399  15.106  67.050  1.00  0.00    -0.263 A  
HETATM   11  C   UNL     1      -8.821  14.027  67.824  1.00  0.00    -0.187 A  
HETATM   12  H1  UNL     1     -12.760  13.619  67.886  1.00  0.00     0.000 HD 
ENDROOT
BRANCH   7  13
HETATM   13  N   UNL     1     -10.545  12.621  68.734  1.00  0.00    -0.351 NA 
HETATM   14  H   UNL     1     -11.491  12.457  69.080  1.00  0.00     0.000 HD 
BRANCH  13  15
HETATM   15  N   UNL     1      -9.579  11.868  68.969  1.00  0.00    -0.402 NA 
HETATM   16  H   UNL     1      -8.692  12.198  69.350  1.00  0.00     0.000 HD 
BRANCH  15  17
HETATM   17  C   UNL     1      -9.834  10.517  68.657  1.00  0.00    -0.178 A  
HETATM   18  C   UNL     1     -10.668  10.079  67.617  1.00  0.00    -0.340 A  
HETATM   19  C   UNL     1     -10.903   8.713  67.418  1.00  0.00    -0.083 A  
HETATM   20  C   UNL     1     -10.294   7.771  68.244  1.00  0.00    -0.239 A  
HETATM   21  C   UNL     1      -9.435   8.189  69.257  1.00  0.00    -0.159 A  
HETATM   22  C   UNL     1      -9.204   9.551  69.454  1.00  0.00    -0.181 A  
ENDBRANCH  15  17
ENDBRANCH  13  15
ENDBRANCH   7  13
TORSDOF 3
ENDMDL
MODEL      157
REMARK 921   NORMALIZED FREE ENERGY PREDICTED BY IDOCK:   -3.61 KCAL/MOL
REMARK 922        TOTAL FREE ENERGY PREDICTED BY IDOCK:   -4.77 KCAL/MOL
REMARK 923 INTER-LIGAND FREE ENERGY PREDICTED BY IDOCK:   -4.34 KCAL/MOL
REMARK 924 INTRA-LIGAND FREE ENERGY PREDICTED BY IDOCK:   -0.43 KCAL/MOL
REMARK 927      BINDING AFFINITY PREDICTED BY RF-SCORE:    0.00 PKD
ROOT
HETATM    1  N   UNL     1      -8.631  13.550  68.712  1.00  0.00    -0.366 NA 
HETATM    2  C   UNL     1      -9.112  12.303  68.323  1.00  0.00    -0.187 A  
HETATM    3  H2  UNL     1      -8.722  13.651  69.722  1.00  0.00     0.000 HD 
HETATM    4  H1  UNL     1      -7.680  13.782  68.428  1.00  0.00     0.000 HD 
HETATM    5  N   UNL     1     -10.365  11.996  68.697  1.00  0.00    -0.215 NA 
HETATM    6  C   UNL     1     -10.870  10.801  68.314  1.00  0.00    -0.229 A  
HETATM    7  C   UNL     1     -10.149   9.865  67.544  1.00  0.00    -0.197 A  
HETATM    8  N   UNL     1     -12.150  10.528  68.807  1.00  0.00    -0.772 NA 
HETATM    9  H2  UNL     1     -12.793  11.281  68.561  1.00  0.00     0.000 HD 
HETATM   10  C   UNL     1      -8.327  11.453  67.560  1.00  0.00    -0.137 A  
HETATM   11  C   UNL     1      -8.853  10.221  67.175  1.00  0.00    -0.141 A  
HETATM   12  H1  UNL     1     -12.531   9.626  68.518  1.00  0.00     0.000 HD 
ENDROOT
BRANCH   7  13
HETATM   13  N   UNL     1     -10.627   8.600  67.125  1.00  0.00    -0.356 NA 
HETATM   14  H   UNL     1     -10.509   8.232  66.181  1.00  0.00     0.000 HD 
BRANCH  13  15
HETATM   15  N   UNL     1     -11.209   7.987  68.042  1.00  0.00    -0.177 NA 
HETATM   16  H   UNL     1     -11.990   8.378  68.569  1.00  0.00     0.000 HD 
BRANCH  15  17
HETATM   17  C   UNL     1     -10.680   6.702  68.280  1.00  0.00    -0.257 A  
HETATM   18  C   UNL     1     -10.289   5.800  67.278  1.00  0.00    -0.284 A  
HETATM   19  C   UNL     1      -9.825   4.521  67.611  1.00  0.00    -0.181 A  
HETATM   20  C   UNL     1      -9.730   4.138  68.947  1.00  0.00    -0.176 A  
HETATM   21  C   UNL     1     -10.079   5.036  69.953  1.00  0.00    -0.344 A  
HETATM   22  C   UNL     1     -10.542   6.309  69.617  1.00  0.00    -0.323 A  
ENDBRANCH  15  17
ENDBRANCH  13  15
ENDBRANCH   7  13
TORSDOF 3
ENDMDL
MODEL      158
REMARK 921   NORMALIZED FREE ENERGY PREDICTED BY IDOCK:   -3.59 KCAL/MOL
REMARK 922        TOTAL FREE ENERGY PREDICTED BY IDOCK:   -4.75 KCAL/MOL
REMARK 923 INTER-LIGAND FREE ENERGY PREDICTED BY IDOCK:   -4.65 KCAL/MOL
REMARK 924 INTRA-LIGAND FREE ENERGY PREDICTED BY IDOCK:   -0.10 KCAL/MOL
REMARK 927      BINDING AFFINITY PREDICTED BY RF-SCORE:    0.00 PKD
ROOT
HETATM    1  N   UNL     1     -13.009  15.744  71.169  1.00  0.00    -0.524 NA 
HETATM    2  C   UNL     1     -12.282  15.129  70.154  1.00  0.00    -0.352 A  
HETATM    3  H2  UNL     1     -13.726  16.343  70.761  1.00  0.00     0.000 HD 
HETATM    4  H1  UNL     1     -13.430  15.131  71.866  1.00  0.00     0.000 HD 
HETATM    5  N   UNL     1     -11.727  15.936  69.235  1.00  0.00    -0.370 NA 
HETATM    6  C   UNL     1     -10.994  15.370  68.249  1.00  0.00    -0.288 A  
HETATM    7  C   UNL     1     -10.783  13.981  68.138  1.00  0.00    -0.246 A  
HETATM    8  N   UNL     1     -10.515  16.272  67.293  1.00  0.00    -0.298 NA 
HETATM    9  H2  UNL     1      -9.988  17.020  67.743  1.00  0.00     0.000 HD 
HETATM   10  C   UNL     1     -12.126  13.752  70.135  1.00  0.00    -0.429 A  
HETATM   11  C   UNL     1     -11.375  13.177  69.112  1.00  0.00    -0.335 A  
HETATM   12  H1  UNL     1      -9.962  15.845  66.549  1.00  0.00     0.000 HD 
ENDROOT
BRANCH   7  13
HETATM   13  N   UNL     1     -10.033  13.338  67.124  1.00  0.00    -0.234 NA 
HETATM   14  H   UNL     1      -9.023  13.433  67.017  1.00  0.00     0.000 HD 
BRANCH  13  15
HETATM   15  N   UNL     1     -10.749  12.643  66.377  1.00  0.00    -0.252 NA 
HETATM   16  H   UNL     1     -11.501  13.027  65.805  1.00  0.00     0.000 HD 
BRANCH  15  17
HETATM   17  C   UNL     1     -10.417  11.273  66.401  1.00  0.00    -0.257 A  
HETATM   18  C   UNL     1      -9.409  10.680  65.625  1.00  0.00    -0.239 A  
HETATM   19  C   UNL     1      -9.188   9.298  65.676  1.00  0.00    -0.291 A  
HETATM   20  C   UNL     1      -9.960   8.497  66.515  1.00  0.00    -0.350 A  
HETATM   21  C   UNL     1     -10.939   9.077  67.319  1.00  0.00     0.067 A  
HETATM   22  C   UNL     1     -11.157  10.454  67.264  1.00  0.00    -0.251 A  
ENDBRANCH  15  17
ENDBRANCH  13  15
ENDBRANCH   7  13
TORSDOF 3
ENDMDL
MODEL      159
REMARK 921   NORMALIZED FREE ENERGY PREDICTED BY IDOCK:   -3.58 KCAL/MOL
REMARK 922        TOTAL FREE ENERGY PREDICTED BY IDOCK:   -4.74 KCAL/MOL
REMARK 923 INTER-LIGAND FREE ENERGY PREDICTED BY IDOCK:   -4.39 KCAL/MOL
REMARK 924 INTRA-LIGAND FREE ENERGY PREDICTED BY IDOCK:   -0.35 KCAL/MOL
REMARK 927      BINDING AFFINITY PREDICTED BY RF-SCORE:    0.00 PKD
ROOT
HETATM    1  N   UNL     1      -8.975   8.864  63.591  1.00  0.00    -0.395 NA 
HETATM    2  C   UNL     1      -9.120   9.918  64.489  1.00  0.00    -0.250 A  
HETATM    3  H2  UNL     1      -8.918   7.984  64.103  1.00  0.00     0.000 HD 
HETATM    4  H1  UNL     1      -9.679   8.788  62.857  1.00  0.00     0.000 HD 
HETATM    5  N   UNL     1      -8.193  10.018  65.456  1.00  0.00    -0.140 NA 
HETATM    6  C   UNL     1      -8.292  11.046  66.330  1.00  0.00    -0.165 A  
HETATM    7  C   UNL     1      -9.316  12.014  66.276  1.00  0.00    -0.223 A  
HETATM    8  N   UNL     1      -7.334  11.035  67.349  1.00  0.00    -0.100 NA 
HETATM    9  H2  UNL     1      -6.395  10.995  66.952  1.00  0.00     0.000 HD 
HETATM   10  C   UNL     1     -10.160  10.823  64.349  1.00  0.00    -0.419 A  
HETATM   11  C   UNL     1     -10.258  11.875  65.258  1.00  0.00    -0.309 A  
HETATM   12  H1  UNL     1      -7.408  11.810  68.008  1.00  0.00     0.000 HD 
ENDROOT
BRANCH   7  13
HETATM   13  N   UNL     1      -9.470  13.102  67.169  1.00  0.00    -0.230 NA 
HETATM   14  H   UNL     1      -8.789  13.349  67.886  1.00  0.00     0.000 HD 
BRANCH  13  15
HETATM   15  N   UNL     1     -10.534  13.722  66.977  1.00  0.00    -0.272 NA 
HETATM   16  H   UNL     1     -11.433  13.262  66.835  1.00  0.00     0.000 HD 
BRANCH  15  17
HETATM   17  C   UNL     1     -10.372  15.123  66.974  1.00  0.00    -0.271 A  
HETATM   18  C   UNL     1      -9.715  15.850  65.970  1.00  0.00    -0.375 A  
HETATM   19  C   UNL     1      -9.555  17.237  66.081  1.00  0.00    -0.224 A  
HETATM   20  C   UNL     1     -10.066  17.913  67.188  1.00  0.00    -0.340 A  
HETATM   21  C   UNL     1     -10.753  17.209  68.173  1.00  0.00    -0.366 A  
HETATM   22  C   UNL     1     -10.909  15.827  68.060  1.00  0.00    -0.309 A  
ENDBRANCH  15  17
ENDBRANCH  13  15
ENDBRANCH   7  13
TORSDOF 3
ENDMDL
MODEL      160
REMARK 921   NORMALIZED FREE ENERGY PREDICTED BY IDOCK:   -3.55 KCAL/MOL
REMARK 922        TOTAL FREE ENERGY PREDICTED BY IDOCK:   -4.71 KCAL/MOL
REMARK 923 INTER-LIGAND FREE ENERGY PREDICTED BY IDOCK:   -4.20 KCAL/MOL
REMARK 924 INTRA-LIGAND FREE ENERGY PREDICTED BY IDOCK:   -0.51 KCAL/MOL
REMARK 927      BINDING AFFINITY PREDICTED BY RF-SCORE:    0.00 PKD
ROOT
HETATM    1  N   UNL     1      -6.026  10.745  64.784  1.00  0.00    -0.368 NA 
HETATM    2  C   UNL     1      -7.065  10.381  65.635  1.00  0.00    -0.142 A  
HETATM    3  H2  UNL     1      -5.134  10.493  65.206  1.00  0.00     0.000 HD 
HETATM    4  H1  UNL     1      -6.068  10.385  63.831  1.00  0.00     0.000 HD 
HETATM    5  N   UNL     1      -7.011  10.855  66.891  1.00  0.00    -0.110 NA 
HETATM    6  C   UNL     1      -8.018  10.539  67.736  1.00  0.00    -0.106 A  
HETATM    7  C   UNL     1      -9.119   9.740  67.366  1.00  0.00    -0.134 A  
HETATM    8  N   UNL     1      -7.848  11.009  69.042  1.00  0.00    -0.205 NA 
HETATM    9  H2  UNL     1      -7.690  12.017  69.039  1.00  0.00     0.000 HD 
HETATM   10  C   UNL     1      -8.109   9.594  65.175  1.00  0.00    -0.124 A  
HETATM   11  C   UNL     1      -9.140   9.267  66.054  1.00  0.00    -0.235 A  
HETATM   12  H1  UNL     1      -8.608  10.770  69.680  1.00  0.00     0.000 HD 
ENDROOT
BRANCH   7  13
HETATM   13  N   UNL     1     -10.194   9.373  68.212  1.00  0.00    -0.188 NA 
HETATM   14  H   UNL     1     -10.447   8.408  68.423  1.00  0.00     0.000 HD 
BRANCH  13  15
HETATM   15  N   UNL     1     -10.794  10.366  68.669  1.00  0.00    -0.217 NA 
HETATM   16  H   UNL     1     -10.824  11.269  68.196  1.00  0.00     0.000 HD 
BRANCH  15  17
HETATM   17  C   UNL     1     -11.426  10.118  69.905  1.00  0.00    -0.254 A  
HETATM   18  C   UNL     1     -11.317   8.923  70.633  1.00  0.00    -0.299 A  
HETATM   19  C   UNL     1     -12.028   8.748  71.827  1.00  0.00    -0.418 A  
HETATM   20  C   UNL     1     -12.840   9.771  72.314  1.00  0.00    -0.379 A  
HETATM   21  C   UNL     1     -12.928  10.975  71.621  1.00  0.00    -0.561 A  
HETATM   22  C   UNL     1     -12.219  11.145  70.431  1.00  0.00    -0.457 A  
ENDBRANCH  15  17
ENDBRANCH  13  15
ENDBRANCH   7  13
TORSDOF 3
ENDMDL
MODEL      161
REMARK 921   NORMALIZED FREE ENERGY PREDICTED BY IDOCK:   -3.55 KCAL/MOL
REMARK 922        TOTAL FREE ENERGY PREDICTED BY IDOCK:   -4.71 KCAL/MOL
REMARK 923 INTER-LIGAND FREE ENERGY PREDICTED BY IDOCK:   -4.10 KCAL/MOL
REMARK 924 INTRA-LIGAND FREE ENERGY PREDICTED BY IDOCK:   -0.60 KCAL/MOL
REMARK 927      BINDING AFFINITY PREDICTED BY RF-SCORE:    0.00 PKD
ROOT
HETATM    1  N   UNL     1      -6.691  18.664  69.024  1.00  0.00    -0.270 NA 
HETATM    2  C   UNL     1      -7.169  17.452  68.535  1.00  0.00    -0.230 A  
HETATM    3  H2  UNL     1      -7.462  19.325  69.114  1.00  0.00     0.000 HD 
HETATM    4  H1  UNL     1      -6.165  18.630  69.897  1.00  0.00     0.000 HD 
HETATM    5  N   UNL     1      -7.862  17.497  67.385  1.00  0.00    -0.200 NA 
HETATM    6  C   UNL     1      -8.320  16.332  66.871  1.00  0.00    -0.232 A  
HETATM    7  C   UNL     1      -8.107  15.078  67.479  1.00  0.00    -0.181 A  
HETATM    8  N   UNL     1      -9.093  16.474  65.714  1.00  0.00    -0.482 NA 
HETATM    9  H2  UNL     1      -8.579  16.998  65.005  1.00  0.00     0.000 HD 
HETATM   10  C   UNL     1      -6.902  16.268  69.204  1.00  0.00    -0.202 A  
HETATM   11  C   UNL     1      -7.383  15.074  68.671  1.00  0.00    -0.118 A  
HETATM   12  H1  UNL     1      -9.438  15.595  65.326  1.00  0.00     0.000 HD 
ENDROOT
BRANCH   7  13
HETATM   13  N   UNL     1      -8.570  13.834  66.989  1.00  0.00    -0.346 NA 
HETATM   14  H   UNL     1      -7.970  13.139  66.544  1.00  0.00     0.000 HD 
BRANCH  13  15
HETATM   15  N   UNL     1      -9.796  13.685  67.163  1.00  0.00    -0.237 NA 
HETATM   16  H   UNL     1     -10.499  14.288  66.736  1.00  0.00     0.000 HD 
BRANCH  15  17
HETATM   17  C   UNL     1     -10.113  12.602  68.008  1.00  0.00    -0.229 A  
HETATM   18  C   UNL     1     -11.366  12.393  68.604  1.00  0.00    -0.332 A  
HETATM   19  C   UNL     1     -11.572  11.315  69.475  1.00  0.00    -0.398 A  
HETATM   20  C   UNL     1     -10.533  10.426  69.744  1.00  0.00    -0.284 A  
HETATM   21  C   UNL     1      -9.295  10.600  69.130  1.00  0.00    -0.174 A  
HETATM   22  C   UNL     1      -9.094  11.676  68.264  1.00  0.00    -0.187 A  
ENDBRANCH  15  17
ENDBRANCH  13  15
ENDBRANCH   7  13
TORSDOF 3
ENDMDL
MODEL      162
REMARK 921   NORMALIZED FREE ENERGY PREDICTED BY IDOCK:   -3.54 KCAL/MOL
REMARK 922        TOTAL FREE ENERGY PREDICTED BY IDOCK:   -4.69 KCAL/MOL
REMARK 923 INTER-LIGAND FREE ENERGY PREDICTED BY IDOCK:   -4.15 KCAL/MOL
REMARK 924 INTRA-LIGAND FREE ENERGY PREDICTED BY IDOCK:   -0.54 KCAL/MOL
REMARK 927      BINDING AFFINITY PREDICTED BY RF-SCORE:    0.00 PKD
ROOT
HETATM    1  N   UNL     1      -6.727   3.669  65.716  1.00  0.00    -0.044 NA 
HETATM    2  C   UNL     1      -7.801   4.310  66.326  1.00  0.00    -0.095 A  
HETATM    3  H2  UNL     1      -5.911   4.280  65.730  1.00  0.00     0.000 HD 
HETATM    4  H1  UNL     1      -6.473   2.752  66.083  1.00  0.00     0.000 HD 
HETATM    5  N   UNL     1      -8.135   5.518  65.844  1.00  0.00    -0.106 NA 
HETATM    6  C   UNL     1      -9.190   6.157  66.399  1.00  0.00    -0.152 A  
HETATM    7  C   UNL     1      -9.954   5.620  67.455  1.00  0.00    -0.154 A  
HETATM    8  N   UNL     1      -9.424   7.439  65.892  1.00  0.00    -0.403 NA 
HETATM    9  H2  UNL     1      -9.523   7.406  64.876  1.00  0.00     0.000 HD 
HETATM   10  C   UNL     1      -8.495   3.695  67.356  1.00  0.00    -0.103 A  
HETATM   11  C   UNL     1      -9.576   4.363  67.927  1.00  0.00    -0.205 A  
HETATM   12  H1  UNL     1     -10.220   7.921  66.310  1.00  0.00     0.000 HD 
ENDROOT
BRANCH   7  13
HETATM   13  N   UNL     1     -11.060   6.248  68.076  1.00  0.00    -0.427 NA 
HETATM   14  H   UNL     1     -11.971   5.807  68.196  1.00  0.00     0.000 HD 
BRANCH  13  15
HETATM   15  N   UNL     1     -10.791   7.404  68.460  1.00  0.00    -0.417 NA 
HETATM   16  H   UNL     1     -10.360   8.107  67.859  1.00  0.00     0.000 HD 
BRANCH  15  17
HETATM   17  C   UNL     1     -11.141   7.643  69.805  1.00  0.00    -0.106 A  
HETATM   18  C   UNL     1     -10.829   8.811  70.517  1.00  0.00    -0.268 A  
HETATM   19  C   UNL     1     -11.172   8.935  71.870  1.00  0.00    -0.447 A  
HETATM   20  C   UNL     1     -11.844   7.901  72.518  1.00  0.00    -0.390 A  
HETATM   21  C   UNL     1     -12.192   6.751  71.814  1.00  0.00    -0.402 A  
HETATM   22  C   UNL     1     -11.848   6.631  70.467  1.00  0.00    -0.430 A  
ENDBRANCH  15  17
ENDBRANCH  13  15
ENDBRANCH   7  13
TORSDOF 3
ENDMDL
MODEL      163
REMARK 921   NORMALIZED FREE ENERGY PREDICTED BY IDOCK:   -3.49 KCAL/MOL
REMARK 922        TOTAL FREE ENERGY PREDICTED BY IDOCK:   -4.64 KCAL/MOL
REMARK 923 INTER-LIGAND FREE ENERGY PREDICTED BY IDOCK:   -4.07 KCAL/MOL
REMARK 924 INTRA-LIGAND FREE ENERGY PREDICTED BY IDOCK:   -0.56 KCAL/MOL
REMARK 927      BINDING AFFINITY PREDICTED BY RF-SCORE:    0.00 PKD
ROOT
HETATM    1  N   UNL     1      -7.781  17.702  68.435  1.00  0.00    -0.260 NA 
HETATM    2  C   UNL     1      -8.422  16.567  67.947  1.00  0.00    -0.181 A  
HETATM    3  H2  UNL     1      -8.381  18.516  68.303  1.00  0.00     0.000 HD 
HETATM    4  H1  UNL     1      -7.461  17.666  69.403  1.00  0.00     0.000 HD 
HETATM    5  N   UNL     1      -8.844  16.614  66.672  1.00  0.00    -0.227 NA 
HETATM    6  C   UNL     1      -9.449  15.517  66.160  1.00  0.00    -0.341 A  
HETATM    7  C   UNL     1      -9.656  14.332  66.895  1.00  0.00    -0.262 A  
HETATM    8  N   UNL     1      -9.924  15.674  64.855  1.00  0.00    -0.339 NA 
HETATM    9  H2  UNL     1      -9.173  15.987  64.238  1.00  0.00     0.000 HD 
HETATM   10  C   UNL     1      -8.573  15.445  68.747  1.00  0.00    -0.190 A  
HETATM   11  C   UNL     1      -9.202  14.322  68.213  1.00  0.00    -0.197 A  
HETATM   12  H1  UNL     1     -10.380  14.847  64.469  1.00  0.00     0.000 HD 
ENDROOT
BRANCH   7  13
HETATM   13  N   UNL     1     -10.289  13.162  66.410  1.00  0.00    -0.281 NA 
HETATM   14  H   UNL     1     -11.175  12.805  66.767  1.00  0.00     0.000 HD 
BRANCH  13  15
HETATM   15  N   UNL     1      -9.638  12.617  65.496  1.00  0.00    -0.454 NA 
HETATM   16  H   UNL     1      -9.217  13.135  64.724  1.00  0.00     0.000 HD 
BRANCH  15  17
HETATM   17  C   UNL     1      -9.541  11.218  65.635  1.00  0.00    -0.229 A  
HETATM   18  C   UNL     1      -8.602  10.411  64.974  1.00  0.00    -0.190 A  
HETATM   19  C   UNL     1      -8.618   9.020  65.133  1.00  0.00    -0.204 A  
HETATM   20  C   UNL     1      -9.561   8.423  65.967  1.00  0.00    -0.196 A  
HETATM   21  C   UNL     1     -10.475   9.214  66.659  1.00  0.00    -0.237 A  
HETATM   22  C   UNL     1     -10.457  10.600  66.496  1.00  0.00    -0.285 A  
ENDBRANCH  15  17
ENDBRANCH  13  15
ENDBRANCH   7  13
TORSDOF 3
ENDMDL
MODEL      164
REMARK 921   NORMALIZED FREE ENERGY PREDICTED BY IDOCK:   -3.48 KCAL/MOL
REMARK 922        TOTAL FREE ENERGY PREDICTED BY IDOCK:   -4.62 KCAL/MOL
REMARK 923 INTER-LIGAND FREE ENERGY PREDICTED BY IDOCK:   -4.06 KCAL/MOL
REMARK 924 INTRA-LIGAND FREE ENERGY PREDICTED BY IDOCK:   -0.56 KCAL/MOL
REMARK 927      BINDING AFFINITY PREDICTED BY RF-SCORE:    0.00 PKD
ROOT
HETATM    1  N   UNL     1      -9.234   2.743  68.001  1.00  0.00    -0.188 NA 
HETATM    2  C   UNL     1      -9.323   4.028  67.474  1.00  0.00    -0.183 A  
HETATM    3  H2  UNL     1     -10.124   2.261  67.878  1.00  0.00     0.000 HD 
HETATM    4  H1  UNL     1      -8.476   2.157  67.652  1.00  0.00     0.000 HD 
HETATM    5  N   UNL     1     -10.322   4.800  67.933  1.00  0.00     0.002 NA 
HETATM    6  C   UNL     1     -10.421   6.063  67.459  1.00  0.00    -0.240 A  
HETATM    7  C   UNL     1      -9.531   6.608  66.511  1.00  0.00    -0.152 A  
HETATM    8  N   UNL     1     -11.530   6.774  67.930  1.00  0.00    -0.579 NA 
HETATM    9  H2  UNL     1     -11.544   6.775  68.950  1.00  0.00     0.000 HD 
HETATM   10  C   UNL     1      -8.394   4.475  66.549  1.00  0.00    -0.106 A  
HETATM   11  C   UNL     1      -8.507   5.776  66.061  1.00  0.00    -0.135 A  
HETATM   12  H1  UNL     1     -11.604   7.727  67.572  1.00  0.00     0.000 HD 
ENDROOT
BRANCH   7  13
HETATM   13  N   UNL     1      -9.595   7.918  65.978  1.00  0.00    -0.436 NA 
HETATM   14  H   UNL     1      -9.782   8.123  64.997  1.00  0.00     0.000 HD 
BRANCH  13  15
HETATM   15  N   UNL     1      -9.395   8.791  66.845  1.00  0.00    -0.157 NA 
HETATM   16  H   UNL     1      -8.742   8.671  67.620  1.00  0.00     0.000 HD 
BRANCH  15  17
HETATM   17  C   UNL     1     -10.160   9.959  66.650  1.00  0.00    -0.233 A  
HETATM   18  C   UNL     1     -11.033  10.512  67.600  1.00  0.00    -0.375 A  
HETATM   19  C   UNL     1     -11.794  11.647  67.295  1.00  0.00    -0.133 A  
HETATM   20  C   UNL     1     -11.677  12.251  66.045  1.00  0.00    -0.451 A  
HETATM   21  C   UNL     1     -10.787  11.736  65.106  1.00  0.00    -0.351 A  
HETATM   22  C   UNL     1     -10.031  10.604  65.413  1.00  0.00    -0.343 A  
ENDBRANCH  15  17
ENDBRANCH  13  15
ENDBRANCH   7  13
TORSDOF 3
ENDMDL
MODEL      165
REMARK 921   NORMALIZED FREE ENERGY PREDICTED BY IDOCK:   -3.46 KCAL/MOL
REMARK 922        TOTAL FREE ENERGY PREDICTED BY IDOCK:   -4.60 KCAL/MOL
REMARK 923 INTER-LIGAND FREE ENERGY PREDICTED BY IDOCK:   -4.20 KCAL/MOL
REMARK 924 INTRA-LIGAND FREE ENERGY PREDICTED BY IDOCK:   -0.40 KCAL/MOL
REMARK 927      BINDING AFFINITY PREDICTED BY RF-SCORE:    0.00 PKD
ROOT
HETATM    1  N   UNL     1      -6.339   9.828  65.786  1.00  0.00    -0.074 NA 
HETATM    2  C   UNL     1      -7.469   9.656  66.580  1.00  0.00    -0.094 A  
HETATM    3  H2  UNL     1      -5.664   9.091  65.988  1.00  0.00     0.000 HD 
HETATM    4  H1  UNL     1      -6.491   9.887  64.780  1.00  0.00     0.000 HD 
HETATM    5  N   UNL     1      -7.269   9.578  67.906  1.00  0.00    -0.081 NA 
HETATM    6  C   UNL     1      -8.350   9.435  68.706  1.00  0.00    -0.117 A  
HETATM    7  C   UNL     1      -9.671   9.364  68.220  1.00  0.00    -0.145 A  
HETATM    8  N   UNL     1      -8.050   9.287  70.064  1.00  0.00    -0.117 NA 
HETATM    9  H2  UNL     1      -7.469  10.062  70.386  1.00  0.00     0.000 HD 
HETATM   10  C   UNL     1      -8.730   9.603  66.007  1.00  0.00    -0.155 A  
HETATM   11  C   UNL     1      -9.837   9.449  66.838  1.00  0.00    -0.261 A  
HETATM   12  H1  UNL     1      -8.865   9.179  70.668  1.00  0.00     0.000 HD 
ENDROOT
BRANCH   7  13
HETATM   13  N   UNL     1     -10.834   9.206  69.012  1.00  0.00    -0.401 NA 
HETATM   14  H   UNL     1     -10.899   8.569  69.806  1.00  0.00     0.000 HD 
BRANCH  13  15
HETATM   15  N   UNL     1     -11.769   9.936  68.628  1.00  0.00    -0.421 NA 
HETATM   16  H   UNL     1     -12.216   9.840  67.715  1.00  0.00     0.000 HD 
BRANCH  15  17
HETATM   17  C   UNL     1     -12.148  10.907  69.577  1.00  0.00    -0.309 A  
HETATM   18  C   UNL     1     -12.025  12.293  69.396  1.00  0.00    -0.318 A  
HETATM   19  C   UNL     1     -12.378  13.181  70.421  1.00  0.00    -0.351 A  
HETATM   20  C   UNL     1     -12.874  12.693  71.629  1.00  0.00    -0.367 A  
HETATM   21  C   UNL     1     -13.037  11.321  71.808  1.00  0.00    -0.527 A  
HETATM   22  C   UNL     1     -12.682  10.440  70.785  1.00  0.00    -0.460 A  
ENDBRANCH  15  17
ENDBRANCH  13  15
ENDBRANCH   7  13
TORSDOF 3
ENDMDL
MODEL      166
REMARK 921   NORMALIZED FREE ENERGY PREDICTED BY IDOCK:   -3.44 KCAL/MOL
REMARK 922        TOTAL FREE ENERGY PREDICTED BY IDOCK:   -4.58 KCAL/MOL
REMARK 923 INTER-LIGAND FREE ENERGY PREDICTED BY IDOCK:   -4.14 KCAL/MOL
REMARK 924 INTRA-LIGAND FREE ENERGY PREDICTED BY IDOCK:   -0.43 KCAL/MOL
REMARK 927      BINDING AFFINITY PREDICTED BY RF-SCORE:    0.00 PKD
ROOT
HETATM    1  N   UNL     1      -9.963  12.562  65.018  1.00  0.00    -0.436 NA 
HETATM    2  C   UNL     1     -10.058  11.662  66.075  1.00  0.00    -0.224 A  
HETATM    3  H2  UNL     1      -9.692  12.065  64.170  1.00  0.00     0.000 HD 
HETATM    4  H1  UNL     1     -10.785  13.136  64.830  1.00  0.00     0.000 HD 
HETATM    5  N   UNL     1      -8.976  10.905  66.322  1.00  0.00    -0.170 NA 
HETATM    6  C   UNL     1      -9.028  10.038  67.359  1.00  0.00    -0.131 A  
HETATM    7  C   UNL     1     -10.156   9.890  68.191  1.00  0.00    -0.165 A  
HETATM    8  N   UNL     1      -7.891   9.236  67.501  1.00  0.00    -0.096 NA 
HETATM    9  H2  UNL     1      -7.053   9.816  67.564  1.00  0.00     0.000 HD 
HETATM   10  C   UNL     1     -11.211  11.595  66.841  1.00  0.00    -0.376 A  
HETATM   11  C   UNL     1     -11.259  10.694  67.903  1.00  0.00    -0.376 A  
HETATM   12  H1  UNL     1      -7.930   8.582  68.284  1.00  0.00     0.000 HD 
ENDROOT
BRANCH   7  13
HETATM   13  N   UNL     1     -10.265   8.994  69.282  1.00  0.00    -0.199 NA 
HETATM   14  H   UNL     1      -9.650   9.011  70.095  1.00  0.00     0.000 HD 
BRANCH  13  15
HETATM   15  N   UNL     1     -11.200   8.182  69.134  1.00  0.00    -0.361 NA 
HETATM   16  H   UNL     1     -12.182   8.430  69.259  1.00  0.00     0.000 HD 
BRANCH  15  17
HETATM   17  C   UNL     1     -10.767   6.889  68.776  1.00  0.00    -0.219 A  
HETATM   18  C   UNL     1     -10.144   5.984  69.650  1.00  0.00    -0.244 A  
HETATM   19  C   UNL     1      -9.697   4.739  69.188  1.00  0.00    -0.258 A  
HETATM   20  C   UNL     1      -9.885   4.379  67.855  1.00  0.00    -0.141 A  
HETATM   21  C   UNL     1     -10.536   5.252  66.987  1.00  0.00    -0.290 A  
HETATM   22  C   UNL     1     -10.978   6.492  67.449  1.00  0.00    -0.458 A  
ENDBRANCH  15  17
ENDBRANCH  13  15
ENDBRANCH   7  13
TORSDOF 3
ENDMDL
MODEL      167
REMARK 921   NORMALIZED FREE ENERGY PREDICTED BY IDOCK:   -3.35 KCAL/MOL
REMARK 922        TOTAL FREE ENERGY PREDICTED BY IDOCK:   -4.47 KCAL/MOL
REMARK 923 INTER-LIGAND FREE ENERGY PREDICTED BY IDOCK:   -3.80 KCAL/MOL
REMARK 924 INTRA-LIGAND FREE ENERGY PREDICTED BY IDOCK:   -0.66 KCAL/MOL
REMARK 927      BINDING AFFINITY PREDICTED BY RF-SCORE:    0.00 PKD
ROOT
HETATM    1  N   UNL     1     -12.612   8.228  72.946  1.00  0.00    -0.659 NA 
HETATM    2  C   UNL     1     -12.004   8.636  71.763  1.00  0.00    -0.336 A  
HETATM    3  H2  UNL     1     -11.937   7.728  73.523  1.00  0.00     0.000 HD 
HETATM    4  H1  UNL     1     -13.065   8.954  73.501  1.00  0.00     0.000 HD 
HETATM    5  N   UNL     1     -11.407   7.680  71.032  1.00  0.00    -0.268 NA 
HETATM    6  C   UNL     1     -10.827   8.040  69.863  1.00  0.00    -0.217 A  
HETATM    7  C   UNL     1     -10.820   9.363  69.376  1.00  0.00    -0.189 A  
HETATM    8  N   UNL     1     -10.164   7.002  69.202  1.00  0.00    -0.181 NA 
HETATM    9  H2  UNL     1     -10.794   6.212  69.058  1.00  0.00     0.000 HD 
HETATM   10  C   UNL     1     -12.056   9.962  71.365  1.00  0.00    -0.501 A  
HETATM   11  C   UNL     1     -11.451  10.325  70.163  1.00  0.00    -0.383 A  
HETATM   12  H1  UNL     1      -9.727   7.273  68.320  1.00  0.00     0.000 HD 
ENDROOT
BRANCH   7  13
HETATM   13  N   UNL     1     -10.223   9.793  68.167  1.00  0.00    -0.176 NA 
HETATM   14  H   UNL     1     -10.732  10.253  67.413  1.00  0.00     0.000 HD 
BRANCH  13  15
HETATM   15  N   UNL     1      -9.001   9.546  68.130  1.00  0.00    -0.124 NA 
HETATM   16  H   UNL     1      -8.622   8.632  67.879  1.00  0.00     0.000 HD 
BRANCH  15  17
HETATM   17  C   UNL     1      -8.195  10.651  68.471  1.00  0.00    -0.128 A  
HETATM   18  C   UNL     1      -8.284  11.919  67.875  1.00  0.00    -0.150 A  
HETATM   19  C   UNL     1      -7.401  12.943  68.243  1.00  0.00    -0.118 A  
HETATM   20  C   UNL     1      -6.435  12.716  69.220  1.00  0.00    -0.106 A  
HETATM   21  C   UNL     1      -6.360  11.474  69.846  1.00  0.00    -0.136 A  
HETATM   22  C   UNL     1      -7.240  10.455  69.477  1.00  0.00    -0.130 A  
ENDBRANCH  15  17
ENDBRANCH  13  15
ENDBRANCH   7  13
TORSDOF 3
ENDMDL
MODEL      168
REMARK 921   NORMALIZED FREE ENERGY PREDICTED BY IDOCK:   -3.29 KCAL/MOL
REMARK 922        TOTAL FREE ENERGY PREDICTED BY IDOCK:   -4.40 KCAL/MOL
REMARK 923 INTER-LIGAND FREE ENERGY PREDICTED BY IDOCK:   -3.85 KCAL/MOL
REMARK 924 INTRA-LIGAND FREE ENERGY PREDICTED BY IDOCK:   -0.55 KCAL/MOL
REMARK 927      BINDING AFFINITY PREDICTED BY RF-SCORE:    0.00 PKD
ROOT
HETATM    1  N   UNL     1     -10.648   6.146  74.002  1.00  0.00    -0.389 NA 
HETATM    2  C   UNL     1     -10.490   7.113  73.014  1.00  0.00    -0.292 A  
HETATM    3  H2  UNL     1     -11.190   5.365  73.633  1.00  0.00     0.000 HD 
HETATM    4  H1  UNL     1      -9.795   5.794  74.438  1.00  0.00     0.000 HD 
HETATM    5  N   UNL     1     -11.612   7.576  72.439  1.00  0.00    -0.307 NA 
HETATM    6  C   UNL     1     -11.495   8.535  71.492  1.00  0.00    -0.287 A  
HETATM    7  C   UNL     1     -10.257   9.072  71.081  1.00  0.00    -0.293 A  
HETATM    8  N   UNL     1     -12.701   8.908  70.892  1.00  0.00    -0.498 NA 
HETATM    9  H2  UNL     1     -13.379   9.190  71.601  1.00  0.00     0.000 HD 
HETATM   10  C   UNL     1      -9.229   7.582  72.683  1.00  0.00    -0.201 A  
HETATM   11  C   UNL     1      -9.116   8.566  71.702  1.00  0.00    -0.296 A  
HETATM   12  H1  UNL     1     -12.612   9.631  70.177  1.00  0.00     0.000 HD 
ENDROOT
BRANCH   7  13
HETATM   13  N   UNL     1     -10.078  10.068  70.091  1.00  0.00    -0.361 NA 
HETATM   14  H   UNL     1      -9.748  11.012  70.288  1.00  0.00     0.000 HD 
BRANCH  13  15
HETATM   15  N   UNL     1     -10.371   9.657  68.950  1.00  0.00    -0.196 NA 
HETATM   16  H   UNL     1     -11.073   8.938  68.777  1.00  0.00     0.000 HD 
BRANCH  15  17
HETATM   17  C   UNL     1      -9.635  10.285  67.924  1.00  0.00    -0.145 A  
HETATM   18  C   UNL     1     -10.181  10.749  66.718  1.00  0.00    -0.279 A  
HETATM   19  C   UNL     1      -9.359  11.311  65.732  1.00  0.00    -0.245 A  
HETATM   20  C   UNL     1      -7.988  11.431  65.950  1.00  0.00     0.171 A  
HETATM   21  C   UNL     1      -7.438  11.010  67.158  1.00  0.00    -0.117 A  
HETATM   22  C   UNL     1      -8.260  10.448  68.137  1.00  0.00    -0.116 A  
ENDBRANCH  15  17
ENDBRANCH  13  15
ENDBRANCH   7  13
TORSDOF 3
ENDMDL
MODEL      169
REMARK 921   NORMALIZED FREE ENERGY PREDICTED BY IDOCK:   -3.27 KCAL/MOL
REMARK 922        TOTAL FREE ENERGY PREDICTED BY IDOCK:   -4.37 KCAL/MOL
REMARK 923 INTER-LIGAND FREE ENERGY PREDICTED BY IDOCK:   -3.72 KCAL/MOL
REMARK 924 INTRA-LIGAND FREE ENERGY PREDICTED BY IDOCK:   -0.65 KCAL/MOL
REMARK 927      BINDING AFFINITY PREDICTED BY RF-SCORE:    0.00 PKD
ROOT
HETATM    1  N   UNL     1     -12.167  14.034  67.639  1.00  0.00    -0.535 NA 
HETATM    2  C   UNL     1     -11.674  12.803  67.215  1.00  0.00    -0.378 A  
HETATM    3  H2  UNL     1     -13.014  14.261  67.120  1.00  0.00     0.000 HD 
HETATM    4  H1  UNL     1     -12.341  14.136  68.639  1.00  0.00     0.000 HD 
HETATM    5  N   UNL     1     -11.445  12.667  65.898  1.00  0.00    -0.343 NA 
HETATM    6  C   UNL     1     -10.944  11.491  65.456  1.00  0.00    -0.229 A  
HETATM    7  C   UNL     1     -10.649  10.405  66.306  1.00  0.00    -0.109 A  
HETATM    8  N   UNL     1     -10.805  11.405  64.067  1.00  0.00    -0.375 NA 
HETATM    9  H2  UNL     1     -10.247  12.184  63.717  1.00  0.00     0.000 HD 
HETATM   10  C   UNL     1     -11.411  11.796  68.130  1.00  0.00    -0.348 A  
HETATM   11  C   UNL     1     -10.900  10.586  67.665  1.00  0.00    -0.355 A  
HETATM   12  H1  UNL     1     -10.426  10.519  63.734  1.00  0.00     0.000 HD 
ENDROOT
BRANCH   7  13
HETATM   13  N   UNL     1     -10.131   9.153  65.895  1.00  0.00    -0.387 NA 
HETATM   14  H   UNL     1     -10.624   8.268  66.013  1.00  0.00     0.000 HD 
BRANCH  13  15
HETATM   15  N   UNL     1      -9.004   9.258  65.371  1.00  0.00    -0.195 NA 
HETATM   16  H   UNL     1      -8.856   9.621  64.429  1.00  0.00     0.000 HD 
BRANCH  15  17
HETATM   17  C   UNL     1      -7.956   8.824  66.208  1.00  0.00    -0.106 A  
HETATM   18  C   UNL     1      -7.941   7.605  66.905  1.00  0.00    -0.115 A  
HETATM   19  C   UNL     1      -6.878   7.284  67.758  1.00  0.00    -0.070 A  
HETATM   20  C   UNL     1      -5.811   8.168  67.909  1.00  0.00    -0.042 A  
HETATM   21  C   UNL     1      -5.795   9.364  67.195  1.00  0.00    -0.045 A  
HETATM   22  C   UNL     1      -6.857   9.681  66.348  1.00  0.00    -0.084 A  
ENDBRANCH  15  17
ENDBRANCH  13  15
ENDBRANCH   7  13
TORSDOF 3
ENDMDL
MODEL      170
REMARK 921   NORMALIZED FREE ENERGY PREDICTED BY IDOCK:   -3.25 KCAL/MOL
REMARK 922        TOTAL FREE ENERGY PREDICTED BY IDOCK:   -4.36 KCAL/MOL
REMARK 923 INTER-LIGAND FREE ENERGY PREDICTED BY IDOCK:   -4.21 KCAL/MOL
REMARK 924 INTRA-LIGAND FREE ENERGY PREDICTED BY IDOCK:   -0.15 KCAL/MOL
REMARK 927      BINDING AFFINITY PREDICTED BY RF-SCORE:    0.00 PKD
ROOT
HETATM    1  N   UNL     1     -12.606  14.308  70.015  1.00  0.00    -0.461 NA 
HETATM    2  C   UNL     1     -11.819  14.887  69.024  1.00  0.00    -0.301 A  
HETATM    3  H2  UNL     1     -13.545  14.705  69.981  1.00  0.00     0.000 HD 
HETATM    4  H1  UNL     1     -12.665  13.290  70.017  1.00  0.00     0.000 HD 
HETATM    5  N   UNL     1     -11.741  16.228  69.022  1.00  0.00    -0.248 NA 
HETATM    6  C   UNL     1     -10.964  16.820  68.086  1.00  0.00    -0.309 A  
HETATM    7  C   UNL     1     -10.234  16.102  67.117  1.00  0.00    -0.281 A  
HETATM    8  N   UNL     1     -10.998  18.218  68.105  1.00  0.00    -0.209 NA 
HETATM    9  H2  UNL     1     -10.762  18.566  69.034  1.00  0.00     0.000 HD 
HETATM   10  C   UNL     1     -11.133  14.094  68.118  1.00  0.00    -0.276 A  
HETATM   11  C   UNL     1     -10.339  14.712  67.154  1.00  0.00    -0.265 A  
HETATM   12  H1  UNL     1     -10.411  18.664  67.399  1.00  0.00     0.000 HD 
ENDROOT
BRANCH   7  13
HETATM   13  N   UNL     1      -9.414  16.672  66.113  1.00  0.00    -0.367 NA 
HETATM   14  H   UNL     1      -9.352  16.315  65.160  1.00  0.00     0.000 HD 
BRANCH  13  15
HETATM   15  N   UNL     1      -8.776  17.659  66.529  1.00  0.00    -0.274 NA 
HETATM   16  H   UNL     1      -9.013  18.622  66.286  1.00  0.00     0.000 HD 
BRANCH  15  17
HETATM   17  C   UNL     1      -7.696  17.315  67.367  1.00  0.00    -0.176 A  
HETATM   18  C   UNL     1      -7.310  18.033  68.510  1.00  0.00    -0.276 A  
HETATM   19  C   UNL     1      -6.186  17.645  69.251  1.00  0.00    -0.239 A  
HETATM   20  C   UNL     1      -5.449  16.526  68.868  1.00  0.00    -0.126 A  
HETATM   21  C   UNL     1      -5.843  15.783  67.758  1.00  0.00    -0.168 A  
HETATM   22  C   UNL     1      -6.961  16.174  67.021  1.00  0.00    -0.234 A  
ENDBRANCH  15  17
ENDBRANCH  13  15
ENDBRANCH   7  13
TORSDOF 3
ENDMDL
MODEL      171
REMARK 921   NORMALIZED FREE ENERGY PREDICTED BY IDOCK:   -3.25 KCAL/MOL
REMARK 922        TOTAL FREE ENERGY PREDICTED BY IDOCK:   -4.35 KCAL/MOL
REMARK 923 INTER-LIGAND FREE ENERGY PREDICTED BY IDOCK:   -4.02 KCAL/MOL
REMARK 924 INTRA-LIGAND FREE ENERGY PREDICTED BY IDOCK:   -0.33 KCAL/MOL
REMARK 927      BINDING AFFINITY PREDICTED BY RF-SCORE:    0.00 PKD
ROOT
HETATM    1  N   UNL     1     -10.172  17.956  68.587  1.00  0.00    -0.388 NA 
HETATM    2  C   UNL     1     -10.075  16.624  68.193  1.00  0.00    -0.267 A  
HETATM    3  H2  UNL     1     -10.851  18.041  69.342  1.00  0.00     0.000 HD 
HETATM    4  H1  UNL     1      -9.303  18.418  68.853  1.00  0.00     0.000 HD 
HETATM    5  N   UNL     1     -11.219  16.015  67.842  1.00  0.00    -0.316 NA 
HETATM    6  C   UNL     1     -11.156  14.727  67.432  1.00  0.00    -0.324 A  
HETATM    7  C   UNL     1      -9.953  13.996  67.354  1.00  0.00    -0.243 A  
HETATM    8  N   UNL     1     -12.397  14.145  67.156  1.00  0.00    -0.572 NA 
HETATM    9  H2  UNL     1     -12.912  14.709  66.480  1.00  0.00     0.000 HD 
HETATM   10  C   UNL     1      -8.843  15.993  68.144  1.00  0.00    -0.178 A  
HETATM   11  C   UNL     1      -8.787  14.665  67.726  1.00  0.00    -0.177 A  
HETATM   12  H1  UNL     1     -12.349  13.174  66.847  1.00  0.00     0.000 HD 
ENDROOT
BRANCH   7  13
HETATM   13  N   UNL     1      -9.832  12.648  66.939  1.00  0.00    -0.228 NA 
HETATM   14  H   UNL     1     -10.416  11.891  67.293  1.00  0.00     0.000 HD 
BRANCH  13  15
HETATM   15  N   UNL     1      -8.930  12.494  66.093  1.00  0.00    -0.426 NA 
HETATM   16  H   UNL     1      -8.540  13.260  65.544  1.00  0.00     0.000 HD 
BRANCH  15  17
HETATM   17  C   UNL     1      -8.504  11.156  65.967  1.00  0.00    -0.138 A  
HETATM   18  C   UNL     1      -9.259  10.127  65.382  1.00  0.00    -0.249 A  
HETATM   19  C   UNL     1      -8.773   8.814  65.351  1.00  0.00    -0.217 A  
HETATM   20  C   UNL     1      -7.521   8.519  65.889  1.00  0.00    -0.077 A  
HETATM   21  C   UNL     1      -6.746   9.536  66.438  1.00  0.00    -0.075 A  
HETATM   22  C   UNL     1      -7.234  10.843  66.468  1.00  0.00    -0.142 A  
ENDBRANCH  15  17
ENDBRANCH  13  15
ENDBRANCH   7  13
TORSDOF 3
ENDMDL
MODEL      172
REMARK 921   NORMALIZED FREE ENERGY PREDICTED BY IDOCK:   -3.24 KCAL/MOL
REMARK 922        TOTAL FREE ENERGY PREDICTED BY IDOCK:   -4.34 KCAL/MOL
REMARK 923 INTER-LIGAND FREE ENERGY PREDICTED BY IDOCK:   -3.84 KCAL/MOL
REMARK 924 INTRA-LIGAND FREE ENERGY PREDICTED BY IDOCK:   -0.50 KCAL/MOL
REMARK 927      BINDING AFFINITY PREDICTED BY RF-SCORE:    0.00 PKD
ROOT
HETATM    1  N   UNL     1      -9.458  10.552  63.745  1.00  0.00    -0.273 NA 
HETATM    2  C   UNL     1      -9.469   9.830  64.935  1.00  0.00    -0.265 A  
HETATM    3  H2  UNL     1      -9.473  11.550  63.951  1.00  0.00     0.000 HD 
HETATM    4  H1  UNL     1      -8.701  10.349  63.094  1.00  0.00     0.000 HD 
HETATM    5  N   UNL     1     -10.467  10.098  65.794  1.00  0.00    -0.130 NA 
HETATM    6  C   UNL     1     -10.520   9.395  66.949  1.00  0.00    -0.211 A  
HETATM    7  C   UNL     1      -9.584   8.399  67.294  1.00  0.00    -0.165 A  
HETATM    8  N   UNL     1     -11.542   9.787  67.819  1.00  0.00    -0.252 NA 
HETATM    9  H2  UNL     1     -12.444   9.757  67.343  1.00  0.00     0.000 HD 
HETATM   10  C   UNL     1      -8.506   8.864  65.181  1.00  0.00    -0.190 A  
HETATM   11  C   UNL     1      -8.565   8.149  66.376  1.00  0.00    -0.150 A  
HETATM   12  H1  UNL     1     -11.582   9.257  68.690  1.00  0.00     0.000 HD 
ENDROOT
BRANCH   7  13
HETATM   13  N   UNL     1      -9.589   7.641  68.490  1.00  0.00    -0.147 NA 
HETATM   14  H   UNL     1      -8.925   7.778  69.252  1.00  0.00     0.000 HD 
BRANCH  13  15
HETATM   15  N   UNL     1     -10.499   6.789  68.505  1.00  0.00    -0.190 NA 
HETATM   16  H   UNL     1     -10.940   6.426  67.660  1.00  0.00     0.000 HD 
BRANCH  15  17
HETATM   17  C   UNL     1     -10.860   6.378  69.805  1.00  0.00    -0.314 A  
HETATM   18  C   UNL     1     -11.998   6.820  70.496  1.00  0.00    -0.385 A  
HETATM   19  C   UNL     1     -12.245   6.397  71.809  1.00  0.00    -0.312 A  
HETATM   20  C   UNL     1     -11.367   5.515  72.435  1.00  0.00    -0.294 A  
HETATM   21  C   UNL     1     -10.254   5.039  71.747  1.00  0.00    -0.272 A  
HETATM   22  C   UNL     1     -10.010   5.464  70.441  1.00  0.00    -0.291 A  
ENDBRANCH  15  17
ENDBRANCH  13  15
ENDBRANCH   7  13
TORSDOF 3
ENDMDL
MODEL      173
REMARK 921   NORMALIZED FREE ENERGY PREDICTED BY IDOCK:   -3.24 KCAL/MOL
REMARK 922        TOTAL FREE ENERGY PREDICTED BY IDOCK:   -4.34 KCAL/MOL
REMARK 923 INTER-LIGAND FREE ENERGY PREDICTED BY IDOCK:   -3.71 KCAL/MOL
REMARK 924 INTRA-LIGAND FREE ENERGY PREDICTED BY IDOCK:   -0.63 KCAL/MOL
REMARK 927      BINDING AFFINITY PREDICTED BY RF-SCORE:    0.00 PKD
ROOT
HETATM    1  N   UNL     1      -7.397   4.700  67.213  1.00  0.00    -0.073 NA 
HETATM    2  C   UNL     1      -7.955   5.667  68.045  1.00  0.00    -0.097 A  
HETATM    3  H2  UNL     1      -7.324   3.817  67.717  1.00  0.00     0.000 HD 
HETATM    4  H1  UNL     1      -7.858   4.546  66.317  1.00  0.00     0.000 HD 
HETATM    5  N   UNL     1      -7.348   5.870  69.226  1.00  0.00    -0.081 NA 
HETATM    6  C   UNL     1      -7.852   6.820  70.047  1.00  0.00    -0.111 A  
HETATM    7  C   UNL     1      -8.977   7.605  69.726  1.00  0.00    -0.140 A  
HETATM    8  N   UNL     1      -7.209   6.916  71.285  1.00  0.00    -0.075 NA 
HETATM    9  H2  UNL     1      -6.206   7.053  71.155  1.00  0.00     0.000 HD 
HETATM   10  C   UNL     1      -9.063   6.393  67.636  1.00  0.00    -0.114 A  
HETATM   11  C   UNL     1      -9.579   7.365  68.491  1.00  0.00    -0.146 A  
HETATM   12  H1  UNL     1      -7.588   7.632  71.904  1.00  0.00     0.000 HD 
ENDROOT
BRANCH   7  13
HETATM   13  N   UNL     1      -9.548   8.604  70.550  1.00  0.00    -0.173 NA 
HETATM   14  H   UNL     1      -9.611   9.588  70.291  1.00  0.00     0.000 HD 
BRANCH  13  15
HETATM   15  N   UNL     1      -9.966   8.142  71.630  1.00  0.00    -0.180 NA 
HETATM   16  H   UNL     1      -9.351   7.786  72.363  1.00  0.00     0.000 HD 
BRANCH  15  17
HETATM   17  C   UNL     1     -11.372   8.159  71.740  1.00  0.00    -0.278 A  
HETATM   18  C   UNL     1     -12.193   7.022  71.678  1.00  0.00    -0.395 A  
HETATM   19  C   UNL     1     -13.587   7.144  71.741  1.00  0.00    -0.352 A  
HETATM   20  C   UNL     1     -14.173   8.400  71.886  1.00  0.00    -0.541 A  
HETATM   21  C   UNL     1     -13.369   9.533  71.987  1.00  0.00    -0.535 A  
HETATM   22  C   UNL     1     -11.980   9.408  71.921  1.00  0.00    -0.416 A  
ENDBRANCH  15  17
ENDBRANCH  13  15
ENDBRANCH   7  13
TORSDOF 3
ENDMDL
MODEL      174
REMARK 921   NORMALIZED FREE ENERGY PREDICTED BY IDOCK:   -3.23 KCAL/MOL
REMARK 922        TOTAL FREE ENERGY PREDICTED BY IDOCK:   -4.33 KCAL/MOL
REMARK 923 INTER-LIGAND FREE ENERGY PREDICTED BY IDOCK:   -3.89 KCAL/MOL
REMARK 924 INTRA-LIGAND FREE ENERGY PREDICTED BY IDOCK:   -0.44 KCAL/MOL
REMARK 927      BINDING AFFINITY PREDICTED BY RF-SCORE:    0.00 PKD
ROOT
HETATM    1  N   UNL     1     -13.659  13.115  71.581  1.00  0.00    -0.234 NA 
HETATM    2  C   UNL     1     -12.645  13.475  70.698  1.00  0.00    -0.275 A  
HETATM    3  H2  UNL     1     -14.432  13.774  71.500  1.00  0.00     0.000 HD 
HETATM    4  H1  UNL     1     -14.013  12.162  71.506  1.00  0.00     0.000 HD 
HETATM    5  N   UNL     1     -12.178  14.732  70.796  1.00  0.00    -0.290 NA 
HETATM    6  C   UNL     1     -11.175  15.105  69.969  1.00  0.00    -0.277 A  
HETATM    7  C   UNL     1     -10.597  14.245  69.013  1.00  0.00    -0.232 A  
HETATM    8  N   UNL     1     -10.800  16.448  70.083  1.00  0.00    -0.308 NA 
HETATM    9  H2  UNL     1     -10.564  16.669  71.051  1.00  0.00     0.000 HD 
HETATM   10  C   UNL     1     -12.136  12.554  69.796  1.00  0.00    -0.293 A  
HETATM   11  C   UNL     1     -11.107  12.950  68.944  1.00  0.00    -0.301 A  
HETATM   12  H1  UNL     1     -10.043  16.730  69.459  1.00  0.00     0.000 HD 
ENDROOT
BRANCH   7  13
HETATM   13  N   UNL     1      -9.553  14.588  68.120  1.00  0.00    -0.206 NA 
HETATM   14  H   UNL     1      -8.672  14.080  68.054  1.00  0.00     0.000 HD 
BRANCH  13  15
HETATM   15  N   UNL     1      -9.836  15.583  67.423  1.00  0.00    -0.223 NA 
HETATM   16  H   UNL     1     -10.712  15.673  66.907  1.00  0.00     0.000 HD 
BRANCH  15  17
HETATM   17  C   UNL     1      -8.828  16.568  67.418  1.00  0.00    -0.191 A  
HETATM   18  C   UNL     1      -9.059  17.948  67.303  1.00  0.00    -0.251 A  
HETATM   19  C   UNL     1      -7.987  18.848  67.252  1.00  0.00    -0.261 A  
HETATM   20  C   UNL     1      -6.677  18.381  67.335  1.00  0.00    -0.204 A  
HETATM   21  C   UNL     1      -6.435  17.019  67.488  1.00  0.00    -0.167 A  
HETATM   22  C   UNL     1      -7.505  16.124  67.536  1.00  0.00    -0.179 A  
ENDBRANCH  15  17
ENDBRANCH  13  15
ENDBRANCH   7  13
TORSDOF 3
ENDMDL
MODEL      175
REMARK 921   NORMALIZED FREE ENERGY PREDICTED BY IDOCK:   -3.22 KCAL/MOL
REMARK 922        TOTAL FREE ENERGY PREDICTED BY IDOCK:   -4.32 KCAL/MOL
REMARK 923 INTER-LIGAND FREE ENERGY PREDICTED BY IDOCK:   -3.78 KCAL/MOL
REMARK 924 INTRA-LIGAND FREE ENERGY PREDICTED BY IDOCK:   -0.53 KCAL/MOL
REMARK 927      BINDING AFFINITY PREDICTED BY RF-SCORE:    0.00 PKD
ROOT
HETATM    1  N   UNL     1      -9.144   1.989  65.047  1.00  0.00    -0.130 NA 
HETATM    2  C   UNL     1      -9.471   3.050  65.887  1.00  0.00    -0.007 A  
HETATM    3  H2  UNL     1      -9.469   1.115  65.459  1.00  0.00     0.000 HD 
HETATM    4  H1  UNL     1      -9.468   2.053  64.082  1.00  0.00     0.000 HD 
HETATM    5  N   UNL     1      -9.046   2.966  67.159  1.00  0.00    -0.161 NA 
HETATM    6  C   UNL     1      -9.326   3.992  67.994  1.00  0.00    -0.169 A  
HETATM    7  C   UNL     1     -10.038   5.143  67.598  1.00  0.00    -0.157 A  
HETATM    8  N   UNL     1      -8.915   3.793  69.315  1.00  0.00    -0.100 NA 
HETATM    9  H2  UNL     1      -7.919   3.569  69.348  1.00  0.00     0.000 HD 
HETATM   10  C   UNL     1     -10.172   4.142  65.401  1.00  0.00    -0.190 A  
HETATM   11  C   UNL     1     -10.461   5.193  66.270  1.00  0.00    -0.341 A  
HETATM   12  H1  UNL     1      -9.125   4.567  69.945  1.00  0.00     0.000 HD 
ENDROOT
BRANCH   7  13
HETATM   13  N   UNL     1     -10.364   6.239  68.432  1.00  0.00    -0.178 NA 
HETATM   14  H   UNL     1      -9.865   7.128  68.423  1.00  0.00     0.000 HD 
BRANCH  13  15
HETATM   15  N   UNL     1     -11.332   5.992  69.178  1.00  0.00    -0.312 NA 
HETATM   16  H   UNL     1     -12.116   5.401  68.901  1.00  0.00     0.000 HD 
BRANCH  15  17
HETATM   17  C   UNL     1     -11.237   6.612  70.441  1.00  0.00    -0.344 A  
HETATM   18  C   UNL     1     -11.378   7.990  70.669  1.00  0.00    -0.256 A  
HETATM   19  C   UNL     1     -11.212   8.521  71.954  1.00  0.00    -0.397 A  
HETATM   20  C   UNL     1     -10.922   7.680  73.026  1.00  0.00    -0.457 A  
HETATM   21  C   UNL     1     -10.818   6.306  72.822  1.00  0.00    -0.281 A  
HETATM   22  C   UNL     1     -10.981   5.781  71.539  1.00  0.00    -0.304 A  
ENDBRANCH  15  17
ENDBRANCH  13  15
ENDBRANCH   7  13
TORSDOF 3
ENDMDL
MODEL      176
REMARK 921   NORMALIZED FREE ENERGY PREDICTED BY IDOCK:   -3.10 KCAL/MOL
REMARK 922        TOTAL FREE ENERGY PREDICTED BY IDOCK:   -4.18 KCAL/MOL
REMARK 923 INTER-LIGAND FREE ENERGY PREDICTED BY IDOCK:   -3.57 KCAL/MOL
REMARK 924 INTRA-LIGAND FREE ENERGY PREDICTED BY IDOCK:   -0.61 KCAL/MOL
REMARK 927      BINDING AFFINITY PREDICTED BY RF-SCORE:    0.00 PKD
ROOT
HETATM    1  N   UNL     1      -7.963   9.231  71.193  1.00  0.00    -0.326 NA 
HETATM    2  C   UNL     1      -8.640   8.659  70.120  1.00  0.00    -0.138 A  
HETATM    3  H2  UNL     1      -7.712   8.506  71.864  1.00  0.00     0.000 HD 
HETATM    4  H1  UNL     1      -7.140   9.790  70.970  1.00  0.00     0.000 HD 
HETATM    5  N   UNL     1      -9.724   7.922  70.414  1.00  0.00    -0.178 NA 
HETATM    6  C   UNL     1     -10.418   7.373  69.391  1.00  0.00    -0.217 A  
HETATM    7  C   UNL     1     -10.062   7.536  68.036  1.00  0.00    -0.183 A  
HETATM    8  N   UNL     1     -11.486   6.561  69.785  1.00  0.00    -0.549 NA 
HETATM    9  H2  UNL     1     -12.113   7.075  70.405  1.00  0.00     0.000 HD 
HETATM   10  C   UNL     1      -8.214   8.883  68.820  1.00  0.00    -0.115 A  
HETATM   11  C   UNL     1      -8.932   8.309  67.773  1.00  0.00    -0.139 A  
HETATM   12  H1  UNL     1     -12.010   6.147  69.014  1.00  0.00     0.000 HD 
ENDROOT
BRANCH   7  13
HETATM   13  N   UNL     1     -10.748   6.978  66.931  1.00  0.00    -0.472 NA 
HETATM   14  H   UNL     1     -11.083   7.522  66.136  1.00  0.00     0.000 HD 
BRANCH  13  15
HETATM   15  N   UNL     1     -10.895   5.744  67.041  1.00  0.00    -0.455 NA 
HETATM   16  H   UNL     1     -11.670   5.316  67.549  1.00  0.00     0.000 HD 
BRANCH  15  17
HETATM   17  C   UNL     1      -9.886   5.000  66.397  1.00  0.00    -0.201 A  
HETATM   18  C   UNL     1      -9.142   5.448  65.294  1.00  0.00    -0.062 A  
HETATM   19  C   UNL     1      -8.196   4.614  64.685  1.00  0.00    -0.113 A  
HETATM   20  C   UNL     1      -7.971   3.332  65.183  1.00  0.00    -0.082 A  
HETATM   21  C   UNL     1      -8.675   2.889  66.299  1.00  0.00    -0.134 A  
HETATM   22  C   UNL     1      -9.618   3.722  66.902  1.00  0.00    -0.207 A  
ENDBRANCH  15  17
ENDBRANCH  13  15
ENDBRANCH   7  13
TORSDOF 3
ENDMDL
MODEL      177
REMARK 921   NORMALIZED FREE ENERGY PREDICTED BY IDOCK:   -3.09 KCAL/MOL
REMARK 922        TOTAL FREE ENERGY PREDICTED BY IDOCK:   -4.16 KCAL/MOL
REMARK 923 INTER-LIGAND FREE ENERGY PREDICTED BY IDOCK:   -3.58 KCAL/MOL
REMARK 924 INTRA-LIGAND FREE ENERGY PREDICTED BY IDOCK:   -0.58 KCAL/MOL
REMARK 927      BINDING AFFINITY PREDICTED BY RF-SCORE:    0.00 PKD
ROOT
HETATM    1  N   UNL     1      -8.716  11.882  68.536  1.00  0.00    -0.292 NA 
HETATM    2  C   UNL     1      -8.906  10.562  68.937  1.00  0.00    -0.165 A  
HETATM    3  H2  UNL     1      -9.609  12.374  68.547  1.00  0.00     0.000 HD 
HETATM    4  H1  UNL     1      -8.021  12.421  69.051  1.00  0.00     0.000 HD 
HETATM    5  N   UNL     1      -9.822   9.852  68.258  1.00  0.00    -0.144 NA 
HETATM    6  C   UNL     1     -10.013   8.559  68.608  1.00  0.00    -0.184 A  
HETATM    7  C   UNL     1      -9.300   7.922  69.645  1.00  0.00    -0.153 A  
HETATM    8  N   UNL     1     -11.034   7.913  67.905  1.00  0.00    -0.478 NA 
HETATM    9  H2  UNL     1     -10.876   7.990  66.899  1.00  0.00     0.000 HD 
HETATM   10  C   UNL     1      -8.151  10.025  69.967  1.00  0.00    -0.154 A  
HETATM   11  C   UNL     1      -8.358   8.694  70.325  1.00  0.00    -0.129 A  
HETATM   12  H1  UNL     1     -11.178   6.938  68.168  1.00  0.00     0.000 HD 
ENDROOT
BRANCH   7  13
HETATM   13  N   UNL     1      -9.467   6.578  70.056  1.00  0.00    -0.156 NA 
HETATM   14  H   UNL     1      -8.759   5.854  69.932  1.00  0.00     0.000 HD 
BRANCH  13  15
HETATM   15  N   UNL     1     -10.578   6.381  70.586  1.00  0.00    -0.225 NA 
HETATM   16  H   UNL     1     -11.463   6.624  70.139  1.00  0.00     0.000 HD 
BRANCH  15  17
HETATM   17  C   UNL     1     -10.492   5.789  71.862  1.00  0.00    -0.221 A  
HETATM   18  C   UNL     1     -10.518   4.407  72.107  1.00  0.00    -0.161 A  
HETATM   19  C   UNL     1     -10.482   3.914  73.418  1.00  0.00    -0.254 A  
HETATM   20  C   UNL     1     -10.402   4.795  74.494  1.00  0.00    -0.324 A  
HETATM   21  C   UNL     1     -10.337   6.167  74.264  1.00  0.00    -0.291 A  
HETATM   22  C   UNL     1     -10.375   6.655  72.958  1.00  0.00    -0.244 A  
ENDBRANCH  15  17
ENDBRANCH  13  15
ENDBRANCH   7  13
TORSDOF 3
ENDMDL
MODEL      178
REMARK 921   NORMALIZED FREE ENERGY PREDICTED BY IDOCK:   -3.08 KCAL/MOL
REMARK 922        TOTAL FREE ENERGY PREDICTED BY IDOCK:   -4.15 KCAL/MOL
REMARK 923 INTER-LIGAND FREE ENERGY PREDICTED BY IDOCK:   -3.65 KCAL/MOL
REMARK 924 INTRA-LIGAND FREE ENERGY PREDICTED BY IDOCK:   -0.50 KCAL/MOL
REMARK 927      BINDING AFFINITY PREDICTED BY RF-SCORE:    0.00 PKD
ROOT
HETATM    1  N   UNL     1     -13.677  14.939  70.993  1.00  0.00    -0.598 NA 
HETATM    2  C   UNL     1     -12.553  14.905  70.172  1.00  0.00    -0.264 A  
HETATM    3  H2  UNL     1     -14.268  15.726  70.731  1.00  0.00     0.000 HD 
HETATM    4  H1  UNL     1     -14.238  14.088  71.036  1.00  0.00     0.000 HD 
HETATM    5  N   UNL     1     -11.814  16.025  70.115  1.00  0.00    -0.299 NA 
HETATM    6  C   UNL     1     -10.702  16.017  69.344  1.00  0.00    -0.294 A  
HETATM    7  C   UNL     1     -10.282  14.894  68.601  1.00  0.00    -0.236 A  
HETATM    8  N   UNL     1     -10.032  17.242  69.280  1.00  0.00    -0.195 NA 
HETATM    9  H2  UNL     1      -9.811  17.576  70.219  1.00  0.00     0.000 HD 
HETATM   10  C   UNL     1     -12.219  13.749  69.484  1.00  0.00    -0.344 A  
HETATM   11  C   UNL     1     -11.075  13.751  68.688  1.00  0.00    -0.293 A  
HETATM   12  H1  UNL     1      -9.193  17.236  68.699  1.00  0.00     0.000 HD 
ENDROOT
BRANCH   7  13
HETATM   13  N   UNL     1      -9.134  14.835  67.775  1.00  0.00    -0.183 NA 
HETATM   14  H   UNL     1      -9.139  14.480  66.819  1.00  0.00     0.000 HD 
BRANCH  13  15
HETATM   15  N   UNL     1      -8.116  15.267  68.351  1.00  0.00    -0.133 NA 
HETATM   16  H   UNL     1      -7.844  16.251  68.345  1.00  0.00     0.000 HD 
BRANCH  15  17
HETATM   17  C   UNL     1      -7.376  14.263  69.009  1.00  0.00    -0.117 A  
HETATM   18  C   UNL     1      -6.528  14.483  70.105  1.00  0.00    -0.156 A  
HETATM   19  C   UNL     1      -5.790  13.430  70.659  1.00  0.00    -0.159 A  
HETATM   20  C   UNL     1      -5.906  12.144  70.135  1.00  0.00    -0.162 A  
HETATM   21  C   UNL     1      -6.773  11.904  69.072  1.00  0.00    -0.099 A  
HETATM   22  C   UNL     1      -7.505  12.956  68.521  1.00  0.00    -0.123 A  
ENDBRANCH  15  17
ENDBRANCH  13  15
ENDBRANCH   7  13
TORSDOF 3
ENDMDL
MODEL      179
REMARK 921   NORMALIZED FREE ENERGY PREDICTED BY IDOCK:   -3.05 KCAL/MOL
REMARK 922        TOTAL FREE ENERGY PREDICTED BY IDOCK:   -4.11 KCAL/MOL
REMARK 923 INTER-LIGAND FREE ENERGY PREDICTED BY IDOCK:   -3.76 KCAL/MOL
REMARK 924 INTRA-LIGAND FREE ENERGY PREDICTED BY IDOCK:   -0.36 KCAL/MOL
REMARK 927      BINDING AFFINITY PREDICTED BY RF-SCORE:    0.00 PKD
ROOT
HETATM    1  N   UNL     1     -12.007  12.840  67.218  1.00  0.00    -0.416 NA 
HETATM    2  C   UNL     1     -11.257  11.781  66.714  1.00  0.00    -0.328 A  
HETATM    3  H2  UNL     1     -12.631  13.193  66.493  1.00  0.00     0.000 HD 
HETATM    4  H1  UNL     1     -12.538  12.660  68.069  1.00  0.00     0.000 HD 
HETATM    5  N   UNL     1     -10.557  12.018  65.592  1.00  0.00    -0.255 NA 
HETATM    6  C   UNL     1      -9.799  11.016  65.090  1.00  0.00    -0.268 A  
HETATM    7  C   UNL     1      -9.707   9.741  65.684  1.00  0.00    -0.288 A  
HETATM    8  N   UNL     1      -9.163  11.320  63.883  1.00  0.00    -0.396 NA 
HETATM    9  H2  UNL     1      -8.609  12.172  63.978  1.00  0.00     0.000 HD 
HETATM   10  C   UNL     1     -11.226  10.563  67.375  1.00  0.00    -0.249 A  
HETATM   11  C   UNL     1     -10.448   9.535  66.848  1.00  0.00    -0.279 A  
HETATM   12  H1  UNL     1      -8.591  10.565  63.505  1.00  0.00     0.000 HD 
ENDROOT
BRANCH   7  13
HETATM   13  N   UNL     1      -8.936   8.658  65.197  1.00  0.00    -0.405 NA 
HETATM   14  H   UNL     1      -8.136   8.764  64.575  1.00  0.00     0.000 HD 
BRANCH  13  15
HETATM   15  N   UNL     1      -9.350   7.558  65.616  1.00  0.00    -0.375 NA 
HETATM   16  H   UNL     1     -10.337   7.357  65.781  1.00  0.00     0.000 HD 
BRANCH  15  17
HETATM   17  C   UNL     1      -8.321   6.621  65.839  1.00  0.00    -0.137 A  
HETATM   18  C   UNL     1      -7.097   6.910  66.464  1.00  0.00    -0.067 A  
HETATM   19  C   UNL     1      -6.111   5.924  66.592  1.00  0.00    -0.026 A  
HETATM   20  C   UNL     1      -6.344   4.636  66.114  1.00  0.00    -0.036 A  
HETATM   21  C   UNL     1      -7.568   4.325  65.526  1.00  0.00    -0.085 A  
HETATM   22  C   UNL     1      -8.547   5.311  65.398  1.00  0.00    -0.149 A  
ENDBRANCH  15  17
ENDBRANCH  13  15
ENDBRANCH   7  13
TORSDOF 3
ENDMDL
MODEL      180
REMARK 921   NORMALIZED FREE ENERGY PREDICTED BY IDOCK:   -3.03 KCAL/MOL
REMARK 922        TOTAL FREE ENERGY PREDICTED BY IDOCK:   -4.09 KCAL/MOL
REMARK 923 INTER-LIGAND FREE ENERGY PREDICTED BY IDOCK:   -3.73 KCAL/MOL
REMARK 924 INTRA-LIGAND FREE ENERGY PREDICTED BY IDOCK:   -0.36 KCAL/MOL
REMARK 927      BINDING AFFINITY PREDICTED BY RF-SCORE:    0.00 PKD
ROOT
HETATM    1  N   UNL     1     -10.220   7.664  66.246  1.00  0.00    -0.445 NA 
HETATM    2  C   UNL     1     -10.515   7.518  67.598  1.00  0.00    -0.250 A  
HETATM    3  H2  UNL     1      -9.234   7.901  66.135  1.00  0.00     0.000 HD 
HETATM    4  H1  UNL     1     -10.453   6.879  65.639  1.00  0.00     0.000 HD 
HETATM    5  N   UNL     1     -10.207   8.553  68.398  1.00  0.00    -0.199 NA 
HETATM    6  C   UNL     1     -10.504   8.452  69.714  1.00  0.00    -0.220 A  
HETATM    7  C   UNL     1     -11.119   7.320  70.286  1.00  0.00    -0.266 A  
HETATM    8  N   UNL     1     -10.083   9.538  70.488  1.00  0.00    -0.270 NA 
HETATM    9  H2  UNL     1     -10.451  10.410  70.106  1.00  0.00     0.000 HD 
HETATM   10  C   UNL     1     -11.127   6.366  68.065  1.00  0.00    -0.365 A  
HETATM   11  C   UNL     1     -11.424   6.268  69.423  1.00  0.00    -0.348 A  
HETATM   12  H1  UNL     1     -10.307   9.462  71.480  1.00  0.00     0.000 HD 
ENDROOT
BRANCH   7  13
HETATM   13  N   UNL     1     -11.444   7.160  71.655  1.00  0.00    -0.257 NA 
HETATM   14  H   UNL     1     -12.394   7.194  72.021  1.00  0.00     0.000 HD 
BRANCH  13  15
HETATM   15  N   UNL     1     -10.433   6.974  72.360  1.00  0.00    -0.203 NA 
HETATM   16  H   UNL     1     -10.039   7.687  72.974  1.00  0.00     0.000 HD 
BRANCH  15  17
HETATM   17  C   UNL     1      -9.887   5.681  72.226  1.00  0.00    -0.159 A  
HETATM   18  C   UNL     1     -10.618   4.488  72.340  1.00  0.00    -0.205 A  
HETATM   19  C   UNL     1      -9.976   3.246  72.246  1.00  0.00    -0.235 A  
HETATM   20  C   UNL     1      -8.603   3.184  72.017  1.00  0.00    -0.098 A  
HETATM   21  C   UNL     1      -7.872   4.359  71.864  1.00  0.00    -0.085 A  
HETATM   22  C   UNL     1      -8.514   5.595  71.961  1.00  0.00    -0.126 A  
ENDBRANCH  15  17
ENDBRANCH  13  15
ENDBRANCH   7  13
TORSDOF 3
ENDMDL
MODEL      181
REMARK 921   NORMALIZED FREE ENERGY PREDICTED BY IDOCK:   -2.97 KCAL/MOL
REMARK 922        TOTAL FREE ENERGY PREDICTED BY IDOCK:   -4.02 KCAL/MOL
REMARK 923 INTER-LIGAND FREE ENERGY PREDICTED BY IDOCK:   -3.70 KCAL/MOL
REMARK 924 INTRA-LIGAND FREE ENERGY PREDICTED BY IDOCK:   -0.32 KCAL/MOL
REMARK 927      BINDING AFFINITY PREDICTED BY RF-SCORE:    0.00 PKD
ROOT
HETATM    1  N   UNL     1      -6.970   7.206  66.708  1.00  0.00    -0.071 NA 
HETATM    2  C   UNL     1      -7.658   8.308  67.207  1.00  0.00    -0.097 A  
HETATM    3  H2  UNL     1      -7.424   6.876  65.857  1.00  0.00     0.000 HD 
HETATM    4  H1  UNL     1      -5.972   7.328  66.538  1.00  0.00     0.000 HD 
HETATM    5  N   UNL     1      -8.973   8.147  67.431  1.00  0.00    -0.136 NA 
HETATM    6  C   UNL     1      -9.666   9.192  67.939  1.00  0.00    -0.154 A  
HETATM    7  C   UNL     1      -9.078  10.437  68.246  1.00  0.00    -0.145 A  
HETATM    8  N   UNL     1     -11.039   8.968  68.072  1.00  0.00    -0.477 NA 
HETATM    9  H2  UNL     1     -11.210   8.126  68.623  1.00  0.00     0.000 HD 
HETATM   10  C   UNL     1      -6.989   9.490  67.483  1.00  0.00    -0.084 A  
HETATM   11  C   UNL     1      -7.711  10.563  68.000  1.00  0.00    -0.092 A  
HETATM   12  H1  UNL     1     -11.562   9.756  68.455  1.00  0.00     0.000 HD 
ENDROOT
BRANCH   7  13
HETATM   13  N   UNL     1      -9.757  11.563  68.771  1.00  0.00    -0.353 NA 
HETATM   14  H   UNL     1     -10.623  11.505  69.306  1.00  0.00     0.000 HD 
BRANCH  13  15
HETATM   15  N   UNL     1      -9.175  12.632  68.503  1.00  0.00    -0.379 NA 
HETATM   16  H   UNL     1      -8.185  12.686  68.263  1.00  0.00     0.000 HD 
BRANCH  15  17
HETATM   17  C   UNL     1     -10.019  13.760  68.565  1.00  0.00    -0.217 A  
HETATM   18  C   UNL     1      -9.792  14.967  67.886  1.00  0.00    -0.217 A  
HETATM   19  C   UNL     1     -10.660  16.054  68.053  1.00  0.00    -0.295 A  
HETATM   20  C   UNL     1     -11.772  15.939  68.885  1.00  0.00    -0.376 A  
HETATM   21  C   UNL     1     -12.030  14.735  69.535  1.00  0.00    -0.351 A  
HETATM   22  C   UNL     1     -11.162  13.655  69.368  1.00  0.00    -0.252 A  
ENDBRANCH  15  17
ENDBRANCH  13  15
ENDBRANCH   7  13
TORSDOF 3
ENDMDL
MODEL      182
REMARK 921   NORMALIZED FREE ENERGY PREDICTED BY IDOCK:   -2.94 KCAL/MOL
REMARK 922        TOTAL FREE ENERGY PREDICTED BY IDOCK:   -3.99 KCAL/MOL
REMARK 923 INTER-LIGAND FREE ENERGY PREDICTED BY IDOCK:   -3.62 KCAL/MOL
REMARK 924 INTRA-LIGAND FREE ENERGY PREDICTED BY IDOCK:   -0.37 KCAL/MOL
REMARK 927      BINDING AFFINITY PREDICTED BY RF-SCORE:    0.00 PKD
ROOT
HETATM    1  N   UNL     1     -10.700  12.718  65.905  1.00  0.00    -0.267 NA 
HETATM    2  C   UNL     1     -10.442  11.563  66.638  1.00  0.00    -0.238 A  
HETATM    3  H2  UNL     1     -10.498  12.550  64.920  1.00  0.00     0.000 HD 
HETATM    4  H1  UNL     1     -11.632  13.121  65.999  1.00  0.00     0.000 HD 
HETATM    5  N   UNL     1      -9.215  11.032  66.514  1.00  0.00    -0.167 NA 
HETATM    6  C   UNL     1      -8.925   9.922  67.233  1.00  0.00    -0.135 A  
HETATM    7  C   UNL     1      -9.843   9.300  68.103  1.00  0.00    -0.162 A  
HETATM    8  N   UNL     1      -7.655   9.390  66.990  1.00  0.00    -0.091 NA 
HETATM    9  H2  UNL     1      -6.938  10.103  67.131  1.00  0.00     0.000 HD 
HETATM   10  C   UNL     1     -11.411  11.029  67.473  1.00  0.00    -0.332 A  
HETATM   11  C   UNL     1     -11.106   9.882  68.205  1.00  0.00    -0.215 A  
HETATM   12  H1  UNL     1      -7.436   8.554  67.532  1.00  0.00     0.000 HD 
ENDROOT
BRANCH   7  13
HETATM   13  N   UNL     1      -9.594   8.136  68.869  1.00  0.00    -0.152 NA 
HETATM   14  H   UNL     1      -8.762   8.001  69.443  1.00  0.00     0.000 HD 
BRANCH  13  15
HETATM   15  N   UNL     1     -10.509   7.296  68.763  1.00  0.00    -0.201 NA 
HETATM   16  H   UNL     1     -11.025   7.137  67.897  1.00  0.00     0.000 HD 
BRANCH  15  17
HETATM   17  C   UNL     1     -10.760   6.587  69.955  1.00  0.00    -0.249 A  
HETATM   18  C   UNL     1     -11.865   6.799  70.794  1.00  0.00    -0.446 A  
HETATM   19  C   UNL     1     -12.001   6.082  71.990  1.00  0.00    -0.237 A  
HETATM   20  C   UNL     1     -11.044   5.135  72.350  1.00  0.00    -0.213 A  
HETATM   21  C   UNL     1      -9.962   4.888  71.509  1.00  0.00    -0.260 A  
HETATM   22  C   UNL     1      -9.829   5.605  70.319  1.00  0.00    -0.254 A  
ENDBRANCH  15  17
ENDBRANCH  13  15
ENDBRANCH   7  13
TORSDOF 3
ENDMDL
MODEL      183
REMARK 921   NORMALIZED FREE ENERGY PREDICTED BY IDOCK:   -2.93 KCAL/MOL
REMARK 922        TOTAL FREE ENERGY PREDICTED BY IDOCK:   -3.98 KCAL/MOL
REMARK 923 INTER-LIGAND FREE ENERGY PREDICTED BY IDOCK:   -3.54 KCAL/MOL
REMARK 924 INTRA-LIGAND FREE ENERGY PREDICTED BY IDOCK:   -0.45 KCAL/MOL
REMARK 927      BINDING AFFINITY PREDICTED BY RF-SCORE:    0.00 PKD
ROOT
HETATM    1  N   UNL     1      -9.548   4.851  64.666  1.00  0.00    -0.358 NA 
HETATM    2  C   UNL     1      -9.227   5.371  65.917  1.00  0.00    -0.156 A  
HETATM    3  H2  UNL     1     -10.523   4.554  64.659  1.00  0.00     0.000 HD 
HETATM    4  H1  UNL     1      -9.367   5.450  63.861  1.00  0.00     0.000 HD 
HETATM    5  N   UNL     1      -9.465   4.581  66.977  1.00  0.00    -0.156 NA 
HETATM    6  C   UNL     1      -9.141   5.048  68.205  1.00  0.00    -0.115 A  
HETATM    7  C   UNL     1      -8.567   6.316  68.426  1.00  0.00    -0.114 A  
HETATM    8  N   UNL     1      -9.490   4.197  69.259  1.00  0.00    -0.175 NA 
HETATM    9  H2  UNL     1      -9.090   3.270  69.114  1.00  0.00     0.000 HD 
HETATM   10  C   UNL     1      -8.659   6.630  66.031  1.00  0.00    -0.152 A  
HETATM   11  C   UNL     1      -8.334   7.105  67.300  1.00  0.00    -0.119 A  
HETATM   12  H1  UNL     1      -9.246   4.549  70.185  1.00  0.00     0.000 HD 
ENDROOT
BRANCH   7  13
HETATM   13  N   UNL     1      -8.217   6.855  69.688  1.00  0.00    -0.129 NA 
HETATM   14  H   UNL     1      -7.723   6.333  70.411  1.00  0.00     0.000 HD 
BRANCH  13  15
HETATM   15  N   UNL     1      -8.583   8.040  69.812  1.00  0.00    -0.130 NA 
HETATM   16  H   UNL     1      -8.086   8.827  69.394  1.00  0.00     0.000 HD 
BRANCH  15  17
HETATM   17  C   UNL     1      -9.751   8.187  70.589  1.00  0.00    -0.170 A  
HETATM   18  C   UNL     1     -10.251   7.218  71.473  1.00  0.00    -0.206 A  
HETATM   19  C   UNL     1     -11.451   7.433  72.162  1.00  0.00    -0.322 A  
HETATM   20  C   UNL     1     -12.153   8.624  71.989  1.00  0.00    -0.442 A  
HETATM   21  C   UNL     1     -11.649   9.610  71.144  1.00  0.00    -0.456 A  
HETATM   22  C   UNL     1     -10.454   9.392  70.458  1.00  0.00    -0.335 A  
ENDBRANCH  15  17
ENDBRANCH  13  15
ENDBRANCH   7  13
TORSDOF 3
ENDMDL
MODEL      184
REMARK 921   NORMALIZED FREE ENERGY PREDICTED BY IDOCK:   -2.93 KCAL/MOL
REMARK 922        TOTAL FREE ENERGY PREDICTED BY IDOCK:   -3.98 KCAL/MOL
REMARK 923 INTER-LIGAND FREE ENERGY PREDICTED BY IDOCK:   -3.69 KCAL/MOL
REMARK 924 INTRA-LIGAND FREE ENERGY PREDICTED BY IDOCK:   -0.29 KCAL/MOL
REMARK 927      BINDING AFFINITY PREDICTED BY RF-SCORE:    0.00 PKD
ROOT
HETATM    1  N   UNL     1      -8.907   8.935  73.595  1.00  0.00     0.140 NA 
HETATM    2  C   UNL     1      -9.335   8.672  72.297  1.00  0.00    -0.252 A  
HETATM    3  H2  UNL     1      -9.100   8.129  74.188  1.00  0.00     0.000 HD 
HETATM    4  H1  UNL     1      -7.934   9.218  73.707  1.00  0.00     0.000 HD 
HETATM    5  N   UNL     1     -10.618   8.299  72.149  1.00  0.00    -0.284 NA 
HETATM    6  C   UNL     1     -11.071   8.059  70.897  1.00  0.00    -0.255 A  
HETATM    7  C   UNL     1     -10.269   8.182  69.744  1.00  0.00    -0.203 A  
HETATM    8  N   UNL     1     -12.392   7.605  70.837  1.00  0.00    -0.509 NA 
HETATM    9  H2  UNL     1     -13.014   8.252  71.322  1.00  0.00     0.000 HD 
HETATM   10  C   UNL     1      -8.471   8.827  71.225  1.00  0.00    -0.238 A  
HETATM   11  C   UNL     1      -8.944   8.572  69.940  1.00  0.00    -0.145 A  
HETATM   12  H1  UNL     1     -12.735   7.424  69.893  1.00  0.00     0.000 HD 
ENDROOT
BRANCH   7  13
HETATM   13  N   UNL     1     -10.691   7.936  68.416  1.00  0.00    -0.404 NA 
HETATM   14  H   UNL     1     -11.665   7.963  68.114  1.00  0.00     0.000 HD 
BRANCH  13  15
HETATM   15  N   UNL     1      -9.735   7.682  67.656  1.00  0.00    -0.147 NA 
HETATM   16  H   UNL     1      -9.074   6.923  67.823  1.00  0.00     0.000 HD 
BRANCH  15  17
HETATM   17  C   UNL     1      -9.657   8.548  66.546  1.00  0.00    -0.236 A  
HETATM   18  C   UNL     1     -10.453   9.690  66.365  1.00  0.00    -0.181 A  
HETATM   19  C   UNL     1     -10.341  10.460  65.200  1.00  0.00    -0.260 A  
HETATM   20  C   UNL     1      -9.421  10.107  64.215  1.00  0.00    -0.366 A  
HETATM   21  C   UNL     1      -8.599   8.998  64.398  1.00  0.00    -0.174 A  
HETATM   22  C   UNL     1      -8.714   8.232  65.559  1.00  0.00    -0.173 A  
ENDBRANCH  15  17
ENDBRANCH  13  15
ENDBRANCH   7  13
TORSDOF 3
ENDMDL
MODEL      185
REMARK 921   NORMALIZED FREE ENERGY PREDICTED BY IDOCK:   -2.92 KCAL/MOL
REMARK 922        TOTAL FREE ENERGY PREDICTED BY IDOCK:   -3.96 KCAL/MOL
REMARK 923 INTER-LIGAND FREE ENERGY PREDICTED BY IDOCK:   -3.36 KCAL/MOL
REMARK 924 INTRA-LIGAND FREE ENERGY PREDICTED BY IDOCK:   -0.60 KCAL/MOL
REMARK 927      BINDING AFFINITY PREDICTED BY RF-SCORE:    0.00 PKD
ROOT
HETATM    1  N   UNL     1      -9.096   8.250  69.231  1.00  0.00    -0.150 NA 
HETATM    2  C   UNL     1      -9.771   9.402  68.837  1.00  0.00    -0.164 A  
HETATM    3  H2  UNL     1      -9.743   7.462  69.242  1.00  0.00     0.000 HD 
HETATM    4  H1  UNL     1      -8.264   8.002  68.697  1.00  0.00     0.000 HD 
HETATM    5  N   UNL     1     -10.868   9.729  69.541  1.00  0.00    -0.234 NA 
HETATM    6  C   UNL     1     -11.532  10.856  69.199  1.00  0.00    -0.303 A  
HETATM    7  C   UNL     1     -11.132  11.703  68.145  1.00  0.00    -0.242 A  
HETATM    8  N   UNL     1     -12.702  11.084  69.930  1.00  0.00    -0.224 NA 
HETATM    9  H2  UNL     1     -12.502  11.079  70.931  1.00  0.00     0.000 HD 
HETATM   10  C   UNL     1      -9.294  10.174  67.790  1.00  0.00    -0.153 A  
HETATM   11  C   UNL     1      -9.988  11.330  67.440  1.00  0.00    -0.206 A  
HETATM   12  H1  UNL     1     -13.203  11.934  69.672  1.00  0.00     0.000 HD 
ENDROOT
BRANCH   7  13
HETATM   13  N   UNL     1     -11.794  12.888  67.742  1.00  0.00    -0.354 NA 
HETATM   14  H   UNL     1     -12.035  13.103  66.775  1.00  0.00     0.000 HD 
BRANCH  13  15
HETATM   15  N   UNL     1     -12.050  13.637  68.706  1.00  0.00    -0.348 NA 
HETATM   16  H   UNL     1     -12.809  13.463  69.364  1.00  0.00     0.000 HD 
BRANCH  15  17
HETATM   17  C   UNL     1     -11.186  14.748  68.795  1.00  0.00    -0.270 A  
HETATM   18  C   UNL     1     -10.792  15.360  69.995  1.00  0.00    -0.320 A  
HETATM   19  C   UNL     1      -9.973  16.496  69.980  1.00  0.00     0.392 A  
HETATM   20  C   UNL     1      -9.525  17.020  68.769  1.00  0.00    -0.263 A  
HETATM   21  C   UNL     1      -9.878  16.400  67.573  1.00  0.00    -0.239 A  
HETATM   22  C   UNL     1     -10.695  15.270  67.591  1.00  0.00    -0.282 A  
ENDBRANCH  15  17
ENDBRANCH  13  15
ENDBRANCH   7  13
TORSDOF 3
ENDMDL
MODEL      186
REMARK 921   NORMALIZED FREE ENERGY PREDICTED BY IDOCK:   -2.90 KCAL/MOL
REMARK 922        TOTAL FREE ENERGY PREDICTED BY IDOCK:   -3.95 KCAL/MOL
REMARK 923 INTER-LIGAND FREE ENERGY PREDICTED BY IDOCK:   -3.43 KCAL/MOL
REMARK 924 INTRA-LIGAND FREE ENERGY PREDICTED BY IDOCK:   -0.51 KCAL/MOL
REMARK 927      BINDING AFFINITY PREDICTED BY RF-SCORE:    0.00 PKD
ROOT
HETATM    1  N   UNL     1      -5.927   7.796  65.846  1.00  0.00    -0.038 NA 
HETATM    2  C   UNL     1      -6.865   8.547  66.549  1.00  0.00    -0.071 A  
HETATM    3  H2  UNL     1      -6.031   7.968  64.846  1.00  0.00     0.000 HD 
HETATM    4  H1  UNL     1      -4.950   7.916  66.114  1.00  0.00     0.000 HD 
HETATM    5  N   UNL     1      -8.151   8.388  66.195  1.00  0.00    -0.102 NA 
HETATM    6  C   UNL     1      -9.090   9.086  66.876  1.00  0.00    -0.132 A  
HETATM    7  C   UNL     1      -8.786   9.966  67.934  1.00  0.00    -0.129 A  
HETATM    8  N   UNL     1     -10.393   8.922  66.397  1.00  0.00    -0.279 NA 
HETATM    9  H2  UNL     1     -10.639   7.932  66.367  1.00  0.00     0.000 HD 
HETATM   10  C   UNL     1      -6.467   9.383  67.579  1.00  0.00    -0.063 A  
HETATM   11  C   UNL     1      -7.440  10.102  68.271  1.00  0.00    -0.082 A  
HETATM   12  H1  UNL     1     -11.101   9.448  66.911  1.00  0.00     0.000 HD 
ENDROOT
BRANCH   7  13
HETATM   13  N   UNL     1      -9.727  10.724  68.672  1.00  0.00    -0.178 NA 
HETATM   14  H   UNL     1     -10.536  10.322  69.143  1.00  0.00     0.000 HD 
BRANCH  13  15
HETATM   15  N   UNL     1      -9.452  11.941  68.678  1.00  0.00    -0.364 NA 
HETATM   16  H   UNL     1      -8.791  12.362  69.331  1.00  0.00     0.000 HD 
BRANCH  15  17
HETATM   17  C   UNL     1     -10.145  12.676  67.695  1.00  0.00    -0.218 A  
HETATM   18  C   UNL     1     -11.510  12.534  67.403  1.00  0.00    -0.404 A  
HETATM   19  C   UNL     1     -12.100  13.272  66.369  1.00  0.00    -0.454 A  
HETATM   20  C   UNL     1     -11.335  14.171  65.628  1.00  0.00    -0.319 A  
HETATM   21  C   UNL     1      -9.988  14.350  65.932  1.00  0.00    -0.350 A  
HETATM   22  C   UNL     1      -9.404  13.612  66.962  1.00  0.00    -0.249 A  
ENDBRANCH  15  17
ENDBRANCH  13  15
ENDBRANCH   7  13
TORSDOF 3
ENDMDL
MODEL      187
REMARK 921   NORMALIZED FREE ENERGY PREDICTED BY IDOCK:   -2.88 KCAL/MOL
REMARK 922        TOTAL FREE ENERGY PREDICTED BY IDOCK:   -3.92 KCAL/MOL
REMARK 923 INTER-LIGAND FREE ENERGY PREDICTED BY IDOCK:   -3.37 KCAL/MOL
REMARK 924 INTRA-LIGAND FREE ENERGY PREDICTED BY IDOCK:   -0.55 KCAL/MOL
REMARK 927      BINDING AFFINITY PREDICTED BY RF-SCORE:    0.00 PKD
ROOT
HETATM    1  N   UNL     1     -10.860   4.744  65.698  1.00  0.00    -0.781 NA 
HETATM    2  C   UNL     1     -10.681   5.352  66.937  1.00  0.00    -0.184 A  
HETATM    3  H2  UNL     1     -10.317   5.240  64.992  1.00  0.00     0.000 HD 
HETATM    4  H1  UNL     1     -10.660   3.746  65.645  1.00  0.00     0.000 HD 
HETATM    5  N   UNL     1     -10.945   6.668  67.007  1.00  0.00    -0.410 NA 
HETATM    6  C   UNL     1     -10.804   7.283  68.204  1.00  0.00    -0.068 A  
HETATM    7  C   UNL     1     -10.397   6.615  69.377  1.00  0.00    -0.199 A  
HETATM    8  N   UNL     1     -11.024   8.664  68.175  1.00  0.00    -0.460 NA 
HETATM    9  H2  UNL     1     -11.940   8.869  67.775  1.00  0.00     0.000 HD 
HETATM   10  C   UNL     1     -10.283   4.607  68.035  1.00  0.00    -0.008 A  
HETATM   11  C   UNL     1     -10.134   5.250  69.263  1.00  0.00    -0.300 A  
HETATM   12  H1  UNL     1     -10.918   9.128  69.077  1.00  0.00     0.000 HD 
ENDROOT
BRANCH   7  13
HETATM   13  N   UNL     1     -10.226   7.212  70.649  1.00  0.00    -0.195 NA 
HETATM   14  H   UNL     1     -10.800   6.990  71.462  1.00  0.00     0.000 HD 
BRANCH  13  15
HETATM   15  N   UNL     1      -9.294   8.040  70.660  1.00  0.00    -0.157 NA 
HETATM   16  H   UNL     1      -9.303   8.900  70.111  1.00  0.00     0.000 HD 
BRANCH  15  17
HETATM   17  C   UNL     1      -8.228   7.671  71.505  1.00  0.00    -0.103 A  
HETATM   18  C   UNL     1      -8.062   8.118  72.825  1.00  0.00    -0.221 A  
HETATM   19  C   UNL     1      -6.938   7.740  73.571  1.00  0.00    -0.111 A  
HETATM   20  C   UNL     1      -5.979   6.897  73.011  1.00  0.00    -0.056 A  
HETATM   21  C   UNL     1      -6.150   6.416  71.716  1.00  0.00    -0.041 A  
HETATM   22  C   UNL     1      -7.270   6.797  70.975  1.00  0.00    -0.077 A  
ENDBRANCH  15  17
ENDBRANCH  13  15
ENDBRANCH   7  13
TORSDOF 3
ENDMDL
MODEL      188
REMARK 921   NORMALIZED FREE ENERGY PREDICTED BY IDOCK:   -2.85 KCAL/MOL
REMARK 922        TOTAL FREE ENERGY PREDICTED BY IDOCK:   -3.88 KCAL/MOL
REMARK 923 INTER-LIGAND FREE ENERGY PREDICTED BY IDOCK:   -3.38 KCAL/MOL
REMARK 924 INTRA-LIGAND FREE ENERGY PREDICTED BY IDOCK:   -0.50 KCAL/MOL
REMARK 927      BINDING AFFINITY PREDICTED BY RF-SCORE:    0.00 PKD
ROOT
HETATM    1  N   UNL     1      -7.140   7.639  66.829  1.00  0.00    -0.081 NA 
HETATM    2  C   UNL     1      -7.415   9.002  66.890  1.00  0.00    -0.090 A  
HETATM    3  H2  UNL     1      -7.806   7.183  66.206  1.00  0.00     0.000 HD 
HETATM    4  H1  UNL     1      -6.190   7.375  66.567  1.00  0.00     0.000 HD 
HETATM    5  N   UNL     1      -8.666   9.350  67.234  1.00  0.00    -0.128 NA 
HETATM    6  C   UNL     1      -8.958  10.668  67.326  1.00  0.00    -0.136 A  
HETATM    7  C   UNL     1      -8.019  11.690  67.079  1.00  0.00    -0.164 A  
HETATM    8  N   UNL     1     -10.298  10.945  67.616  1.00  0.00    -0.189 NA 
HETATM    9  H2  UNL     1     -10.586  10.457  68.464  1.00  0.00     0.000 HD 
HETATM   10  C   UNL     1      -6.420   9.933  66.635  1.00  0.00    -0.071 A  
HETATM   11  C   UNL     1      -6.732  11.288  66.725  1.00  0.00    -0.140 A  
HETATM   12  H1  UNL     1     -10.519  11.939  67.685  1.00  0.00     0.000 HD 
ENDROOT
BRANCH   7  13
HETATM   13  N   UNL     1      -8.275  13.080  67.153  1.00  0.00    -0.312 NA 
HETATM   14  H   UNL     1      -7.832  13.705  67.826  1.00  0.00     0.000 HD 
BRANCH  13  15
HETATM   15  N   UNL     1      -9.105  13.453  66.300  1.00  0.00    -0.470 NA 
HETATM   16  H   UNL     1      -9.476  12.839  65.575  1.00  0.00     0.000 HD 
BRANCH  15  17
HETATM   17  C   UNL     1      -9.478  14.806  66.436  1.00  0.00    -0.301 A  
HETATM   18  C   UNL     1     -10.467  15.444  65.672  1.00  0.00    -0.391 A  
HETATM   19  C   UNL     1     -10.731  16.809  65.841  1.00  0.00    -0.166 A  
HETATM   20  C   UNL     1     -10.022  17.545  66.789  1.00  0.00    -0.313 A  
HETATM   21  C   UNL     1      -9.064  16.917  67.580  1.00  0.00    -0.223 A  
HETATM   22  C   UNL     1      -8.803  15.557  67.407  1.00  0.00    -0.203 A  
ENDBRANCH  15  17
ENDBRANCH  13  15
ENDBRANCH   7  13
TORSDOF 3
ENDMDL
MODEL      189
REMARK 921   NORMALIZED FREE ENERGY PREDICTED BY IDOCK:   -2.80 KCAL/MOL
REMARK 922        TOTAL FREE ENERGY PREDICTED BY IDOCK:   -3.82 KCAL/MOL
REMARK 923 INTER-LIGAND FREE ENERGY PREDICTED BY IDOCK:   -3.50 KCAL/MOL
REMARK 924 INTRA-LIGAND FREE ENERGY PREDICTED BY IDOCK:   -0.32 KCAL/MOL
REMARK 927      BINDING AFFINITY PREDICTED BY RF-SCORE:    0.00 PKD
ROOT
HETATM    1  N   UNL     1     -11.522   8.401  71.368  1.00  0.00    -0.266 NA 
HETATM    2  C   UNL     1     -11.101   8.332  70.043  1.00  0.00    -0.147 A  
HETATM    3  H2  UNL     1     -11.060   7.673  71.912  1.00  0.00     0.000 HD 
HETATM    4  H1  UNL     1     -11.414   9.300  71.837  1.00  0.00     0.000 HD 
HETATM    5  N   UNL     1     -11.243   7.148  69.426  1.00  0.00    -0.106 NA 
HETATM    6  C   UNL     1     -10.865   7.055  68.130  1.00  0.00    -0.153 A  
HETATM    7  C   UNL     1     -10.332   8.136  67.398  1.00  0.00    -0.281 A  
HETATM    8  N   UNL     1     -10.976   5.772  67.585  1.00  0.00    -0.306 NA 
HETATM    9  H2  UNL     1     -11.925   5.416  67.705  1.00  0.00     0.000 HD 
HETATM   10  C   UNL     1     -10.594   9.454  69.407  1.00  0.00    -0.235 A  
HETATM   11  C   UNL     1     -10.201   9.348  68.074  1.00  0.00    -0.248 A  
HETATM   12  H1  UNL     1     -10.691   5.702  66.608  1.00  0.00     0.000 HD 
ENDROOT
BRANCH   7  13
HETATM   13  N   UNL     1      -9.915   8.090  66.046  1.00  0.00    -0.418 NA 
HETATM   14  H   UNL     1      -9.683   7.229  65.552  1.00  0.00     0.000 HD 
BRANCH  13  15
HETATM   15  N   UNL     1      -9.864   9.224  65.529  1.00  0.00    -0.452 NA 
HETATM   16  H   UNL     1     -10.644   9.882  65.546  1.00  0.00     0.000 HD 
BRANCH  15  17
HETATM   17  C   UNL     1      -8.624   9.506  64.920  1.00  0.00    -0.172 A  
HETATM   18  C   UNL     1      -7.442   9.807  65.614  1.00  0.00    -0.110 A  
HETATM   19  C   UNL     1      -6.269  10.129  64.920  1.00  0.00    -0.125 A  
HETATM   20  C   UNL     1      -6.261  10.135  63.526  1.00  0.00    -0.138 A  
HETATM   21  C   UNL     1      -7.417   9.802  62.825  1.00  0.00    -0.122 A  
HETATM   22  C   UNL     1      -8.585   9.483  63.520  1.00  0.00    -0.221 A  
ENDBRANCH  15  17
ENDBRANCH  13  15
ENDBRANCH   7  13
TORSDOF 3
ENDMDL
MODEL      190
REMARK 921   NORMALIZED FREE ENERGY PREDICTED BY IDOCK:   -2.78 KCAL/MOL
REMARK 922        TOTAL FREE ENERGY PREDICTED BY IDOCK:   -3.80 KCAL/MOL
REMARK 923 INTER-LIGAND FREE ENERGY PREDICTED BY IDOCK:   -3.14 KCAL/MOL
REMARK 924 INTRA-LIGAND FREE ENERGY PREDICTED BY IDOCK:   -0.66 KCAL/MOL
REMARK 927      BINDING AFFINITY PREDICTED BY RF-SCORE:    0.00 PKD
ROOT
HETATM    1  N   UNL     1      -9.051   3.744  71.170  1.00  0.00    -0.105 NA 
HETATM    2  C   UNL     1      -9.319   5.087  70.924  1.00  0.00    -0.151 A  
HETATM    3  H2  UNL     1      -9.403   3.178  70.398  1.00  0.00     0.000 HD 
HETATM    4  H1  UNL     1      -8.080   3.498  71.359  1.00  0.00     0.000 HD 
HETATM    5  N   UNL     1     -10.599   5.411  70.674  1.00  0.00    -0.256 NA 
HETATM    6  C   UNL     1     -10.896   6.712  70.454  1.00  0.00    -0.266 A  
HETATM    7  C   UNL     1      -9.933   7.742  70.476  1.00  0.00    -0.187 A  
HETATM    8  N   UNL     1     -12.234   6.954  70.128  1.00  0.00    -0.623 NA 
HETATM    9  H2  UNL     1     -12.849   6.565  70.843  1.00  0.00     0.000 HD 
HETATM   10  C   UNL     1      -8.303   6.028  70.973  1.00  0.00    -0.124 A  
HETATM   11  C   UNL     1      -8.616   7.366  70.740  1.00  0.00    -0.137 A  
HETATM   12  H1  UNL     1     -12.458   7.936  69.963  1.00  0.00     0.000 HD 
ENDROOT
BRANCH   7  13
HETATM   13  N   UNL     1     -10.189   9.115  70.246  1.00  0.00    -0.200 NA 
HETATM   14  H   UNL     1     -10.089   9.839  70.957  1.00  0.00     0.000 HD 
BRANCH  13  15
HETATM   15  N   UNL     1     -10.550   9.338  69.073  1.00  0.00    -0.247 NA 
HETATM   16  H   UNL     1     -11.484   9.121  68.724  1.00  0.00     0.000 HD 
BRANCH  15  17
HETATM   17  C   UNL     1      -9.541   9.917  68.277  1.00  0.00    -0.140 A  
HETATM   18  C   UNL     1      -8.972   9.316  67.143  1.00  0.00    -0.141 A  
HETATM   19  C   UNL     1      -7.934   9.947  66.446  1.00  0.00    -0.111 A  
HETATM   20  C   UNL     1      -7.467  11.192  66.864  1.00  0.00    -0.138 A  
HETATM   21  C   UNL     1      -8.048  11.817  67.964  1.00  0.00    -0.145 A  
HETATM   22  C   UNL     1      -9.081  11.184  68.657  1.00  0.00    -0.166 A  
ENDBRANCH  15  17
ENDBRANCH  13  15
ENDBRANCH   7  13
TORSDOF 3
ENDMDL
MODEL      191
REMARK 921   NORMALIZED FREE ENERGY PREDICTED BY IDOCK:   -2.76 KCAL/MOL
REMARK 922        TOTAL FREE ENERGY PREDICTED BY IDOCK:   -3.78 KCAL/MOL
REMARK 923 INTER-LIGAND FREE ENERGY PREDICTED BY IDOCK:   -3.40 KCAL/MOL
REMARK 924 INTRA-LIGAND FREE ENERGY PREDICTED BY IDOCK:   -0.38 KCAL/MOL
REMARK 927      BINDING AFFINITY PREDICTED BY RF-SCORE:    0.00 PKD
ROOT
HETATM    1  N   UNL     1      -8.846   8.940  63.677  1.00  0.00    -0.432 NA 
HETATM    2  C   UNL     1      -8.932   9.118  65.055  1.00  0.00    -0.171 A  
HETATM    3  H2  UNL     1      -9.067   9.816  63.204  1.00  0.00     0.000 HD 
HETATM    4  H1  UNL     1      -7.966   8.570  63.318  1.00  0.00     0.000 HD 
HETATM    5  N   UNL     1     -10.091   9.605  65.528  1.00  0.00    -0.220 NA 
HETATM    6  C   UNL     1     -10.215   9.767  66.865  1.00  0.00    -0.245 A  
HETATM    7  C   UNL     1      -9.194   9.450  67.784  1.00  0.00    -0.128 A  
HETATM    8  N   UNL     1     -11.422  10.348  67.269  1.00  0.00    -0.381 NA 
HETATM    9  H2  UNL     1     -12.212   9.819  66.900  1.00  0.00     0.000 HD 
HETATM   10  C   UNL     1      -7.872   8.771  65.877  1.00  0.00    -0.102 A  
HETATM   11  C   UNL     1      -8.007   8.946  67.253  1.00  0.00    -0.097 A  
HETATM   12  H1  UNL     1     -11.516  10.470  68.277  1.00  0.00     0.000 HD 
ENDROOT
BRANCH   7  13
HETATM   13  N   UNL     1      -9.269   9.608  69.188  1.00  0.00    -0.160 NA 
HETATM   14  H   UNL     1      -9.971  10.178  69.659  1.00  0.00     0.000 HD 
BRANCH  13  15
HETATM   15  N   UNL     1      -8.379   8.969  69.783  1.00  0.00    -0.121 NA 
HETATM   16  H   UNL     1      -7.389   9.033  69.544  1.00  0.00     0.000 HD 
BRANCH  15  17
HETATM   17  C   UNL     1      -8.874   8.150  70.819  1.00  0.00    -0.141 A  
HETATM   18  C   UNL     1      -8.832   6.747  70.818  1.00  0.00    -0.150 A  
HETATM   19  C   UNL     1      -9.401   6.016  71.869  1.00  0.00    -0.160 A  
HETATM   20  C   UNL     1      -9.999   6.679  72.938  1.00  0.00    -0.187 A  
HETATM   21  C   UNL     1     -10.014   8.071  72.970  1.00  0.00    -0.349 A  
HETATM   22  C   UNL     1      -9.448   8.797  71.921  1.00  0.00    -0.362 A  
ENDBRANCH  15  17
ENDBRANCH  13  15
ENDBRANCH   7  13
TORSDOF 3
ENDMDL
MODEL      192
REMARK 921   NORMALIZED FREE ENERGY PREDICTED BY IDOCK:   -2.76 KCAL/MOL
REMARK 922        TOTAL FREE ENERGY PREDICTED BY IDOCK:   -3.77 KCAL/MOL
REMARK 923 INTER-LIGAND FREE ENERGY PREDICTED BY IDOCK:   -3.39 KCAL/MOL
REMARK 924 INTRA-LIGAND FREE ENERGY PREDICTED BY IDOCK:   -0.38 KCAL/MOL
REMARK 927      BINDING AFFINITY PREDICTED BY RF-SCORE:    0.00 PKD
ROOT
HETATM    1  N   UNL     1      -9.968   7.569  66.018  1.00  0.00    -0.352 NA 
HETATM    2  C   UNL     1      -9.941   6.673  67.083  1.00  0.00    -0.160 A  
HETATM    3  H2  UNL     1      -9.842   8.518  66.366  1.00  0.00     0.000 HD 
HETATM    4  H1  UNL     1      -9.313   7.394  65.256  1.00  0.00     0.000 HD 
HETATM    5  N   UNL     1     -10.803   6.904  68.086  1.00  0.00    -0.214 NA 
HETATM    6  C   UNL     1     -10.819   6.038  69.126  1.00  0.00    -0.352 A  
HETATM    7  C   UNL     1      -9.978   4.908  69.207  1.00  0.00    -0.199 A  
HETATM    8  N   UNL     1     -11.690   6.390  70.161  1.00  0.00    -0.470 NA 
HETATM    9  H2  UNL     1     -12.634   6.528  69.799  1.00  0.00     0.000 HD 
HETATM   10  C   UNL     1      -9.080   5.588  67.068  1.00  0.00    -0.112 A  
HETATM   11  C   UNL     1      -9.098   4.703  68.145  1.00  0.00    -0.148 A  
HETATM   12  H1  UNL     1     -11.702   5.736  70.944  1.00  0.00     0.000 HD 
ENDROOT
BRANCH   7  13
HETATM   13  N   UNL     1      -9.949   3.977  70.273  1.00  0.00    -0.131 NA 
HETATM   14  H   UNL     1     -10.616   3.214  70.379  1.00  0.00     0.000 HD 
BRANCH  13  15
HETATM   15  N   UNL     1      -9.012   4.198  71.066  1.00  0.00    -0.104 NA 
HETATM   16  H   UNL     1      -8.059   3.866  70.913  1.00  0.00     0.000 HD 
BRANCH  15  17
HETATM   17  C   UNL     1      -9.399   4.949  72.194  1.00  0.00    -0.136 A  
HETATM   18  C   UNL     1      -8.717   6.076  72.677  1.00  0.00    -0.121 A  
HETATM   19  C   UNL     1      -9.147   6.726  73.841  1.00  0.00    -0.195 A  
HETATM   20  C   UNL     1     -10.272   6.268  74.522  1.00  0.00    -0.320 A  
HETATM   21  C   UNL     1     -10.981   5.173  74.033  1.00  0.00    -0.105 A  
HETATM   22  C   UNL     1     -10.549   4.527  72.875  1.00  0.00    -0.275 A  
ENDBRANCH  15  17
ENDBRANCH  13  15
ENDBRANCH   7  13
TORSDOF 3
ENDMDL
MODEL      193
REMARK 921   NORMALIZED FREE ENERGY PREDICTED BY IDOCK:   -2.75 KCAL/MOL
REMARK 922        TOTAL FREE ENERGY PREDICTED BY IDOCK:   -3.76 KCAL/MOL
REMARK 923 INTER-LIGAND FREE ENERGY PREDICTED BY IDOCK:   -3.25 KCAL/MOL
REMARK 924 INTRA-LIGAND FREE ENERGY PREDICTED BY IDOCK:   -0.51 KCAL/MOL
REMARK 927      BINDING AFFINITY PREDICTED BY RF-SCORE:    0.00 PKD
ROOT
HETATM    1  N   UNL     1     -11.731   8.900  72.271  1.00  0.00    -0.333 NA 
HETATM    2  C   UNL     1     -11.337   8.545  70.984  1.00  0.00    -0.271 A  
HETATM    3  H2  UNL     1     -11.182   8.377  72.952  1.00  0.00     0.000 HD 
HETATM    4  H1  UNL     1     -11.705   9.893  72.500  1.00  0.00     0.000 HD 
HETATM    5  N   UNL     1     -11.371   7.237  70.682  1.00  0.00    -0.277 NA 
HETATM    6  C   UNL     1     -11.018   6.862  69.431  1.00  0.00    -0.237 A  
HETATM    7  C   UNL     1     -10.618   7.773  68.432  1.00  0.00    -0.112 A  
HETATM    8  N   UNL     1     -11.008   5.480  69.221  1.00  0.00    -0.164 NA 
HETATM    9  H2  UNL     1     -11.911   5.076  69.471  1.00  0.00     0.000 HD 
HETATM   10  C   UNL     1     -10.966   9.518  70.069  1.00  0.00    -0.284 A  
HETATM   11  C   UNL     1     -10.597   9.122  68.784  1.00  0.00    -0.208 A  
HETATM   12  H1  UNL     1     -10.742   5.197  68.277  1.00  0.00     0.000 HD 
ENDROOT
BRANCH   7  13
HETATM   13  N   UNL     1     -10.232   7.434  67.113  1.00  0.00    -0.247 NA 
HETATM   14  H   UNL     1     -10.672   7.815  66.276  1.00  0.00     0.000 HD 
BRANCH  13  15
HETATM   15  N   UNL     1      -9.291   6.615  67.093  1.00  0.00    -0.131 NA 
HETATM   16  H   UNL     1      -8.563   6.582  67.807  1.00  0.00     0.000 HD 
BRANCH  15  17
HETATM   17  C   UNL     1      -9.333   5.742  65.987  1.00  0.00    -0.117 A  
HETATM   18  C   UNL     1     -10.273   4.714  65.815  1.00  0.00    -0.283 A  
HETATM   19  C   UNL     1     -10.201   3.859  64.707  1.00  0.00    -0.196 A  
HETATM   20  C   UNL     1      -9.201   4.035  63.753  1.00  0.00    -0.138 A  
HETATM   21  C   UNL     1      -8.285   5.074  63.891  1.00  0.00    -0.125 A  
HETATM   22  C   UNL     1      -8.358   5.922  64.997  1.00  0.00    -0.131 A  
ENDBRANCH  15  17
ENDBRANCH  13  15
ENDBRANCH   7  13
TORSDOF 3
ENDMDL
MODEL      194
REMARK 921   NORMALIZED FREE ENERGY PREDICTED BY IDOCK:   -2.74 KCAL/MOL
REMARK 922        TOTAL FREE ENERGY PREDICTED BY IDOCK:   -3.75 KCAL/MOL
REMARK 923 INTER-LIGAND FREE ENERGY PREDICTED BY IDOCK:   -3.17 KCAL/MOL
REMARK 924 INTRA-LIGAND FREE ENERGY PREDICTED BY IDOCK:   -0.58 KCAL/MOL
REMARK 927      BINDING AFFINITY PREDICTED BY RF-SCORE:    0.00 PKD
ROOT
HETATM    1  N   UNL     1      -8.473  13.853  68.820  1.00  0.00    -0.337 NA 
HETATM    2  C   UNL     1      -8.698  12.798  67.940  1.00  0.00    -0.185 A  
HETATM    3  H2  UNL     1      -9.101  13.771  69.619  1.00  0.00     0.000 HD 
HETATM    4  H1  UNL     1      -7.515  13.977  69.149  1.00  0.00     0.000 HD 
HETATM    5  N   UNL     1      -9.959  12.634  67.507  1.00  0.00    -0.203 NA 
HETATM    6  C   UNL     1     -10.206  11.633  66.631  1.00  0.00    -0.216 A  
HETATM    7  C   UNL     1      -9.210  10.758  66.151  1.00  0.00    -0.180 A  
HETATM    8  N   UNL     1     -11.554  11.482  66.289  1.00  0.00    -0.354 NA 
HETATM    9  H2  UNL     1     -11.932  12.363  65.938  1.00  0.00     0.000 HD 
HETATM   10  C   UNL     1      -7.650  11.995  67.522  1.00  0.00    -0.147 A  
HETATM   11  C   UNL     1      -7.914  10.962  66.624  1.00  0.00    -0.148 A  
HETATM   12  H1  UNL     1     -11.740  10.728  65.628  1.00  0.00     0.000 HD 
ENDROOT
BRANCH   7  13
HETATM   13  N   UNL     1      -9.417   9.692  65.243  1.00  0.00    -0.268 NA 
HETATM   14  H   UNL     1      -9.130   9.715  64.265  1.00  0.00     0.000 HD 
BRANCH  13  15
HETATM   15  N   UNL     1      -9.990   8.721  65.777  1.00  0.00    -0.411 NA 
HETATM   16  H   UNL     1     -11.003   8.656  65.879  1.00  0.00     0.000 HD 
BRANCH  15  17
HETATM   17  C   UNL     1      -9.100   7.724  66.226  1.00  0.00    -0.178 A  
HETATM   18  C   UNL     1      -8.259   6.968  65.394  1.00  0.00    -0.133 A  
HETATM   19  C   UNL     1      -7.448   5.959  65.927  1.00  0.00    -0.085 A  
HETATM   20  C   UNL     1      -7.454   5.707  67.298  1.00  0.00    -0.084 A  
HETATM   21  C   UNL     1      -8.255   6.475  68.140  1.00  0.00    -0.117 A  
HETATM   22  C   UNL     1      -9.064   7.478  67.605  1.00  0.00    -0.127 A  
ENDBRANCH  15  17
ENDBRANCH  13  15
ENDBRANCH   7  13
TORSDOF 3
ENDMDL
MODEL      195
REMARK 921   NORMALIZED FREE ENERGY PREDICTED BY IDOCK:   -2.70 KCAL/MOL
REMARK 922        TOTAL FREE ENERGY PREDICTED BY IDOCK:   -3.70 KCAL/MOL
REMARK 923 INTER-LIGAND FREE ENERGY PREDICTED BY IDOCK:   -3.34 KCAL/MOL
REMARK 924 INTRA-LIGAND FREE ENERGY PREDICTED BY IDOCK:   -0.36 KCAL/MOL
REMARK 927      BINDING AFFINITY PREDICTED BY RF-SCORE:    0.00 PKD
ROOT
HETATM    1  N   UNL     1      -6.092   6.262  63.369  1.00  0.00    -0.022 NA 
HETATM    2  C   UNL     1      -6.599   7.461  63.863  1.00  0.00    -0.052 A  
HETATM    3  H2  UNL     1      -5.555   5.792  64.097  1.00  0.00     0.000 HD 
HETATM    4  H1  UNL     1      -6.767   5.611  62.968  1.00  0.00     0.000 HD 
HETATM    5  N   UNL     1      -5.710   8.318  64.392  1.00  0.00    -0.058 NA 
HETATM    6  C   UNL     1      -6.167   9.503  64.859  1.00  0.00    -0.080 A  
HETATM    7  C   UNL     1      -7.525   9.881  64.816  1.00  0.00    -0.136 A  
HETATM    8  N   UNL     1      -5.192  10.304  65.460  1.00  0.00    -0.060 NA 
HETATM    9  H2  UNL     1      -4.410  10.451  64.821  1.00  0.00     0.000 HD 
HETATM   10  C   UNL     1      -7.952   7.744  63.770  1.00  0.00    -0.101 A  
HETATM   11  C   UNL     1      -8.415   8.964  64.259  1.00  0.00    -0.165 A  
HETATM   12  H1  UNL     1      -5.536  11.198  65.812  1.00  0.00     0.000 HD 
ENDROOT
BRANCH   7  13
HETATM   13  N   UNL     1      -8.056  11.103  65.297  1.00  0.00    -0.355 NA 
HETATM   14  H   UNL     1      -7.593  11.689  65.991  1.00  0.00     0.000 HD 
BRANCH  13  15
HETATM   15  N   UNL     1      -9.153  11.378  64.773  1.00  0.00    -0.402 NA 
HETATM   16  H   UNL     1      -9.417  11.077  63.835  1.00  0.00     0.000 HD 
BRANCH  15  17
HETATM   17  C   UNL     1      -9.992  12.148  65.605  1.00  0.00    -0.249 A  
HETATM   18  C   UNL     1      -9.972  13.549  65.684  1.00  0.00    -0.252 A  
HETATM   19  C   UNL     1     -10.808  14.225  66.582  1.00  0.00    -0.301 A  
HETATM   20  C   UNL     1     -11.684  13.509  67.396  1.00  0.00    -0.419 A  
HETATM   21  C   UNL     1     -11.742  12.121  67.300  1.00  0.00    -0.369 A  
HETATM   22  C   UNL     1     -10.906  11.451  66.406  1.00  0.00    -0.323 A  
ENDBRANCH  15  17
ENDBRANCH  13  15
ENDBRANCH   7  13
TORSDOF 3
ENDMDL
MODEL      196
REMARK 921   NORMALIZED FREE ENERGY PREDICTED BY IDOCK:   -2.69 KCAL/MOL
REMARK 922        TOTAL FREE ENERGY PREDICTED BY IDOCK:   -3.69 KCAL/MOL
REMARK 923 INTER-LIGAND FREE ENERGY PREDICTED BY IDOCK:   -3.23 KCAL/MOL
REMARK 924 INTRA-LIGAND FREE ENERGY PREDICTED BY IDOCK:   -0.46 KCAL/MOL
REMARK 927      BINDING AFFINITY PREDICTED BY RF-SCORE:    0.00 PKD
ROOT
HETATM    1  N   UNL     1      -9.001   8.784  72.149  1.00  0.00    -0.385 NA 
HETATM    2  C   UNL     1      -9.411   8.731  70.820  1.00  0.00    -0.208 A  
HETATM    3  H2  UNL     1      -9.706   9.267  72.705  1.00  0.00     0.000 HD 
HETATM    4  H1  UNL     1      -8.766   7.896  72.591  1.00  0.00     0.000 HD 
HETATM    5  N   UNL     1      -9.720   9.902  70.237  1.00  0.00    -0.219 NA 
HETATM    6  C   UNL     1     -10.099   9.887  68.939  1.00  0.00    -0.184 A  
HETATM    7  C   UNL     1     -10.182   8.709  68.168  1.00  0.00    -0.205 A  
HETATM    8  N   UNL     1     -10.476  11.134  68.431  1.00  0.00    -0.180 NA 
HETATM    9  H2  UNL     1      -9.731  11.817  68.577  1.00  0.00     0.000 HD 
HETATM   10  C   UNL     1      -9.455   7.522  70.144  1.00  0.00    -0.161 A  
HETATM   11  C   UNL     1      -9.851   7.515  68.808  1.00  0.00    -0.166 A  
HETATM   12  H1  UNL     1     -10.761  11.123  67.451  1.00  0.00     0.000 HD 
ENDROOT
BRANCH   7  13
HETATM   13  N   UNL     1     -10.579   8.638  66.811  1.00  0.00    -0.227 NA 
HETATM   14  H   UNL     1     -11.374   9.146  66.424  1.00  0.00     0.000 HD 
BRANCH  13  15
HETATM   15  N   UNL     1      -9.845   7.882  66.144  1.00  0.00    -0.464 NA 
HETATM   16  H   UNL     1      -9.935   6.866  66.150  1.00  0.00     0.000 HD 
BRANCH  15  17
HETATM   17  C   UNL     1      -8.878   8.570  65.383  1.00  0.00    -0.130 A  
HETATM   18  C   UNL     1      -9.156   9.635  64.511  1.00  0.00    -0.287 A  
HETATM   19  C   UNL     1      -8.134  10.221  63.753  1.00  0.00    -0.143 A  
HETATM   20  C   UNL     1      -6.824   9.763  63.872  1.00  0.00    -0.120 A  
HETATM   21  C   UNL     1      -6.528   8.733  64.761  1.00  0.00    -0.066 A  
HETATM   22  C   UNL     1      -7.548   8.149  65.513  1.00  0.00    -0.087 A  
ENDBRANCH  15  17
ENDBRANCH  13  15
ENDBRANCH   7  13
TORSDOF 3
ENDMDL
MODEL      197
REMARK 921   NORMALIZED FREE ENERGY PREDICTED BY IDOCK:   -2.58 KCAL/MOL
REMARK 922        TOTAL FREE ENERGY PREDICTED BY IDOCK:   -3.57 KCAL/MOL
REMARK 923 INTER-LIGAND FREE ENERGY PREDICTED BY IDOCK:   -3.41 KCAL/MOL
REMARK 924 INTRA-LIGAND FREE ENERGY PREDICTED BY IDOCK:   -0.16 KCAL/MOL
REMARK 927      BINDING AFFINITY PREDICTED BY RF-SCORE:    0.00 PKD
ROOT
HETATM    1  N   UNL     1     -10.664  13.420  66.830  1.00  0.00    -0.276 NA 
HETATM    2  C   UNL     1     -10.275  12.113  67.108  1.00  0.00    -0.210 A  
HETATM    3  H2  UNL     1     -10.199  13.742  65.982  1.00  0.00     0.000 HD 
HETATM    4  H1  UNL     1     -11.666  13.594  66.758  1.00  0.00     0.000 HD 
HETATM    5  N   UNL     1      -8.954  11.884  67.202  1.00  0.00    -0.172 NA 
HETATM    6  C   UNL     1      -8.545  10.629  67.496  1.00  0.00    -0.122 A  
HETATM    7  C   UNL     1      -9.431   9.553  67.707  1.00  0.00    -0.131 A  
HETATM    8  N   UNL     1      -7.157  10.459  67.502  1.00  0.00    -0.085 NA 
HETATM    9  H2  UNL     1      -6.719  11.132  68.132  1.00  0.00     0.000 HD 
HETATM   10  C   UNL     1     -11.224  11.123  67.306  1.00  0.00    -0.347 A  
HETATM   11  C   UNL     1     -10.793   9.832  67.601  1.00  0.00    -0.301 A  
HETATM   12  H1  UNL     1      -6.848   9.512  67.723  1.00  0.00     0.000 HD 
ENDROOT
BRANCH   7  13
HETATM   13  N   UNL     1      -9.055   8.222  68.008  1.00  0.00    -0.137 NA 
HETATM   14  H   UNL     1      -8.187   7.791  67.691  1.00  0.00     0.000 HD 
BRANCH  13  15
HETATM   15  N   UNL     1      -9.908   7.637  68.706  1.00  0.00    -0.160 NA 
HETATM   16  H   UNL     1     -10.675   7.092  68.312  1.00  0.00     0.000 HD 
BRANCH  15  17
HETATM   17  C   UNL     1      -9.706   7.803  70.091  1.00  0.00    -0.183 A  
HETATM   18  C   UNL     1      -8.603   7.310  70.804  1.00  0.00    -0.144 A  
HETATM   19  C   UNL     1      -8.517   7.477  72.192  1.00  0.00    -0.130 A  
HETATM   20  C   UNL     1      -9.523   8.155  72.878  1.00  0.00    -0.345 A  
HETATM   21  C   UNL     1     -10.605   8.682  72.178  1.00  0.00    -0.411 A  
HETATM   22  C   UNL     1     -10.688   8.512  70.796  1.00  0.00    -0.254 A  
ENDBRANCH  15  17
ENDBRANCH  13  15
ENDBRANCH   7  13
TORSDOF 3
ENDMDL
MODEL      198
REMARK 921   NORMALIZED FREE ENERGY PREDICTED BY IDOCK:   -2.48 KCAL/MOL
REMARK 922        TOTAL FREE ENERGY PREDICTED BY IDOCK:   -3.44 KCAL/MOL
REMARK 923 INTER-LIGAND FREE ENERGY PREDICTED BY IDOCK:   -2.92 KCAL/MOL
REMARK 924 INTRA-LIGAND FREE ENERGY PREDICTED BY IDOCK:   -0.52 KCAL/MOL
REMARK 927      BINDING AFFINITY PREDICTED BY RF-SCORE:    0.00 PKD
ROOT
HETATM    1  N   UNL     1      -6.498   3.900  64.144  1.00  0.00    -0.040 NA 
HETATM    2  C   UNL     1      -7.392   4.766  64.767  1.00  0.00    -0.071 A  
HETATM    3  H2  UNL     1      -5.574   4.329  64.111  1.00  0.00     0.000 HD 
HETATM    4  H1  UNL     1      -6.425   2.960  64.534  1.00  0.00     0.000 HD 
HETATM    5  N   UNL     1      -7.487   6.004  64.255  1.00  0.00    -0.069 NA 
HETATM    6  C   UNL     1      -8.365   6.863  64.823  1.00  0.00     0.019 A  
HETATM    7  C   UNL     1      -9.183   6.524  65.921  1.00  0.00     0.012 A  
HETATM    8  N   UNL     1      -8.350   8.151  64.280  1.00  0.00    -0.358 NA 
HETATM    9  H2  UNL     1      -8.492   8.113  63.270  1.00  0.00     0.000 HD 
HETATM   10  C   UNL     1      -8.157   4.336  65.840  1.00  0.00    -0.098 A  
HETATM   11  C   UNL     1      -9.054   5.229  66.423  1.00  0.00    -0.137 A  
HETATM   12  H1  UNL     1      -9.012   8.799  64.708  1.00  0.00     0.000 HD 
ENDROOT
BRANCH   7  13
HETATM   13  N   UNL     1     -10.110   7.385  66.556  1.00  0.00    -0.454 NA 
HETATM   14  H   UNL     1     -11.100   7.171  66.666  1.00  0.00     0.000 HD 
BRANCH  13  15
HETATM   15  N   UNL     1      -9.575   8.434  66.965  1.00  0.00    -0.174 NA 
HETATM   16  H   UNL     1      -8.884   8.958  66.426  1.00  0.00     0.000 HD 
BRANCH  15  17
HETATM   17  C   UNL     1     -10.018   8.826  68.245  1.00  0.00    -0.176 A  
HETATM   18  C   UNL     1      -9.657   8.193  69.445  1.00  0.00    -0.167 A  
HETATM   19  C   UNL     1     -10.193   8.621  70.666  1.00  0.00    -0.237 A  
HETATM   20  C   UNL     1     -11.079   9.696  70.703  1.00  0.00    -0.384 A  
HETATM   21  C   UNL     1     -11.415  10.357  69.524  1.00  0.00    -0.311 A  
HETATM   22  C   UNL     1     -10.882   9.927  68.309  1.00  0.00    -0.275 A  
ENDBRANCH  15  17
ENDBRANCH  13  15
ENDBRANCH   7  13
TORSDOF 3
ENDMDL
MODEL      199
REMARK 921   NORMALIZED FREE ENERGY PREDICTED BY IDOCK:   -2.48 KCAL/MOL
REMARK 922        TOTAL FREE ENERGY PREDICTED BY IDOCK:   -3.44 KCAL/MOL
REMARK 923 INTER-LIGAND FREE ENERGY PREDICTED BY IDOCK:   -2.95 KCAL/MOL
REMARK 924 INTRA-LIGAND FREE ENERGY PREDICTED BY IDOCK:   -0.49 KCAL/MOL
REMARK 927      BINDING AFFINITY PREDICTED BY RF-SCORE:    0.00 PKD
ROOT
HETATM    1  N   UNL     1      -6.075   8.721  63.952  1.00  0.00    -0.072 NA 
HETATM    2  C   UNL     1      -6.930   8.370  64.993  1.00  0.00    -0.074 A  
HETATM    3  H2  UNL     1      -5.331   8.029  63.874  1.00  0.00     0.000 HD 
HETATM    4  H1  UNL     1      -6.503   8.869  63.039  1.00  0.00     0.000 HD 
HETATM    5  N   UNL     1      -6.366   8.176  66.197  1.00  0.00    -0.046 NA 
HETATM    6  C   UNL     1      -7.174   7.857  67.235  1.00  0.00    -0.090 A  
HETATM    7  C   UNL     1      -8.572   7.722  67.117  1.00  0.00    -0.128 A  
HETATM    8  N   UNL     1      -6.501   7.598  68.434  1.00  0.00    -0.051 NA 
HETATM    9  H2  UNL     1      -5.898   8.384  68.680  1.00  0.00     0.000 HD 
HETATM   10  C   UNL     1      -8.295   8.267  64.778  1.00  0.00    -0.129 A  
HETATM   11  C   UNL     1      -9.119   7.933  65.852  1.00  0.00    -0.139 A  
HETATM   12  H1  UNL     1      -7.110   7.359  69.216  1.00  0.00     0.000 HD 
ENDROOT
BRANCH   7  13
HETATM   13  N   UNL     1      -9.459   7.384  68.167  1.00  0.00    -0.138 NA 
HETATM   14  H   UNL     1      -9.934   6.484  68.243  1.00  0.00     0.000 HD 
BRANCH  13  15
HETATM   15  N   UNL     1      -9.593   8.312  68.989  1.00  0.00    -0.155 NA 
HETATM   16  H   UNL     1      -9.074   9.189  68.933  1.00  0.00     0.000 HD 
BRANCH  15  17
HETATM   17  C   UNL     1     -10.532   8.031  70.002  1.00  0.00    -0.228 A  
HETATM   18  C   UNL     1     -10.915   8.930  71.010  1.00  0.00    -0.341 A  
HETATM   19  C   UNL     1     -11.816   8.540  72.009  1.00  0.00    -0.429 A  
HETATM   20  C   UNL     1     -12.357   7.256  72.001  1.00  0.00    -0.298 A  
HETATM   21  C   UNL     1     -12.015   6.366  70.986  1.00  0.00    -0.265 A  
HETATM   22  C   UNL     1     -11.115   6.757  69.993  1.00  0.00    -0.366 A  
ENDBRANCH  15  17
ENDBRANCH  13  15
ENDBRANCH   7  13
TORSDOF 3
ENDMDL
MODEL      200
REMARK 921   NORMALIZED FREE ENERGY PREDICTED BY IDOCK:   -2.47 KCAL/MOL
REMARK 922        TOTAL FREE ENERGY PREDICTED BY IDOCK:   -3.44 KCAL/MOL
REMARK 923 INTER-LIGAND FREE ENERGY PREDICTED BY IDOCK:   -2.96 KCAL/MOL
REMARK 924 INTRA-LIGAND FREE ENERGY PREDICTED BY IDOCK:   -0.48 KCAL/MOL
REMARK 927      BINDING AFFINITY PREDICTED BY RF-SCORE:    0.00 PKD
ROOT
HETATM    1  N   UNL     1      -9.157  12.020  65.858  1.00  0.00    -0.414 NA 
HETATM    2  C   UNL     1      -9.245  10.637  65.982  1.00  0.00    -0.182 A  
HETATM    3  H2  UNL     1      -9.131  12.274  64.870  1.00  0.00     0.000 HD 
HETATM    4  H1  UNL     1      -9.874  12.569  66.333  1.00  0.00     0.000 HD 
HETATM    5  N   UNL     1      -8.302   9.914  65.355  1.00  0.00    -0.139 NA 
HETATM    6  C   UNL     1      -8.345   8.567  65.477  1.00  0.00    -0.156 A  
HETATM    7  C   UNL     1      -9.327   7.887  66.226  1.00  0.00    -0.164 A  
HETATM    8  N   UNL     1      -7.375   7.887  64.735  1.00  0.00    -0.078 NA 
HETATM    9  H2  UNL     1      -6.443   8.235  64.965  1.00  0.00     0.000 HD 
HETATM   10  C   UNL     1     -10.247  10.061  66.747  1.00  0.00    -0.295 A  
HETATM   11  C   UNL     1     -10.288   8.673  66.862  1.00  0.00    -0.355 A  
HETATM   12  H1  UNL     1      -7.407   6.871  64.826  1.00  0.00     0.000 HD 
ENDROOT
BRANCH   7  13
HETATM   13  N   UNL     1      -9.422   6.483  66.378  1.00  0.00    -0.254 NA 
HETATM   14  H   UNL     1      -9.150   5.983  67.225  1.00  0.00     0.000 HD 
BRANCH  13  15
HETATM   15  N   UNL     1      -9.877   5.928  65.359  1.00  0.00    -0.105 NA 
HETATM   16  H   UNL     1     -10.402   6.424  64.638  1.00  0.00     0.000 HD 
BRANCH  15  17
HETATM   17  C   UNL     1      -9.595   4.547  65.301  1.00  0.00    -0.172 A  
HETATM   18  C   UNL     1      -9.497   3.703  66.417  1.00  0.00    -0.184 A  
HETATM   19  C   UNL     1      -9.158   2.353  66.263  1.00  0.00    -0.079 A  
HETATM   20  C   UNL     1      -8.932   1.829  64.992  1.00  0.00    -0.124 A  
HETATM   21  C   UNL     1      -9.062   2.647  63.872  1.00  0.00    -0.105 A  
HETATM   22  C   UNL     1      -9.398   3.992  64.029  1.00  0.00    -0.155 A  
ENDBRANCH  15  17
ENDBRANCH  13  15
ENDBRANCH   7  13
TORSDOF 3
ENDMDL
MODEL      201
REMARK 921   NORMALIZED FREE ENERGY PREDICTED BY IDOCK:   -2.43 KCAL/MOL
REMARK 922        TOTAL FREE ENERGY PREDICTED BY IDOCK:   -3.39 KCAL/MOL
REMARK 923 INTER-LIGAND FREE ENERGY PREDICTED BY IDOCK:   -2.87 KCAL/MOL
REMARK 924 INTRA-LIGAND FREE ENERGY PREDICTED BY IDOCK:   -0.51 KCAL/MOL
REMARK 927      BINDING AFFINITY PREDICTED BY RF-SCORE:    0.00 PKD
ROOT
HETATM    1  N   UNL     1     -10.262  12.025  65.428  1.00  0.00    -0.256 NA 
HETATM    2  C   UNL     1     -10.000  10.809  66.052  1.00  0.00    -0.242 A  
HETATM    3  H2  UNL     1     -10.850  11.870  64.610  1.00  0.00     0.000 HD 
HETATM    4  H1  UNL     1     -10.670  12.758  66.008  1.00  0.00     0.000 HD 
HETATM    5  N   UNL     1      -9.463   9.843  65.288  1.00  0.00    -0.249 NA 
HETATM    6  C   UNL     1      -9.173   8.657  65.870  1.00  0.00    -0.202 A  
HETATM    7  C   UNL     1      -9.404   8.385  67.234  1.00  0.00    -0.146 A  
HETATM    8  N   UNL     1      -8.688   7.683  64.991  1.00  0.00    -0.371 NA 
HETATM    9  H2  UNL     1      -7.878   8.036  64.481  1.00  0.00     0.000 HD 
HETATM   10  C   UNL     1     -10.257  10.640  67.403  1.00  0.00    -0.243 A  
HETATM   11  C   UNL     1      -9.961   9.413  67.993  1.00  0.00    -0.209 A  
HETATM   12  H1  UNL     1      -8.470   6.788  65.430  1.00  0.00     0.000 HD 
ENDROOT
BRANCH   7  13
HETATM   13  N   UNL     1      -9.127   7.161  67.889  1.00  0.00    -0.129 NA 
HETATM   14  H   UNL     1      -8.255   6.963  68.379  1.00  0.00     0.000 HD 
BRANCH  13  15
HETATM   15  N   UNL     1     -10.073   6.353  67.799  1.00  0.00    -0.134 NA 
HETATM   16  H   UNL     1     -11.046   6.610  67.964  1.00  0.00     0.000 HD 
BRANCH  15  17
HETATM   17  C   UNL     1      -9.664   5.050  67.448  1.00  0.00    -0.158 A  
HETATM   18  C   UNL     1     -10.075   4.367  66.293  1.00  0.00    -0.249 A  
HETATM   19  C   UNL     1      -9.658   3.051  66.056  1.00  0.00     0.077 A  
HETATM   20  C   UNL     1      -8.812   2.412  66.960  1.00  0.00    -0.151 A  
HETATM   21  C   UNL     1      -8.365   3.091  68.090  1.00  0.00    -0.094 A  
HETATM   22  C   UNL     1      -8.785   4.402  68.325  1.00  0.00    -0.116 A  
ENDBRANCH  15  17
ENDBRANCH  13  15
ENDBRANCH   7  13
TORSDOF 3
ENDMDL
MODEL      202
REMARK 921   NORMALIZED FREE ENERGY PREDICTED BY IDOCK:   -2.43 KCAL/MOL
REMARK 922        TOTAL FREE ENERGY PREDICTED BY IDOCK:   -3.38 KCAL/MOL
REMARK 923 INTER-LIGAND FREE ENERGY PREDICTED BY IDOCK:   -2.91 KCAL/MOL
REMARK 924 INTRA-LIGAND FREE ENERGY PREDICTED BY IDOCK:   -0.47 KCAL/MOL
REMARK 927      BINDING AFFINITY PREDICTED BY RF-SCORE:    0.00 PKD
ROOT
HETATM    1  N   UNL     1      -7.494   2.628  74.229  1.00  0.00    -0.042 NA 
HETATM    2  C   UNL     1      -7.829   3.741  73.464  1.00  0.00    -0.079 A  
HETATM    3  H2  UNL     1      -8.267   1.963  74.221  1.00  0.00     0.000 HD 
HETATM    4  H1  UNL     1      -6.627   2.149  73.986  1.00  0.00     0.000 HD 
HETATM    5  N   UNL     1      -8.971   4.372  73.784  1.00  0.00    -0.103 NA 
HETATM    6  C   UNL     1      -9.312   5.472  73.075  1.00  0.00    -0.136 A  
HETATM    7  C   UNL     1      -8.531   5.989  72.021  1.00  0.00    -0.121 A  
HETATM    8  N   UNL     1     -10.549   6.024  73.420  1.00  0.00    -0.246 NA 
HETATM    9  H2  UNL     1     -10.583   6.222  74.421  1.00  0.00     0.000 HD 
HETATM   10  C   UNL     1      -6.990   4.176  72.450  1.00  0.00    -0.051 A  
HETATM   11  C   UNL     1      -7.352   5.306  71.720  1.00  0.00    -0.089 A  
HETATM   12  H1  UNL     1     -10.806   6.854  72.886  1.00  0.00     0.000 HD 
ENDROOT
BRANCH   7  13
HETATM   13  N   UNL     1      -8.845   7.129  71.243  1.00  0.00    -0.129 NA 
HETATM   14  H   UNL     1      -8.275   7.974  71.217  1.00  0.00     0.000 HD 
BRANCH  13  15
HETATM   15  N   UNL     1      -9.899   6.981  70.594  1.00  0.00    -0.183 NA 
HETATM   16  H   UNL     1     -10.407   6.097  70.544  1.00  0.00     0.000 HD 
BRANCH  15  17
HETATM   17  C   UNL     1     -10.320   8.155  69.935  1.00  0.00    -0.214 A  
HETATM   18  C   UNL     1     -10.733   9.330  70.581  1.00  0.00    -0.331 A  
HETATM   19  C   UNL     1     -11.187  10.429  69.841  1.00  0.00    -0.371 A  
HETATM   20  C   UNL     1     -11.217  10.371  68.449  1.00  0.00    -0.318 A  
HETATM   21  C   UNL     1     -10.775   9.224  67.794  1.00  0.00    -0.270 A  
HETATM   22  C   UNL     1     -10.324   8.130  68.534  1.00  0.00    -0.230 A  
ENDBRANCH  15  17
ENDBRANCH  13  15
ENDBRANCH   7  13
TORSDOF 3
ENDMDL
MODEL      203
REMARK 921   NORMALIZED FREE ENERGY PREDICTED BY IDOCK:   -2.42 KCAL/MOL
REMARK 922        TOTAL FREE ENERGY PREDICTED BY IDOCK:   -3.38 KCAL/MOL
REMARK 923 INTER-LIGAND FREE ENERGY PREDICTED BY IDOCK:   -2.80 KCAL/MOL
REMARK 924 INTRA-LIGAND FREE ENERGY PREDICTED BY IDOCK:   -0.58 KCAL/MOL
REMARK 927      BINDING AFFINITY PREDICTED BY RF-SCORE:    0.00 PKD
ROOT
HETATM    1  N   UNL     1      -9.988   7.596  66.280  1.00  0.00    -0.464 NA 
HETATM    2  C   UNL     1     -10.042   6.829  67.441  1.00  0.00    -0.175 A  
HETATM    3  H2  UNL     1      -9.771   8.563  66.519  1.00  0.00     0.000 HD 
HETATM    4  H1  UNL     1      -9.356   7.274  65.548  1.00  0.00     0.000 HD 
HETATM    5  N   UNL     1     -10.875   7.253  68.406  1.00  0.00    -0.115 NA 
HETATM    6  C   UNL     1     -10.968   6.517  69.537  1.00  0.00    -0.340 A  
HETATM    7  C   UNL     1     -10.238   5.330  69.752  1.00  0.00    -0.294 A  
HETATM    8  N   UNL     1     -11.798   7.066  70.519  1.00  0.00    -0.497 NA 
HETATM    9  H2  UNL     1     -12.726   7.251  70.137  1.00  0.00     0.000 HD 
HETATM   10  C   UNL     1      -9.288   5.672  67.555  1.00  0.00    -0.109 A  
HETATM   11  C   UNL     1      -9.386   4.922  68.726  1.00  0.00    -0.184 A  
HETATM   12  H1  UNL     1     -11.869   6.510  71.372  1.00  0.00     0.000 HD 
ENDROOT
BRANCH   7  13
HETATM   13  N   UNL     1     -10.293   4.528  70.917  1.00  0.00    -0.092 NA 
HETATM   14  H   UNL     1     -10.776   3.631  70.968  1.00  0.00     0.000 HD 
BRANCH  13  15
HETATM   15  N   UNL     1      -9.682   5.043  71.874  1.00  0.00    -0.155 NA 
HETATM   16  H   UNL     1      -9.905   5.966  72.249  1.00  0.00     0.000 HD 
BRANCH  15  17
HETATM   17  C   UNL     1      -8.652   4.227  72.385  1.00  0.00    -0.105 A  
HETATM   18  C   UNL     1      -8.160   3.072  71.758  1.00  0.00    -0.058 A  
HETATM   19  C   UNL     1      -7.171   2.293  72.371  1.00  0.00    -0.031 A  
HETATM   20  C   UNL     1      -6.652   2.670  73.608  1.00  0.00    -0.022 A  
HETATM   21  C   UNL     1      -7.103   3.834  74.224  1.00  0.00    -0.053 A  
HETATM   22  C   UNL     1      -8.091   4.607  73.611  1.00  0.00    -0.106 A  
ENDBRANCH  15  17
ENDBRANCH  13  15
ENDBRANCH   7  13
TORSDOF 3
ENDMDL
MODEL      204
REMARK 921   NORMALIZED FREE ENERGY PREDICTED BY IDOCK:   -2.38 KCAL/MOL
REMARK 922        TOTAL FREE ENERGY PREDICTED BY IDOCK:   -3.33 KCAL/MOL
REMARK 923 INTER-LIGAND FREE ENERGY PREDICTED BY IDOCK:   -3.21 KCAL/MOL
REMARK 924 INTRA-LIGAND FREE ENERGY PREDICTED BY IDOCK:   -0.11 KCAL/MOL
REMARK 927      BINDING AFFINITY PREDICTED BY RF-SCORE:    0.00 PKD
ROOT
HETATM    1  N   UNL     1      -6.695   1.710  74.541  1.00  0.00    -0.020 NA 
HETATM    2  C   UNL     1      -7.401   2.630  73.770  1.00  0.00    -0.041 A  
HETATM    3  H2  UNL     1      -7.344   1.038  74.950  1.00  0.00     0.000 HD 
HETATM    4  H1  UNL     1      -5.935   1.213  74.077  1.00  0.00     0.000 HD 
HETATM    5  N   UNL     1      -8.403   3.285  74.381  1.00  0.00    -0.069 NA 
HETATM    6  C   UNL     1      -9.092   4.204  73.666  1.00  0.00    -0.094 A  
HETATM    7  C   UNL     1      -8.812   4.508  72.318  1.00  0.00    -0.121 A  
HETATM    8  N   UNL     1     -10.165   4.784  74.350  1.00  0.00    -0.237 NA 
HETATM    9  H2  UNL     1      -9.847   5.186  75.233  1.00  0.00     0.000 HD 
HETATM   10  C   UNL     1      -7.045   2.864  72.452  1.00  0.00    -0.031 A  
HETATM   11  C   UNL     1      -7.765   3.808  71.721  1.00  0.00    -0.062 A  
HETATM   12  H1  UNL     1     -10.685   5.477  73.812  1.00  0.00     0.000 HD 
ENDROOT
BRANCH   7  13
HETATM   13  N   UNL     1      -9.507   5.452  71.525  1.00  0.00    -0.147 NA 
HETATM   14  H   UNL     1      -9.090   5.948  70.737  1.00  0.00     0.000 HD 
BRANCH  13  15
HETATM   15  N   UNL     1     -10.686   5.607  71.899  1.00  0.00    -0.235 NA 
HETATM   16  H   UNL     1     -11.252   4.855  72.293  1.00  0.00     0.000 HD 
BRANCH  15  17
HETATM   17  C   UNL     1     -11.161   6.923  71.724  1.00  0.00    -0.244 A  
HETATM   18  C   UNL     1     -10.349   8.067  71.683  1.00  0.00    -0.267 A  
HETATM   19  C   UNL     1     -10.918   9.342  71.560  1.00  0.00    -0.446 A  
HETATM   20  C   UNL     1     -12.300   9.483  71.457  1.00  0.00    -0.465 A  
HETATM   21  C   UNL     1     -13.115   8.354  71.459  1.00  0.00    -0.316 A  
HETATM   22  C   UNL     1     -12.545   7.086  71.584  1.00  0.00    -0.419 A  
ENDBRANCH  15  17
ENDBRANCH  13  15
ENDBRANCH   7  13
TORSDOF 3
ENDMDL
MODEL      205
REMARK 921   NORMALIZED FREE ENERGY PREDICTED BY IDOCK:   -2.31 KCAL/MOL
REMARK 922        TOTAL FREE ENERGY PREDICTED BY IDOCK:   -3.24 KCAL/MOL
REMARK 923 INTER-LIGAND FREE ENERGY PREDICTED BY IDOCK:   -2.94 KCAL/MOL
REMARK 924 INTRA-LIGAND FREE ENERGY PREDICTED BY IDOCK:   -0.30 KCAL/MOL
REMARK 927      BINDING AFFINITY PREDICTED BY RF-SCORE:    0.00 PKD
ROOT
HETATM    1  N   UNL     1      -7.339   2.445  65.368  1.00  0.00    -0.065 NA 
HETATM    2  C   UNL     1      -7.805   3.201  66.440  1.00  0.00    -0.077 A  
HETATM    3  H2  UNL     1      -6.665   1.757  65.701  1.00  0.00     0.000 HD 
HETATM    4  H1  UNL     1      -8.044   1.983  64.794  1.00  0.00     0.000 HD 
HETATM    5  N   UNL     1      -6.876   3.809  67.197  1.00  0.00    -0.050 NA 
HETATM    6  C   UNL     1      -7.297   4.571  68.232  1.00  0.00    -0.065 A  
HETATM    7  C   UNL     1      -8.657   4.758  68.555  1.00  0.00    -0.093 A  
HETATM    8  N   UNL     1      -6.268   5.107  69.013  1.00  0.00    -0.029 NA 
HETATM    9  H2  UNL     1      -5.615   5.630  68.429  1.00  0.00     0.000 HD 
HETATM   10  C   UNL     1      -9.165   3.329  66.673  1.00  0.00    -0.178 A  
HETATM   11  C   UNL     1      -9.589   4.111  67.745  1.00  0.00    -0.208 A  
HETATM   12  H1  UNL     1      -6.586   5.682  69.794  1.00  0.00     0.000 HD 
ENDROOT
BRANCH   7  13
HETATM   13  N   UNL     1      -9.149   5.537  69.630  1.00  0.00    -0.126 NA 
HETATM   14  H   UNL     1      -8.618   5.738  70.476  1.00  0.00     0.000 HD 
BRANCH  13  15
HETATM   15  N   UNL     1     -10.308   5.948  69.423  1.00  0.00    -0.221 NA 
HETATM   16  H   UNL     1     -10.883   5.631  68.642  1.00  0.00     0.000 HD 
BRANCH  15  17
HETATM   17  C   UNL     1     -10.744   6.895  70.372  1.00  0.00    -0.246 A  
HETATM   18  C   UNL     1     -11.054   8.233  70.083  1.00  0.00    -0.189 A  
HETATM   19  C   UNL     1     -11.428   9.115  71.105  1.00  0.00    -0.388 A  
HETATM   20  C   UNL     1     -11.513   8.665  72.421  1.00  0.00    -0.369 A  
HETATM   21  C   UNL     1     -11.245   7.331  72.716  1.00  0.00    -0.348 A  
HETATM   22  C   UNL     1     -10.871   6.455  71.696  1.00  0.00    -0.291 A  
ENDBRANCH  15  17
ENDBRANCH  13  15
ENDBRANCH   7  13
TORSDOF 3
ENDMDL
MODEL      206
REMARK 921   NORMALIZED FREE ENERGY PREDICTED BY IDOCK:   -2.25 KCAL/MOL
REMARK 922        TOTAL FREE ENERGY PREDICTED BY IDOCK:   -3.18 KCAL/MOL
REMARK 923 INTER-LIGAND FREE ENERGY PREDICTED BY IDOCK:   -2.57 KCAL/MOL
REMARK 924 INTRA-LIGAND FREE ENERGY PREDICTED BY IDOCK:   -0.61 KCAL/MOL
REMARK 927      BINDING AFFINITY PREDICTED BY RF-SCORE:    0.00 PKD
ROOT
HETATM    1  N   UNL     1      -8.742  12.142  68.715  1.00  0.00    -0.372 NA 
HETATM    2  C   UNL     1      -8.706  10.791  68.385  1.00  0.00    -0.142 A  
HETATM    3  H2  UNL     1      -9.496  12.312  69.380  1.00  0.00     0.000 HD 
HETATM    4  H1  UNL     1      -7.876  12.550  69.068  1.00  0.00     0.000 HD 
HETATM    5  N   UNL     1      -9.846  10.254  67.920  1.00  0.00    -0.155 NA 
HETATM    6  C   UNL     1      -9.838   8.948  67.566  1.00  0.00    -0.184 A  
HETATM    7  C   UNL     1      -8.696   8.126  67.661  1.00  0.00    -0.130 A  
HETATM    8  N   UNL     1     -11.081   8.448  67.164  1.00  0.00    -0.254 NA 
HETATM    9  H2  UNL     1     -11.465   9.018  66.410  1.00  0.00     0.000 HD 
HETATM   10  C   UNL     1      -7.531  10.067  68.507  1.00  0.00    -0.086 A  
HETATM   11  C   UNL     1      -7.533   8.721  68.147  1.00  0.00    -0.092 A  
HETATM   12  H1  UNL     1     -11.074   7.463  66.898  1.00  0.00     0.000 HD 
ENDROOT
BRANCH   7  13
HETATM   13  N   UNL     1      -8.636   6.755  67.313  1.00  0.00    -0.119 NA 
HETATM   14  H   UNL     1      -7.942   6.359  66.680  1.00  0.00     0.000 HD 
BRANCH  13  15
HETATM   15  N   UNL     1      -9.530   6.087  67.870  1.00  0.00    -0.112 NA 
HETATM   16  H   UNL     1     -10.488   6.036  67.525  1.00  0.00     0.000 HD 
BRANCH  15  17
HETATM   17  C   UNL     1      -9.085   5.410  69.024  1.00  0.00    -0.115 A  
HETATM   18  C   UNL     1      -7.752   5.052  69.278  1.00  0.00    -0.075 A  
HETATM   19  C   UNL     1      -7.414   4.331  70.430  1.00  0.00    -0.045 A  
HETATM   20  C   UNL     1      -8.401   3.976  71.348  1.00  0.00    -0.086 A  
HETATM   21  C   UNL     1      -9.722   4.358  71.127  1.00  0.00    -0.256 A  
HETATM   22  C   UNL     1     -10.055   5.075  69.978  1.00  0.00    -0.342 A  
ENDBRANCH  15  17
ENDBRANCH  13  15
ENDBRANCH   7  13
TORSDOF 3
ENDMDL
MODEL      207
REMARK 921   NORMALIZED FREE ENERGY PREDICTED BY IDOCK:   -2.12 KCAL/MOL
REMARK 922        TOTAL FREE ENERGY PREDICTED BY IDOCK:   -3.03 KCAL/MOL
REMARK 923 INTER-LIGAND FREE ENERGY PREDICTED BY IDOCK:   -2.73 KCAL/MOL
REMARK 924 INTRA-LIGAND FREE ENERGY PREDICTED BY IDOCK:   -0.29 KCAL/MOL
REMARK 927      BINDING AFFINITY PREDICTED BY RF-SCORE:    0.00 PKD
ROOT
HETATM    1  N   UNL     1      -8.966   8.914  71.996  1.00  0.00    -0.386 NA 
HETATM    2  C   UNL     1      -9.222   8.324  70.761  1.00  0.00    -0.153 A  
HETATM    3  H2  UNL     1      -9.753   9.504  72.263  1.00  0.00     0.000 HD 
HETATM    4  H1  UNL     1      -8.733   8.285  72.764  1.00  0.00     0.000 HD 
HETATM    5  N   UNL     1      -9.529   9.153  69.750  1.00  0.00    -0.172 NA 
HETATM    6  C   UNL     1      -9.760   8.612  68.531  1.00  0.00    -0.163 A  
HETATM    7  C   UNL     1      -9.694   7.228  68.271  1.00  0.00    -0.147 A  
HETATM    8  N   UNL     1     -10.146   9.534  67.552  1.00  0.00    -0.190 NA 
HETATM    9  H2  UNL     1      -9.461  10.287  67.483  1.00  0.00     0.000 HD 
HETATM   10  C   UNL     1      -9.126   6.951  70.604  1.00  0.00    -0.155 A  
HETATM   11  C   UNL     1      -9.371   6.402  69.347  1.00  0.00    -0.143 A  
HETATM   12  H1  UNL     1     -10.320   9.126  66.633  1.00  0.00     0.000 HD 
ENDROOT
BRANCH   7  13
HETATM   13  N   UNL     1      -9.934   6.612  67.020  1.00  0.00    -0.157 NA 
HETATM   14  H   UNL     1     -10.748   6.806  66.437  1.00  0.00     0.000 HD 
BRANCH  13  15
HETATM   15  N   UNL     1      -9.035   5.804  66.711  1.00  0.00    -0.116 NA 
HETATM   16  H   UNL     1      -8.194   5.662  67.271  1.00  0.00     0.000 HD 
BRANCH  15  17
HETATM   17  C   UNL     1      -9.295   5.108  65.513  1.00  0.00    -0.113 A  
HETATM   18  C   UNL     1     -10.441   4.336  65.269  1.00  0.00    -0.196 A  
HETATM   19  C   UNL     1     -10.586   3.634  64.065  1.00  0.00    -0.272 A  
HETATM   20  C   UNL     1      -9.596   3.712  63.087  1.00  0.00    -0.120 A  
HETATM   21  C   UNL     1      -8.471   4.505  63.301  1.00  0.00    -0.109 A  
HETATM   22  C   UNL     1      -8.329   5.201  64.502  1.00  0.00    -0.137 A  
ENDBRANCH  15  17
ENDBRANCH  13  15
ENDBRANCH   7  13
TORSDOF 3
ENDMDL
MODEL      208
REMARK 921   NORMALIZED FREE ENERGY PREDICTED BY IDOCK:   -2.09 KCAL/MOL
REMARK 922        TOTAL FREE ENERGY PREDICTED BY IDOCK:   -2.98 KCAL/MOL
REMARK 923 INTER-LIGAND FREE ENERGY PREDICTED BY IDOCK:   -2.61 KCAL/MOL
REMARK 924 INTRA-LIGAND FREE ENERGY PREDICTED BY IDOCK:   -0.38 KCAL/MOL
REMARK 927      BINDING AFFINITY PREDICTED BY RF-SCORE:    0.00 PKD
ROOT
HETATM    1  N   UNL     1     -10.247  13.507  64.474  1.00  0.00    -0.605 NA 
HETATM    2  C   UNL     1      -9.900  12.699  65.553  1.00  0.00    -0.163 A  
HETATM    3  H2  UNL     1     -11.245  13.418  64.288  1.00  0.00     0.000 HD 
HETATM    4  H1  UNL     1      -9.998  14.493  64.543  1.00  0.00     0.000 HD 
HETATM    5  N   UNL     1     -10.228  11.399  65.464  1.00  0.00    -0.252 NA 
HETATM    6  C   UNL     1      -9.883  10.583  66.486  1.00  0.00    -0.206 A  
HETATM    7  C   UNL     1      -9.197  11.026  67.635  1.00  0.00    -0.149 A  
HETATM    8  N   UNL     1     -10.326   9.264  66.349  1.00  0.00    -0.219 NA 
HETATM    9  H2  UNL     1     -10.012   8.874  65.460  1.00  0.00     0.000 HD 
HETATM   10  C   UNL     1      -9.220  13.228  66.639  1.00  0.00    -0.222 A  
HETATM   11  C   UNL     1      -8.873  12.381  67.690  1.00  0.00    -0.177 A  
HETATM   12  H1  UNL     1     -10.066   8.648  67.120  1.00  0.00     0.000 HD 
ENDROOT
BRANCH   7  13
HETATM   13  N   UNL     1      -8.820  10.217  68.734  1.00  0.00    -0.138 NA 
HETATM   14  H   UNL     1      -9.474   9.868  69.434  1.00  0.00     0.000 HD 
BRANCH  13  15
HETATM   15  N   UNL     1      -7.596   9.979  68.747  1.00  0.00    -0.080 NA 
HETATM   16  H   UNL     1      -6.890  10.664  68.477  1.00  0.00     0.000 HD 
BRANCH  15  17
HETATM   17  C   UNL     1      -7.284   8.671  69.170  1.00  0.00    -0.064 A  
HETATM   18  C   UNL     1      -6.439   8.358  70.246  1.00  0.00    -0.035 A  
HETATM   19  C   UNL     1      -6.144   7.025  70.558  1.00  0.00    -0.027 A  
HETATM   20  C   UNL     1      -6.705   5.992  69.810  1.00  0.00    -0.052 A  
HETATM   21  C   UNL     1      -7.576   6.286  68.763  1.00  0.00    -0.092 A  
HETATM   22  C   UNL     1      -7.865   7.616  68.454  1.00  0.00    -0.121 A  
ENDBRANCH  15  17
ENDBRANCH  13  15
ENDBRANCH   7  13
TORSDOF 3
ENDMDL
MODEL      209
REMARK 921   NORMALIZED FREE ENERGY PREDICTED BY IDOCK:   -1.78 KCAL/MOL
REMARK 922        TOTAL FREE ENERGY PREDICTED BY IDOCK:   -2.63 KCAL/MOL
REMARK 923 INTER-LIGAND FREE ENERGY PREDICTED BY IDOCK:   -3.06 KCAL/MOL
REMARK 924 INTRA-LIGAND FREE ENERGY PREDICTED BY IDOCK:    0.43 KCAL/MOL
REMARK 927      BINDING AFFINITY PREDICTED BY RF-SCORE:    0.00 PKD
ROOT
HETATM    1  N   UNL     1     -13.225  14.004  70.293  1.00  0.00    -0.175 NA 
HETATM    2  C   UNL     1     -12.113  13.947  69.457  1.00  0.00    -0.342 A  
HETATM    3  H2  UNL     1     -13.810  14.796  70.030  1.00  0.00     0.000 HD 
HETATM    4  H1  UNL     1     -13.797  13.161  70.351  1.00  0.00     0.000 HD 
HETATM    5  N   UNL     1     -11.360  15.056  69.379  1.00  0.00    -0.278 NA 
HETATM    6  C   UNL     1     -10.259  15.025  68.594  1.00  0.00    -0.231 A  
HETATM    7  C   UNL     1      -9.863  13.890  67.858  1.00  0.00    -0.228 A  
HETATM    8  N   UNL     1      -9.573  16.241  68.509  1.00  0.00    -0.215 NA 
HETATM    9  H2  UNL     1      -9.336  16.581  69.442  1.00  0.00     0.000 HD 
HETATM   10  C   UNL     1     -11.803  12.780  68.777  1.00  0.00    -0.346 A  
HETATM   11  C   UNL     1     -10.670  12.758  67.966  1.00  0.00    -0.246 A  
HETATM   12  H1  UNL     1      -8.742  16.218  67.918  1.00  0.00     0.000 HD 
ENDROOT
BRANCH   7  13
HETATM   13  N   UNL     1      -8.726  13.808  67.017  1.00  0.00    -0.317 NA 
HETATM   14  H   UNL     1      -8.449  14.539  66.363  1.00  0.00     0.000 HD 
BRANCH  13  15
HETATM   15  N   UNL     1      -8.103  12.739  67.170  1.00  0.00    -0.306 NA 
HETATM   16  H   UNL     1      -7.367  12.614  67.865  1.00  0.00     0.000 HD 
BRANCH  15  17
HETATM   17  C   UNL     1      -8.516  11.719  66.288  1.00  0.00    -0.022 A  
HETATM   18  C   UNL     1      -8.383  10.344  66.536  1.00  0.00    -0.130 A  
HETATM   19  C   UNL     1      -8.773   9.404  65.574  1.00  0.00    -0.190 A  
HETATM   20  C   UNL     1      -9.316   9.828  64.363  1.00  0.00    -0.278 A  
HETATM   21  C   UNL     1      -9.489  11.188  64.119  1.00  0.00    -0.237 A  
HETATM   22  C   UNL     1      -9.097  12.122  65.079  1.00  0.00     0.482 A  
ENDBRANCH  15  17
ENDBRANCH  13  15
ENDBRANCH   7  13
TORSDOF 3
ENDMDL
MODEL      210
REMARK 921   NORMALIZED FREE ENERGY PREDICTED BY IDOCK:   -1.69 KCAL/MOL
REMARK 922        TOTAL FREE ENERGY PREDICTED BY IDOCK:   -2.52 KCAL/MOL
REMARK 923 INTER-LIGAND FREE ENERGY PREDICTED BY IDOCK:   -2.09 KCAL/MOL
REMARK 924 INTRA-LIGAND FREE ENERGY PREDICTED BY IDOCK:   -0.43 KCAL/MOL
REMARK 927      BINDING AFFINITY PREDICTED BY RF-SCORE:    0.00 PKD
ROOT
HETATM    1  N   UNL     1      -6.671   7.491  72.814  1.00  0.00    -0.063 NA 
HETATM    2  C   UNL     1      -7.621   7.014  71.915  1.00  0.00    -0.092 A  
HETATM    3  H2  UNL     1      -6.957   8.406  73.161  1.00  0.00     0.000 HD 
HETATM    4  H1  UNL     1      -6.440   6.884  73.599  1.00  0.00     0.000 HD 
HETATM    5  N   UNL     1      -7.926   7.814  70.880  1.00  0.00    -0.095 NA 
HETATM    6  C   UNL     1      -8.828   7.370  69.975  1.00  0.00    -0.141 A  
HETATM    7  C   UNL     1      -9.461   6.113  70.064  1.00  0.00    -0.154 A  
HETATM    8  N   UNL     1      -9.145   8.291  68.972  1.00  0.00    -0.147 NA 
HETATM    9  H2  UNL     1      -8.298   8.610  68.502  1.00  0.00     0.000 HD 
HETATM   10  C   UNL     1      -8.184   5.760  72.085  1.00  0.00    -0.112 A  
HETATM   11  C   UNL     1      -9.117   5.312  71.152  1.00  0.00    -0.170 A  
HETATM   12  H1  UNL     1      -9.825   7.956  68.289  1.00  0.00     0.000 HD 
ENDROOT
BRANCH   7  13
HETATM   13  N   UNL     1     -10.416   5.604  69.151  1.00  0.00    -0.257 NA 
HETATM   14  H   UNL     1     -11.164   6.163  68.740  1.00  0.00     0.000 HD 
BRANCH  13  15
HETATM   15  N   UNL     1     -10.237   4.395  68.906  1.00  0.00     0.102 NA 
HETATM   16  H   UNL     1     -10.436   3.652  69.577  1.00  0.00     0.000 HD 
BRANCH  15  17
HETATM   17  C   UNL     1      -9.731   4.154  67.612  1.00  0.00    -0.122 A  
HETATM   18  C   UNL     1     -10.164   4.810  66.449  1.00  0.00    -0.308 A  
HETATM   19  C   UNL     1      -9.639   4.464  65.197  1.00  0.00    -0.183 A  
HETATM   20  C   UNL     1      -8.664   3.473  65.098  1.00  0.00    -0.118 A  
HETATM   21  C   UNL     1      -8.198   2.841  66.247  1.00  0.00    -0.086 A  
HETATM   22  C   UNL     1      -8.725   3.187  67.493  1.00  0.00    -0.140 A  
ENDBRANCH  15  17
ENDBRANCH  13  15
ENDBRANCH   7  13
TORSDOF 3
ENDMDL
MODEL      211
REMARK 921   NORMALIZED FREE ENERGY PREDICTED BY IDOCK:   -1.41 KCAL/MOL
REMARK 922        TOTAL FREE ENERGY PREDICTED BY IDOCK:   -2.18 KCAL/MOL
REMARK 923 INTER-LIGAND FREE ENERGY PREDICTED BY IDOCK:   -1.80 KCAL/MOL
REMARK 924 INTRA-LIGAND FREE ENERGY PREDICTED BY IDOCK:   -0.38 KCAL/MOL
REMARK 927      BINDING AFFINITY PREDICTED BY RF-SCORE:    0.00 PKD
ROOT
HETATM    1  N   UNL     1      -6.448   1.748  74.502  1.00  0.00    -0.012 NA 
HETATM    2  C   UNL     1      -6.728   2.801  73.635  1.00  0.00    -0.027 A  
HETATM    3  H2  UNL     1      -7.318   1.383  74.889  1.00  0.00     0.000 HD 
HETATM    4  H1  UNL     1      -5.893   0.980  74.124  1.00  0.00     0.000 HD 
HETATM    5  N   UNL     1      -7.459   3.812  74.131  1.00  0.00    -0.058 NA 
HETATM    6  C   UNL     1      -7.728   4.862  73.321  1.00  0.00    -0.093 A  
HETATM    7  C   UNL     1      -7.280   4.947  71.988  1.00  0.00    -0.076 A  
HETATM    8  N   UNL     1      -8.556   5.835  73.890  1.00  0.00    -0.118 NA 
HETATM    9  H2  UNL     1      -8.167   6.159  74.775  1.00  0.00     0.000 HD 
HETATM   10  C   UNL     1      -6.236   2.796  72.340  1.00  0.00    -0.013 A  
HETATM   11  C   UNL     1      -6.522   3.878  71.510  1.00  0.00    -0.015 A  
HETATM   12  H1  UNL     1      -8.759   6.627  73.279  1.00  0.00     0.000 HD 
ENDROOT
BRANCH   7  13
HETATM   13  N   UNL     1      -7.539   6.017  71.097  1.00  0.00    -0.098 NA 
HETATM   14  H   UNL     1      -7.676   6.983  71.394  1.00  0.00     0.000 HD 
BRANCH  13  15
HETATM   15  N   UNL     1      -7.581   5.642  69.909  1.00  0.00    -0.074 NA 
HETATM   16  H   UNL     1      -6.820   5.134  69.455  1.00  0.00     0.000 HD 
BRANCH  15  17
HETATM   17  C   UNL     1      -8.780   5.988  69.254  1.00  0.00    -0.117 A  
HETATM   18  C   UNL     1      -9.851   6.669  69.854  1.00  0.00    -0.180 A  
HETATM   19  C   UNL     1     -11.028   6.921  69.137  1.00  0.00    -0.240 A  
HETATM   20  C   UNL     1     -11.139   6.512  67.810  1.00  0.00    -0.366 A  
HETATM   21  C   UNL     1     -10.070   5.869  67.191  1.00  0.00    -0.213 A  
HETATM   22  C   UNL     1      -8.900   5.617  67.908  1.00  0.00    -0.105 A  
ENDBRANCH  15  17
ENDBRANCH  13  15
ENDBRANCH   7  13
TORSDOF 3
ENDMDL
MODEL      212
REMARK 921   NORMALIZED FREE ENERGY PREDICTED BY IDOCK:   -1.30 KCAL/MOL
REMARK 922        TOTAL FREE ENERGY PREDICTED BY IDOCK:   -2.06 KCAL/MOL
REMARK 923 INTER-LIGAND FREE ENERGY PREDICTED BY IDOCK:   -1.70 KCAL/MOL
REMARK 924 INTRA-LIGAND FREE ENERGY PREDICTED BY IDOCK:   -0.36 KCAL/MOL
REMARK 927      BINDING AFFINITY PREDICTED BY RF-SCORE:    0.00 PKD
ROOT
HETATM    1  N   UNL     1      -6.663   2.809  74.004  1.00  0.00    -0.029 NA 
HETATM    2  C   UNL     1      -7.192   3.386  72.853  1.00  0.00    -0.046 A  
HETATM    3  H2  UNL     1      -7.401   2.325  74.514  1.00  0.00     0.000 HD 
HETATM    4  H1  UNL     1      -5.868   2.183  73.878  1.00  0.00     0.000 HD 
HETATM    5  N   UNL     1      -8.239   4.210  73.018  1.00  0.00    -0.089 NA 
HETATM    6  C   UNL     1      -8.761   4.806  71.921  1.00  0.00    -0.123 A  
HETATM    7  C   UNL     1      -8.261   4.607  70.618  1.00  0.00    -0.083 A  
HETATM    8  N   UNL     1      -9.894   5.587  72.170  1.00  0.00    -0.161 NA 
HETATM    9  H2  UNL     1      -9.695   6.281  72.891  1.00  0.00     0.000 HD 
HETATM   10  C   UNL     1      -6.625   3.132  71.614  1.00  0.00    -0.019 A  
HETATM   11  C   UNL     1      -7.172   3.745  70.489  1.00  0.00    -0.041 A  
HETATM   12  H1  UNL     1     -10.287   6.037  71.343  1.00  0.00     0.000 HD 
ENDROOT
BRANCH   7  13
HETATM   13  N   UNL     1      -8.773   5.198  69.439  1.00  0.00    -0.098 NA 
HETATM   14  H   UNL     1      -9.744   5.490  69.325  1.00  0.00     0.000 HD 
BRANCH  13  15
HETATM   15  N   UNL     1      -7.902   5.321  68.556  1.00  0.00    -0.083 NA 
HETATM   16  H   UNL     1      -6.951   5.638  68.747  1.00  0.00     0.000 HD 
BRANCH  15  17
HETATM   17  C   UNL     1      -8.359   4.980  67.266  1.00  0.00    -0.106 A  
HETATM   18  C   UNL     1      -7.548   4.907  66.123  1.00  0.00    -0.091 A  
HETATM   19  C   UNL     1      -8.104   4.613  64.871  1.00  0.00    -0.102 A  
HETATM   20  C   UNL     1      -9.472   4.372  64.753  1.00  0.00    -0.155 A  
HETATM   21  C   UNL     1     -10.282   4.405  65.885  1.00  0.00    -0.252 A  
HETATM   22  C   UNL     1      -9.725   4.700  67.130  1.00  0.00    -0.219 A  
ENDBRANCH  15  17
ENDBRANCH  13  15
ENDBRANCH   7  13
TORSDOF 3
ENDMDL
