MODEL        1
REMARK 921   NORMALIZED FREE ENERGY PREDICTED BY IDOCK:   -7.23 KCAL/MOL
REMARK 922        TOTAL FREE ENERGY PREDICTED BY IDOCK:   -9.69 KCAL/MOL
REMARK 923 INTER-LIGAND FREE ENERGY PREDICTED BY IDOCK:   -8.91 KCAL/MOL
REMARK 924 INTRA-LIGAND FREE ENERGY PREDICTED BY IDOCK:   -0.78 KCAL/MOL
REMARK 927      BINDING AFFINITY PREDICTED BY RF-SCORE:    0.00 PKD
ROOT
HETATM    1  C   UNL     1     -12.222  13.067  66.099  1.00  0.00    -0.360 C  
HETATM    2  S   UNL     1     -11.602  14.163  67.446  1.00  0.00    -0.392 SA 
HETATM    3  C   UNL     1     -10.239  14.902  66.430  1.00  0.00    -0.284 C  
HETATM    4  CA  UNL     1     -10.656  14.662  64.955  1.00  0.00    -0.439 C  
HETATM    5  C   UNL     1      -8.938  14.154  66.786  1.00  0.00    -0.229 C  
HETATM    6  C   UNL     1     -10.039  16.365  66.839  1.00  0.00    -0.281 C  
HETATM    7  N   UNL     1     -11.401  13.387  64.913  1.00  0.00    -0.318 N  
HETATM    8  C   UNL     1     -11.546  15.761  64.336  1.00  0.00    -0.240 C  
HETATM    9  C   UNL     1     -10.714  12.193  64.954  1.00  0.00    -0.295 C  
HETATM   10  OXT UNL     1     -11.281  16.948  64.318  1.00  0.00    -1.204 OA 
HETATM   11  O   UNL     1     -12.656  15.273  63.718  1.00  0.00    -0.733 OA 
HETATM   12  CA  UNL     1     -11.651  11.624  66.067  1.00  0.00    -0.026 C  
HETATM   13  O   UNL     1      -9.680  11.881  64.409  1.00  0.00    -0.206 OA 
ENDROOT
BRANCH  12  14
HETATM   14  N   UNL     1     -11.002  11.187  67.333  1.00  0.00    -0.272 N  
HETATM   15  C   UNL     1     -10.364   9.975  67.484  1.00  0.00    -0.232 C  
HETATM   16  H   UNL     1     -11.030  11.820  68.133  1.00  0.00     0.000 HD 
HETATM   17  O   UNL     1     -10.344   9.140  66.583  1.00  0.00    -0.259 OA 
BRANCH  15  18
HETATM   18  C   UNL     1      -9.706   9.727  68.863  1.00  0.00    -0.171 C  
HETATM   19  C   UNL     1      -8.203  10.017  68.807  1.00  0.00    -0.115 C  
BRANCH  18  20
HETATM   20  O   UNL     1     -10.356  10.575  69.815  1.00  0.00    -0.232 OA 
BRANCH  20  21
HETATM   21  C   UNL     1     -11.226   9.994  70.700  1.00  0.00    -0.350 A  
HETATM   22  C   UNL     1     -10.969   8.854  71.466  1.00  0.00    -0.398 A  
HETATM   23  C   UNL     1     -11.915   8.384  72.382  1.00  0.00    -0.451 A  
HETATM   24  C   UNL     1     -13.133   9.040  72.532  1.00  0.00    -0.450 A  
HETATM   25  C   UNL     1     -13.402  10.174  71.769  1.00  0.00    -0.485 A  
HETATM   26  C   UNL     1     -12.447  10.652  70.865  1.00  0.00    -0.495 A  
ENDBRANCH  20  21
ENDBRANCH  18  20
ENDBRANCH  15  18
ENDBRANCH  12  14
TORSDOF 4
ENDMDL
MODEL        2
REMARK 921   NORMALIZED FREE ENERGY PREDICTED BY IDOCK:   -7.16 KCAL/MOL
REMARK 922        TOTAL FREE ENERGY PREDICTED BY IDOCK:   -9.61 KCAL/MOL
REMARK 923 INTER-LIGAND FREE ENERGY PREDICTED BY IDOCK:   -8.82 KCAL/MOL
REMARK 924 INTRA-LIGAND FREE ENERGY PREDICTED BY IDOCK:   -0.79 KCAL/MOL
REMARK 927      BINDING AFFINITY PREDICTED BY RF-SCORE:    0.00 PKD
ROOT
HETATM    1  C   UNL     1     -12.218  13.168  66.185  1.00  0.00    -0.385 C  
HETATM    2  S   UNL     1     -11.611  14.313  67.497  1.00  0.00    -0.381 SA 
HETATM    3  C   UNL     1     -10.246  15.024  66.463  1.00  0.00    -0.275 C  
HETATM    4  CA  UNL     1     -10.655  14.732  64.995  1.00  0.00    -0.429 C  
HETATM    5  C   UNL     1      -8.943  14.296  66.851  1.00  0.00    -0.255 C  
HETATM    6  C   UNL     1     -10.055  16.502  66.822  1.00  0.00    -0.290 C  
HETATM    7  N   UNL     1     -11.393  13.452  64.993  1.00  0.00    -0.305 N  
HETATM    8  C   UNL     1     -11.546  15.804  64.334  1.00  0.00    -0.240 C  
HETATM    9  C   UNL     1     -10.700  12.264  65.079  1.00  0.00    -0.298 C  
HETATM   10  OXT UNL     1     -11.287  16.991  64.276  1.00  0.00    -1.191 OA 
HETATM   11  O   UNL     1     -12.650  15.289  63.728  1.00  0.00    -0.733 OA 
HETATM   12  CA  UNL     1     -11.640  11.728  66.206  1.00  0.00    -0.149 C  
HETATM   13  O   UNL     1      -9.662  11.939  64.550  1.00  0.00    -0.206 OA 
ENDROOT
BRANCH  12  14
HETATM   14  N   UNL     1     -10.995  11.339  67.490  1.00  0.00    -0.247 N  
HETATM   15  C   UNL     1     -10.456  10.093  67.724  1.00  0.00    -0.232 C  
HETATM   16  H   UNL     1     -10.950  12.032  68.236  1.00  0.00     0.000 HD 
HETATM   17  O   UNL     1     -10.529   9.192  66.893  1.00  0.00    -0.253 OA 
BRANCH  15  18
HETATM   18  C   UNL     1      -9.784   9.899  69.105  1.00  0.00    -0.198 C  
HETATM   19  C   UNL     1      -8.299  10.272  69.043  1.00  0.00    -0.148 C  
BRANCH  18  20
HETATM   20  O   UNL     1     -10.479  10.721  70.048  1.00  0.00    -0.125 OA 
BRANCH  20  21
HETATM   21  C   UNL     1     -11.418  10.122  70.847  1.00  0.00    -0.360 A  
HETATM   22  C   UNL     1     -12.744  10.536  70.999  1.00  0.00    -0.504 A  
HETATM   23  C   UNL     1     -13.629   9.809  71.800  1.00  0.00    -0.397 A  
HETATM   24  C   UNL     1     -13.195   8.669  72.469  1.00  0.00    -0.340 A  
HETATM   25  C   UNL     1     -11.874   8.251  72.331  1.00  0.00    -0.461 A  
HETATM   26  C   UNL     1     -10.994   8.970  71.514  1.00  0.00    -0.418 A  
ENDBRANCH  20  21
ENDBRANCH  18  20
ENDBRANCH  15  18
ENDBRANCH  12  14
TORSDOF 4
ENDMDL
MODEL        3
REMARK 921   NORMALIZED FREE ENERGY PREDICTED BY IDOCK:   -6.89 KCAL/MOL
REMARK 922        TOTAL FREE ENERGY PREDICTED BY IDOCK:   -9.28 KCAL/MOL
REMARK 923 INTER-LIGAND FREE ENERGY PREDICTED BY IDOCK:   -8.44 KCAL/MOL
REMARK 924 INTRA-LIGAND FREE ENERGY PREDICTED BY IDOCK:   -0.84 KCAL/MOL
REMARK 927      BINDING AFFINITY PREDICTED BY RF-SCORE:    0.00 PKD
ROOT
HETATM    1  C   UNL     1      -9.927  13.549  65.056  1.00  0.00    -0.166 C  
HETATM    2  S   UNL     1      -9.107  12.616  66.419  1.00  0.00    -0.038 SA 
HETATM    3  C   UNL     1     -10.104  11.073  66.171  1.00  0.00    -0.237 C  
HETATM    4  CA  UNL     1     -10.644  11.167  64.721  1.00  0.00    -0.303 C  
HETATM    5  C   UNL     1     -11.245  11.087  67.209  1.00  0.00    -0.330 C  
HETATM    6  C   UNL     1      -9.232   9.852  66.483  1.00  0.00    -0.190 C  
HETATM    7  N   UNL     1     -10.866  12.598  64.428  1.00  0.00    -0.332 N  
HETATM    8  C   UNL     1      -9.713  10.591  63.633  1.00  0.00    -0.318 C  
HETATM    9  C   UNL     1     -11.984  13.231  64.927  1.00  0.00    -0.378 C  
HETATM   10  OXT UNL     1      -9.240   9.470  63.638  1.00  0.00    -0.206 OA 
HETATM   11  O   UNL     1      -9.516  11.438  62.587  1.00  0.00    -0.344 OA 
HETATM   12  CA  UNL     1     -11.137  14.433  65.457  1.00  0.00    -0.326 C  
HETATM   13  O   UNL     1     -13.121  12.829  65.017  1.00  0.00    -0.811 OA 
ENDROOT
BRANCH  12  14
HETATM   14  N   UNL     1     -11.232  14.730  66.913  1.00  0.00    -0.340 N  
HETATM   15  C   UNL     1     -10.572  15.776  67.521  1.00  0.00    -0.309 C  
HETATM   16  H   UNL     1     -11.815  14.126  67.491  1.00  0.00     0.000 HD 
HETATM   17  O   UNL     1      -9.806  16.506  66.898  1.00  0.00    -0.242 OA 
BRANCH  15  18
HETATM   18  C   UNL     1     -10.839  15.949  69.036  1.00  0.00    -0.266 C  
HETATM   19  C   UNL     1     -10.375  17.328  69.515  1.00  0.00    -0.068 C  
BRANCH  18  20
HETATM   20  O   UNL     1     -12.243  15.777  69.255  1.00  0.00    -0.298 OA 
BRANCH  20  21
HETATM   21  C   UNL     1     -12.634  15.037  70.340  1.00  0.00    -0.350 A  
HETATM   22  C   UNL     1     -13.311  15.526  71.459  1.00  0.00    -0.593 A  
HETATM   23  C   UNL     1     -13.712  14.662  72.483  1.00  0.00    -0.572 A  
HETATM   24  C   UNL     1     -13.428  13.301  72.404  1.00  0.00    -0.670 A  
HETATM   25  C   UNL     1     -12.748  12.804  71.296  1.00  0.00    -0.364 A  
HETATM   26  C   UNL     1     -12.363  13.668  70.264  1.00  0.00    -0.392 A  
ENDBRANCH  20  21
ENDBRANCH  18  20
ENDBRANCH  15  18
ENDBRANCH  12  14
TORSDOF 4
ENDMDL
MODEL        4
REMARK 921   NORMALIZED FREE ENERGY PREDICTED BY IDOCK:   -6.80 KCAL/MOL
REMARK 922        TOTAL FREE ENERGY PREDICTED BY IDOCK:   -9.16 KCAL/MOL
REMARK 923 INTER-LIGAND FREE ENERGY PREDICTED BY IDOCK:   -8.78 KCAL/MOL
REMARK 924 INTRA-LIGAND FREE ENERGY PREDICTED BY IDOCK:   -0.39 KCAL/MOL
REMARK 927      BINDING AFFINITY PREDICTED BY RF-SCORE:    0.00 PKD
ROOT
HETATM    1  C   UNL     1      -8.644  16.392  66.311  1.00  0.00    -0.340 C  
HETATM    2  S   UNL     1     -10.101  17.523  66.268  1.00  0.00    -0.315 SA 
HETATM    3  C   UNL     1      -9.251  18.904  67.167  1.00  0.00    -0.290 C  
HETATM    4  CA  UNL     1      -7.735  18.632  66.989  1.00  0.00    -0.228 C  
HETATM    5  C   UNL     1      -9.678  18.824  68.647  1.00  0.00    -0.437 C  
HETATM    6  C   UNL     1      -9.759  20.246  66.628  1.00  0.00    -0.550 C  
HETATM    7  N   UNL     1      -7.556  17.166  66.941  1.00  0.00    -0.185 N  
HETATM    8  C   UNL     1      -7.103  19.237  65.717  1.00  0.00    -0.279 C  
HETATM    9  C   UNL     1      -7.589  16.436  68.109  1.00  0.00    -0.155 C  
HETATM   10  OXT UNL     1      -7.175  20.406  65.388  1.00  0.00    -0.258 OA 
HETATM   11  O   UNL     1      -6.364  18.345  65.005  1.00  0.00    -0.393 OA 
HETATM   12  CA  UNL     1      -8.582  15.395  67.499  1.00  0.00    -0.174 C  
HETATM   13  O   UNL     1      -7.121  16.697  69.194  1.00  0.00    -0.213 OA 
ENDROOT
BRANCH  12  14
HETATM   14  N   UNL     1      -9.873  15.200  68.212  1.00  0.00    -0.219 N  
HETATM   15  C   UNL     1     -10.783  14.218  67.886  1.00  0.00    -0.240 C  
HETATM   16  H   UNL     1     -10.097  15.828  68.985  1.00  0.00     0.000 HD 
HETATM   17  O   UNL     1     -10.608  13.467  66.931  1.00  0.00    -0.268 OA 
BRANCH  15  18
HETATM   18  C   UNL     1     -12.045  14.146  68.780  1.00  0.00    -0.291 C  
HETATM   19  C   UNL     1     -11.841  13.154  69.928  1.00  0.00    -0.378 C  
BRANCH  18  20
HETATM   20  O   UNL     1     -12.301  15.463  69.281  1.00  0.00    -0.226 OA 
BRANCH  20  21
HETATM   21  C   UNL     1     -12.673  15.586  70.594  1.00  0.00    -0.436 A  
HETATM   22  C   UNL     1     -13.913  15.226  71.127  1.00  0.00    -0.462 A  
HETATM   23  C   UNL     1     -14.160  15.344  72.498  1.00  0.00    -0.593 A  
HETATM   24  C   UNL     1     -13.175  15.836  73.349  1.00  0.00    -0.653 A  
HETATM   25  C   UNL     1     -11.937  16.205  72.827  1.00  0.00    -0.638 A  
HETATM   26  C   UNL     1     -11.686  16.069  71.456  1.00  0.00    -0.554 A  
ENDBRANCH  20  21
ENDBRANCH  18  20
ENDBRANCH  15  18
ENDBRANCH  12  14
TORSDOF 4
ENDMDL
MODEL        5
REMARK 921   NORMALIZED FREE ENERGY PREDICTED BY IDOCK:   -6.75 KCAL/MOL
REMARK 922        TOTAL FREE ENERGY PREDICTED BY IDOCK:   -9.11 KCAL/MOL
REMARK 923 INTER-LIGAND FREE ENERGY PREDICTED BY IDOCK:   -8.35 KCAL/MOL
REMARK 924 INTRA-LIGAND FREE ENERGY PREDICTED BY IDOCK:   -0.76 KCAL/MOL
REMARK 927      BINDING AFFINITY PREDICTED BY RF-SCORE:    0.00 PKD
ROOT
HETATM    1  C   UNL     1     -11.161  15.974  68.099  1.00  0.00    -0.344 C  
HETATM    2  S   UNL     1      -9.748  15.637  69.235  1.00  0.00    -0.284 SA 
HETATM    3  C   UNL     1      -8.451  16.219  68.046  1.00  0.00    -0.174 C  
HETATM    4  CA  UNL     1      -9.201  17.134  67.043  1.00  0.00    -0.241 C  
HETATM    5  C   UNL     1      -7.863  14.972  67.354  1.00  0.00    -0.226 C  
HETATM    6  C   UNL     1      -7.307  16.877  68.826  1.00  0.00    -0.227 C  
HETATM    7  N   UNL     1     -10.569  16.594  66.897  1.00  0.00    -0.274 N  
HETATM    8  C   UNL     1      -9.309  18.617  67.457  1.00  0.00    -0.283 C  
HETATM    9  C   UNL     1     -10.784  15.485  66.108  1.00  0.00    -0.313 C  
HETATM   10  OXT UNL     1      -8.371  19.326  67.770  1.00  0.00    -0.286 OA 
HETATM   11  O   UNL     1     -10.573  19.111  67.368  1.00  0.00    -0.433 OA 
HETATM   12  CA  UNL     1     -11.635  14.788  67.218  1.00  0.00    -0.369 C  
HETATM   13  O   UNL     1     -10.301  15.196  65.037  1.00  0.00    -0.383 OA 
ENDROOT
BRANCH  12  14
HETATM   14  N   UNL     1     -11.170  13.451  67.678  1.00  0.00    -0.265 N  
HETATM   15  C   UNL     1     -11.506  12.271  67.051  1.00  0.00    -0.354 C  
HETATM   16  H   UNL     1     -10.571  13.406  68.503  1.00  0.00     0.000 HD 
HETATM   17  O   UNL     1     -12.272  12.245  66.091  1.00  0.00    -0.647 OA 
BRANCH  15  18
HETATM   18  C   UNL     1     -10.882  10.988  67.653  1.00  0.00    -0.256 C  
HETATM   19  C   UNL     1      -9.638  10.569  66.864  1.00  0.00    -0.206 C  
BRANCH  18  20
HETATM   20  O   UNL     1     -10.554  11.261  69.019  1.00  0.00    -0.209 OA 
BRANCH  20  21
HETATM   21  C   UNL     1     -11.318  10.668  69.990  1.00  0.00    -0.324 A  
HETATM   22  C   UNL     1     -11.184   9.354  70.443  1.00  0.00    -0.309 A  
HETATM   23  C   UNL     1     -11.985   8.874  71.484  1.00  0.00    -0.401 A  
HETATM   24  C   UNL     1     -12.938   9.700  72.073  1.00  0.00    -0.518 A  
HETATM   25  C   UNL     1     -13.085  11.010  71.625  1.00  0.00    -0.543 A  
HETATM   26  C   UNL     1     -12.270  11.493  70.595  1.00  0.00    -0.473 A  
ENDBRANCH  20  21
ENDBRANCH  18  20
ENDBRANCH  15  18
ENDBRANCH  12  14
TORSDOF 4
ENDMDL
MODEL        6
REMARK 921   NORMALIZED FREE ENERGY PREDICTED BY IDOCK:   -6.74 KCAL/MOL
REMARK 922        TOTAL FREE ENERGY PREDICTED BY IDOCK:   -9.10 KCAL/MOL
REMARK 923 INTER-LIGAND FREE ENERGY PREDICTED BY IDOCK:   -8.30 KCAL/MOL
REMARK 924 INTRA-LIGAND FREE ENERGY PREDICTED BY IDOCK:   -0.80 KCAL/MOL
REMARK 927      BINDING AFFINITY PREDICTED BY RF-SCORE:    0.00 PKD
ROOT
HETATM    1  C   UNL     1      -9.105  11.893  66.737  1.00  0.00    -0.197 C  
HETATM    2  S   UNL     1      -8.978  11.372  68.501  1.00  0.00    -0.130 SA 
HETATM    3  C   UNL     1     -10.491  10.302  68.455  1.00  0.00    -0.192 C  
HETATM    4  CA  UNL     1     -10.716   9.980  66.955  1.00  0.00    -0.178 C  
HETATM    5  C   UNL     1     -11.656  11.122  69.046  1.00  0.00    -0.392 C  
HETATM    6  C   UNL     1     -10.285   9.094  69.376  1.00  0.00    -0.212 C  
HETATM    7  N   UNL     1     -10.256  11.152  66.182  1.00  0.00    -0.237 N  
HETATM    8  C   UNL     1      -9.971   8.734  66.430  1.00  0.00    -0.275 C  
HETATM    9  C   UNL     1     -11.054  12.272  66.102  1.00  0.00    -0.311 C  
HETATM   10  OXT UNL     1     -10.031   7.623  66.923  1.00  0.00    -0.210 OA 
HETATM   11  O   UNL     1      -9.276   8.963  65.284  1.00  0.00    -0.189 OA 
HETATM   12  CA  UNL     1      -9.864  13.219  66.463  1.00  0.00    -0.281 C  
HETATM   13  O   UNL     1     -12.253  12.355  65.966  1.00  0.00    -0.636 OA 
ENDROOT
BRANCH  12  14
HETATM   14  N   UNL     1     -10.037  14.090  67.657  1.00  0.00    -0.239 N  
HETATM   15  C   UNL     1     -10.507  15.384  67.593  1.00  0.00    -0.272 C  
HETATM   16  H   UNL     1      -9.796  13.709  68.571  1.00  0.00     0.000 HD 
HETATM   17  O   UNL     1     -10.760  15.927  66.521  1.00  0.00    -0.309 OA 
BRANCH  15  18
HETATM   18  C   UNL     1     -10.665  16.110  68.952  1.00  0.00    -0.280 C  
HETATM   19  C   UNL     1     -10.296  17.591  68.821  1.00  0.00    -0.358 C  
BRANCH  18  20
HETATM   20  O   UNL     1     -12.024  15.955  69.373  1.00  0.00    -0.354 OA 
BRANCH  20  21
HETATM   21  C   UNL     1     -12.251  15.586  70.673  1.00  0.00    -0.402 A  
HETATM   22  C   UNL     1     -11.737  16.224  71.804  1.00  0.00    -0.504 A  
HETATM   23  C   UNL     1     -12.086  15.790  73.087  1.00  0.00    -0.603 A  
HETATM   24  C   UNL     1     -12.942  14.706  73.252  1.00  0.00    -0.569 A  
HETATM   25  C   UNL     1     -13.456  14.058  72.132  1.00  0.00    -0.567 A  
HETATM   26  C   UNL     1     -13.119  14.505  70.849  1.00  0.00    -0.405 A  
ENDBRANCH  20  21
ENDBRANCH  18  20
ENDBRANCH  15  18
ENDBRANCH  12  14
TORSDOF 4
ENDMDL
MODEL        7
REMARK 921   NORMALIZED FREE ENERGY PREDICTED BY IDOCK:   -6.70 KCAL/MOL
REMARK 922        TOTAL FREE ENERGY PREDICTED BY IDOCK:   -9.05 KCAL/MOL
REMARK 923 INTER-LIGAND FREE ENERGY PREDICTED BY IDOCK:   -8.35 KCAL/MOL
REMARK 924 INTRA-LIGAND FREE ENERGY PREDICTED BY IDOCK:   -0.69 KCAL/MOL
REMARK 927      BINDING AFFINITY PREDICTED BY RF-SCORE:    0.00 PKD
ROOT
HETATM    1  C   UNL     1     -11.948  14.902  67.072  1.00  0.00    -0.107 C  
HETATM    2  S   UNL     1     -11.546  15.874  68.587  1.00  0.00    -0.317 SA 
HETATM    3  C   UNL     1      -9.770  16.146  68.129  1.00  0.00    -0.222 C  
HETATM    4  CA  UNL     1      -9.709  15.933  66.594  1.00  0.00    -0.253 C  
HETATM    5  C   UNL     1      -8.931  15.098  68.887  1.00  0.00    -0.206 C  
HETATM    6  C   UNL     1      -9.323  17.523  68.631  1.00  0.00    -0.277 C  
HETATM    7  N   UNL     1     -10.718  14.908  66.254  1.00  0.00    -0.312 N  
HETATM    8  C   UNL     1      -9.991  17.189  65.742  1.00  0.00    -0.119 C  
HETATM    9  C   UNL     1     -10.446  13.578  66.489  1.00  0.00    -0.284 C  
HETATM   10  OXT UNL     1      -9.417  18.255  65.857  1.00  0.00    -0.508 OA 
HETATM   11  O   UNL     1     -10.913  16.982  64.764  1.00  0.00    -0.835 OA 
HETATM   12  CA  UNL     1     -11.826  13.360  67.191  1.00  0.00    -0.382 C  
HETATM   13  O   UNL     1      -9.419  12.961  66.325  1.00  0.00    -0.254 OA 
ENDROOT
BRANCH  12  14
HETATM   14  N   UNL     1     -11.795  12.847  68.588  1.00  0.00    -0.319 N  
HETATM   15  C   UNL     1     -11.803  11.507  68.908  1.00  0.00    -0.341 C  
HETATM   16  H   UNL     1     -11.767  13.525  69.349  1.00  0.00     0.000 HD 
HETATM   17  O   UNL     1     -11.898  10.638  68.045  1.00  0.00    -0.494 OA 
BRANCH  15  18
HETATM   18  C   UNL     1     -11.716  11.175  70.417  1.00  0.00    -0.320 C  
HETATM   19  C   UNL     1     -12.677  12.054  71.223  1.00  0.00    -0.382 C  
BRANCH  18  20
HETATM   20  O   UNL     1     -12.032   9.788  70.578  1.00  0.00    -0.261 OA 
BRANCH  20  21
HETATM   21  C   UNL     1     -11.275   9.058  71.457  1.00  0.00    -0.348 A  
HETATM   22  C   UNL     1     -11.767   8.169  72.414  1.00  0.00    -0.461 A  
HETATM   23  C   UNL     1     -10.893   7.433  73.219  1.00  0.00    -0.417 A  
HETATM   24  C   UNL     1      -9.516   7.589  73.085  1.00  0.00    -0.272 A  
HETATM   25  C   UNL     1      -9.014   8.478  72.138  1.00  0.00    -0.300 A  
HETATM   26  C   UNL     1      -9.891   9.201  71.321  1.00  0.00    -0.363 A  
ENDBRANCH  20  21
ENDBRANCH  18  20
ENDBRANCH  15  18
ENDBRANCH  12  14
TORSDOF 4
ENDMDL
MODEL        8
REMARK 921   NORMALIZED FREE ENERGY PREDICTED BY IDOCK:   -6.65 KCAL/MOL
REMARK 922        TOTAL FREE ENERGY PREDICTED BY IDOCK:   -8.98 KCAL/MOL
REMARK 923 INTER-LIGAND FREE ENERGY PREDICTED BY IDOCK:   -8.28 KCAL/MOL
REMARK 924 INTRA-LIGAND FREE ENERGY PREDICTED BY IDOCK:   -0.71 KCAL/MOL
REMARK 927      BINDING AFFINITY PREDICTED BY RF-SCORE:    0.00 PKD
ROOT
HETATM    1  C   UNL     1      -9.062  14.065  66.831  1.00  0.00    -0.248 C  
HETATM    2  S   UNL     1     -10.048  13.043  65.654  1.00  0.00    -0.238 SA 
HETATM    3  C   UNL     1     -11.572  14.092  65.778  1.00  0.00    -0.343 C  
HETATM    4  CA  UNL     1     -11.078  15.465  66.304  1.00  0.00    -0.226 C  
HETATM    5  C   UNL     1     -12.526  13.406  66.777  1.00  0.00    -0.162 C  
HETATM    6  C   UNL     1     -12.285  14.112  64.422  1.00  0.00    -0.466 C  
HETATM    7  N   UNL     1      -9.928  15.205  67.194  1.00  0.00    -0.235 N  
HETATM    8  C   UNL     1     -10.630  16.464  65.216  1.00  0.00    -0.299 C  
HETATM    9  C   UNL     1     -10.146  14.749  68.476  1.00  0.00    -0.230 C  
HETATM   10  OXT UNL     1     -11.300  16.803  64.259  1.00  0.00    -1.170 OA 
HETATM   11  O   UNL     1      -9.412  17.018  65.461  1.00  0.00    -0.496 OA 
HETATM   12  CA  UNL     1      -9.081  13.615  68.316  1.00  0.00    -0.193 C  
HETATM   13  O   UNL     1     -10.995  15.073  69.274  1.00  0.00    -0.241 OA 
ENDROOT
BRANCH  12  14
HETATM   14  N   UNL     1      -9.549  12.219  68.534  1.00  0.00    -0.351 N  
HETATM   15  C   UNL     1      -8.709  11.177  68.864  1.00  0.00    -0.080 C  
HETATM   16  H   UNL     1     -10.545  12.023  68.435  1.00  0.00     0.000 HD 
HETATM   17  O   UNL     1      -7.493  11.328  68.940  1.00  0.00    -0.112 OA 
BRANCH  15  18
HETATM   18  C   UNL     1      -9.395   9.809  69.099  1.00  0.00    -0.182 C  
HETATM   19  C   UNL     1      -8.601   8.683  68.431  1.00  0.00    -0.135 C  
BRANCH  18  20
HETATM   20  O   UNL     1      -9.487   9.604  70.512  1.00  0.00    -0.256 OA 
BRANCH  20  21
HETATM   21  C   UNL     1     -10.732   9.407  71.050  1.00  0.00    -0.337 A  
HETATM   22  C   UNL     1     -11.120   8.316  71.830  1.00  0.00    -0.357 A  
HETATM   23  C   UNL     1     -12.406   8.251  72.375  1.00  0.00    -0.385 A  
HETATM   24  C   UNL     1     -13.322   9.270  72.134  1.00  0.00    -0.537 A  
HETATM   25  C   UNL     1     -12.948  10.360  71.351  1.00  0.00    -0.545 A  
HETATM   26  C   UNL     1     -11.655  10.431  70.821  1.00  0.00    -0.450 A  
ENDBRANCH  20  21
ENDBRANCH  18  20
ENDBRANCH  15  18
ENDBRANCH  12  14
TORSDOF 4
ENDMDL
MODEL        9
REMARK 921   NORMALIZED FREE ENERGY PREDICTED BY IDOCK:   -6.46 KCAL/MOL
REMARK 922        TOTAL FREE ENERGY PREDICTED BY IDOCK:   -8.75 KCAL/MOL
REMARK 923 INTER-LIGAND FREE ENERGY PREDICTED BY IDOCK:   -8.07 KCAL/MOL
REMARK 924 INTRA-LIGAND FREE ENERGY PREDICTED BY IDOCK:   -0.68 KCAL/MOL
REMARK 927      BINDING AFFINITY PREDICTED BY RF-SCORE:    0.00 PKD
ROOT
HETATM    1  C   UNL     1     -12.226  13.572  66.319  1.00  0.00    -0.416 C  
HETATM    2  S   UNL     1     -11.382  14.621  67.580  1.00  0.00    -0.360 SA 
HETATM    3  C   UNL     1     -10.099  15.268  66.407  1.00  0.00    -0.274 C  
HETATM    4  CA  UNL     1     -10.700  15.059  64.993  1.00  0.00    -0.427 C  
HETATM    5  C   UNL     1      -8.819  14.432  66.615  1.00  0.00    -0.188 C  
HETATM    6  C   UNL     1      -9.754  16.713  66.782  1.00  0.00    -0.271 C  
HETATM    7  N   UNL     1     -11.529  13.837  65.045  1.00  0.00    -0.321 N  
HETATM    8  C   UNL     1     -11.578  16.217  64.473  1.00  0.00    -0.164 C  
HETATM    9  C   UNL     1     -10.924  12.600  65.013  1.00  0.00    -0.289 C  
HETATM   10  OXT UNL     1     -11.238  17.383  64.418  1.00  0.00    -0.978 OA 
HETATM   11  O   UNL     1     -12.783  15.806  63.992  1.00  0.00    -0.604 OA 
HETATM   12  CA  UNL     1     -11.762  12.093  66.231  1.00  0.00    -0.320 C  
HETATM   13  O   UNL     1      -9.983  12.219  64.355  1.00  0.00    -0.270 OA 
ENDROOT
BRANCH  12  14
HETATM   14  N   UNL     1     -11.001  11.612  67.416  1.00  0.00    -0.245 N  
HETATM   15  C   UNL     1     -10.539  10.321  67.551  1.00  0.00    -0.268 C  
HETATM   16  H   UNL     1     -10.812  12.273  68.169  1.00  0.00     0.000 HD 
HETATM   17  O   UNL     1     -10.782   9.457  66.713  1.00  0.00    -0.175 OA 
BRANCH  15  18
HETATM   18  C   UNL     1      -9.724  10.028  68.835  1.00  0.00    -0.181 C  
HETATM   19  C   UNL     1      -8.621  11.074  69.027  1.00  0.00    -0.076 C  
BRANCH  18  20
HETATM   20  O   UNL     1     -10.634  10.034  69.940  1.00  0.00    -0.244 OA 
BRANCH  20  21
HETATM   21  C   UNL     1     -10.780   8.873  70.653  1.00  0.00    -0.234 A  
HETATM   22  C   UNL     1     -10.920   8.780  72.039  1.00  0.00    -0.438 A  
HETATM   23  C   UNL     1     -11.122   7.540  72.653  1.00  0.00    -0.398 A  
HETATM   24  C   UNL     1     -11.173   6.379  71.888  1.00  0.00    -0.325 A  
HETATM   25  C   UNL     1     -11.027   6.459  70.505  1.00  0.00    -0.364 A  
HETATM   26  C   UNL     1     -10.843   7.703  69.891  1.00  0.00    -0.241 A  
ENDBRANCH  20  21
ENDBRANCH  18  20
ENDBRANCH  15  18
ENDBRANCH  12  14
TORSDOF 4
ENDMDL
MODEL       10
REMARK 921   NORMALIZED FREE ENERGY PREDICTED BY IDOCK:   -6.44 KCAL/MOL
REMARK 922        TOTAL FREE ENERGY PREDICTED BY IDOCK:   -8.73 KCAL/MOL
REMARK 923 INTER-LIGAND FREE ENERGY PREDICTED BY IDOCK:   -8.14 KCAL/MOL
REMARK 924 INTRA-LIGAND FREE ENERGY PREDICTED BY IDOCK:   -0.59 KCAL/MOL
REMARK 927      BINDING AFFINITY PREDICTED BY RF-SCORE:    0.00 PKD
ROOT
HETATM    1  C   UNL     1     -10.465  16.992  68.564  1.00  0.00    -0.373 C  
HETATM    2  S   UNL     1      -8.985  16.168  69.295  1.00  0.00    -0.134 SA 
HETATM    3  C   UNL     1      -7.809  16.788  68.004  1.00  0.00    -0.176 C  
HETATM    4  CA  UNL     1      -8.507  18.023  67.378  1.00  0.00    -0.240 C  
HETATM    5  C   UNL     1      -7.615  15.657  66.973  1.00  0.00    -0.245 C  
HETATM    6  C   UNL     1      -6.442  17.046  68.646  1.00  0.00    -0.172 C  
HETATM    7  N   UNL     1      -9.962  17.768  67.413  1.00  0.00    -0.311 N  
HETATM    8  C   UNL     1      -8.236  19.365  68.091  1.00  0.00    -0.324 C  
HETATM    9  C   UNL     1     -10.530  16.926  66.481  1.00  0.00    -0.253 C  
HETATM   10  OXT UNL     1      -7.133  19.815  68.339  1.00  0.00    -0.289 OA 
HETATM   11  O   UNL     1      -9.366  20.070  68.364  1.00  0.00    -0.278 OA 
HETATM   12  CA  UNL     1     -11.313  16.140  67.583  1.00  0.00    -0.064 C  
HETATM   13  O   UNL     1     -10.300  16.819  65.299  1.00  0.00    -0.622 OA 
ENDROOT
BRANCH  12  14
HETATM   14  N   UNL     1     -11.067  14.674  67.663  1.00  0.00    -0.293 N  
HETATM   15  C   UNL     1     -11.725  13.839  68.540  1.00  0.00    -0.356 C  
HETATM   16  H   UNL     1     -10.374  14.266  67.036  1.00  0.00     0.000 HD 
HETATM   17  O   UNL     1     -12.528  14.270  69.363  1.00  0.00    -0.263 OA 
BRANCH  15  18
HETATM   18  C   UNL     1     -11.366  12.337  68.435  1.00  0.00    -0.292 C  
HETATM   19  C   UNL     1     -11.741  11.598  69.724  1.00  0.00    -0.425 C  
BRANCH  18  20
HETATM   20  O   UNL     1     -12.069  11.797  67.312  1.00  0.00    -0.595 OA 
BRANCH  20  21
HETATM   21  C   UNL     1     -11.467  11.874  66.083  1.00  0.00    -0.288 A  
HETATM   22  C   UNL     1     -10.219  11.341  65.752  1.00  0.00    -0.301 A  
HETATM   23  C   UNL     1      -9.730  11.431  64.446  1.00  0.00    -0.266 A  
HETATM   24  C   UNL     1     -10.477  12.068  63.459  1.00  0.00    -0.505 A  
HETATM   25  C   UNL     1     -11.720  12.609  63.779  1.00  0.00    -0.566 A  
HETATM   26  C   UNL     1     -12.215  12.502  65.084  1.00  0.00    -0.509 A  
ENDBRANCH  20  21
ENDBRANCH  18  20
ENDBRANCH  15  18
ENDBRANCH  12  14
TORSDOF 4
ENDMDL
MODEL       11
REMARK 921   NORMALIZED FREE ENERGY PREDICTED BY IDOCK:   -6.43 KCAL/MOL
REMARK 922        TOTAL FREE ENERGY PREDICTED BY IDOCK:   -8.71 KCAL/MOL
REMARK 923 INTER-LIGAND FREE ENERGY PREDICTED BY IDOCK:   -7.99 KCAL/MOL
REMARK 924 INTRA-LIGAND FREE ENERGY PREDICTED BY IDOCK:   -0.72 KCAL/MOL
REMARK 927      BINDING AFFINITY PREDICTED BY RF-SCORE:    0.00 PKD
ROOT
HETATM    1  C   UNL     1     -10.604  16.040  68.103  1.00  0.00    -0.286 C  
HETATM    2  S   UNL     1      -9.268  15.609  69.300  1.00  0.00    -0.274 SA 
HETATM    3  C   UNL     1      -8.183  14.797  68.035  1.00  0.00    -0.142 C  
HETATM    4  CA  UNL     1      -8.657  15.363  66.671  1.00  0.00    -0.283 C  
HETATM    5  C   UNL     1      -8.414  13.276  68.135  1.00  0.00    -0.173 C  
HETATM    6  C   UNL     1      -6.714  15.050  68.391  1.00  0.00    -0.111 C  
HETATM    7  N   UNL     1     -10.109  15.611  66.780  1.00  0.00    -0.265 N  
HETATM    8  C   UNL     1      -7.975  16.676  66.231  1.00  0.00    -0.305 C  
HETATM    9  C   UNL     1     -10.990  14.555  66.691  1.00  0.00    -0.321 C  
HETATM   10  OXT UNL     1      -6.773  16.850  66.156  1.00  0.00    -0.135 OA 
HETATM   11  O   UNL     1      -8.855  17.638  65.843  1.00  0.00    -0.521 OA 
HETATM   12  CA  UNL     1     -11.764  15.018  67.968  1.00  0.00    -0.298 C  
HETATM   13  O   UNL     1     -10.968  13.594  65.958  1.00  0.00    -0.286 OA 
ENDROOT
BRANCH  12  14
HETATM   14  N   UNL     1     -11.860  14.040  69.086  1.00  0.00    -0.329 N  
HETATM   15  C   UNL     1     -12.527  14.293  70.265  1.00  0.00    -0.361 C  
HETATM   16  H   UNL     1     -11.407  13.133  68.973  1.00  0.00     0.000 HD 
HETATM   17  O   UNL     1     -13.043  15.384  70.493  1.00  0.00    -0.385 OA 
BRANCH  15  18
HETATM   18  C   UNL     1     -12.557  13.129  71.285  1.00  0.00    -0.290 C  
HETATM   19  C   UNL     1     -13.463  13.471  72.472  1.00  0.00    -0.660 C  
BRANCH  18  20
HETATM   20  O   UNL     1     -13.026  11.962  70.602  1.00  0.00    -0.043 OA 
BRANCH  20  21
HETATM   21  C   UNL     1     -12.559  10.745  71.023  1.00  0.00    -0.420 A  
HETATM   22  C   UNL     1     -13.241   9.852  71.853  1.00  0.00    -0.558 A  
HETATM   23  C   UNL     1     -12.687   8.608  72.170  1.00  0.00    -0.447 A  
HETATM   24  C   UNL     1     -11.439   8.249  71.670  1.00  0.00    -0.333 A  
HETATM   25  C   UNL     1     -10.747   9.133  70.846  1.00  0.00    -0.343 A  
HETATM   26  C   UNL     1     -11.311  10.371  70.517  1.00  0.00    -0.424 A  
ENDBRANCH  20  21
ENDBRANCH  18  20
ENDBRANCH  15  18
ENDBRANCH  12  14
TORSDOF 4
ENDMDL
MODEL       12
REMARK 921   NORMALIZED FREE ENERGY PREDICTED BY IDOCK:   -6.37 KCAL/MOL
REMARK 922        TOTAL FREE ENERGY PREDICTED BY IDOCK:   -8.64 KCAL/MOL
REMARK 923 INTER-LIGAND FREE ENERGY PREDICTED BY IDOCK:   -7.98 KCAL/MOL
REMARK 924 INTRA-LIGAND FREE ENERGY PREDICTED BY IDOCK:   -0.66 KCAL/MOL
REMARK 927      BINDING AFFINITY PREDICTED BY RF-SCORE:    0.00 PKD
ROOT
HETATM    1  C   UNL     1     -11.839   6.758  71.933  1.00  0.00    -0.326 C  
HETATM    2  S   UNL     1     -11.339   6.689  70.160  1.00  0.00    -0.388 SA 
HETATM    3  C   UNL     1      -9.631   6.057  70.505  1.00  0.00    -0.169 C  
HETATM    4  CA  UNL     1      -9.709   5.429  71.922  1.00  0.00    -0.163 C  
HETATM    5  C   UNL     1      -8.673   7.265  70.466  1.00  0.00    -0.148 C  
HETATM    6  C   UNL     1      -9.203   5.111  69.377  1.00  0.00    -0.155 C  
HETATM    7  N   UNL     1     -10.697   6.212  72.693  1.00  0.00    -0.218 N  
HETATM    8  C   UNL     1     -10.132   3.946  71.962  1.00  0.00    -0.149 C  
HETATM    9  C   UNL     1     -10.340   7.438  73.213  1.00  0.00    -0.355 C  
HETATM   10  OXT UNL     1      -9.601   3.049  71.334  1.00  0.00    -0.140 OA 
HETATM   11  O   UNL     1     -11.134   3.694  72.848  1.00  0.00    -0.060 OA 
HETATM   12  CA  UNL     1     -11.633   8.116  72.655  1.00  0.00    -0.375 C  
HETATM   13  O   UNL     1      -9.305   7.780  73.737  1.00  0.00    -0.280 OA 
ENDROOT
BRANCH  12  14
HETATM   14  N   UNL     1     -11.442   9.278  71.745  1.00  0.00    -0.384 N  
HETATM   15  C   UNL     1     -12.361  10.296  71.607  1.00  0.00    -0.349 C  
HETATM   16  H   UNL     1     -10.586   9.323  71.193  1.00  0.00     0.000 HD 
HETATM   17  O   UNL     1     -13.439  10.277  72.194  1.00  0.00    -0.401 OA 
BRANCH  15  18
HETATM   18  C   UNL     1     -11.956  11.442  70.648  1.00  0.00    -0.314 C  
HETATM   19  C   UNL     1     -11.794  10.920  69.217  1.00  0.00    -0.395 C  
BRANCH  18  20
HETATM   20  O   UNL     1     -12.973  12.447  70.715  1.00  0.00    -0.071 OA 
BRANCH  20  21
HETATM   21  C   UNL     1     -12.669  13.623  71.348  1.00  0.00    -0.352 A  
HETATM   22  C   UNL     1     -11.790  14.600  70.876  1.00  0.00    -0.372 A  
HETATM   23  C   UNL     1     -11.602  15.791  71.583  1.00  0.00    -0.537 A  
HETATM   24  C   UNL     1     -12.279  16.012  72.779  1.00  0.00    -0.617 A  
HETATM   25  C   UNL     1     -13.153  15.041  73.263  1.00  0.00    -0.607 A  
HETATM   26  C   UNL     1     -13.353  13.857  72.544  1.00  0.00    -0.656 A  
ENDBRANCH  20  21
ENDBRANCH  18  20
ENDBRANCH  15  18
ENDBRANCH  12  14
TORSDOF 4
ENDMDL
MODEL       13
REMARK 921   NORMALIZED FREE ENERGY PREDICTED BY IDOCK:   -6.36 KCAL/MOL
REMARK 922        TOTAL FREE ENERGY PREDICTED BY IDOCK:   -8.62 KCAL/MOL
REMARK 923 INTER-LIGAND FREE ENERGY PREDICTED BY IDOCK:   -8.08 KCAL/MOL
REMARK 924 INTRA-LIGAND FREE ENERGY PREDICTED BY IDOCK:   -0.54 KCAL/MOL
REMARK 927      BINDING AFFINITY PREDICTED BY RF-SCORE:    0.00 PKD
ROOT
HETATM    1  C   UNL     1     -10.489  11.798  67.329  1.00  0.00    -0.214 C  
HETATM    2  S   UNL     1     -11.853  12.561  66.349  1.00  0.00    -0.322 SA 
HETATM    3  C   UNL     1     -10.789  12.955  64.884  1.00  0.00    -0.308 C  
HETATM    4  CA  UNL     1      -9.565  12.010  65.004  1.00  0.00    -0.046 C  
HETATM    5  C   UNL     1     -10.380  14.438  64.993  1.00  0.00    -0.449 C  
HETATM    6  C   UNL     1     -11.619  12.815  63.603  1.00  0.00    -0.572 C  
HETATM    7  N   UNL     1      -9.306  11.811  66.445  1.00  0.00    -0.215 N  
HETATM    8  C   UNL     1      -9.736  10.623  64.350  1.00  0.00    -0.311 C  
HETATM    9  C   UNL     1      -8.666  12.797  67.166  1.00  0.00    -0.202 C  
HETATM   10  OXT UNL     1     -10.073  10.431  63.196  1.00  0.00    -0.167 OA 
HETATM   11  O   UNL     1      -9.395   9.593  65.170  1.00  0.00    -0.233 OA 
HETATM   12  CA  UNL     1      -9.734  12.738  68.306  1.00  0.00    -0.216 C  
HETATM   13  O   UNL     1      -7.730  13.496  66.852  1.00  0.00     0.067 OA 
ENDROOT
BRANCH  12  14
HETATM   14  N   UNL     1     -10.448  14.005  68.622  1.00  0.00    -0.244 N  
HETATM   15  C   UNL     1      -9.827  15.118  69.146  1.00  0.00    -0.237 C  
HETATM   16  H   UNL     1     -11.450  14.051  68.441  1.00  0.00     0.000 HD 
HETATM   17  O   UNL     1      -8.637  15.113  69.445  1.00  0.00    -0.215 OA 
BRANCH  15  18
HETATM   18  C   UNL     1     -10.734  16.356  69.358  1.00  0.00    -0.324 C  
HETATM   19  C   UNL     1     -10.623  17.319  68.173  1.00  0.00    -0.386 C  
BRANCH  18  20
HETATM   20  O   UNL     1     -12.078  15.890  69.517  1.00  0.00    -0.329 OA 
BRANCH  20  21
HETATM   21  C   UNL     1     -12.488  15.540  70.777  1.00  0.00    -0.440 A  
HETATM   22  C   UNL     1     -13.429  14.555  71.084  1.00  0.00    -0.396 A  
HETATM   23  C   UNL     1     -13.727  14.244  72.414  1.00  0.00    -0.616 A  
HETATM   24  C   UNL     1     -13.096  14.924  73.451  1.00  0.00    -0.506 A  
HETATM   25  C   UNL     1     -12.161  15.913  73.157  1.00  0.00    -0.622 A  
HETATM   26  C   UNL     1     -11.852  16.211  71.825  1.00  0.00    -0.581 A  
ENDBRANCH  20  21
ENDBRANCH  18  20
ENDBRANCH  15  18
ENDBRANCH  12  14
TORSDOF 4
ENDMDL
MODEL       14
REMARK 921   NORMALIZED FREE ENERGY PREDICTED BY IDOCK:   -6.35 KCAL/MOL
REMARK 922        TOTAL FREE ENERGY PREDICTED BY IDOCK:   -8.61 KCAL/MOL
REMARK 923 INTER-LIGAND FREE ENERGY PREDICTED BY IDOCK:   -7.93 KCAL/MOL
REMARK 924 INTRA-LIGAND FREE ENERGY PREDICTED BY IDOCK:   -0.68 KCAL/MOL
REMARK 927      BINDING AFFINITY PREDICTED BY RF-SCORE:    0.00 PKD
ROOT
HETATM    1  C   UNL     1     -11.867   7.229  71.116  1.00  0.00    -0.312 C  
HETATM    2  S   UNL     1     -11.278   6.302  69.635  1.00  0.00    -0.417 SA 
HETATM    3  C   UNL     1      -9.650   5.831  70.386  1.00  0.00    -0.168 C  
HETATM    4  CA  UNL     1      -9.856   5.958  71.917  1.00  0.00    -0.162 C  
HETATM    5  C   UNL     1      -8.594   6.829  69.865  1.00  0.00    -0.141 C  
HETATM    6  C   UNL     1      -9.240   4.445  69.878  1.00  0.00    -0.202 C  
HETATM    7  N   UNL     1     -10.817   7.059  72.140  1.00  0.00    -0.219 N  
HETATM    8  C   UNL     1     -10.402   4.694  72.615  1.00  0.00    -0.196 C  
HETATM    9  C   UNL     1     -10.389   8.366  72.050  1.00  0.00    -0.304 C  
HETATM   10  OXT UNL     1      -9.913   3.583  72.532  1.00  0.00    -0.147 OA 
HETATM   11  O   UNL     1     -11.468   4.941  73.423  1.00  0.00    -0.336 OA 
HETATM   12  CA  UNL     1     -11.590   8.756  71.128  1.00  0.00    -0.289 C  
HETATM   13  O   UNL     1      -9.360   8.868  72.438  1.00  0.00    -0.342 OA 
ENDROOT
BRANCH  12  14
HETATM   14  N   UNL     1     -11.255   9.335  69.798  1.00  0.00    -0.411 N  
HETATM   15  C   UNL     1     -11.493  10.649  69.457  1.00  0.00    -0.291 C  
HETATM   16  H   UNL     1     -10.825   8.726  69.102  1.00  0.00     0.000 HD 
HETATM   17  O   UNL     1     -12.061  11.421  70.224  1.00  0.00    -0.331 OA 
BRANCH  15  18
HETATM   18  C   UNL     1     -11.026  11.072  68.043  1.00  0.00    -0.258 C  
HETATM   19  C   UNL     1     -10.522   9.861  67.253  1.00  0.00    -0.319 C  
BRANCH  18  20
HETATM   20  O   UNL     1     -12.137  11.688  67.384  1.00  0.00    -0.605 OA 
BRANCH  20  21
HETATM   21  C   UNL     1     -11.873  12.706  66.505  1.00  0.00    -0.396 A  
HETATM   22  C   UNL     1     -12.207  12.720  65.149  1.00  0.00    -0.530 A  
HETATM   23  C   UNL     1     -11.938  13.843  64.361  1.00  0.00    -0.480 A  
HETATM   24  C   UNL     1     -11.321  14.959  64.917  1.00  0.00    -0.415 A  
HETATM   25  C   UNL     1     -10.978  14.954  66.267  1.00  0.00    -0.338 A  
HETATM   26  C   UNL     1     -11.263  13.836  67.058  1.00  0.00    -0.326 A  
ENDBRANCH  20  21
ENDBRANCH  18  20
ENDBRANCH  15  18
ENDBRANCH  12  14
TORSDOF 4
ENDMDL
MODEL       15
REMARK 921   NORMALIZED FREE ENERGY PREDICTED BY IDOCK:   -6.32 KCAL/MOL
REMARK 922        TOTAL FREE ENERGY PREDICTED BY IDOCK:   -8.58 KCAL/MOL
REMARK 923 INTER-LIGAND FREE ENERGY PREDICTED BY IDOCK:   -8.28 KCAL/MOL
REMARK 924 INTRA-LIGAND FREE ENERGY PREDICTED BY IDOCK:   -0.30 KCAL/MOL
REMARK 927      BINDING AFFINITY PREDICTED BY RF-SCORE:    0.00 PKD
ROOT
HETATM    1  C   UNL     1      -8.250  16.106  67.806  1.00  0.00    -0.152 C  
HETATM    2  S   UNL     1      -8.324  17.042  66.219  1.00  0.00    -0.243 SA 
HETATM    3  C   UNL     1      -8.998  18.590  66.984  1.00  0.00    -0.274 C  
HETATM    4  CA  UNL     1      -8.636  18.491  68.488  1.00  0.00    -0.324 C  
HETATM    5  C   UNL     1     -10.525  18.590  66.761  1.00  0.00    -0.432 C  
HETATM    6  C   UNL     1      -8.439  19.807  66.239  1.00  0.00    -0.390 C  
HETATM    7  N   UNL     1      -8.669  17.059  68.853  1.00  0.00    -0.242 N  
HETATM    8  C   UNL     1      -7.251  19.054  68.870  1.00  0.00    -0.329 C  
HETATM    9  C   UNL     1      -9.881  16.437  69.063  1.00  0.00    -0.266 C  
HETATM   10  OXT UNL     1      -6.852  20.171  68.603  1.00  0.00    -0.304 OA 
HETATM   11  O   UNL     1      -6.510  18.199  69.626  1.00  0.00    -0.226 OA 
HETATM   12  CA  UNL     1      -9.486  15.232  68.149  1.00  0.00    -0.203 C  
HETATM   13  O   UNL     1     -10.870  16.847  69.625  1.00  0.00    -0.302 OA 
ENDROOT
BRANCH  12  14
HETATM   14  N   UNL     1     -10.381  14.945  66.994  1.00  0.00    -0.261 N  
HETATM   15  C   UNL     1     -11.560  14.240  67.101  1.00  0.00    -0.380 C  
HETATM   16  H   UNL     1     -10.106  15.289  66.074  1.00  0.00     0.000 HD 
HETATM   17  O   UNL     1     -11.922  13.745  68.165  1.00  0.00    -0.362 OA 
BRANCH  15  18
HETATM   18  C   UNL     1     -12.375  14.090  65.793  1.00  0.00    -0.480 C  
HETATM   19  C   UNL     1     -11.668  14.792  64.630  1.00  0.00    -0.426 C  
BRANCH  18  20
HETATM   20  O   UNL     1     -12.527  12.691  65.532  1.00  0.00    -0.622 OA 
BRANCH  20  21
HETATM   21  C   UNL     1     -11.432  12.003  65.081  1.00  0.00    -0.287 A  
HETATM   22  C   UNL     1     -10.486  11.359  65.882  1.00  0.00    -0.309 A  
HETATM   23  C   UNL     1      -9.438  10.636  65.306  1.00  0.00    -0.270 A  
HETATM   24  C   UNL     1      -9.316  10.560  63.922  1.00  0.00    -0.314 A  
HETATM   25  C   UNL     1     -10.248  11.204  63.113  1.00  0.00    -0.347 A  
HETATM   26  C   UNL     1     -11.307  11.913  63.692  1.00  0.00    -0.536 A  
ENDBRANCH  20  21
ENDBRANCH  18  20
ENDBRANCH  15  18
ENDBRANCH  12  14
TORSDOF 4
ENDMDL
MODEL       16
REMARK 921   NORMALIZED FREE ENERGY PREDICTED BY IDOCK:   -6.29 KCAL/MOL
REMARK 922        TOTAL FREE ENERGY PREDICTED BY IDOCK:   -8.54 KCAL/MOL
REMARK 923 INTER-LIGAND FREE ENERGY PREDICTED BY IDOCK:   -7.97 KCAL/MOL
REMARK 924 INTRA-LIGAND FREE ENERGY PREDICTED BY IDOCK:   -0.57 KCAL/MOL
REMARK 927      BINDING AFFINITY PREDICTED BY RF-SCORE:    0.00 PKD
ROOT
HETATM    1  C   UNL     1     -10.874  15.248  69.076  1.00  0.00    -0.244 C  
HETATM    2  S   UNL     1      -9.044  15.012  69.063  1.00  0.00    -0.185 SA 
HETATM    3  C   UNL     1      -8.878  15.198  67.226  1.00  0.00    -0.200 C  
HETATM    4  CA  UNL     1     -10.155  15.955  66.777  1.00  0.00    -0.271 C  
HETATM    5  C   UNL     1      -8.810  13.781  66.622  1.00  0.00    -0.089 C  
HETATM    6  C   UNL     1      -7.546  15.884  66.905  1.00  0.00    -0.255 C  
HETATM    7  N   UNL     1     -11.250  15.540  67.678  1.00  0.00    -0.316 N  
HETATM    8  C   UNL     1     -10.056  17.495  66.816  1.00  0.00    -0.320 C  
HETATM    9  C   UNL     1     -11.861  14.319  67.492  1.00  0.00    -0.395 C  
HETATM   10  OXT UNL     1      -9.187  18.154  66.277  1.00  0.00    -0.410 OA 
HETATM   11  O   UNL     1     -11.098  18.087  67.459  1.00  0.00    -0.208 OA 
HETATM   12  CA  UNL     1     -11.735  13.959  69.008  1.00  0.00    -0.338 C  
HETATM   13  O   UNL     1     -12.177  13.765  66.464  1.00  0.00    -0.435 OA 
ENDROOT
BRANCH  12  14
HETATM   14  N   UNL     1     -11.003  12.707  69.342  1.00  0.00    -0.447 N  
HETATM   15  C   UNL     1     -11.444  11.450  68.991  1.00  0.00    -0.300 C  
HETATM   16  H   UNL     1     -10.127  12.784  69.859  1.00  0.00     0.000 HD 
HETATM   17  O   UNL     1     -12.518  11.279  68.422  1.00  0.00    -0.403 OA 
BRANCH  15  18
HETATM   18  C   UNL     1     -10.515  10.276  69.386  1.00  0.00    -0.236 C  
HETATM   19  C   UNL     1      -9.049  10.631  69.119  1.00  0.00    -0.152 C  
BRANCH  18  20
HETATM   20  O   UNL     1     -10.730   9.997  70.773  1.00  0.00    -0.303 OA 
BRANCH  20  21
HETATM   21  C   UNL     1     -11.811   9.224  71.109  1.00  0.00    -0.325 A  
HETATM   22  C   UNL     1     -13.048   9.699  71.550  1.00  0.00    -0.488 A  
HETATM   23  C   UNL     1     -14.099   8.815  71.809  1.00  0.00    -0.468 A  
HETATM   24  C   UNL     1     -13.921   7.445  71.642  1.00  0.00    -0.523 A  
HETATM   25  C   UNL     1     -12.690   6.959  71.209  1.00  0.00    -0.368 A  
HETATM   26  C   UNL     1     -11.644   7.848  70.934  1.00  0.00    -0.286 A  
ENDBRANCH  20  21
ENDBRANCH  18  20
ENDBRANCH  15  18
ENDBRANCH  12  14
TORSDOF 4
ENDMDL
MODEL       17
REMARK 921   NORMALIZED FREE ENERGY PREDICTED BY IDOCK:   -6.25 KCAL/MOL
REMARK 922        TOTAL FREE ENERGY PREDICTED BY IDOCK:   -8.50 KCAL/MOL
REMARK 923 INTER-LIGAND FREE ENERGY PREDICTED BY IDOCK:   -7.98 KCAL/MOL
REMARK 924 INTRA-LIGAND FREE ENERGY PREDICTED BY IDOCK:   -0.52 KCAL/MOL
REMARK 927      BINDING AFFINITY PREDICTED BY RF-SCORE:    0.00 PKD
ROOT
HETATM    1  C   UNL     1     -10.499  16.627  68.662  1.00  0.00    -0.323 C  
HETATM    2  S   UNL     1      -9.171  15.595  69.420  1.00  0.00    -0.258 SA 
HETATM    3  C   UNL     1      -7.854  16.147  68.239  1.00  0.00    -0.153 C  
HETATM    4  CA  UNL     1      -8.367  17.490  67.655  1.00  0.00    -0.214 C  
HETATM    5  C   UNL     1      -7.724  15.062  67.150  1.00  0.00    -0.202 C  
HETATM    6  C   UNL     1      -6.509  16.207  68.972  1.00  0.00    -0.154 C  
HETATM    7  N   UNL     1      -9.841  17.404  67.593  1.00  0.00    -0.274 N  
HETATM    8  C   UNL     1      -7.991  18.747  68.467  1.00  0.00    -0.345 C  
HETATM    9  C   UNL     1     -10.441  16.689  66.579  1.00  0.00    -0.262 C  
HETATM   10  OXT UNL     1      -6.862  19.051  68.805  1.00  0.00    -0.275 OA 
HETATM   11  O   UNL     1      -9.050  19.562  68.721  1.00  0.00    -0.368 OA 
HETATM   12  CA  UNL     1     -11.374  15.937  67.582  1.00  0.00    -0.151 C  
HETATM   13  O   UNL     1     -10.150  16.623  65.406  1.00  0.00    -0.578 OA 
ENDROOT
BRANCH  12  14
HETATM   14  N   UNL     1     -11.301  14.451  67.582  1.00  0.00    -0.313 N  
HETATM   15  C   UNL     1     -11.918  13.658  68.525  1.00  0.00    -0.361 C  
HETATM   16  H   UNL     1     -10.765  13.994  66.844  1.00  0.00     0.000 HD 
HETATM   17  O   UNL     1     -12.528  14.141  69.475  1.00  0.00    -0.298 OA 
BRANCH  15  18
HETATM   18  C   UNL     1     -11.766  12.130  68.324  1.00  0.00    -0.342 C  
HETATM   19  C   UNL     1     -11.205  11.820  66.933  1.00  0.00    -0.387 C  
BRANCH  18  20
HETATM   20  O   UNL     1     -10.895  11.640  69.348  1.00  0.00    -0.196 OA 
BRANCH  20  21
HETATM   21  C   UNL     1     -11.421  10.780  70.276  1.00  0.00    -0.319 A  
HETATM   22  C   UNL     1     -12.703  10.857  70.825  1.00  0.00    -0.431 A  
HETATM   23  C   UNL     1     -13.153   9.885  71.724  1.00  0.00    -0.553 A  
HETATM   24  C   UNL     1     -12.320   8.833  72.094  1.00  0.00    -0.458 A  
HETATM   25  C   UNL     1     -11.037   8.749  71.558  1.00  0.00    -0.377 A  
HETATM   26  C   UNL     1     -10.596   9.714  70.645  1.00  0.00    -0.386 A  
ENDBRANCH  20  21
ENDBRANCH  18  20
ENDBRANCH  15  18
ENDBRANCH  12  14
TORSDOF 4
ENDMDL
MODEL       18
REMARK 921   NORMALIZED FREE ENERGY PREDICTED BY IDOCK:   -6.21 KCAL/MOL
REMARK 922        TOTAL FREE ENERGY PREDICTED BY IDOCK:   -8.44 KCAL/MOL
REMARK 923 INTER-LIGAND FREE ENERGY PREDICTED BY IDOCK:   -8.02 KCAL/MOL
REMARK 924 INTRA-LIGAND FREE ENERGY PREDICTED BY IDOCK:   -0.43 KCAL/MOL
REMARK 927      BINDING AFFINITY PREDICTED BY RF-SCORE:    0.00 PKD
ROOT
HETATM    1  C   UNL     1      -9.678  13.109  65.744  1.00  0.00    -0.138 C  
HETATM    2  S   UNL     1      -9.358  13.263  67.554  1.00  0.00    -0.228 SA 
HETATM    3  C   UNL     1     -10.942  12.445  68.061  1.00  0.00    -0.225 C  
HETATM    4  CA  UNL     1     -11.389  11.623  66.824  1.00  0.00    -0.286 C  
HETATM    5  C   UNL     1     -11.951  13.561  68.403  1.00  0.00    -0.378 C  
HETATM    6  C   UNL     1     -10.710  11.645  69.348  1.00  0.00    -0.080 C  
HETATM    7  N   UNL     1     -10.947  12.363  65.624  1.00  0.00    -0.277 N  
HETATM    8  C   UNL     1     -10.821  10.191  66.744  1.00  0.00    -0.059 C  
HETATM    9  C   UNL     1     -11.659  13.464  65.200  1.00  0.00    -0.308 C  
HETATM   10  OXT UNL     1     -10.901   9.356  67.626  1.00  0.00    -0.267 OA 
HETATM   11  O   UNL     1     -10.269   9.895  65.537  1.00  0.00    -0.273 OA 
HETATM   12  CA  UNL     1     -10.361  14.323  65.061  1.00  0.00    -0.421 C  
HETATM   13  O   UNL     1     -12.856  13.637  65.157  1.00  0.00    -0.687 OA 
ENDROOT
BRANCH  12  14
HETATM   14  N   UNL     1     -10.306  15.587  65.844  1.00  0.00    -0.323 N  
HETATM   15  C   UNL     1     -10.838  16.780  65.405  1.00  0.00    -0.141 C  
HETATM   16  H   UNL     1      -9.849  15.569  66.756  1.00  0.00     0.000 HD 
HETATM   17  O   UNL     1     -11.348  16.888  64.293  1.00  0.00    -1.202 OA 
BRANCH  15  18
HETATM   18  C   UNL     1     -10.723  17.971  66.388  1.00  0.00    -0.127 C  
HETATM   19  C   UNL     1     -10.260  17.493  67.767  1.00  0.00    -0.349 C  
BRANCH  18  20
HETATM   20  O   UNL     1      -9.796  18.908  65.832  1.00  0.00    -0.486 OA 
BRANCH  20  21
HETATM   21  C   UNL     1      -8.563  19.013  66.421  1.00  0.00    -0.315 A  
HETATM   22  C   UNL     1      -7.520  18.093  66.300  1.00  0.00    -0.301 A  
HETATM   23  C   UNL     1      -6.282  18.336  66.903  1.00  0.00    -0.196 A  
HETATM   24  C   UNL     1      -6.078  19.496  67.644  1.00  0.00    -0.215 A  
HETATM   25  C   UNL     1      -7.114  20.418  67.777  1.00  0.00    -0.344 A  
HETATM   26  C   UNL     1      -8.347  20.180  67.159  1.00  0.00    -0.391 A  
ENDBRANCH  20  21
ENDBRANCH  18  20
ENDBRANCH  15  18
ENDBRANCH  12  14
TORSDOF 4
ENDMDL
MODEL       19
REMARK 921   NORMALIZED FREE ENERGY PREDICTED BY IDOCK:   -6.21 KCAL/MOL
REMARK 922        TOTAL FREE ENERGY PREDICTED BY IDOCK:   -8.44 KCAL/MOL
REMARK 923 INTER-LIGAND FREE ENERGY PREDICTED BY IDOCK:   -7.71 KCAL/MOL
REMARK 924 INTRA-LIGAND FREE ENERGY PREDICTED BY IDOCK:   -0.73 KCAL/MOL
REMARK 927      BINDING AFFINITY PREDICTED BY RF-SCORE:    0.00 PKD
ROOT
HETATM    1  C   UNL     1     -10.740  11.783  67.089  1.00  0.00    -0.241 C  
HETATM    2  S   UNL     1     -12.129  12.541  66.141  1.00  0.00    -0.139 SA 
HETATM    3  C   UNL     1     -11.072  13.065  64.711  1.00  0.00    -0.322 C  
HETATM    4  CA  UNL     1      -9.808  12.169  64.789  1.00  0.00    -0.133 C  
HETATM    5  C   UNL     1     -10.730  14.556  64.910  1.00  0.00    -0.448 C  
HETATM    6  C   UNL     1     -11.885  12.963  63.416  1.00  0.00    -0.576 C  
HETATM    7  N   UNL     1      -9.552  11.899  66.219  1.00  0.00    -0.224 N  
HETATM    8  C   UNL     1      -9.914  10.816  64.054  1.00  0.00    -0.342 C  
HETATM    9  C   UNL     1      -8.961  12.868  67.001  1.00  0.00    -0.225 C  
HETATM   10  OXT UNL     1     -10.233  10.676  62.889  1.00  0.00    -0.177 OA 
HETATM   11  O   UNL     1      -9.534   9.756  64.817  1.00  0.00    -0.274 OA 
HETATM   12  CA  UNL     1     -10.034  12.697  68.125  1.00  0.00    -0.225 C  
HETATM   13  O   UNL     1      -8.055  13.624  66.737  1.00  0.00     0.032 OA 
ENDROOT
BRANCH  12  14
HETATM   14  N   UNL     1     -10.805  13.911  68.507  1.00  0.00    -0.251 N  
HETATM   15  C   UNL     1     -10.251  14.994  69.154  1.00  0.00    -0.241 C  
HETATM   16  H   UNL     1     -11.798  13.944  68.276  1.00  0.00     0.000 HD 
HETATM   17  O   UNL     1      -9.077  14.998  69.516  1.00  0.00    -0.165 OA 
BRANCH  15  18
HETATM   18  C   UNL     1     -11.208  16.182  69.419  1.00  0.00    -0.335 C  
HETATM   19  C   UNL     1     -11.996  15.966  70.714  1.00  0.00    -0.413 C  
BRANCH  18  20
HETATM   20  O   UNL     1     -10.415  17.372  69.494  1.00  0.00    -0.248 OA 
BRANCH  20  21
HETATM   21  C   UNL     1     -10.288  18.127  68.358  1.00  0.00    -0.356 A  
HETATM   22  C   UNL     1     -10.602  17.711  67.062  1.00  0.00    -0.254 A  
HETATM   23  C   UNL     1     -10.486  18.592  65.983  1.00  0.00    -0.456 A  
HETATM   24  C   UNL     1     -10.041  19.895  66.186  1.00  0.00    -0.611 A  
HETATM   25  C   UNL     1      -9.718  20.319  67.473  1.00  0.00    -0.575 A  
HETATM   26  C   UNL     1      -9.852  19.440  68.554  1.00  0.00    -0.509 A  
ENDBRANCH  20  21
ENDBRANCH  18  20
ENDBRANCH  15  18
ENDBRANCH  12  14
TORSDOF 4
ENDMDL
MODEL       20
REMARK 921   NORMALIZED FREE ENERGY PREDICTED BY IDOCK:   -6.14 KCAL/MOL
REMARK 922        TOTAL FREE ENERGY PREDICTED BY IDOCK:   -8.36 KCAL/MOL
REMARK 923 INTER-LIGAND FREE ENERGY PREDICTED BY IDOCK:   -7.76 KCAL/MOL
REMARK 924 INTRA-LIGAND FREE ENERGY PREDICTED BY IDOCK:   -0.60 KCAL/MOL
REMARK 927      BINDING AFFINITY PREDICTED BY RF-SCORE:    0.00 PKD
ROOT
HETATM    1  C   UNL     1      -9.914  17.668  67.309  1.00  0.00    -0.322 C  
HETATM    2  S   UNL     1      -8.789  17.164  68.681  1.00  0.00    -0.244 SA 
HETATM    3  C   UNL     1      -7.475  16.488  67.562  1.00  0.00    -0.147 C  
HETATM    4  CA  UNL     1      -7.727  17.159  66.187  1.00  0.00    -0.267 C  
HETATM    5  C   UNL     1      -7.665  14.958  67.496  1.00  0.00    -0.214 C  
HETATM    6  C   UNL     1      -6.099  16.740  68.187  1.00  0.00    -0.132 C  
HETATM    7  N   UNL     1      -9.185  17.365  66.061  1.00  0.00    -0.131 N  
HETATM    8  C   UNL     1      -7.028  18.519  65.979  1.00  0.00    -0.275 C  
HETATM    9  C   UNL     1      -9.999  16.302  65.736  1.00  0.00    -0.323 C  
HETATM   10  OXT UNL     1      -5.838  18.724  66.130  1.00  0.00    -0.151 OA 
HETATM   11  O   UNL     1      -7.863  19.491  65.524  1.00  0.00    -0.402 OA 
HETATM   12  CA  UNL     1     -10.996  16.636  66.892  1.00  0.00     0.050 C  
HETATM   13  O   UNL     1      -9.817  15.408  64.942  1.00  0.00    -0.223 OA 
ENDROOT
BRANCH  12  14
HETATM   14  N   UNL     1     -11.247  15.564  67.893  1.00  0.00    -0.328 N  
HETATM   15  C   UNL     1     -11.934  14.403  67.609  1.00  0.00    -0.343 C  
HETATM   16  H   UNL     1     -10.892  15.695  68.840  1.00  0.00     0.000 HD 
HETATM   17  O   UNL     1     -12.441  14.206  66.508  1.00  0.00    -0.447 OA 
BRANCH  15  18
HETATM   18  C   UNL     1     -12.047  13.387  68.772  1.00  0.00    -0.246 C  
HETATM   19  C   UNL     1     -11.421  12.045  68.382  1.00  0.00    -0.356 C  
BRANCH  18  20
HETATM   20  O   UNL     1     -11.384  13.950  69.909  1.00  0.00    -0.212 OA 
BRANCH  20  21
HETATM   21  C   UNL     1     -12.159  14.551  70.866  1.00  0.00    -0.336 A  
HETATM   22  C   UNL     1     -13.486  14.231  71.161  1.00  0.00    -0.335 A  
HETATM   23  C   UNL     1     -14.159  14.876  72.203  1.00  0.00    -0.616 A  
HETATM   24  C   UNL     1     -13.517  15.857  72.953  1.00  0.00    -0.637 A  
HETATM   25  C   UNL     1     -12.196  16.189  72.663  1.00  0.00    -0.625 A  
HETATM   26  C   UNL     1     -11.518  15.530  71.631  1.00  0.00    -0.496 A  
ENDBRANCH  20  21
ENDBRANCH  18  20
ENDBRANCH  15  18
ENDBRANCH  12  14
TORSDOF 4
ENDMDL
MODEL       21
REMARK 921   NORMALIZED FREE ENERGY PREDICTED BY IDOCK:   -6.14 KCAL/MOL
REMARK 922        TOTAL FREE ENERGY PREDICTED BY IDOCK:   -8.36 KCAL/MOL
REMARK 923 INTER-LIGAND FREE ENERGY PREDICTED BY IDOCK:   -8.23 KCAL/MOL
REMARK 924 INTRA-LIGAND FREE ENERGY PREDICTED BY IDOCK:   -0.12 KCAL/MOL
REMARK 927      BINDING AFFINITY PREDICTED BY RF-SCORE:    0.00 PKD
ROOT
HETATM    1  C   UNL     1      -9.159  17.748  68.039  1.00  0.00    -0.269 C  
HETATM    2  S   UNL     1      -8.865  16.166  68.940  1.00  0.00    -0.255 SA 
HETATM    3  C   UNL     1      -7.032  16.171  68.668  1.00  0.00    -0.141 C  
HETATM    4  CA  UNL     1      -6.671  17.647  68.359  1.00  0.00    -0.203 C  
HETATM    5  C   UNL     1      -6.739  15.247  67.468  1.00  0.00    -0.197 C  
HETATM    6  C   UNL     1      -6.337  15.553  69.886  1.00  0.00    -0.151 C  
HETATM    7  N   UNL     1      -7.822  18.240  67.648  1.00  0.00    -0.227 N  
HETATM    8  C   UNL     1      -6.364  18.522  69.593  1.00  0.00    -0.203 C  
HETATM    9  C   UNL     1      -8.013  17.966  66.311  1.00  0.00    -0.244 C  
HETATM   10  OXT UNL     1      -5.550  18.253  70.456  1.00  0.00    -0.241 OA 
HETATM   11  O   UNL     1      -7.045  19.699  69.603  1.00  0.00    -0.310 OA 
HETATM   12  CA  UNL     1      -9.522  17.627  66.535  1.00  0.00    -0.283 C  
HETATM   13  O   UNL     1      -7.201  17.883  65.418  1.00  0.00    -0.459 OA 
ENDROOT
BRANCH  12  14
HETATM   14  N   UNL     1      -9.976  16.273  66.115  1.00  0.00    -0.313 N  
HETATM   15  C   UNL     1     -10.769  16.044  65.011  1.00  0.00    -0.378 C  
HETATM   16  H   UNL     1      -9.684  15.472  66.674  1.00  0.00     0.000 HD 
HETATM   17  O   UNL     1     -11.206  16.966  64.329  1.00  0.00    -1.204 OA 
BRANCH  15  18
HETATM   18  C   UNL     1     -11.092  14.560  64.711  1.00  0.00    -0.391 C  
HETATM   19  C   UNL     1      -9.898  13.665  65.055  1.00  0.00    -0.087 C  
BRANCH  18  20
HETATM   20  O   UNL     1     -12.242  14.199  65.483  1.00  0.00    -0.396 OA 
BRANCH  20  21
HETATM   21  C   UNL     1     -12.035  13.691  66.739  1.00  0.00    -0.414 A  
HETATM   22  C   UNL     1     -12.143  14.404  67.935  1.00  0.00    -0.280 A  
HETATM   23  C   UNL     1     -11.966  13.763  69.165  1.00  0.00    -0.403 A  
HETATM   24  C   UNL     1     -11.664  12.405  69.211  1.00  0.00    -0.386 A  
HETATM   25  C   UNL     1     -11.547  11.686  68.024  1.00  0.00    -0.383 A  
HETATM   26  C   UNL     1     -11.743  12.326  66.795  1.00  0.00    -0.411 A  
ENDBRANCH  20  21
ENDBRANCH  18  20
ENDBRANCH  15  18
ENDBRANCH  12  14
TORSDOF 4
ENDMDL
MODEL       22
REMARK 921   NORMALIZED FREE ENERGY PREDICTED BY IDOCK:   -6.09 KCAL/MOL
REMARK 922        TOTAL FREE ENERGY PREDICTED BY IDOCK:   -8.29 KCAL/MOL
REMARK 923 INTER-LIGAND FREE ENERGY PREDICTED BY IDOCK:   -7.53 KCAL/MOL
REMARK 924 INTRA-LIGAND FREE ENERGY PREDICTED BY IDOCK:   -0.76 KCAL/MOL
REMARK 927      BINDING AFFINITY PREDICTED BY RF-SCORE:    0.00 PKD
ROOT
HETATM    1  C   UNL     1     -11.186  15.887  68.155  1.00  0.00    -0.339 C  
HETATM    2  S   UNL     1      -9.745  15.358  69.178  1.00  0.00    -0.266 SA 
HETATM    3  C   UNL     1      -8.489  16.254  68.150  1.00  0.00    -0.174 C  
HETATM    4  CA  UNL     1      -9.290  17.341  67.386  1.00  0.00    -0.236 C  
HETATM    5  C   UNL     1      -7.860  15.225  67.188  1.00  0.00    -0.249 C  
HETATM    6  C   UNL     1      -7.363  16.764  69.056  1.00  0.00    -0.231 C  
HETATM    7  N   UNL     1     -10.636  16.791  67.126  1.00  0.00    -0.294 N  
HETATM    8  C   UNL     1      -9.453  18.683  68.131  1.00  0.00    -0.325 C  
HETATM    9  C   UNL     1     -10.817  15.885  66.103  1.00  0.00    -0.208 C  
HETATM   10  OXT UNL     1      -8.541  19.341  68.596  1.00  0.00    -0.354 OA 
HETATM   11  O   UNL     1     -10.737  19.130  68.163  1.00  0.00    -0.316 OA 
HETATM   12  CA  UNL     1     -11.623  14.915  67.027  1.00  0.00    -0.304 C  
HETATM   13  O   UNL     1     -10.336  15.870  64.993  1.00  0.00    -0.508 OA 
ENDROOT
BRANCH  12  14
HETATM   14  N   UNL     1     -11.098  13.529  67.166  1.00  0.00    -0.287 N  
HETATM   15  C   UNL     1     -11.576  12.458  66.443  1.00  0.00    -0.384 C  
HETATM   16  H   UNL     1     -10.343  13.364  67.832  1.00  0.00     0.000 HD 
HETATM   17  O   UNL     1     -12.522  12.572  65.668  1.00  0.00    -0.648 OA 
BRANCH  15  18
HETATM   18  C   UNL     1     -10.864  11.106  66.694  1.00  0.00    -0.253 C  
HETATM   19  C   UNL     1     -10.120  10.643  65.437  1.00  0.00    -0.356 C  
BRANCH  18  20
HETATM   20  O   UNL     1      -9.959  11.286  67.788  1.00  0.00    -0.172 OA 
BRANCH  20  21
HETATM   21  C   UNL     1     -10.084  10.448  68.865  1.00  0.00    -0.201 A  
HETATM   22  C   UNL     1      -9.033   9.812  69.530  1.00  0.00    -0.215 A  
HETATM   23  C   UNL     1      -9.278   9.023  70.658  1.00  0.00    -0.279 A  
HETATM   24  C   UNL     1     -10.578   8.849  71.124  1.00  0.00    -0.335 A  
HETATM   25  C   UNL     1     -11.634   9.473  70.465  1.00  0.00    -0.316 A  
HETATM   26  C   UNL     1     -11.385  10.277  69.346  1.00  0.00    -0.279 A  
ENDBRANCH  20  21
ENDBRANCH  18  20
ENDBRANCH  15  18
ENDBRANCH  12  14
TORSDOF 4
ENDMDL
MODEL       23
REMARK 921   NORMALIZED FREE ENERGY PREDICTED BY IDOCK:   -6.04 KCAL/MOL
REMARK 922        TOTAL FREE ENERGY PREDICTED BY IDOCK:   -8.23 KCAL/MOL
REMARK 923 INTER-LIGAND FREE ENERGY PREDICTED BY IDOCK:   -7.53 KCAL/MOL
REMARK 924 INTRA-LIGAND FREE ENERGY PREDICTED BY IDOCK:   -0.70 KCAL/MOL
REMARK 927      BINDING AFFINITY PREDICTED BY RF-SCORE:    0.00 PKD
ROOT
HETATM    1  C   UNL     1      -9.249  11.879  66.636  1.00  0.00    -0.205 C  
HETATM    2  S   UNL     1      -9.253  11.529  68.447  1.00  0.00    -0.175 SA 
HETATM    3  C   UNL     1     -10.714  10.390  68.381  1.00  0.00    -0.225 C  
HETATM    4  CA  UNL     1     -10.797   9.921  66.905  1.00  0.00    -0.066 C  
HETATM    5  C   UNL     1     -11.956  11.206  68.793  1.00  0.00    -0.337 C  
HETATM    6  C   UNL     1     -10.541   9.283  69.426  1.00  0.00    -0.234 C  
HETATM    7  N   UNL     1     -10.319  11.037  66.063  1.00  0.00    -0.251 N  
HETATM    8  C   UNL     1      -9.963   8.668  66.564  1.00  0.00    -0.282 C  
HETATM    9  C   UNL     1     -11.150  12.107  65.811  1.00  0.00    -0.319 C  
HETATM   10  OXT UNL     1     -10.022   7.606  67.154  1.00  0.00    -0.185 OA 
HETATM   11  O   UNL     1      -9.182   8.823  65.461  1.00  0.00    -0.203 OA 
HETATM   12  CA  UNL     1     -10.032  13.137  66.176  1.00  0.00    -0.291 C  
HETATM   13  O   UNL     1     -12.335  12.121  65.571  1.00  0.00    -0.548 OA 
ENDROOT
BRANCH  12  14
HETATM   14  N   UNL     1     -10.341  14.106  67.263  1.00  0.00    -0.266 N  
HETATM   15  C   UNL     1     -10.916  15.339  67.043  1.00  0.00    -0.324 C  
HETATM   16  H   UNL     1     -10.114  13.843  68.222  1.00  0.00     0.000 HD 
HETATM   17  O   UNL     1     -11.159  15.745  65.910  1.00  0.00    -0.238 OA 
BRANCH  15  18
HETATM   18  C   UNL     1     -11.205  16.181  68.310  1.00  0.00    -0.343 C  
HETATM   19  C   UNL     1     -11.700  15.290  69.453  1.00  0.00    -0.361 C  
BRANCH  18  20
HETATM   20  O   UNL     1      -9.994  16.854  68.672  1.00  0.00    -0.250 OA 
BRANCH  20  21
HETATM   21  C   UNL     1      -9.779  18.105  68.155  1.00  0.00    -0.325 A  
HETATM   22  C   UNL     1     -10.731  18.894  67.508  1.00  0.00    -0.509 A  
HETATM   23  C   UNL     1     -10.411  20.184  67.072  1.00  0.00    -0.502 A  
HETATM   24  C   UNL     1      -9.130  20.692  67.267  1.00  0.00    -0.408 A  
HETATM   25  C   UNL     1      -8.170  19.910  67.905  1.00  0.00    -0.318 A  
HETATM   26  C   UNL     1      -8.498  18.626  68.356  1.00  0.00    -0.366 A  
ENDBRANCH  20  21
ENDBRANCH  18  20
ENDBRANCH  15  18
ENDBRANCH  12  14
TORSDOF 4
ENDMDL
MODEL       24
REMARK 921   NORMALIZED FREE ENERGY PREDICTED BY IDOCK:   -6.04 KCAL/MOL
REMARK 922        TOTAL FREE ENERGY PREDICTED BY IDOCK:   -8.23 KCAL/MOL
REMARK 923 INTER-LIGAND FREE ENERGY PREDICTED BY IDOCK:   -7.46 KCAL/MOL
REMARK 924 INTRA-LIGAND FREE ENERGY PREDICTED BY IDOCK:   -0.77 KCAL/MOL
REMARK 927      BINDING AFFINITY PREDICTED BY RF-SCORE:    0.00 PKD
ROOT
HETATM    1  C   UNL     1     -10.980  16.559  68.444  1.00  0.00    -0.348 C  
HETATM    2  S   UNL     1      -9.526  15.643  69.113  1.00  0.00    -0.270 SA 
HETATM    3  C   UNL     1      -8.286  16.529  68.058  1.00  0.00    -0.180 C  
HETATM    4  CA  UNL     1      -8.985  17.846  67.629  1.00  0.00    -0.250 C  
HETATM    5  C   UNL     1      -7.978  15.624  66.847  1.00  0.00    -0.278 C  
HETATM    6  C   UNL     1      -6.978  16.689  68.839  1.00  0.00    -0.200 C  
HETATM    7  N   UNL     1     -10.428  17.556  67.504  1.00  0.00    -0.355 N  
HETATM    8  C   UNL     1      -8.814  19.030  68.605  1.00  0.00    -0.352 C  
HETATM    9  C   UNL     1     -10.898  16.898  66.388  1.00  0.00     0.033 C  
HETATM   10  OXT UNL     1      -7.748  19.449  69.017  1.00  0.00    -0.362 OA 
HETATM   11  O   UNL     1      -9.986  19.643  68.921  1.00  0.00    -0.447 OA 
HETATM   12  CA  UNL     1     -11.725  15.895  67.256  1.00  0.00     0.362 C  
HETATM   13  O   UNL     1     -10.581  17.027  65.228  1.00  0.00    -0.647 OA 
ENDROOT
BRANCH  12  14
HETATM   14  N   UNL     1     -11.432  14.448  67.073  1.00  0.00    -0.346 N  
HETATM   15  C   UNL     1     -12.070  13.652  66.146  1.00  0.00    -0.436 C  
HETATM   16  H   UNL     1     -10.719  14.021  67.665  1.00  0.00     0.000 HD 
HETATM   17  O   UNL     1     -12.979  14.084  65.442  1.00  0.00    -0.726 OA 
BRANCH  15  18
HETATM   18  C   UNL     1     -11.587  12.183  66.074  1.00  0.00    -0.358 C  
HETATM   19  C   UNL     1     -11.136  11.829  64.654  1.00  0.00    -0.363 C  
BRANCH  18  20
HETATM   20  O   UNL     1     -10.512  12.031  67.006  1.00  0.00    -0.216 OA 
BRANCH  20  21
HETATM   21  C   UNL     1     -10.706  11.194  68.074  1.00  0.00    -0.211 A  
HETATM   22  C   UNL     1     -11.291  11.548  69.292  1.00  0.00    -0.353 A  
HETATM   23  C   UNL     1     -11.490  10.591  70.291  1.00  0.00    -0.416 A  
HETATM   24  C   UNL     1     -11.093   9.273  70.089  1.00  0.00    -0.260 A  
HETATM   25  C   UNL     1     -10.502   8.910  68.881  1.00  0.00    -0.225 A  
HETATM   26  C   UNL     1     -10.320   9.866  67.876  1.00  0.00    -0.256 A  
ENDBRANCH  20  21
ENDBRANCH  18  20
ENDBRANCH  15  18
ENDBRANCH  12  14
TORSDOF 4
ENDMDL
MODEL       25
REMARK 921   NORMALIZED FREE ENERGY PREDICTED BY IDOCK:   -5.98 KCAL/MOL
REMARK 922        TOTAL FREE ENERGY PREDICTED BY IDOCK:   -8.16 KCAL/MOL
REMARK 923 INTER-LIGAND FREE ENERGY PREDICTED BY IDOCK:   -7.95 KCAL/MOL
REMARK 924 INTRA-LIGAND FREE ENERGY PREDICTED BY IDOCK:   -0.22 KCAL/MOL
REMARK 927      BINDING AFFINITY PREDICTED BY RF-SCORE:    0.00 PKD
ROOT
HETATM    1  C   UNL     1     -12.101  13.056  66.245  1.00  0.00    -0.386 C  
HETATM    2  S   UNL     1     -11.415  14.222  67.499  1.00  0.00    -0.364 SA 
HETATM    3  C   UNL     1     -10.123  14.922  66.368  1.00  0.00    -0.284 C  
HETATM    4  CA  UNL     1     -10.624  14.607  64.935  1.00  0.00    -0.422 C  
HETATM    5  C   UNL     1      -8.795  14.204  66.682  1.00  0.00    -0.141 C  
HETATM    6  C   UNL     1      -9.915  16.405  66.693  1.00  0.00    -0.281 C  
HETATM    7  N   UNL     1     -11.356  13.325  64.999  1.00  0.00    -0.299 N  
HETATM    8  C   UNL     1     -11.561  15.666  64.316  1.00  0.00    -0.189 C  
HETATM    9  C   UNL     1     -10.653  12.140  65.056  1.00  0.00    -0.291 C  
HETATM   10  OXT UNL     1     -11.310  16.853  64.225  1.00  0.00    -1.202 OA 
HETATM   11  O   UNL     1     -12.699  15.140  63.790  1.00  0.00    -0.722 OA 
HETATM   12  CA  UNL     1     -11.517  11.619  66.250  1.00  0.00    -0.145 C  
HETATM   13  O   UNL     1      -9.650  11.811  64.467  1.00  0.00    -0.183 OA 
ENDROOT
BRANCH  12  14
HETATM   14  N   UNL     1     -10.789  11.250  67.494  1.00  0.00    -0.228 N  
HETATM   15  C   UNL     1     -11.415  10.814  68.642  1.00  0.00    -0.295 C  
HETATM   16  H   UNL     1      -9.772  11.325  67.498  1.00  0.00     0.000 HD 
HETATM   17  O   UNL     1     -12.639  10.758  68.728  1.00  0.00    -0.257 OA 
BRANCH  15  18
HETATM   18  C   UNL     1     -10.480  10.431  69.815  1.00  0.00    -0.240 C  
HETATM   19  C   UNL     1     -11.292   9.982  71.033  1.00  0.00    -0.434 C  
BRANCH  18  20
HETATM   20  O   UNL     1      -9.616   9.384  69.360  1.00  0.00    -0.160 OA 
BRANCH  20  21
HETATM   21  C   UNL     1      -9.935   8.097  69.708  1.00  0.00    -0.191 A  
HETATM   22  C   UNL     1     -10.819   7.261  69.022  1.00  0.00    -0.137 A  
HETATM   23  C   UNL     1     -11.021   5.943  69.439  1.00  0.00    -0.421 A  
HETATM   24  C   UNL     1     -10.353   5.449  70.556  1.00  0.00    -0.344 A  
HETATM   25  C   UNL     1      -9.474   6.276  71.252  1.00  0.00    -0.171 A  
HETATM   26  C   UNL     1      -9.260   7.590  70.822  1.00  0.00    -0.158 A  
ENDBRANCH  20  21
ENDBRANCH  18  20
ENDBRANCH  15  18
ENDBRANCH  12  14
TORSDOF 4
ENDMDL
MODEL       26
REMARK 921   NORMALIZED FREE ENERGY PREDICTED BY IDOCK:   -5.98 KCAL/MOL
REMARK 922        TOTAL FREE ENERGY PREDICTED BY IDOCK:   -8.16 KCAL/MOL
REMARK 923 INTER-LIGAND FREE ENERGY PREDICTED BY IDOCK:   -7.34 KCAL/MOL
REMARK 924 INTRA-LIGAND FREE ENERGY PREDICTED BY IDOCK:   -0.82 KCAL/MOL
REMARK 927      BINDING AFFINITY PREDICTED BY RF-SCORE:    0.00 PKD
ROOT
HETATM    1  C   UNL     1     -11.522   6.482  70.250  1.00  0.00    -0.411 C  
HETATM    2  S   UNL     1     -10.337   7.373  69.153  1.00  0.00    -0.209 SA 
HETATM    3  C   UNL     1      -8.920   7.275  70.344  1.00  0.00    -0.151 C  
HETATM    4  CA  UNL     1      -9.272   6.106  71.299  1.00  0.00    -0.150 C  
HETATM    5  C   UNL     1      -8.849   8.623  71.091  1.00  0.00    -0.249 C  
HETATM    6  C   UNL     1      -7.610   7.129  69.562  1.00  0.00    -0.101 C  
HETATM    7  N   UNL     1     -10.743   6.083  71.439  1.00  0.00    -0.249 N  
HETATM    8  C   UNL     1      -8.811   4.710  70.829  1.00  0.00    -0.119 C  
HETATM    9  C   UNL     1     -11.364   6.995  72.265  1.00  0.00    -0.268 C  
HETATM   10  OXT UNL     1      -7.674   4.420  70.507  1.00  0.00    -0.052 OA 
HETATM   11  O   UNL     1      -9.795   3.771  70.877  1.00  0.00    -0.185 OA 
HETATM   12  CA  UNL     1     -12.411   7.365  71.165  1.00  0.00    -0.308 C  
HETATM   13  O   UNL     1     -11.029   7.402  73.353  1.00  0.00    -0.378 OA 
ENDROOT
BRANCH  12  14
HETATM   14  N   UNL     1     -12.485   8.796  70.762  1.00  0.00    -0.490 N  
HETATM   15  C   UNL     1     -13.105   9.768  71.516  1.00  0.00    -0.411 C  
HETATM   16  H   UNL     1     -12.053   9.071  69.880  1.00  0.00     0.000 HD 
HETATM   17  O   UNL     1     -13.697   9.498  72.557  1.00  0.00    -0.424 OA 
BRANCH  15  18
HETATM   18  C   UNL     1     -13.030  11.208  70.951  1.00  0.00    -0.187 C  
HETATM   19  C   UNL     1     -13.346  12.236  72.041  1.00  0.00    -0.491 C  
BRANCH  18  20
HETATM   20  O   UNL     1     -11.713  11.403  70.428  1.00  0.00    -0.324 OA 
BRANCH  20  21
HETATM   21  C   UNL     1     -11.597  11.870  69.145  1.00  0.00    -0.312 A  
HETATM   22  C   UNL     1     -11.326  11.094  68.016  1.00  0.00    -0.380 A  
HETATM   23  C   UNL     1     -11.288  11.675  66.744  1.00  0.00    -0.354 A  
HETATM   24  C   UNL     1     -11.509  13.040  66.590  1.00  0.00    -0.382 A  
HETATM   25  C   UNL     1     -11.774  13.825  67.710  1.00  0.00    -0.393 A  
HETATM   26  C   UNL     1     -11.828  13.238  68.979  1.00  0.00    -0.365 A  
ENDBRANCH  20  21
ENDBRANCH  18  20
ENDBRANCH  15  18
ENDBRANCH  12  14
TORSDOF 4
ENDMDL
MODEL       27
REMARK 921   NORMALIZED FREE ENERGY PREDICTED BY IDOCK:   -5.97 KCAL/MOL
REMARK 922        TOTAL FREE ENERGY PREDICTED BY IDOCK:   -8.15 KCAL/MOL
REMARK 923 INTER-LIGAND FREE ENERGY PREDICTED BY IDOCK:   -7.38 KCAL/MOL
REMARK 924 INTRA-LIGAND FREE ENERGY PREDICTED BY IDOCK:   -0.77 KCAL/MOL
REMARK 927      BINDING AFFINITY PREDICTED BY RF-SCORE:    0.00 PKD
ROOT
HETATM    1  C   UNL     1     -10.801  13.888  65.681  1.00  0.00    -0.292 C  
HETATM    2  S   UNL     1     -12.143  14.033  66.938  1.00  0.00    -0.385 SA 
HETATM    3  C   UNL     1     -11.105  14.956  68.165  1.00  0.00    -0.283 C  
HETATM    4  CA  UNL     1      -9.945  15.568  67.338  1.00  0.00    -0.234 C  
HETATM    5  C   UNL     1     -10.593  13.934  69.201  1.00  0.00    -0.124 C  
HETATM    6  C   UNL     1     -11.986  15.956  68.923  1.00  0.00    -0.202 C  
HETATM    7  N   UNL     1      -9.651  14.629  66.235  1.00  0.00    -0.297 N  
HETATM    8  C   UNL     1     -10.233  16.955  66.725  1.00  0.00    -0.306 C  
HETATM    9  C   UNL     1      -8.921  13.488  66.488  1.00  0.00    -0.044 C  
HETATM   10  OXT UNL     1     -10.621  17.927  67.345  1.00  0.00    -0.386 OA 
HETATM   11  O   UNL     1      -9.935  17.033  65.400  1.00  0.00    -0.556 OA 
HETATM   12  CA  UNL     1      -9.950  12.591  65.728  1.00  0.00    -0.259 C  
HETATM   13  O   UNL     1      -7.951  13.334  67.195  1.00  0.00    -0.154 OA 
ENDROOT
BRANCH  12  14
HETATM   14  N   UNL     1     -10.565  11.475  66.497  1.00  0.00    -0.248 N  
HETATM   15  C   UNL     1      -9.925  10.281  66.750  1.00  0.00    -0.209 C  
HETATM   16  H   UNL     1     -11.511  11.601  66.857  1.00  0.00     0.000 HD 
HETATM   17  O   UNL     1      -8.811  10.037  66.296  1.00  0.00    -0.140 OA 
BRANCH  15  18
HETATM   18  C   UNL     1     -10.714   9.264  67.612  1.00  0.00    -0.209 C  
HETATM   19  C   UNL     1     -10.522   7.840  67.082  1.00  0.00    -0.413 C  
BRANCH  18  20
HETATM   20  O   UNL     1     -10.244   9.378  68.959  1.00  0.00    -0.191 OA 
BRANCH  20  21
HETATM   21  C   UNL     1     -11.135   9.791  69.914  1.00  0.00    -0.254 A  
HETATM   22  C   UNL     1     -11.833  11.000  69.909  1.00  0.00    -0.431 A  
HETATM   23  C   UNL     1     -12.765  11.290  70.911  1.00  0.00    -0.412 A  
HETATM   24  C   UNL     1     -12.998  10.378  71.936  1.00  0.00    -0.555 A  
HETATM   25  C   UNL     1     -12.302   9.171  71.955  1.00  0.00    -0.455 A  
HETATM   26  C   UNL     1     -11.383   8.877  70.941  1.00  0.00    -0.336 A  
ENDBRANCH  20  21
ENDBRANCH  18  20
ENDBRANCH  15  18
ENDBRANCH  12  14
TORSDOF 4
ENDMDL
MODEL       28
REMARK 921   NORMALIZED FREE ENERGY PREDICTED BY IDOCK:   -5.94 KCAL/MOL
REMARK 922        TOTAL FREE ENERGY PREDICTED BY IDOCK:   -8.11 KCAL/MOL
REMARK 923 INTER-LIGAND FREE ENERGY PREDICTED BY IDOCK:   -7.51 KCAL/MOL
REMARK 924 INTRA-LIGAND FREE ENERGY PREDICTED BY IDOCK:   -0.60 KCAL/MOL
REMARK 927      BINDING AFFINITY PREDICTED BY RF-SCORE:    0.00 PKD
ROOT
HETATM    1  C   UNL     1     -10.839  10.403  67.631  1.00  0.00    -0.306 C  
HETATM    2  S   UNL     1      -9.272  11.138  66.993  1.00  0.00    -0.165 SA 
HETATM    3  C   UNL     1      -8.166  10.027  67.982  1.00  0.00    -0.116 C  
HETATM    4  CA  UNL     1      -9.044   8.802  68.348  1.00  0.00    -0.141 C  
HETATM    5  C   UNL     1      -7.726  10.811  69.236  1.00  0.00    -0.129 C  
HETATM    6  C   UNL     1      -6.898   9.726  67.176  1.00  0.00    -0.083 C  
HETATM    7  N   UNL     1     -10.430   9.287  68.508  1.00  0.00    -0.210 N  
HETATM    8  C   UNL     1      -9.049   7.661  67.308  1.00  0.00    -0.127 C  
HETATM    9  C   UNL     1     -10.795   9.943  69.664  1.00  0.00    -0.253 C  
HETATM   10  OXT UNL     1      -8.057   7.119  66.860  1.00  0.00    -0.113 OA 
HETATM   11  O   UNL     1     -10.299   7.241  66.974  1.00  0.00    -0.251 OA 
HETATM   12  CA  UNL     1     -11.475  11.100  68.863  1.00  0.00    -0.295 C  
HETATM   13  O   UNL     1     -10.493   9.706  70.811  1.00  0.00    -0.290 OA 
ENDROOT
BRANCH  12  14
HETATM   14  N   UNL     1     -10.976  12.478  69.120  1.00  0.00    -0.408 N  
HETATM   15  C   UNL     1     -11.467  13.597  68.483  1.00  0.00    -0.312 C  
HETATM   16  H   UNL     1     -10.230  12.601  69.805  1.00  0.00     0.000 HD 
HETATM   17  O   UNL     1     -12.322  13.517  67.605  1.00  0.00    -0.248 OA 
BRANCH  15  18
HETATM   18  C   UNL     1     -10.852  14.947  68.926  1.00  0.00    -0.250 C  
HETATM   19  C   UNL     1     -10.089  15.600  67.770  1.00  0.00    -0.226 C  
BRANCH  18  20
HETATM   20  O   UNL     1     -11.921  15.787  69.374  1.00  0.00    -0.370 OA 
BRANCH  20  21
HETATM   21  C   UNL     1     -12.407  15.583  70.638  1.00  0.00    -0.416 A  
HETATM   22  C   UNL     1     -13.500  14.779  70.972  1.00  0.00    -0.401 A  
HETATM   23  C   UNL     1     -13.870  14.599  72.308  1.00  0.00    -0.583 A  
HETATM   24  C   UNL     1     -13.160  15.233  73.324  1.00  0.00    -0.630 A  
HETATM   25  C   UNL     1     -12.073  16.042  73.003  1.00  0.00    -0.628 A  
HETATM   26  C   UNL     1     -11.694  16.206  71.666  1.00  0.00    -0.558 A  
ENDBRANCH  20  21
ENDBRANCH  18  20
ENDBRANCH  15  18
ENDBRANCH  12  14
TORSDOF 4
ENDMDL
MODEL       29
REMARK 921   NORMALIZED FREE ENERGY PREDICTED BY IDOCK:   -5.85 KCAL/MOL
REMARK 922        TOTAL FREE ENERGY PREDICTED BY IDOCK:   -8.00 KCAL/MOL
REMARK 923 INTER-LIGAND FREE ENERGY PREDICTED BY IDOCK:   -7.03 KCAL/MOL
REMARK 924 INTRA-LIGAND FREE ENERGY PREDICTED BY IDOCK:   -0.97 KCAL/MOL
REMARK 927      BINDING AFFINITY PREDICTED BY RF-SCORE:    0.00 PKD
ROOT
HETATM    1  C   UNL     1     -12.221  13.351  66.501  1.00  0.00    -0.356 C  
HETATM    2  S   UNL     1     -11.581  14.602  67.696  1.00  0.00    -0.362 SA 
HETATM    3  C   UNL     1     -10.254  15.232  66.566  1.00  0.00    -0.275 C  
HETATM    4  CA  UNL     1     -10.704  14.819  65.141  1.00  0.00    -0.415 C  
HETATM    5  C   UNL     1      -8.935  14.543  66.972  1.00  0.00    -0.258 C  
HETATM    6  C   UNL     1     -10.062  16.734  66.799  1.00  0.00    -0.295 C  
HETATM    7  N   UNL     1     -11.434  13.540  65.265  1.00  0.00    -0.295 N  
HETATM    8  C   UNL     1     -11.622  15.830  64.422  1.00  0.00    -0.240 C  
HETATM    9  C   UNL     1     -10.730  12.366  65.425  1.00  0.00    -0.282 C  
HETATM   10  OXT UNL     1     -11.373  17.010  64.260  1.00  0.00    -1.191 OA 
HETATM   11  O   UNL     1     -12.741  15.263  63.894  1.00  0.00    -0.732 OA 
HETATM   12  CA  UNL     1     -11.633  11.920  66.621  1.00  0.00    -0.264 C  
HETATM   13  O   UNL     1      -9.706  12.003  64.894  1.00  0.00    -0.211 OA 
ENDROOT
BRANCH  12  14
HETATM   14  N   UNL     1     -10.947  11.639  67.911  1.00  0.00    -0.211 N  
HETATM   15  C   UNL     1     -10.451  10.401  68.256  1.00  0.00    -0.191 C  
HETATM   16  H   UNL     1     -10.838  12.405  68.576  1.00  0.00     0.000 HD 
HETATM   17  O   UNL     1     -10.600   9.421  67.531  1.00  0.00    -0.262 OA 
BRANCH  15  18
HETATM   18  C   UNL     1      -9.725  10.323  69.622  1.00  0.00    -0.185 C  
HETATM   19  C   UNL     1     -10.592   9.600  70.657  1.00  0.00    -0.386 C  
BRANCH  18  20
HETATM   20  O   UNL     1      -8.487   9.634  69.419  1.00  0.00    -0.131 OA 
BRANCH  20  21
HETATM   21  C   UNL     1      -7.486  10.299  68.760  1.00  0.00    -0.089 A  
HETATM   22  C   UNL     1      -6.998   9.985  67.490  1.00  0.00    -0.086 A  
HETATM   23  C   UNL     1      -6.010  10.773  66.891  1.00  0.00    -0.069 A  
HETATM   24  C   UNL     1      -5.491  11.876  67.562  1.00  0.00    -0.086 A  
HETATM   25  C   UNL     1      -5.966  12.195  68.832  1.00  0.00    -0.064 A  
HETATM   26  C   UNL     1      -6.967  11.414  69.422  1.00  0.00    -0.092 A  
ENDBRANCH  20  21
ENDBRANCH  18  20
ENDBRANCH  15  18
ENDBRANCH  12  14
TORSDOF 4
ENDMDL
MODEL       30
REMARK 921   NORMALIZED FREE ENERGY PREDICTED BY IDOCK:   -5.84 KCAL/MOL
REMARK 922        TOTAL FREE ENERGY PREDICTED BY IDOCK:   -7.99 KCAL/MOL
REMARK 923 INTER-LIGAND FREE ENERGY PREDICTED BY IDOCK:   -7.46 KCAL/MOL
REMARK 924 INTRA-LIGAND FREE ENERGY PREDICTED BY IDOCK:   -0.52 KCAL/MOL
REMARK 927      BINDING AFFINITY PREDICTED BY RF-SCORE:    0.00 PKD
ROOT
HETATM    1  C   UNL     1     -10.967  14.922  66.666  1.00  0.00    -0.325 C  
HETATM    2  S   UNL     1      -9.150  14.656  66.492  1.00  0.00    -0.197 SA 
HETATM    3  C   UNL     1      -8.962  13.798  68.124  1.00  0.00    -0.190 C  
HETATM    4  CA  UNL     1     -10.383  13.288  68.481  1.00  0.00    -0.239 C  
HETATM    5  C   UNL     1      -8.455  14.841  69.141  1.00  0.00    -0.096 C  
HETATM    6  C   UNL     1      -7.875  12.724  68.009  1.00  0.00    -0.150 C  
HETATM    7  N   UNL     1     -11.348  14.263  67.932  1.00  0.00    -0.282 N  
HETATM    8  C   UNL     1     -10.740  11.892  67.929  1.00  0.00    -0.204 C  
HETATM    9  C   UNL     1     -11.566  15.453  68.591  1.00  0.00    -0.359 C  
HETATM   10  OXT UNL     1     -10.078  10.885  68.093  1.00  0.00    -0.165 OA 
HETATM   11  O   UNL     1     -11.938  11.856  67.285  1.00  0.00    -0.605 OA 
HETATM   12  CA  UNL     1     -11.410  16.279  67.274  1.00  0.00     0.164 C  
HETATM   13  O   UNL     1     -11.660  15.670  69.778  1.00  0.00    -0.303 OA 
ENDROOT
BRANCH  12  14
HETATM   14  N   UNL     1     -10.359  17.334  67.264  1.00  0.00    -0.327 N  
HETATM   15  C   UNL     1     -10.192  18.232  66.232  1.00  0.00    -0.401 C  
HETATM   16  H   UNL     1      -9.730  17.395  68.064  1.00  0.00     0.000 HD 
HETATM   17  O   UNL     1     -10.874  18.178  65.213  1.00  0.00    -0.628 OA 
BRANCH  15  18
HETATM   18  C   UNL     1      -9.075  19.286  66.432  1.00  0.00    -0.352 C  
HETATM   19  C   UNL     1      -9.588  20.470  67.256  1.00  0.00    -0.580 C  
BRANCH  18  20
HETATM   20  O   UNL     1      -7.980  18.640  67.089  1.00  0.00    -0.236 OA 
BRANCH  20  21
HETATM   21  C   UNL     1      -7.074  19.431  67.747  1.00  0.00    -0.245 A  
HETATM   22  C   UNL     1      -6.238  20.380  67.155  1.00  0.00    -0.245 A  
HETATM   23  C   UNL     1      -5.392  21.172  67.938  1.00  0.00    -0.351 A  
HETATM   24  C   UNL     1      -5.364  21.014  69.320  1.00  0.00    -0.381 A  
HETATM   25  C   UNL     1      -6.189  20.066  69.921  1.00  0.00    -0.396 A  
HETATM   26  C   UNL     1      -7.047  19.287  69.137  1.00  0.00    -0.370 A  
ENDBRANCH  20  21
ENDBRANCH  18  20
ENDBRANCH  15  18
ENDBRANCH  12  14
TORSDOF 4
ENDMDL
MODEL       31
REMARK 921   NORMALIZED FREE ENERGY PREDICTED BY IDOCK:   -5.83 KCAL/MOL
REMARK 922        TOTAL FREE ENERGY PREDICTED BY IDOCK:   -7.97 KCAL/MOL
REMARK 923 INTER-LIGAND FREE ENERGY PREDICTED BY IDOCK:   -7.23 KCAL/MOL
REMARK 924 INTRA-LIGAND FREE ENERGY PREDICTED BY IDOCK:   -0.74 KCAL/MOL
REMARK 927      BINDING AFFINITY PREDICTED BY RF-SCORE:    0.00 PKD
ROOT
HETATM    1  C   UNL     1     -11.320  15.823  68.087  1.00  0.00    -0.337 C  
HETATM    2  S   UNL     1      -9.714  15.822  68.994  1.00  0.00    -0.259 SA 
HETATM    3  C   UNL     1      -8.688  16.183  67.494  1.00  0.00    -0.185 C  
HETATM    4  CA  UNL     1      -9.671  16.809  66.470  1.00  0.00    -0.283 C  
HETATM    5  C   UNL     1      -8.114  14.843  66.991  1.00  0.00    -0.200 C  
HETATM    6  C   UNL     1      -7.494  17.057  67.895  1.00  0.00    -0.175 C  
HETATM    7  N   UNL     1     -10.991  16.184  66.693  1.00  0.00    -0.141 N  
HETATM    8  C   UNL     1      -9.840  18.340  66.571  1.00  0.00    -0.361 C  
HETATM    9  C   UNL     1     -11.235  14.916  66.211  1.00  0.00    -0.331 C  
HETATM   10  OXT UNL     1      -8.930  19.147  66.550  1.00  0.00    -0.318 OA 
HETATM   11  O   UNL     1     -11.140  18.739  66.607  1.00  0.00    -0.080 OA 
HETATM   12  CA  UNL     1     -11.826  14.446  67.580  1.00  0.00    -0.378 C  
HETATM   13  O   UNL     1     -10.911  14.416  65.158  1.00  0.00    -0.331 OA 
ENDROOT
BRANCH  12  14
HETATM   14  N   UNL     1     -11.175  13.273  68.224  1.00  0.00    -0.260 N  
HETATM   15  C   UNL     1     -11.419  11.968  67.853  1.00  0.00    -0.330 C  
HETATM   16  H   UNL     1     -10.514  13.443  68.982  1.00  0.00     0.000 HD 
HETATM   17  O   UNL     1     -12.248  11.686  66.992  1.00  0.00    -0.324 OA 
BRANCH  15  18
HETATM   18  C   UNL     1     -10.606  10.890  68.611  1.00  0.00    -0.195 C  
HETATM   19  C   UNL     1      -9.151  10.871  68.131  1.00  0.00    -0.155 C  
BRANCH  18  20
HETATM   20  O   UNL     1     -10.680  11.189  70.008  1.00  0.00    -0.049 OA 
BRANCH  20  21
HETATM   21  C   UNL     1     -11.382  10.326  70.809  1.00  0.00    -0.337 A  
HETATM   22  C   UNL     1     -12.756  10.374  71.052  1.00  0.00    -0.490 A  
HETATM   23  C   UNL     1     -13.374   9.401  71.844  1.00  0.00    -0.508 A  
HETATM   24  C   UNL     1     -12.621   8.379  72.414  1.00  0.00    -0.372 A  
HETATM   25  C   UNL     1     -11.249   8.325  72.185  1.00  0.00    -0.413 A  
HETATM   26  C   UNL     1     -10.635   9.290  71.377  1.00  0.00    -0.417 A  
ENDBRANCH  20  21
ENDBRANCH  18  20
ENDBRANCH  15  18
ENDBRANCH  12  14
TORSDOF 4
ENDMDL
MODEL       32
REMARK 921   NORMALIZED FREE ENERGY PREDICTED BY IDOCK:   -5.80 KCAL/MOL
REMARK 922        TOTAL FREE ENERGY PREDICTED BY IDOCK:   -7.94 KCAL/MOL
REMARK 923 INTER-LIGAND FREE ENERGY PREDICTED BY IDOCK:   -7.43 KCAL/MOL
REMARK 924 INTRA-LIGAND FREE ENERGY PREDICTED BY IDOCK:   -0.51 KCAL/MOL
REMARK 927      BINDING AFFINITY PREDICTED BY RF-SCORE:    0.00 PKD
ROOT
HETATM    1  C   UNL     1      -8.948   7.985  72.724  1.00  0.00    -0.228 C  
HETATM    2  S   UNL     1     -10.256   7.209  73.769  1.00  0.00    -0.311 SA 
HETATM    3  C   UNL     1     -10.320   5.635  72.792  1.00  0.00    -0.193 C  
HETATM    4  CA  UNL     1      -8.968   5.571  72.035  1.00  0.00    -0.134 C  
HETATM    5  C   UNL     1     -11.515   5.741  71.822  1.00  0.00    -0.199 C  
HETATM    6  C   UNL     1     -10.615   4.465  73.736  1.00  0.00    -0.313 C  
HETATM    7  N   UNL     1      -8.571   6.961  71.729  1.00  0.00    -0.120 N  
HETATM    8  C   UNL     1      -7.813   4.898  72.807  1.00  0.00    -0.094 C  
HETATM    9  C   UNL     1      -9.170   7.627  70.682  1.00  0.00    -0.162 C  
HETATM   10  OXT UNL     1      -7.858   3.790  73.308  1.00  0.00    -0.076 OA 
HETATM   11  O   UNL     1      -6.670   5.635  72.818  1.00  0.00    -0.069 OA 
HETATM   12  CA  UNL     1      -9.440   8.889  71.563  1.00  0.00    -0.277 C  
HETATM   13  O   UNL     1      -9.474   7.220  69.584  1.00  0.00    -0.156 OA 
ENDROOT
BRANCH  12  14
HETATM   14  N   UNL     1     -10.856   9.333  71.682  1.00  0.00    -0.372 N  
HETATM   15  C   UNL     1     -11.512  10.056  70.709  1.00  0.00    -0.356 C  
HETATM   16  H   UNL     1     -11.368   9.090  72.530  1.00  0.00     0.000 HD 
HETATM   17  O   UNL     1     -10.940  10.435  69.691  1.00  0.00    -0.239 OA 
BRANCH  15  18
HETATM   18  C   UNL     1     -12.998  10.380  70.998  1.00  0.00    -0.399 C  
HETATM   19  C   UNL     1     -13.764   9.111  71.385  1.00  0.00    -0.326 C  
BRANCH  18  20
HETATM   20  O   UNL     1     -13.037  11.344  72.055  1.00  0.00    -0.487 OA 
BRANCH  20  21
HETATM   21  C   UNL     1     -13.102  12.669  71.708  1.00  0.00    -0.360 A  
HETATM   22  C   UNL     1     -12.297  13.305  70.761  1.00  0.00    -0.425 A  
HETATM   23  C   UNL     1     -12.495  14.653  70.448  1.00  0.00    -0.410 A  
HETATM   24  C   UNL     1     -13.491  15.383  71.089  1.00  0.00    -0.565 A  
HETATM   25  C   UNL     1     -14.295  14.761  72.041  1.00  0.00    -0.642 A  
HETATM   26  C   UNL     1     -14.107  13.407  72.340  1.00  0.00    -0.517 A  
ENDBRANCH  20  21
ENDBRANCH  18  20
ENDBRANCH  15  18
ENDBRANCH  12  14
TORSDOF 4
ENDMDL
MODEL       33
REMARK 921   NORMALIZED FREE ENERGY PREDICTED BY IDOCK:   -5.79 KCAL/MOL
REMARK 922        TOTAL FREE ENERGY PREDICTED BY IDOCK:   -7.93 KCAL/MOL
REMARK 923 INTER-LIGAND FREE ENERGY PREDICTED BY IDOCK:   -7.29 KCAL/MOL
REMARK 924 INTRA-LIGAND FREE ENERGY PREDICTED BY IDOCK:   -0.63 KCAL/MOL
REMARK 927      BINDING AFFINITY PREDICTED BY RF-SCORE:    0.00 PKD
ROOT
HETATM    1  C   UNL     1      -7.914  17.676  68.601  1.00  0.00    -0.275 C  
HETATM    2  S   UNL     1      -6.923  17.647  67.046  1.00  0.00    -0.191 SA 
HETATM    3  C   UNL     1      -7.074  19.468  66.733  1.00  0.00    -0.207 C  
HETATM    4  CA  UNL     1      -7.427  20.089  68.109  1.00  0.00    -0.266 C  
HETATM    5  C   UNL     1      -8.208  19.669  65.706  1.00  0.00    -0.074 C  
HETATM    6  C   UNL     1      -5.786  19.978  66.079  1.00  0.00    -0.184 C  
HETATM    7  N   UNL     1      -8.239  19.096  68.842  1.00  0.00    -0.334 N  
HETATM    8  C   UNL     1      -6.217  20.468  68.990  1.00  0.00    -0.295 C  
HETATM    9  C   UNL     1      -9.572  18.939  68.528  1.00  0.00    -0.380 C  
HETATM   10  OXT UNL     1      -5.291  21.175  68.641  1.00  0.00    -0.320 OA 
HETATM   11  O   UNL     1      -6.307  19.995  70.263  1.00  0.00    -0.358 OA 
HETATM   12  CA  UNL     1      -9.431  17.384  68.456  1.00  0.00    -0.297 C  
HETATM   13  O   UNL     1     -10.404  19.775  68.262  1.00  0.00    -0.435 OA 
ENDROOT
BRANCH  12  14
HETATM   14  N   UNL     1      -9.817  16.733  67.174  1.00  0.00    -0.252 N  
HETATM   15  C   UNL     1     -10.795  15.768  67.074  1.00  0.00    -0.273 C  
HETATM   16  H   UNL     1      -9.330  17.018  66.324  1.00  0.00     0.000 HD 
HETATM   17  O   UNL     1     -11.378  15.335  68.064  1.00  0.00    -0.318 OA 
BRANCH  15  18
HETATM   18  C   UNL     1     -11.085  15.250  65.644  1.00  0.00    -0.308 C  
HETATM   19  C   UNL     1     -11.380  16.415  64.695  1.00  0.00    -0.166 C  
BRANCH  18  20
HETATM   20  O   UNL     1      -9.940  14.511  65.207  1.00  0.00    -0.363 OA 
BRANCH  20  21
HETATM   21  C   UNL     1     -10.067  13.152  65.082  1.00  0.00    -0.223 A  
HETATM   22  C   UNL     1     -10.431  12.470  63.919  1.00  0.00    -0.464 A  
HETATM   23  C   UNL     1     -10.472  11.073  63.895  1.00  0.00    -0.422 A  
HETATM   24  C   UNL     1     -10.161  10.342  65.038  1.00  0.00    -0.379 A  
HETATM   25  C   UNL     1      -9.803  11.011  66.206  1.00  0.00    -0.257 A  
HETATM   26  C   UNL     1      -9.746  12.410  66.222  1.00  0.00    -0.253 A  
ENDBRANCH  20  21
ENDBRANCH  18  20
ENDBRANCH  15  18
ENDBRANCH  12  14
TORSDOF 4
ENDMDL
MODEL       34
REMARK 921   NORMALIZED FREE ENERGY PREDICTED BY IDOCK:   -5.76 KCAL/MOL
REMARK 922        TOTAL FREE ENERGY PREDICTED BY IDOCK:   -7.88 KCAL/MOL
REMARK 923 INTER-LIGAND FREE ENERGY PREDICTED BY IDOCK:   -6.83 KCAL/MOL
REMARK 924 INTRA-LIGAND FREE ENERGY PREDICTED BY IDOCK:   -1.05 KCAL/MOL
REMARK 927      BINDING AFFINITY PREDICTED BY RF-SCORE:    0.00 PKD
ROOT
HETATM    1  C   UNL     1     -10.890  15.282  69.091  1.00  0.00    -0.250 C  
HETATM    2  S   UNL     1      -9.060  15.053  69.058  1.00  0.00    -0.185 SA 
HETATM    3  C   UNL     1      -8.922  15.181  67.214  1.00  0.00    -0.199 C  
HETATM    4  CA  UNL     1     -10.209  15.919  66.760  1.00  0.00    -0.282 C  
HETATM    5  C   UNL     1      -8.857  13.745  66.653  1.00  0.00    -0.089 C  
HETATM    6  C   UNL     1      -7.598  15.861  66.852  1.00  0.00    -0.255 C  
HETATM    7  N   UNL     1     -11.288  15.528  67.691  1.00  0.00    -0.301 N  
HETATM    8  C   UNL     1     -10.115  17.459  66.750  1.00  0.00    -0.313 C  
HETATM    9  C   UNL     1     -11.897  14.300  67.552  1.00  0.00    -0.395 C  
HETATM   10  OXT UNL     1      -9.257  18.104  66.177  1.00  0.00    -0.477 OA 
HETATM   11  O   UNL     1     -11.150  18.068  67.389  1.00  0.00    -0.190 OA 
HETATM   12  CA  UNL     1     -11.747  13.989  69.077  1.00  0.00    -0.330 C  
HETATM   13  O   UNL     1     -12.226  13.712  66.547  1.00  0.00    -0.419 OA 
ENDROOT
BRANCH  12  14
HETATM   14  N   UNL     1     -11.005  12.751  69.439  1.00  0.00    -0.450 N  
HETATM   15  C   UNL     1     -11.446  11.481  69.135  1.00  0.00    -0.297 C  
HETATM   16  H   UNL     1     -10.121  12.847  69.940  1.00  0.00     0.000 HD 
HETATM   17  O   UNL     1     -12.529  11.288  68.588  1.00  0.00    -0.442 OA 
BRANCH  15  18
HETATM   18  C   UNL     1     -10.506  10.324  69.552  1.00  0.00    -0.244 C  
HETATM   19  C   UNL     1     -10.984   9.681  70.858  1.00  0.00    -0.412 C  
BRANCH  18  20
HETATM   20  O   UNL     1     -10.491   9.368  68.487  1.00  0.00    -0.200 OA 
BRANCH  20  21
HETATM   21  C   UNL     1      -9.730   9.655  67.383  1.00  0.00    -0.156 A  
HETATM   22  C   UNL     1     -10.213   9.835  66.085  1.00  0.00    -0.278 A  
HETATM   23  C   UNL     1      -9.345  10.182  65.045  1.00  0.00    -0.299 A  
HETATM   24  C   UNL     1      -7.984  10.340  65.289  1.00  0.00    -0.148 A  
HETATM   25  C   UNL     1      -7.491  10.156  66.578  1.00  0.00    -0.109 A  
HETATM   26  C   UNL     1      -8.364   9.825  67.622  1.00  0.00    -0.114 A  
ENDBRANCH  20  21
ENDBRANCH  18  20
ENDBRANCH  15  18
ENDBRANCH  12  14
TORSDOF 4
ENDMDL
MODEL       35
REMARK 921   NORMALIZED FREE ENERGY PREDICTED BY IDOCK:   -5.73 KCAL/MOL
REMARK 922        TOTAL FREE ENERGY PREDICTED BY IDOCK:   -7.85 KCAL/MOL
REMARK 923 INTER-LIGAND FREE ENERGY PREDICTED BY IDOCK:   -7.77 KCAL/MOL
REMARK 924 INTRA-LIGAND FREE ENERGY PREDICTED BY IDOCK:   -0.08 KCAL/MOL
REMARK 927      BINDING AFFINITY PREDICTED BY RF-SCORE:    0.00 PKD
ROOT
HETATM    1  C   UNL     1     -12.080  14.584  68.221  1.00  0.00    -0.199 C  
HETATM    2  S   UNL     1     -12.148  14.196  66.419  1.00  0.00    -0.431 SA 
HETATM    3  C   UNL     1     -10.750  12.980  66.471  1.00  0.00    -0.278 C  
HETATM    4  CA  UNL     1     -10.650  12.538  67.954  1.00  0.00    -0.218 C  
HETATM    5  C   UNL     1      -9.477  13.717  66.006  1.00  0.00    -0.113 C  
HETATM    6  C   UNL     1     -11.014  11.862  65.456  1.00  0.00    -0.347 C  
HETATM    7  N   UNL     1     -11.042  13.697  68.783  1.00  0.00    -0.260 N  
HETATM    8  C   UNL     1     -11.542  11.341  68.346  1.00  0.00    -0.308 C  
HETATM    9  C   UNL     1     -10.146  14.724  68.987  1.00  0.00    -0.232 C  
HETATM   10  OXT UNL     1     -11.558  10.265  67.779  1.00  0.00    -0.331 OA 
HETATM   11  O   UNL     1     -12.281  11.563  69.467  1.00  0.00    -0.289 OA 
HETATM   12  CA  UNL     1     -11.216  15.806  68.630  1.00  0.00    -0.351 C  
HETATM   13  O   UNL     1      -8.956  14.678  69.194  1.00  0.00    -0.133 OA 
ENDROOT
BRANCH  12  14
HETATM   14  N   UNL     1     -10.886  16.733  67.514  1.00  0.00    -0.270 N  
HETATM   15  C   UNL     1     -10.446  18.026  67.701  1.00  0.00    -0.409 C  
HETATM   16  H   UNL     1     -10.992  16.394  66.558  1.00  0.00     0.000 HD 
HETATM   17  O   UNL     1     -10.353  18.519  68.822  1.00  0.00    -0.338 OA 
BRANCH  15  18
HETATM   18  C   UNL     1     -10.107  18.815  66.413  1.00  0.00    -0.404 C  
HETATM   19  C   UNL     1     -10.382  20.309  66.604  1.00  0.00    -0.418 C  
BRANCH  18  20
HETATM   20  O   UNL     1      -8.728  18.582  66.109  1.00  0.00    -0.462 OA 
BRANCH  20  21
HETATM   21  C   UNL     1      -7.809  19.484  66.578  1.00  0.00    -0.291 A  
HETATM   22  C   UNL     1      -7.538  19.748  67.922  1.00  0.00    -0.331 A  
HETATM   23  C   UNL     1      -6.534  20.652  68.283  1.00  0.00    -0.327 A  
HETATM   24  C   UNL     1      -5.799  21.311  67.302  1.00  0.00    -0.409 A  
HETATM   25  C   UNL     1      -6.065  21.060  65.958  1.00  0.00    -0.304 A  
HETATM   26  C   UNL     1      -7.059  20.142  65.600  1.00  0.00    -0.316 A  
ENDBRANCH  20  21
ENDBRANCH  18  20
ENDBRANCH  15  18
ENDBRANCH  12  14
TORSDOF 4
ENDMDL
MODEL       36
REMARK 921   NORMALIZED FREE ENERGY PREDICTED BY IDOCK:   -5.70 KCAL/MOL
REMARK 922        TOTAL FREE ENERGY PREDICTED BY IDOCK:   -7.81 KCAL/MOL
REMARK 923 INTER-LIGAND FREE ENERGY PREDICTED BY IDOCK:   -6.93 KCAL/MOL
REMARK 924 INTRA-LIGAND FREE ENERGY PREDICTED BY IDOCK:   -0.89 KCAL/MOL
REMARK 927      BINDING AFFINITY PREDICTED BY RF-SCORE:    0.00 PKD
ROOT
HETATM    1  C   UNL     1      -9.354  16.290  69.449  1.00  0.00    -0.138 C  
HETATM    2  S   UNL     1      -8.017  16.010  68.210  1.00  0.00    -0.150 SA 
HETATM    3  C   UNL     1      -8.869  16.941  66.851  1.00  0.00    -0.225 C  
HETATM    4  CA  UNL     1      -9.886  17.866  67.569  1.00  0.00    -0.309 C  
HETATM    5  C   UNL     1      -9.572  15.906  65.950  1.00  0.00    -0.378 C  
HETATM    6  C   UNL     1      -7.819  17.646  65.986  1.00  0.00    -0.201 C  
HETATM    7  N   UNL     1     -10.347  17.155  68.779  1.00  0.00    -0.335 N  
HETATM    8  C   UNL     1      -9.336  19.243  67.998  1.00  0.00    -0.328 C  
HETATM    9  C   UNL     1     -11.281  16.149  68.666  1.00  0.00    -0.369 C  
HETATM   10  OXT UNL     1      -8.775  20.033  67.262  1.00  0.00    -0.319 OA 
HETATM   11  O   UNL     1      -9.606  19.551  69.295  1.00  0.00    -0.361 OA 
HETATM   12  CA  UNL     1     -10.436  15.183  69.557  1.00  0.00    -0.260 C  
HETATM   13  O   UNL     1     -12.267  16.089  67.967  1.00  0.00     0.304 OA 
ENDROOT
BRANCH  12  14
HETATM   14  N   UNL     1     -10.049  13.879  68.954  1.00  0.00    -0.399 N  
HETATM   15  C   UNL     1     -10.867  12.769  68.949  1.00  0.00    -0.196 C  
HETATM   16  H   UNL     1      -9.129  13.802  68.521  1.00  0.00     0.000 HD 
HETATM   17  O   UNL     1     -11.962  12.772  69.504  1.00  0.00    -0.309 OA 
BRANCH  15  18
HETATM   18  C   UNL     1     -10.303  11.521  68.227  1.00  0.00    -0.197 C  
HETATM   19  C   UNL     1     -10.111  10.365  69.212  1.00  0.00    -0.248 C  
BRANCH  18  20
HETATM   20  O   UNL     1     -11.222  11.164  67.190  1.00  0.00    -0.298 OA 
BRANCH  20  21
HETATM   21  C   UNL     1     -10.764  11.175  65.898  1.00  0.00    -0.198 A  
HETATM   22  C   UNL     1      -9.940  10.209  65.317  1.00  0.00    -0.381 A  
HETATM   23  C   UNL     1      -9.583  10.295  63.968  1.00  0.00    -0.365 A  
HETATM   24  C   UNL     1     -10.035  11.356  63.189  1.00  0.00    -0.402 A  
HETATM   25  C   UNL     1     -10.853  12.329  63.760  1.00  0.00    -0.495 A  
HETATM   26  C   UNL     1     -11.223  12.231  65.106  1.00  0.00    -0.369 A  
ENDBRANCH  20  21
ENDBRANCH  18  20
ENDBRANCH  15  18
ENDBRANCH  12  14
TORSDOF 4
ENDMDL
MODEL       37
REMARK 921   NORMALIZED FREE ENERGY PREDICTED BY IDOCK:   -5.67 KCAL/MOL
REMARK 922        TOTAL FREE ENERGY PREDICTED BY IDOCK:   -7.78 KCAL/MOL
REMARK 923 INTER-LIGAND FREE ENERGY PREDICTED BY IDOCK:   -7.08 KCAL/MOL
REMARK 924 INTRA-LIGAND FREE ENERGY PREDICTED BY IDOCK:   -0.69 KCAL/MOL
REMARK 927      BINDING AFFINITY PREDICTED BY RF-SCORE:    0.00 PKD
ROOT
HETATM    1  C   UNL     1     -10.551  10.554  66.255  1.00  0.00    -0.133 C  
HETATM    2  S   UNL     1      -8.716  10.717  66.149  1.00  0.00    -0.176 SA 
HETATM    3  C   UNL     1      -8.395   9.912  67.788  1.00  0.00    -0.114 C  
HETATM    4  CA  UNL     1      -9.672   9.086  68.092  1.00  0.00    -0.152 C  
HETATM    5  C   UNL     1      -8.181  11.037  68.821  1.00  0.00    -0.146 C  
HETATM    6  C   UNL     1      -7.086   9.119  67.714  1.00  0.00    -0.079 C  
HETATM    7  N   UNL     1     -10.815   9.815  67.506  1.00  0.00    -0.270 N  
HETATM    8  C   UNL     1      -9.676   7.649  67.528  1.00  0.00    -0.156 C  
HETATM    9  C   UNL     1     -11.327  10.918  68.156  1.00  0.00    -0.315 C  
HETATM   10  OXT UNL     1      -8.806   6.820  67.718  1.00  0.00    -0.120 OA 
HETATM   11  O   UNL     1     -10.809   7.342  66.840  1.00  0.00    -0.357 OA 
HETATM   12  CA  UNL     1     -11.317  11.768  66.844  1.00  0.00    -0.320 C  
HETATM   13  O   UNL     1     -11.511  11.098  69.337  1.00  0.00    -0.243 OA 
ENDROOT
BRANCH  12  14
HETATM   14  N   UNL     1     -10.539  13.036  66.872  1.00  0.00    -0.253 N  
HETATM   15  C   UNL     1     -11.057  14.238  67.303  1.00  0.00    -0.306 C  
HETATM   16  H   UNL     1      -9.570  13.015  66.555  1.00  0.00     0.000 HD 
HETATM   17  O   UNL     1     -12.233  14.350  67.641  1.00  0.00    -0.328 OA 
BRANCH  15  18
HETATM   18  C   UNL     1     -10.073  15.434  67.304  1.00  0.00    -0.238 C  
HETATM   19  C   UNL     1      -8.771  15.064  66.588  1.00  0.00    -0.289 C  
BRANCH  18  20
HETATM   20  O   UNL     1     -10.721  16.532  66.655  1.00  0.00    -0.265 OA 
BRANCH  20  21
HETATM   21  C   UNL     1     -10.431  17.797  67.097  1.00  0.00    -0.335 A  
HETATM   22  C   UNL     1     -10.174  18.159  68.421  1.00  0.00    -0.401 A  
HETATM   23  C   UNL     1      -9.831  19.475  68.746  1.00  0.00    -0.532 A  
HETATM   24  C   UNL     1      -9.753  20.445  67.752  1.00  0.00    -0.487 A  
HETATM   25  C   UNL     1     -10.013  20.097  66.428  1.00  0.00    -0.573 A  
HETATM   26  C   UNL     1     -10.340  18.775  66.104  1.00  0.00    -0.494 A  
ENDBRANCH  20  21
ENDBRANCH  18  20
ENDBRANCH  15  18
ENDBRANCH  12  14
TORSDOF 4
ENDMDL
MODEL       38
REMARK 921   NORMALIZED FREE ENERGY PREDICTED BY IDOCK:   -5.66 KCAL/MOL
REMARK 922        TOTAL FREE ENERGY PREDICTED BY IDOCK:   -7.77 KCAL/MOL
REMARK 923 INTER-LIGAND FREE ENERGY PREDICTED BY IDOCK:   -7.04 KCAL/MOL
REMARK 924 INTRA-LIGAND FREE ENERGY PREDICTED BY IDOCK:   -0.73 KCAL/MOL
REMARK 927      BINDING AFFINITY PREDICTED BY RF-SCORE:    0.00 PKD
ROOT
HETATM    1  C   UNL     1     -11.339  15.288  66.846  1.00  0.00    -0.209 C  
HETATM    2  S   UNL     1      -9.975  14.992  65.640  1.00  0.00    -0.350 SA 
HETATM    3  C   UNL     1     -10.184  13.150  65.620  1.00  0.00    -0.286 C  
HETATM    4  CA  UNL     1     -11.627  12.899  66.130  1.00  0.00    -0.372 C  
HETATM    5  C   UNL     1      -9.128  12.554  66.573  1.00  0.00    -0.177 C  
HETATM    6  C   UNL     1      -9.868  12.619  64.217  1.00  0.00    -0.085 C  
HETATM    7  N   UNL     1     -11.938  13.963  67.106  1.00  0.00    -0.414 N  
HETATM    8  C   UNL     1     -12.721  12.909  65.041  1.00  0.00    -0.404 C  
HETATM    9  C   UNL     1     -11.430  13.885  68.385  1.00  0.00    -0.311 C  
HETATM   10  OXT UNL     1     -12.706  12.236  64.027  1.00  0.00    -0.635 OA 
HETATM   11  O   UNL     1     -13.782  13.702  65.349  1.00  0.00    -0.208 OA 
HETATM   12  CA  UNL     1     -10.932  15.365  68.341  1.00  0.00    -0.284 C  
HETATM   13  O   UNL     1     -11.316  12.923  69.111  1.00  0.00    -0.261 OA 
ENDROOT
BRANCH  12  14
HETATM   14  N   UNL     1      -9.479  15.591  68.576  1.00  0.00    -0.195 N  
HETATM   15  C   UNL     1      -8.927  16.836  68.789  1.00  0.00    -0.254 C  
HETATM   16  H   UNL     1      -8.860  14.781  68.579  1.00  0.00     0.000 HD 
HETATM   17  O   UNL     1      -9.604  17.859  68.738  1.00  0.00    -0.310 OA 
BRANCH  15  18
HETATM   18  C   UNL     1      -7.404  16.858  69.065  1.00  0.00    -0.231 C  
HETATM   19  C   UNL     1      -6.925  15.495  69.574  1.00  0.00    -0.190 C  
BRANCH  18  20
HETATM   20  O   UNL     1      -6.744  17.209  67.844  1.00  0.00    -0.144 OA 
BRANCH  20  21
HETATM   21  C   UNL     1      -6.446  18.530  67.637  1.00  0.00    -0.204 A  
HETATM   22  C   UNL     1      -6.540  19.206  66.418  1.00  0.00    -0.210 A  
HETATM   23  C   UNL     1      -6.263  20.574  66.339  1.00  0.00    -0.251 A  
HETATM   24  C   UNL     1      -5.875  21.278  67.475  1.00  0.00    -0.427 A  
HETATM   25  C   UNL     1      -5.771  20.613  68.694  1.00  0.00    -0.367 A  
HETATM   26  C   UNL     1      -6.065  19.247  68.774  1.00  0.00    -0.259 A  
ENDBRANCH  20  21
ENDBRANCH  18  20
ENDBRANCH  15  18
ENDBRANCH  12  14
TORSDOF 4
ENDMDL
MODEL       39
REMARK 921   NORMALIZED FREE ENERGY PREDICTED BY IDOCK:   -5.62 KCAL/MOL
REMARK 922        TOTAL FREE ENERGY PREDICTED BY IDOCK:   -7.71 KCAL/MOL
REMARK 923 INTER-LIGAND FREE ENERGY PREDICTED BY IDOCK:   -6.76 KCAL/MOL
REMARK 924 INTRA-LIGAND FREE ENERGY PREDICTED BY IDOCK:   -0.94 KCAL/MOL
REMARK 927      BINDING AFFINITY PREDICTED BY RF-SCORE:    0.00 PKD
ROOT
HETATM    1  C   UNL     1      -8.935   9.813  68.353  1.00  0.00    -0.123 C  
HETATM    2  S   UNL     1      -8.962   9.763  70.197  1.00  0.00    -0.124 SA 
HETATM    3  C   UNL     1     -10.680   9.075  70.307  1.00  0.00    -0.230 C  
HETATM    4  CA  UNL     1     -10.947   8.425  68.924  1.00  0.00     0.152 C  
HETATM    5  C   UNL     1     -11.635  10.256  70.579  1.00  0.00    -0.424 C  
HETATM    6  C   UNL     1     -10.774   8.139  71.516  1.00  0.00    -0.286 C  
HETATM    7  N   UNL     1     -10.216   9.222  67.918  1.00  0.00    -0.201 N  
HETATM    8  C   UNL     1     -10.501   6.953  68.792  1.00  0.00    -0.205 C  
HETATM    9  C   UNL     1     -10.733  10.427  67.494  1.00  0.00    -0.287 C  
HETATM   10  OXT UNL     1     -10.824   6.054  69.544  1.00  0.00    -0.297 OA 
HETATM   11  O   UNL     1      -9.751   6.714  67.682  1.00  0.00    -0.122 OA 
HETATM   12  CA  UNL     1      -9.363  11.152  67.695  1.00  0.00    -0.165 C  
HETATM   13  O   UNL     1     -11.878  10.730  67.250  1.00  0.00    -0.298 OA 
ENDROOT
BRANCH  12  14
HETATM   14  N   UNL     1      -9.351  12.324  68.612  1.00  0.00    -0.393 N  
HETATM   15  C   UNL     1      -9.672  13.604  68.215  1.00  0.00    -0.231 C  
HETATM   16  H   UNL     1      -9.092  12.172  69.586  1.00  0.00     0.000 HD 
HETATM   17  O   UNL     1      -9.934  13.871  67.045  1.00  0.00    -0.248 OA 
BRANCH  15  18
HETATM   18  C   UNL     1      -9.650  14.679  69.329  1.00  0.00    -0.010 C  
HETATM   19  C   UNL     1      -8.700  15.823  68.961  1.00  0.00    -0.237 C  
BRANCH  18  20
HETATM   20  O   UNL     1     -10.988  15.159  69.499  1.00  0.00    -0.247 OA 
BRANCH  20  21
HETATM   21  C   UNL     1     -11.602  14.926  70.702  1.00  0.00    -0.291 A  
HETATM   22  C   UNL     1     -11.481  15.719  71.846  1.00  0.00    -0.477 A  
HETATM   23  C   UNL     1     -12.204  15.414  73.003  1.00  0.00    -0.542 A  
HETATM   24  C   UNL     1     -13.045  14.306  73.033  1.00  0.00    -0.526 A  
HETATM   25  C   UNL     1     -13.169  13.505  71.901  1.00  0.00    -0.510 A  
HETATM   26  C   UNL     1     -12.457  13.822  70.738  1.00  0.00    -0.441 A  
ENDBRANCH  20  21
ENDBRANCH  18  20
ENDBRANCH  15  18
ENDBRANCH  12  14
TORSDOF 4
ENDMDL
MODEL       40
REMARK 921   NORMALIZED FREE ENERGY PREDICTED BY IDOCK:   -5.60 KCAL/MOL
REMARK 922        TOTAL FREE ENERGY PREDICTED BY IDOCK:   -7.69 KCAL/MOL
REMARK 923 INTER-LIGAND FREE ENERGY PREDICTED BY IDOCK:   -7.03 KCAL/MOL
REMARK 924 INTRA-LIGAND FREE ENERGY PREDICTED BY IDOCK:   -0.66 KCAL/MOL
REMARK 927      BINDING AFFINITY PREDICTED BY RF-SCORE:    0.00 PKD
ROOT
HETATM    1  C   UNL     1      -7.841  16.046  68.053  1.00  0.00    -0.137 C  
HETATM    2  S   UNL     1      -8.561  16.018  66.356  1.00  0.00    -0.331 SA 
HETATM    3  C   UNL     1     -10.157  16.820  66.852  1.00  0.00    -0.286 C  
HETATM    4  CA  UNL     1      -9.849  17.548  68.186  1.00  0.00    -0.306 C  
HETATM    5  C   UNL     1     -11.200  15.699  67.038  1.00  0.00    -0.127 C  
HETATM    6  C   UNL     1     -10.656  17.707  65.706  1.00  0.00    -0.177 C  
HETATM    7  N   UNL     1      -8.831  16.746  68.897  1.00  0.00    -0.253 N  
HETATM    8  C   UNL     1      -9.314  18.988  68.043  1.00  0.00    -0.317 C  
HETATM    9  C   UNL     1      -9.208  15.600  69.563  1.00  0.00    -0.259 C  
HETATM   10  OXT UNL     1      -9.853  19.875  67.408  1.00  0.00    -0.358 OA 
HETATM   11  O   UNL     1      -8.189  19.222  68.772  1.00  0.00    -0.360 OA 
HETATM   12  CA  UNL     1      -8.053  14.772  68.913  1.00  0.00    -0.160 C  
HETATM   13  O   UNL     1     -10.189  15.390  70.239  1.00  0.00    -0.274 OA 
ENDROOT
BRANCH  12  14
HETATM   14  N   UNL     1      -8.447  13.563  68.140  1.00  0.00    -0.165 N  
HETATM   15  C   UNL     1      -7.572  12.839  67.360  1.00  0.00    -0.152 C  
HETATM   16  H   UNL     1      -9.418  13.253  68.190  1.00  0.00     0.000 HD 
HETATM   17  O   UNL     1      -6.405  13.188  67.205  1.00  0.00    -0.257 OA 
BRANCH  15  18
HETATM   18  C   UNL     1      -8.163  11.582  66.674  1.00  0.00    -0.156 C  
HETATM   19  C   UNL     1      -7.563  10.306  67.271  1.00  0.00    -0.095 C  
BRANCH  18  20
HETATM   20  O   UNL     1      -9.582  11.614  66.854  1.00  0.00    -0.182 OA 
BRANCH  20  21
HETATM   21  C   UNL     1     -10.358  11.910  65.764  1.00  0.00    -0.248 A  
HETATM   22  C   UNL     1      -9.999  11.710  64.429  1.00  0.00    -0.298 A  
HETATM   23  C   UNL     1     -10.900  11.997  63.399  1.00  0.00    -0.471 A  
HETATM   24  C   UNL     1     -12.164  12.499  63.692  1.00  0.00    -0.642 A  
HETATM   25  C   UNL     1     -12.530  12.709  65.019  1.00  0.00    -0.556 A  
HETATM   26  C   UNL     1     -11.633  12.405  66.050  1.00  0.00    -0.455 A  
ENDBRANCH  20  21
ENDBRANCH  18  20
ENDBRANCH  15  18
ENDBRANCH  12  14
TORSDOF 4
ENDMDL
MODEL       41
REMARK 921   NORMALIZED FREE ENERGY PREDICTED BY IDOCK:   -5.58 KCAL/MOL
REMARK 922        TOTAL FREE ENERGY PREDICTED BY IDOCK:   -7.66 KCAL/MOL
REMARK 923 INTER-LIGAND FREE ENERGY PREDICTED BY IDOCK:   -6.98 KCAL/MOL
REMARK 924 INTRA-LIGAND FREE ENERGY PREDICTED BY IDOCK:   -0.68 KCAL/MOL
REMARK 927      BINDING AFFINITY PREDICTED BY RF-SCORE:    0.00 PKD
ROOT
HETATM    1  C   UNL     1      -9.337  14.404  66.814  1.00  0.00    -0.268 C  
HETATM    2  S   UNL     1      -9.569  13.151  65.480  1.00  0.00     0.160 SA 
HETATM    3  C   UNL     1     -11.359  13.549  65.204  1.00  0.00    -0.301 C  
HETATM    4  CA  UNL     1     -11.550  14.978  65.776  1.00  0.00    -0.171 C  
HETATM    5  C   UNL     1     -12.190  12.506  65.979  1.00  0.00    -0.263 C  
HETATM    6  C   UNL     1     -11.694  13.372  63.719  1.00  0.00    -0.426 C  
HETATM    7  N   UNL     1     -10.625  15.119  66.919  1.00  0.00    -0.291 N  
HETATM    8  C   UNL     1     -11.270  16.127  64.784  1.00  0.00    -0.304 C  
HETATM    9  C   UNL     1     -10.946  14.548  68.132  1.00  0.00    -0.251 C  
HETATM   10  OXT UNL     1     -11.777  16.241  63.684  1.00  0.00    -0.860 OA 
HETATM   11  O   UNL     1     -10.439  17.081  65.284  1.00  0.00    -0.649 OA 
HETATM   12  CA  UNL     1      -9.529  13.903  68.270  1.00  0.00    -0.217 C  
HETATM   13  O   UNL     1     -12.014  14.491  68.697  1.00  0.00    -0.322 OA 
ENDROOT
BRANCH  12  14
HETATM   14  N   UNL     1      -9.478  12.424  68.428  1.00  0.00    -0.309 N  
HETATM   15  C   UNL     1      -8.326  11.730  68.727  1.00  0.00    -0.009 C  
HETATM   16  H   UNL     1     -10.342  11.896  68.308  1.00  0.00     0.000 HD 
HETATM   17  O   UNL     1      -7.239  12.294  68.825  1.00  0.00    -0.106 OA 
BRANCH  15  18
HETATM   18  C   UNL     1      -8.488  10.200  68.900  1.00  0.00    -0.139 C  
HETATM   19  C   UNL     1      -7.737   9.712  70.142  1.00  0.00    -0.179 C  
BRANCH  18  20
HETATM   20  O   UNL     1      -9.888   9.919  69.004  1.00  0.00    -0.173 OA 
BRANCH  20  21
HETATM   21  C   UNL     1     -10.320   8.676  68.621  1.00  0.00    -0.193 A  
HETATM   22  C   UNL     1     -10.402   8.209  67.307  1.00  0.00    -0.373 A  
HETATM   23  C   UNL     1     -10.804   6.897  67.041  1.00  0.00    -0.436 A  
HETATM   24  C   UNL     1     -11.142   6.041  68.085  1.00  0.00    -0.246 A  
HETATM   25  C   UNL     1     -11.071   6.497  69.399  1.00  0.00    -0.407 A  
HETATM   26  C   UNL     1     -10.651   7.806  69.664  1.00  0.00    -0.242 A  
ENDBRANCH  20  21
ENDBRANCH  18  20
ENDBRANCH  15  18
ENDBRANCH  12  14
TORSDOF 4
ENDMDL
MODEL       42
REMARK 921   NORMALIZED FREE ENERGY PREDICTED BY IDOCK:   -5.57 KCAL/MOL
REMARK 922        TOTAL FREE ENERGY PREDICTED BY IDOCK:   -7.65 KCAL/MOL
REMARK 923 INTER-LIGAND FREE ENERGY PREDICTED BY IDOCK:   -6.92 KCAL/MOL
REMARK 924 INTRA-LIGAND FREE ENERGY PREDICTED BY IDOCK:   -0.73 KCAL/MOL
REMARK 927      BINDING AFFINITY PREDICTED BY RF-SCORE:    0.00 PKD
ROOT
HETATM    1  C   UNL     1     -11.420  10.864  66.157  1.00  0.00     0.580 C  
HETATM    2  S   UNL     1     -11.530  12.251  67.368  1.00  0.00    -0.360 SA 
HETATM    3  C   UNL     1     -10.604  13.456  66.307  1.00  0.00    -0.291 C  
HETATM    4  CA  UNL     1     -10.717  12.898  64.864  1.00  0.00    -0.312 C  
HETATM    5  C   UNL     1      -9.142  13.478  66.799  1.00  0.00    -0.223 C  
HETATM    6  C   UNL     1     -11.170  14.863  66.526  1.00  0.00    -0.335 C  
HETATM    7  N   UNL     1     -10.750  11.424  64.967  1.00  0.00    -0.291 N  
HETATM    8  C   UNL     1     -11.964  13.354  64.077  1.00  0.00    -0.464 C  
HETATM    9  C   UNL     1      -9.580  10.729  65.186  1.00  0.00    -0.245 C  
HETATM   10  OXT UNL     1     -12.302  14.511  63.912  1.00  0.00    -0.730 OA 
HETATM   11  O   UNL     1     -12.640  12.328  63.495  1.00  0.00    -0.667 OA 
HETATM   12  CA  UNL     1     -10.226   9.888  66.334  1.00  0.00    -0.222 C  
HETATM   13  O   UNL     1      -8.478  10.909  64.720  1.00  0.00    -0.094 OA 
ENDROOT
BRANCH  12  14
HETATM   14  N   UNL     1      -9.566   9.953  67.666  1.00  0.00    -0.147 N  
HETATM   15  C   UNL     1      -9.398   8.858  68.487  1.00  0.00    -0.140 C  
HETATM   16  H   UNL     1      -9.220  10.856  67.989  1.00  0.00     0.000 HD 
HETATM   17  O   UNL     1      -9.843   7.754  68.189  1.00  0.00    -0.157 OA 
BRANCH  15  18
HETATM   18  C   UNL     1      -8.641   9.121  69.812  1.00  0.00    -0.142 C  
HETATM   19  C   UNL     1      -7.227   9.638  69.535  1.00  0.00    -0.080 C  
BRANCH  18  20
HETATM   20  O   UNL     1      -9.398  10.075  70.564  1.00  0.00    -0.033 OA 
BRANCH  20  21
HETATM   21  C   UNL     1     -10.607   9.675  71.071  1.00  0.00    -0.292 A  
HETATM   22  C   UNL     1     -10.800   8.675  72.026  1.00  0.00    -0.430 A  
HETATM   23  C   UNL     1     -12.080   8.392  72.513  1.00  0.00    -0.403 A  
HETATM   24  C   UNL     1     -13.182   9.098  72.039  1.00  0.00    -0.505 A  
HETATM   25  C   UNL     1     -13.002  10.093  71.082  1.00  0.00    -0.488 A  
HETATM   26  C   UNL     1     -11.718  10.386  70.609  1.00  0.00    -0.444 A  
ENDBRANCH  20  21
ENDBRANCH  18  20
ENDBRANCH  15  18
ENDBRANCH  12  14
TORSDOF 4
ENDMDL
MODEL       43
REMARK 921   NORMALIZED FREE ENERGY PREDICTED BY IDOCK:   -5.56 KCAL/MOL
REMARK 922        TOTAL FREE ENERGY PREDICTED BY IDOCK:   -7.64 KCAL/MOL
REMARK 923 INTER-LIGAND FREE ENERGY PREDICTED BY IDOCK:   -6.82 KCAL/MOL
REMARK 924 INTRA-LIGAND FREE ENERGY PREDICTED BY IDOCK:   -0.82 KCAL/MOL
REMARK 927      BINDING AFFINITY PREDICTED BY RF-SCORE:    0.00 PKD
ROOT
HETATM    1  C   UNL     1      -9.799   6.225  69.625  1.00  0.00    -0.163 C  
HETATM    2  S   UNL     1      -8.505   7.302  70.377  1.00  0.00    -0.141 SA 
HETATM    3  C   UNL     1      -9.182   7.179  72.098  1.00  0.00    -0.129 C  
HETATM    4  CA  UNL     1     -10.053   5.896  72.101  1.00  0.00    -0.180 C  
HETATM    5  C   UNL     1     -10.024   8.444  72.356  1.00  0.00    -0.380 C  
HETATM    6  C   UNL     1      -8.023   7.203  73.101  1.00  0.00    -0.113 C  
HETATM    7  N   UNL     1     -10.635   5.759  70.749  1.00  0.00    -0.256 N  
HETATM    8  C   UNL     1      -9.302   4.590  72.436  1.00  0.00    -0.126 C  
HETATM    9  C   UNL     1     -11.714   6.538  70.389  1.00  0.00    -0.375 C  
HETATM   10  OXT UNL     1      -8.615   4.412  73.424  1.00  0.00    -0.097 OA 
HETATM   11  O   UNL     1      -9.539   3.587  71.548  1.00  0.00    -0.141 OA 
HETATM   12  CA  UNL     1     -11.041   6.947  69.038  1.00  0.00    -0.136 C  
HETATM   13  O   UNL     1     -12.686   6.853  71.035  1.00  0.00    -0.356 OA 
ENDROOT
BRANCH  12  14
HETATM   14  N   UNL     1     -10.853   8.404  68.796  1.00  0.00    -0.432 N  
HETATM   15  C   UNL     1     -10.529   8.936  67.567  1.00  0.00    -0.269 C  
HETATM   16  H   UNL     1     -10.970   9.042  69.583  1.00  0.00     0.000 HD 
HETATM   17  O   UNL     1     -10.315   8.222  66.591  1.00  0.00    -0.308 OA 
BRANCH  15  18
HETATM   18  C   UNL     1     -10.427  10.479  67.508  1.00  0.00    -0.239 C  
HETATM   19  C   UNL     1      -9.799  10.931  66.186  1.00  0.00    -0.268 C  
BRANCH  18  20
HETATM   20  O   UNL     1     -11.748  11.010  67.655  1.00  0.00    -0.576 OA 
BRANCH  20  21
HETATM   21  C   UNL     1     -11.986  11.846  68.715  1.00  0.00    -0.249 A  
HETATM   22  C   UNL     1     -12.353  11.447  70.002  1.00  0.00    -0.311 A  
HETATM   23  C   UNL     1     -12.513  12.391  71.021  1.00  0.00    -0.353 A  
HETATM   24  C   UNL     1     -12.321  13.744  70.761  1.00  0.00    -0.451 A  
HETATM   25  C   UNL     1     -11.962  14.154  69.479  1.00  0.00    -0.389 A  
HETATM   26  C   UNL     1     -11.785  13.206  68.465  1.00  0.00    -0.387 A  
ENDBRANCH  20  21
ENDBRANCH  18  20
ENDBRANCH  15  18
ENDBRANCH  12  14
TORSDOF 4
ENDMDL
MODEL       44
REMARK 921   NORMALIZED FREE ENERGY PREDICTED BY IDOCK:   -5.56 KCAL/MOL
REMARK 922        TOTAL FREE ENERGY PREDICTED BY IDOCK:   -7.64 KCAL/MOL
REMARK 923 INTER-LIGAND FREE ENERGY PREDICTED BY IDOCK:   -6.93 KCAL/MOL
REMARK 924 INTRA-LIGAND FREE ENERGY PREDICTED BY IDOCK:   -0.70 KCAL/MOL
REMARK 927      BINDING AFFINITY PREDICTED BY RF-SCORE:    0.00 PKD
ROOT
HETATM    1  C   UNL     1      -8.087  17.788  69.075  1.00  0.00    -0.056 C  
HETATM    2  S   UNL     1      -6.856  17.333  67.780  1.00  0.00    -0.164 SA 
HETATM    3  C   UNL     1      -6.742  19.041  67.069  1.00  0.00    -0.197 C  
HETATM    4  CA  UNL     1      -7.250  19.983  68.191  1.00  0.00    -0.285 C  
HETATM    5  C   UNL     1      -7.653  19.088  65.826  1.00  0.00    -0.127 C  
HETATM    6  C   UNL     1      -5.310  19.292  66.581  1.00  0.00    -0.166 C  
HETATM    7  N   UNL     1      -8.284  19.246  68.947  1.00  0.00    -0.345 N  
HETATM    8  C   UNL     1      -6.173  20.461  69.188  1.00  0.00    -0.310 C  
HETATM    9  C   UNL     1      -9.552  19.121  68.423  1.00  0.00    -0.378 C  
HETATM   10  OXT UNL     1      -5.125  20.999  68.882  1.00  0.00    -0.287 OA 
HETATM   11  O   UNL     1      -6.532  20.298  70.490  1.00  0.00    -0.427 OA 
HETATM   12  CA  UNL     1      -9.581  17.584  68.707  1.00  0.00    -0.277 C  
HETATM   13  O   UNL     1     -10.225  19.935  67.833  1.00  0.00    -0.413 OA 
ENDROOT
BRANCH  12  14
HETATM   14  N   UNL     1      -9.815  16.690  67.541  1.00  0.00    -0.249 N  
HETATM   15  C   UNL     1     -10.893  15.838  67.438  1.00  0.00    -0.306 C  
HETATM   16  H   UNL     1      -9.141  16.710  66.775  1.00  0.00     0.000 HD 
HETATM   17  O   UNL     1     -11.710  15.719  68.347  1.00  0.00    -0.366 OA 
BRANCH  15  18
HETATM   18  C   UNL     1     -10.986  15.026  66.123  1.00  0.00    -0.334 C  
HETATM   19  C   UNL     1     -10.853  15.947  64.907  1.00  0.00    -0.420 C  
BRANCH  18  20
HETATM   20  O   UNL     1      -9.944  14.046  66.140  1.00  0.00    -0.293 OA 
BRANCH  20  21
HETATM   21  C   UNL     1     -10.136  12.923  66.902  1.00  0.00    -0.241 A  
HETATM   22  C   UNL     1     -11.362  12.299  67.140  1.00  0.00    -0.398 A  
HETATM   23  C   UNL     1     -11.428  11.120  67.889  1.00  0.00    -0.359 A  
HETATM   24  C   UNL     1     -10.270  10.559  68.417  1.00  0.00    -0.192 A  
HETATM   25  C   UNL     1      -9.042  11.176  68.191  1.00  0.00    -0.159 A  
HETATM   26  C   UNL     1      -8.976  12.347  67.427  1.00  0.00    -0.185 A  
ENDBRANCH  20  21
ENDBRANCH  18  20
ENDBRANCH  15  18
ENDBRANCH  12  14
TORSDOF 4
ENDMDL
MODEL       45
REMARK 921   NORMALIZED FREE ENERGY PREDICTED BY IDOCK:   -5.54 KCAL/MOL
REMARK 922        TOTAL FREE ENERGY PREDICTED BY IDOCK:   -7.61 KCAL/MOL
REMARK 923 INTER-LIGAND FREE ENERGY PREDICTED BY IDOCK:   -7.09 KCAL/MOL
REMARK 924 INTRA-LIGAND FREE ENERGY PREDICTED BY IDOCK:   -0.52 KCAL/MOL
REMARK 927      BINDING AFFINITY PREDICTED BY RF-SCORE:    0.00 PKD
ROOT
HETATM    1  C   UNL     1      -9.538  13.451  66.337  1.00  0.00    -0.257 C  
HETATM    2  S   UNL     1     -10.054  12.580  64.795  1.00  0.00    -0.183 SA 
HETATM    3  C   UNL     1     -11.726  13.379  64.719  1.00  0.00    -0.361 C  
HETATM    4  CA  UNL     1     -11.602  14.664  65.578  1.00  0.00    -0.335 C  
HETATM    5  C   UNL     1     -12.741  12.385  65.317  1.00  0.00     0.078 C  
HETATM    6  C   UNL     1     -12.119  13.590  63.253  1.00  0.00    -0.223 C  
HETATM    7  N   UNL     1     -10.645  14.372  66.666  1.00  0.00    -0.279 N  
HETATM    8  C   UNL     1     -11.107  15.916  64.824  1.00  0.00    -0.384 C  
HETATM    9  C   UNL     1     -11.055  13.635  67.756  1.00  0.00    -0.272 C  
HETATM   10  OXT UNL     1     -11.601  16.359  63.804  1.00  0.00    -1.055 OA 
HETATM   11  O   UNL     1     -10.085  16.556  65.453  1.00  0.00    -0.570 OA 
HETATM   12  CA  UNL     1      -9.802  12.704  67.671  1.00  0.00    -0.210 C  
HETATM   13  O   UNL     1     -12.100  13.676  68.364  1.00  0.00    -0.361 OA 
ENDROOT
BRANCH  12  14
HETATM   14  N   UNL     1     -10.059  11.246  67.524  1.00  0.00    -0.181 N  
HETATM   15  C   UNL     1     -10.194  10.384  68.591  1.00  0.00    -0.181 C  
HETATM   16  H   UNL     1     -10.139  10.863  66.582  1.00  0.00     0.000 HD 
HETATM   17  O   UNL     1     -10.049  10.764  69.749  1.00  0.00    -0.108 OA 
BRANCH  15  18
HETATM   18  C   UNL     1     -10.508   8.911  68.231  1.00  0.00    -0.195 C  
HETATM   19  C   UNL     1     -10.317   8.667  66.731  1.00  0.00    -0.336 C  
BRANCH  18  20
HETATM   20  O   UNL     1      -9.636   8.078  69.002  1.00  0.00    -0.154 OA 
BRANCH  20  21
HETATM   21  C   UNL     1     -10.204   7.246  69.931  1.00  0.00    -0.205 A  
HETATM   22  C   UNL     1      -9.889   5.898  70.119  1.00  0.00    -0.226 A  
HETATM   23  C   UNL     1     -10.495   5.161  71.141  1.00  0.00    -0.240 A  
HETATM   24  C   UNL     1     -11.432   5.760  71.977  1.00  0.00    -0.260 A  
HETATM   25  C   UNL     1     -11.760   7.101  71.794  1.00  0.00    -0.324 A  
HETATM   26  C   UNL     1     -11.139   7.842  70.781  1.00  0.00    -0.265 A  
ENDBRANCH  20  21
ENDBRANCH  18  20
ENDBRANCH  15  18
ENDBRANCH  12  14
TORSDOF 4
ENDMDL
MODEL       46
REMARK 921   NORMALIZED FREE ENERGY PREDICTED BY IDOCK:   -5.54 KCAL/MOL
REMARK 922        TOTAL FREE ENERGY PREDICTED BY IDOCK:   -7.61 KCAL/MOL
REMARK 923 INTER-LIGAND FREE ENERGY PREDICTED BY IDOCK:   -7.04 KCAL/MOL
REMARK 924 INTRA-LIGAND FREE ENERGY PREDICTED BY IDOCK:   -0.57 KCAL/MOL
REMARK 927      BINDING AFFINITY PREDICTED BY RF-SCORE:    0.00 PKD
ROOT
HETATM    1  C   UNL     1      -9.210   8.889  66.735  1.00  0.00    -0.159 C  
HETATM    2  S   UNL     1      -8.148   9.056  68.234  1.00  0.00    -0.109 SA 
HETATM    3  C   UNL     1      -7.993   7.230  68.517  1.00  0.00    -0.124 C  
HETATM    4  CA  UNL     1      -8.322   6.578  67.149  1.00  0.00    -0.113 C  
HETATM    5  C   UNL     1      -9.020   6.840  69.599  1.00  0.00    -0.143 C  
HETATM    6  C   UNL     1      -6.604   6.923  69.088  1.00  0.00    -0.048 C  
HETATM    7  N   UNL     1      -9.321   7.439  66.482  1.00  0.00    -0.175 N  
HETATM    8  C   UNL     1      -7.120   6.407  66.195  1.00  0.00    -0.067 C  
HETATM    9  C   UNL     1     -10.641   7.379  66.872  1.00  0.00    -0.305 C  
HETATM   10  OXT UNL     1      -6.075   5.851  66.479  1.00  0.00    -0.024 OA 
HETATM   11  O   UNL     1      -7.356   6.874  64.940  1.00  0.00    -0.077 OA 
HETATM   12  CA  UNL     1     -10.743   8.936  66.969  1.00  0.00    -0.110 C  
HETATM   13  O   UNL     1     -11.315   6.418  67.166  1.00  0.00    -0.308 OA 
ENDROOT
BRANCH  12  14
HETATM   14  N   UNL     1     -11.152   9.501  68.283  1.00  0.00    -0.497 N  
HETATM   15  C   UNL     1     -11.719  10.749  68.433  1.00  0.00    -0.158 C  
HETATM   16  H   UNL     1     -11.005   8.935  69.119  1.00  0.00     0.000 HD 
HETATM   17  O   UNL     1     -11.869  11.508  67.479  1.00  0.00    -0.605 OA 
BRANCH  15  18
HETATM   18  C   UNL     1     -12.122  11.136  69.877  1.00  0.00    -0.344 C  
HETATM   19  C   UNL     1     -11.605  10.100  70.880  1.00  0.00    -0.459 C  
BRANCH  18  20
HETATM   20  O   UNL     1     -11.577  12.430  70.150  1.00  0.00    -0.222 OA 
BRANCH  20  21
HETATM   21  C   UNL     1     -12.367  13.328  70.820  1.00  0.00    -0.344 A  
HETATM   22  C   UNL     1     -13.318  13.010  71.791  1.00  0.00    -0.468 A  
HETATM   23  C   UNL     1     -14.026  14.019  72.451  1.00  0.00    -0.622 A  
HETATM   24  C   UNL     1     -13.800  15.356  72.138  1.00  0.00    -0.636 A  
HETATM   25  C   UNL     1     -12.858  15.684  71.166  1.00  0.00    -0.540 A  
HETATM   26  C   UNL     1     -12.138  14.673  70.518  1.00  0.00    -0.388 A  
ENDBRANCH  20  21
ENDBRANCH  18  20
ENDBRANCH  15  18
ENDBRANCH  12  14
TORSDOF 4
ENDMDL
MODEL       47
REMARK 921   NORMALIZED FREE ENERGY PREDICTED BY IDOCK:   -5.50 KCAL/MOL
REMARK 922        TOTAL FREE ENERGY PREDICTED BY IDOCK:   -7.57 KCAL/MOL
REMARK 923 INTER-LIGAND FREE ENERGY PREDICTED BY IDOCK:   -6.68 KCAL/MOL
REMARK 924 INTRA-LIGAND FREE ENERGY PREDICTED BY IDOCK:   -0.88 KCAL/MOL
REMARK 927      BINDING AFFINITY PREDICTED BY RF-SCORE:    0.00 PKD
ROOT
HETATM    1  C   UNL     1      -8.373   8.650  67.090  1.00  0.00    -0.107 C  
HETATM    2  S   UNL     1      -8.502   9.870  68.467  1.00  0.00    -0.115 SA 
HETATM    3  C   UNL     1      -9.445   8.736  69.590  1.00  0.00    -0.170 C  
HETATM    4  CA  UNL     1      -9.154   7.307  69.063  1.00  0.00    -0.133 C  
HETATM    5  C   UNL     1     -10.939   9.099  69.467  1.00  0.00    -0.138 C  
HETATM    6  C   UNL     1      -9.038   9.009  71.042  1.00  0.00    -0.322 C  
HETATM    7  N   UNL     1      -8.988   7.407  67.598  1.00  0.00    -0.127 N  
HETATM    8  C   UNL     1      -7.893   6.634  69.645  1.00  0.00    -0.115 C  
HETATM    9  C   UNL     1     -10.100   7.521  66.791  1.00  0.00    -0.243 C  
HETATM   10  OXT UNL     1      -7.655   6.503  70.831  1.00  0.00    -0.086 OA 
HETATM   11  O   UNL     1      -7.073   6.109  68.695  1.00  0.00    -0.077 OA 
HETATM   12  CA  UNL     1      -9.478   8.718  66.003  1.00  0.00    -0.233 C  
HETATM   13  O   UNL     1     -11.170   6.961  66.871  1.00  0.00    -0.353 OA 
ENDROOT
BRANCH  12  14
HETATM   14  N   UNL     1     -10.254   9.988  65.989  1.00  0.00    -0.237 N  
HETATM   15  C   UNL     1     -10.248  10.872  64.932  1.00  0.00    -0.316 C  
HETATM   16  H   UNL     1     -10.821  10.216  66.805  1.00  0.00     0.000 HD 
HETATM   17  O   UNL     1      -9.543  10.692  63.943  1.00  0.00    -0.253 OA 
BRANCH  15  18
HETATM   18  C   UNL     1     -11.162  12.113  65.087  1.00  0.00    -0.329 C  
HETATM   19  C   UNL     1     -12.118  12.235  63.898  1.00  0.00    -0.598 C  
BRANCH  18  20
HETATM   20  O   UNL     1     -11.885  11.971  66.314  1.00  0.00    -0.563 OA 
BRANCH  20  21
HETATM   21  C   UNL     1     -11.723  12.942  67.268  1.00  0.00    -0.373 A  
HETATM   22  C   UNL     1     -11.606  14.312  67.025  1.00  0.00    -0.406 A  
HETATM   23  C   UNL     1     -11.503  15.217  68.085  1.00  0.00    -0.357 A  
HETATM   24  C   UNL     1     -11.500  14.760  69.400  1.00  0.00    -0.330 A  
HETATM   25  C   UNL     1     -11.609  13.395  69.654  1.00  0.00    -0.334 A  
HETATM   26  C   UNL     1     -11.730  12.493  68.591  1.00  0.00    -0.368 A  
ENDBRANCH  20  21
ENDBRANCH  18  20
ENDBRANCH  15  18
ENDBRANCH  12  14
TORSDOF 4
ENDMDL
MODEL       48
REMARK 921   NORMALIZED FREE ENERGY PREDICTED BY IDOCK:   -5.46 KCAL/MOL
REMARK 922        TOTAL FREE ENERGY PREDICTED BY IDOCK:   -7.51 KCAL/MOL
REMARK 923 INTER-LIGAND FREE ENERGY PREDICTED BY IDOCK:   -6.56 KCAL/MOL
REMARK 924 INTRA-LIGAND FREE ENERGY PREDICTED BY IDOCK:   -0.95 KCAL/MOL
REMARK 927      BINDING AFFINITY PREDICTED BY RF-SCORE:    0.00 PKD
ROOT
HETATM    1  C   UNL     1      -8.648   9.885  68.403  1.00  0.00    -0.116 C  
HETATM    2  S   UNL     1      -8.497   8.047  68.390  1.00  0.00    -0.127 SA 
HETATM    3  C   UNL     1      -9.440   7.826  66.809  1.00  0.00    -0.197 C  
HETATM    4  CA  UNL     1      -9.367   9.202  66.097  1.00  0.00    -0.228 C  
HETATM    5  C   UNL     1     -10.889   7.451  67.183  1.00  0.00    -0.340 C  
HETATM    6  C   UNL     1      -8.858   6.639  66.034  1.00  0.00    -0.151 C  
HETATM    7  N   UNL     1      -9.343  10.239  67.149  1.00  0.00    -0.152 N  
HETATM    8  C   UNL     1      -8.136   9.408  65.189  1.00  0.00    -0.126 C  
HETATM    9  C   UNL     1     -10.512  10.589  67.789  1.00  0.00    -0.224 C  
HETATM   10  OXT UNL     1      -7.793   8.659  64.294  1.00  0.00    -0.124 OA 
HETATM   11  O   UNL     1      -7.482  10.578  65.423  1.00  0.00    -0.145 OA 
HETATM   12  CA  UNL     1      -9.844  10.473  69.198  1.00  0.00    -0.218 C  
HETATM   13  O   UNL     1     -11.623  10.737  67.336  1.00  0.00    -0.485 OA 
ENDROOT
BRANCH  12  14
HETATM   14  N   UNL     1     -10.471   9.528  70.162  1.00  0.00    -0.234 N  
HETATM   15  C   UNL     1     -11.583   9.834  70.915  1.00  0.00    -0.361 C  
HETATM   16  H   UNL     1     -10.054   8.603  70.270  1.00  0.00     0.000 HD 
HETATM   17  O   UNL     1     -12.100  10.948  70.880  1.00  0.00    -0.332 OA 
BRANCH  15  18
HETATM   18  C   UNL     1     -12.115   8.698  71.823  1.00  0.00    -0.340 C  
HETATM   19  C   UNL     1     -13.466   9.080  72.435  1.00  0.00    -0.524 C  
BRANCH  18  20
HETATM   20  O   UNL     1     -12.229   7.518  71.023  1.00  0.00    -0.309 OA 
BRANCH  20  21
HETATM   21  C   UNL     1     -11.512   6.414  71.405  1.00  0.00    -0.308 A  
HETATM   22  C   UNL     1     -11.506   5.848  72.682  1.00  0.00    -0.319 A  
HETATM   23  C   UNL     1     -10.777   4.683  72.941  1.00  0.00    -0.295 A  
HETATM   24  C   UNL     1     -10.036   4.080  71.929  1.00  0.00    -0.246 A  
HETATM   25  C   UNL     1     -10.029   4.640  70.654  1.00  0.00    -0.293 A  
HETATM   26  C   UNL     1     -10.773   5.796  70.393  1.00  0.00    -0.372 A  
ENDBRANCH  20  21
ENDBRANCH  18  20
ENDBRANCH  15  18
ENDBRANCH  12  14
TORSDOF 4
ENDMDL
MODEL       49
REMARK 921   NORMALIZED FREE ENERGY PREDICTED BY IDOCK:   -5.46 KCAL/MOL
REMARK 922        TOTAL FREE ENERGY PREDICTED BY IDOCK:   -7.51 KCAL/MOL
REMARK 923 INTER-LIGAND FREE ENERGY PREDICTED BY IDOCK:   -6.73 KCAL/MOL
REMARK 924 INTRA-LIGAND FREE ENERGY PREDICTED BY IDOCK:   -0.79 KCAL/MOL
REMARK 927      BINDING AFFINITY PREDICTED BY RF-SCORE:    0.00 PKD
ROOT
HETATM    1  C   UNL     1     -10.877  15.728  65.984  1.00  0.00    -0.255 C  
HETATM    2  S   UNL     1      -9.301  14.811  65.706  1.00  0.00     0.102 SA 
HETATM    3  C   UNL     1      -9.540  13.656  67.135  1.00  0.00    -0.241 C  
HETATM    4  CA  UNL     1     -11.062  13.685  67.431  1.00  0.00    -0.282 C  
HETATM    5  C   UNL     1      -8.716  14.205  68.318  1.00  0.00    -0.181 C  
HETATM    6  C   UNL     1      -8.954  12.285  66.782  1.00  0.00    -0.209 C  
HETATM    7  N   UNL     1     -11.545  15.044  67.110  1.00  0.00    -0.311 N  
HETATM    8  C   UNL     1     -11.908  12.672  66.632  1.00  0.00    -0.380 C  
HETATM    9  C   UNL     1     -11.313  16.077  67.992  1.00  0.00    -0.266 C  
HETATM   10  OXT UNL     1     -11.700  11.474  66.578  1.00  0.00    -0.455 OA 
HETATM   11  O   UNL     1     -12.993  13.230  66.030  1.00  0.00    -0.223 OA 
HETATM   12  CA  UNL     1     -10.785  17.009  66.854  1.00  0.00    -0.125 C  
HETATM   13  O   UNL     1     -11.371  16.085  69.201  1.00  0.00    -0.319 OA 
ENDROOT
BRANCH  12  14
HETATM   14  N   UNL     1      -9.407  17.550  67.015  1.00  0.00    -0.252 N  
HETATM   15  C   UNL     1      -9.002  18.765  66.508  1.00  0.00    -0.319 C  
HETATM   16  H   UNL     1      -8.727  16.990  67.529  1.00  0.00     0.000 HD 
HETATM   17  O   UNL     1      -9.751  19.463  65.828  1.00  0.00    -0.404 OA 
BRANCH  15  18
HETATM   18  C   UNL     1      -7.543  19.174  66.825  1.00  0.00    -0.239 C  
HETATM   19  C   UNL     1      -6.950  20.000  65.680  1.00  0.00    -0.334 C  
BRANCH  18  20
HETATM   20  O   UNL     1      -7.555  19.924  68.044  1.00  0.00    -0.294 OA 
BRANCH  20  21
HETATM   21  C   UNL     1      -6.728  19.511  69.056  1.00  0.00    -0.328 A  
HETATM   22  C   UNL     1      -6.118  20.341  70.000  1.00  0.00    -0.381 A  
HETATM   23  C   UNL     1      -5.338  19.799  71.026  1.00  0.00    -0.290 A  
HETATM   24  C   UNL     1      -5.148  18.423  71.111  1.00  0.00    -0.255 A  
HETATM   25  C   UNL     1      -5.746  17.587  70.171  1.00  0.00    -0.230 A  
HETATM   26  C   UNL     1      -6.541  18.130  69.155  1.00  0.00    -0.259 A  
ENDBRANCH  20  21
ENDBRANCH  18  20
ENDBRANCH  15  18
ENDBRANCH  12  14
TORSDOF 4
ENDMDL
MODEL       50
REMARK 921   NORMALIZED FREE ENERGY PREDICTED BY IDOCK:   -5.44 KCAL/MOL
REMARK 922        TOTAL FREE ENERGY PREDICTED BY IDOCK:   -7.49 KCAL/MOL
REMARK 923 INTER-LIGAND FREE ENERGY PREDICTED BY IDOCK:   -6.85 KCAL/MOL
REMARK 924 INTRA-LIGAND FREE ENERGY PREDICTED BY IDOCK:   -0.64 KCAL/MOL
REMARK 927      BINDING AFFINITY PREDICTED BY RF-SCORE:    0.00 PKD
ROOT
HETATM    1  C   UNL     1     -10.071   5.975  70.025  1.00  0.00    -0.186 C  
HETATM    2  S   UNL     1      -8.632   6.928  70.677  1.00  0.00    -0.142 SA 
HETATM    3  C   UNL     1      -9.310   7.072  72.397  1.00  0.00    -0.135 C  
HETATM    4  CA  UNL     1     -10.354   5.932  72.519  1.00  0.00    -0.196 C  
HETATM    5  C   UNL     1      -9.963   8.464  72.521  1.00  0.00    -0.356 C  
HETATM    6  C   UNL     1      -8.153   7.031  73.401  1.00  0.00    -0.117 C  
HETATM    7  N   UNL     1     -10.957   5.746  71.183  1.00  0.00    -0.253 N  
HETATM    8  C   UNL     1      -9.793   4.573  72.988  1.00  0.00    -0.140 C  
HETATM    9  C   UNL     1     -11.917   6.630  70.739  1.00  0.00    -0.353 C  
HETATM   10  OXT UNL     1      -9.131   4.398  73.994  1.00  0.00    -0.110 OA 
HETATM   11  O   UNL     1     -10.174   3.531  72.201  1.00  0.00    -0.156 OA 
HETATM   12  CA  UNL     1     -11.202   6.804  69.360  1.00  0.00    -0.234 C  
HETATM   13  O   UNL     1     -12.832   7.141  71.343  1.00  0.00    -0.376 OA 
ENDROOT
BRANCH  12  14
HETATM   14  N   UNL     1     -10.811   8.188  68.977  1.00  0.00    -0.421 N  
HETATM   15  C   UNL     1     -10.554   8.575  67.679  1.00  0.00    -0.198 C  
HETATM   16  H   UNL     1     -10.729   8.888  69.714  1.00  0.00     0.000 HD 
HETATM   17  O   UNL     1     -10.574   7.772  66.750  1.00  0.00    -0.331 OA 
BRANCH  15  18
HETATM   18  C   UNL     1     -10.211  10.071  67.479  1.00  0.00    -0.212 C  
HETATM   19  C   UNL     1      -9.018  10.476  68.349  1.00  0.00    -0.141 C  
BRANCH  18  20
HETATM   20  O   UNL     1      -9.925  10.271  66.091  1.00  0.00    -0.215 OA 
BRANCH  20  21
HETATM   21  C   UNL     1     -10.661  11.209  65.415  1.00  0.00    -0.227 A  
HETATM   22  C   UNL     1     -11.521  12.144  65.995  1.00  0.00    -0.427 A  
HETATM   23  C   UNL     1     -12.178  13.093  65.206  1.00  0.00    -0.502 A  
HETATM   24  C   UNL     1     -11.992  13.109  63.827  1.00  0.00    -0.572 A  
HETATM   25  C   UNL     1     -11.142  12.177  63.237  1.00  0.00    -0.408 A  
HETATM   26  C   UNL     1     -10.472  11.239  64.031  1.00  0.00    -0.440 A  
ENDBRANCH  20  21
ENDBRANCH  18  20
ENDBRANCH  15  18
ENDBRANCH  12  14
TORSDOF 4
ENDMDL
MODEL       51
REMARK 921   NORMALIZED FREE ENERGY PREDICTED BY IDOCK:   -5.44 KCAL/MOL
REMARK 922        TOTAL FREE ENERGY PREDICTED BY IDOCK:   -7.49 KCAL/MOL
REMARK 923 INTER-LIGAND FREE ENERGY PREDICTED BY IDOCK:   -6.68 KCAL/MOL
REMARK 924 INTRA-LIGAND FREE ENERGY PREDICTED BY IDOCK:   -0.81 KCAL/MOL
REMARK 927      BINDING AFFINITY PREDICTED BY RF-SCORE:    0.00 PKD
ROOT
HETATM    1  C   UNL     1      -9.689  13.983  66.115  1.00  0.00    -0.280 C  
HETATM    2  S   UNL     1      -9.551  14.108  67.950  1.00  0.00    -0.230 SA 
HETATM    3  C   UNL     1     -11.223  13.378  68.280  1.00  0.00    -0.279 C  
HETATM    4  CA  UNL     1     -11.584  12.590  66.994  1.00  0.00    -0.368 C  
HETATM    5  C   UNL     1     -12.198  14.548  68.528  1.00  0.00    -0.164 C  
HETATM    6  C   UNL     1     -11.172  12.559  69.574  1.00  0.00    -0.163 C  
HETATM    7  N   UNL     1     -10.978  13.310  65.855  1.00  0.00    -0.274 N  
HETATM    8  C   UNL     1     -11.091  11.128  66.957  1.00  0.00    -0.273 C  
HETATM    9  C   UNL     1     -11.580  14.452  65.371  1.00  0.00    -0.347 C  
HETATM   10  OXT UNL     1     -11.310  10.294  67.815  1.00  0.00    -0.322 OA 
HETATM   11  O   UNL     1     -10.434  10.809  65.810  1.00  0.00    -0.242 OA 
HETATM   12  CA  UNL     1     -10.228  15.237  65.377  1.00  0.00    -0.383 C  
HETATM   13  O   UNL     1     -12.754  14.693  65.206  1.00  0.00    -0.309 OA 
ENDROOT
BRANCH  12  14
HETATM   14  N   UNL     1     -10.184  16.492  66.177  1.00  0.00    -0.332 N  
HETATM   15  C   UNL     1      -9.119  17.366  66.164  1.00  0.00    -0.145 C  
HETATM   16  H   UNL     1     -10.986  16.716  66.766  1.00  0.00     0.000 HD 
HETATM   17  O   UNL     1      -8.097  17.129  65.526  1.00  0.00    -0.233 OA 
BRANCH  15  18
HETATM   18  C   UNL     1      -9.286  18.642  67.026  1.00  0.00    -0.291 C  
HETATM   19  C   UNL     1     -10.692  19.226  66.864  1.00  0.00    -0.543 C  
BRANCH  18  20
HETATM   20  O   UNL     1      -9.034  18.283  68.389  1.00  0.00    -0.297 OA 
BRANCH  20  21
HETATM   21  C   UNL     1      -7.728  18.151  68.784  1.00  0.00    -0.264 A  
HETATM   22  C   UNL     1      -6.746  19.140  68.697  1.00  0.00    -0.312 A  
HETATM   23  C   UNL     1      -5.457  18.909  69.187  1.00  0.00    -0.209 A  
HETATM   24  C   UNL     1      -5.133  17.681  69.757  1.00  0.00    -0.185 A  
HETATM   25  C   UNL     1      -6.103  16.685  69.843  1.00  0.00    -0.192 A  
HETATM   26  C   UNL     1      -7.397  16.925  69.367  1.00  0.00    -0.043 A  
ENDBRANCH  20  21
ENDBRANCH  18  20
ENDBRANCH  15  18
ENDBRANCH  12  14
TORSDOF 4
ENDMDL
MODEL       52
REMARK 921   NORMALIZED FREE ENERGY PREDICTED BY IDOCK:   -5.43 KCAL/MOL
REMARK 922        TOTAL FREE ENERGY PREDICTED BY IDOCK:   -7.48 KCAL/MOL
REMARK 923 INTER-LIGAND FREE ENERGY PREDICTED BY IDOCK:   -6.74 KCAL/MOL
REMARK 924 INTRA-LIGAND FREE ENERGY PREDICTED BY IDOCK:   -0.73 KCAL/MOL
REMARK 927      BINDING AFFINITY PREDICTED BY RF-SCORE:    0.00 PKD
ROOT
HETATM    1  C   UNL     1     -11.232  15.346  68.027  1.00  0.00    -0.325 C  
HETATM    2  S   UNL     1      -9.616  15.047  68.864  1.00  0.00    -0.222 SA 
HETATM    3  C   UNL     1      -8.655  14.874  67.287  1.00  0.00    -0.213 C  
HETATM    4  CA  UNL     1      -9.518  15.577  66.207  1.00  0.00    -0.323 C  
HETATM    5  C   UNL     1      -8.499  13.366  67.004  1.00  0.00    -0.137 C  
HETATM    6  C   UNL     1      -7.245  15.439  67.489  1.00  0.00    -0.224 C  
HETATM    7  N   UNL     1     -10.934  15.380  66.581  1.00  0.00    -0.304 N  
HETATM    8  C   UNL     1      -9.268  17.092  66.047  1.00  0.00    -0.142 C  
HETATM    9  C   UNL     1     -11.542  14.168  66.334  1.00  0.00    -0.369 C  
HETATM   10  OXT UNL     1      -8.182  17.605  65.855  1.00  0.00    -0.534 OA 
HETATM   11  O   UNL     1     -10.409  17.832  66.061  1.00  0.00    -0.442 OA 
HETATM   12  CA  UNL     1     -12.123  14.099  67.784  1.00  0.00    -0.286 C  
HETATM   13  O   UNL     1     -11.448  13.440  65.373  1.00  0.00    -0.298 OA 
ENDROOT
BRANCH  12  14
HETATM   14  N   UNL     1     -11.756  12.908  68.598  1.00  0.00    -0.306 N  
HETATM   15  C   UNL     1     -12.116  12.747  69.918  1.00  0.00    -0.259 C  
HETATM   16  H   UNL     1     -11.208  12.171  68.154  1.00  0.00     0.000 HD 
HETATM   17  O   UNL     1     -12.723  13.620  70.532  1.00  0.00    -0.277 OA 
BRANCH  15  18
HETATM   18  C   UNL     1     -11.681  11.415  70.577  1.00  0.00    -0.198 C  
HETATM   19  C   UNL     1     -12.788  10.873  71.487  1.00  0.00    -0.560 C  
BRANCH  18  20
HETATM   20  O   UNL     1     -11.379  10.489  69.529  1.00  0.00    -0.243 OA 
BRANCH  20  21
HETATM   21  C   UNL     1     -10.374   9.583  69.747  1.00  0.00    -0.230 A  
HETATM   22  C   UNL     1     -10.545   8.226  70.028  1.00  0.00    -0.235 A  
HETATM   23  C   UNL     1      -9.439   7.384  70.175  1.00  0.00    -0.165 A  
HETATM   24  C   UNL     1      -8.149   7.892  70.055  1.00  0.00    -0.117 A  
HETATM   25  C   UNL     1      -7.966   9.245  69.781  1.00  0.00    -0.103 A  
HETATM   26  C   UNL     1      -9.076  10.083  69.618  1.00  0.00    -0.230 A  
ENDBRANCH  20  21
ENDBRANCH  18  20
ENDBRANCH  15  18
ENDBRANCH  12  14
TORSDOF 4
ENDMDL
MODEL       53
REMARK 921   NORMALIZED FREE ENERGY PREDICTED BY IDOCK:   -5.41 KCAL/MOL
REMARK 922        TOTAL FREE ENERGY PREDICTED BY IDOCK:   -7.46 KCAL/MOL
REMARK 923 INTER-LIGAND FREE ENERGY PREDICTED BY IDOCK:   -6.76 KCAL/MOL
REMARK 924 INTRA-LIGAND FREE ENERGY PREDICTED BY IDOCK:   -0.70 KCAL/MOL
REMARK 927      BINDING AFFINITY PREDICTED BY RF-SCORE:    0.00 PKD
ROOT
HETATM    1  C   UNL     1     -10.172  17.414  67.737  1.00  0.00    -0.345 C  
HETATM    2  S   UNL     1      -8.769  16.853  68.795  1.00  0.00    -0.217 SA 
HETATM    3  C   UNL     1      -7.630  16.510  67.373  1.00  0.00    -0.149 C  
HETATM    4  CA  UNL     1      -8.195  17.340  66.191  1.00  0.00    -0.223 C  
HETATM    5  C   UNL     1      -7.689  14.995  67.089  1.00  0.00    -0.202 C  
HETATM    6  C   UNL     1      -6.190  16.830  67.788  1.00  0.00    -0.161 C  
HETATM    7  N   UNL     1      -9.663  17.387  66.351  1.00  0.00    -0.287 N  
HETATM    8  C   UNL     1      -7.674  18.790  66.096  1.00  0.00    -0.247 C  
HETATM    9  C   UNL     1     -10.424  16.293  65.997  1.00  0.00    -0.331 C  
HETATM   10  OXT UNL     1      -6.501  19.111  66.073  1.00  0.00    -0.187 OA 
HETATM   11  O   UNL     1      -8.665  19.711  65.956  1.00  0.00    -0.351 OA 
HETATM   12  CA  UNL     1     -11.214  16.333  67.346  1.00  0.00    -0.000 C  
HETATM   13  O   UNL     1     -10.313  15.553  65.047  1.00  0.00    -0.378 OA 
ENDROOT
BRANCH  12  14
HETATM   14  N   UNL     1     -11.174  15.103  68.183  1.00  0.00    -0.306 N  
HETATM   15  C   UNL     1     -11.779  13.918  67.824  1.00  0.00    -0.366 C  
HETATM   16  H   UNL     1     -10.673  15.140  69.071  1.00  0.00     0.000 HD 
HETATM   17  O   UNL     1     -12.449  13.819  66.800  1.00  0.00    -0.366 OA 
BRANCH  15  18
HETATM   18  C   UNL     1     -11.581  12.738  68.807  1.00  0.00    -0.312 C  
HETATM   19  C   UNL     1     -12.271  13.024  70.144  1.00  0.00    -0.342 C  
BRANCH  18  20
HETATM   20  O   UNL     1     -12.121  11.563  68.193  1.00  0.00    -0.604 OA 
BRANCH  20  21
HETATM   21  C   UNL     1     -11.240  10.623  67.726  1.00  0.00    -0.313 A  
HETATM   22  C   UNL     1     -10.714  10.570  66.433  1.00  0.00    -0.166 A  
HETATM   23  C   UNL     1      -9.774   9.594  66.087  1.00  0.00    -0.317 A  
HETATM   24  C   UNL     1      -9.361   8.654  67.025  1.00  0.00    -0.202 A  
HETATM   25  C   UNL     1      -9.884   8.693  68.315  1.00  0.00    -0.186 A  
HETATM   26  C   UNL     1     -10.812   9.681  68.665  1.00  0.00    -0.203 A  
ENDBRANCH  20  21
ENDBRANCH  18  20
ENDBRANCH  15  18
ENDBRANCH  12  14
TORSDOF 4
ENDMDL
MODEL       54
REMARK 921   NORMALIZED FREE ENERGY PREDICTED BY IDOCK:   -5.41 KCAL/MOL
REMARK 922        TOTAL FREE ENERGY PREDICTED BY IDOCK:   -7.46 KCAL/MOL
REMARK 923 INTER-LIGAND FREE ENERGY PREDICTED BY IDOCK:   -6.62 KCAL/MOL
REMARK 924 INTRA-LIGAND FREE ENERGY PREDICTED BY IDOCK:   -0.83 KCAL/MOL
REMARK 927      BINDING AFFINITY PREDICTED BY RF-SCORE:    0.00 PKD
ROOT
HETATM    1  C   UNL     1     -10.574   8.592  69.295  1.00  0.00    -0.192 C  
HETATM    2  S   UNL     1     -10.618   9.055  67.510  1.00  0.00    -0.175 SA 
HETATM    3  C   UNL     1      -8.793   8.856  67.255  1.00  0.00    -0.128 C  
HETATM    4  CA  UNL     1      -8.318   7.937  68.410  1.00  0.00    -0.124 C  
HETATM    5  C   UNL     1      -8.158  10.259  67.341  1.00  0.00    -0.110 C  
HETATM    6  C   UNL     1      -8.534   8.336  65.836  1.00  0.00    -0.151 C  
HETATM    7  N   UNL     1      -9.171   8.230  69.580  1.00  0.00    -0.157 N  
HETATM    8  C   UNL     1      -8.397   6.423  68.122  1.00  0.00    -0.116 C  
HETATM    9  C   UNL     1      -8.936   9.361  70.331  1.00  0.00    -0.250 C  
HETATM   10  OXT UNL     1      -7.904   5.867  67.159  1.00  0.00    -0.100 OA 
HETATM   11  O   UNL     1      -9.018   5.718  69.106  1.00  0.00    -0.117 OA 
HETATM   12  CA  UNL     1     -10.446   9.763  70.307  1.00  0.00    -0.288 C  
HETATM   13  O   UNL     1      -7.885   9.852  70.676  1.00  0.00    -0.278 OA 
ENDROOT
BRANCH  12  14
HETATM   14  N   UNL     1     -10.776  11.102  69.748  1.00  0.00    -0.462 N  
HETATM   15  C   UNL     1     -11.894  11.823  70.107  1.00  0.00    -0.324 C  
HETATM   16  H   UNL     1     -10.139  11.509  69.063  1.00  0.00     0.000 HD 
HETATM   17  O   UNL     1     -12.734  11.369  70.880  1.00  0.00    -0.346 OA 
BRANCH  15  18
HETATM   18  C   UNL     1     -12.034  13.219  69.452  1.00  0.00    -0.301 C  
HETATM   19  C   UNL     1     -11.972  14.323  70.511  1.00  0.00    -0.402 C  
BRANCH  18  20
HETATM   20  O   UNL     1     -10.975  13.362  68.500  1.00  0.00    -0.249 OA 
BRANCH  20  21
HETATM   21  C   UNL     1     -11.313  13.436  67.174  1.00  0.00    -0.315 A  
HETATM   22  C   UNL     1     -11.689  12.361  66.367  1.00  0.00    -0.453 A  
HETATM   23  C   UNL     1     -12.070  12.567  65.037  1.00  0.00    -0.504 A  
HETATM   24  C   UNL     1     -12.066  13.849  64.497  1.00  0.00    -0.473 A  
HETATM   25  C   UNL     1     -11.687  14.929  65.291  1.00  0.00    -0.263 A  
HETATM   26  C   UNL     1     -11.322  14.722  66.627  1.00  0.00    -0.347 A  
ENDBRANCH  20  21
ENDBRANCH  18  20
ENDBRANCH  15  18
ENDBRANCH  12  14
TORSDOF 4
ENDMDL
MODEL       55
REMARK 921   NORMALIZED FREE ENERGY PREDICTED BY IDOCK:   -5.38 KCAL/MOL
REMARK 922        TOTAL FREE ENERGY PREDICTED BY IDOCK:   -7.42 KCAL/MOL
REMARK 923 INTER-LIGAND FREE ENERGY PREDICTED BY IDOCK:   -6.95 KCAL/MOL
REMARK 924 INTRA-LIGAND FREE ENERGY PREDICTED BY IDOCK:   -0.47 KCAL/MOL
REMARK 927      BINDING AFFINITY PREDICTED BY RF-SCORE:    0.00 PKD
ROOT
HETATM    1  C   UNL     1      -9.111  12.210  67.313  1.00  0.00    -0.181 C  
HETATM    2  S   UNL     1      -8.097  10.833  66.621  1.00  0.00    -0.147 SA 
HETATM    3  C   UNL     1      -9.460  10.155  65.563  1.00  0.00    -0.230 C  
HETATM    4  CA  UNL     1     -10.462  11.327  65.390  1.00  0.00    -0.268 C  
HETATM    5  C   UNL     1     -10.090   8.970  66.323  1.00  0.00    -0.311 C  
HETATM    6  C   UNL     1      -8.863   9.589  64.270  1.00  0.00    -0.247 C  
HETATM    7  N   UNL     1     -10.419  12.126  66.632  1.00  0.00    -0.217 N  
HETATM    8  C   UNL     1     -10.176  12.268  64.201  1.00  0.00    -0.349 C  
HETATM    9  C   UNL     1     -11.077  11.676  67.756  1.00  0.00    -0.249 C  
HETATM   10  OXT UNL     1     -10.025  11.912  63.047  1.00  0.00    -0.387 OA 
HETATM   11  O   UNL     1     -10.182  13.585  64.541  1.00  0.00    -0.396 OA 
HETATM   12  CA  UNL     1      -9.827  11.927  68.660  1.00  0.00    -0.131 C  
HETATM   13  O   UNL     1     -12.160  11.146  67.854  1.00  0.00    -0.627 OA 
ENDROOT
BRANCH  12  14
HETATM   14  N   UNL     1      -9.296  10.757  69.410  1.00  0.00    -0.415 N  
HETATM   15  C   UNL     1     -10.033  10.043  70.330  1.00  0.00    -0.125 C  
HETATM   16  H   UNL     1      -8.334  10.468  69.235  1.00  0.00     0.000 HD 
HETATM   17  O   UNL     1     -11.176  10.371  70.635  1.00  0.00    -0.319 OA 
BRANCH  15  18
HETATM   18  C   UNL     1      -9.318   8.827  70.967  1.00  0.00    -0.222 C  
HETATM   19  C   UNL     1      -7.797   8.997  70.903  1.00  0.00    -0.172 C  
BRANCH  18  20
HETATM   20  O   UNL     1      -9.764   8.719  72.323  1.00  0.00    -0.301 OA 
BRANCH  20  21
HETATM   21  C   UNL     1     -10.172   7.488  72.766  1.00  0.00    -0.255 A  
HETATM   22  C   UNL     1      -9.771   6.876  73.956  1.00  0.00    -0.326 A  
HETATM   23  C   UNL     1     -10.301   5.638  74.333  1.00  0.00    -0.278 A  
HETATM   24  C   UNL     1     -11.226   4.993  73.518  1.00  0.00    -0.341 A  
HETATM   25  C   UNL     1     -11.627   5.591  72.326  1.00  0.00    -0.176 A  
HETATM   26  C   UNL     1     -11.109   6.838  71.959  1.00  0.00    -0.283 A  
ENDBRANCH  20  21
ENDBRANCH  18  20
ENDBRANCH  15  18
ENDBRANCH  12  14
TORSDOF 4
ENDMDL
MODEL       56
REMARK 921   NORMALIZED FREE ENERGY PREDICTED BY IDOCK:   -5.35 KCAL/MOL
REMARK 922        TOTAL FREE ENERGY PREDICTED BY IDOCK:   -7.38 KCAL/MOL
REMARK 923 INTER-LIGAND FREE ENERGY PREDICTED BY IDOCK:   -6.36 KCAL/MOL
REMARK 924 INTRA-LIGAND FREE ENERGY PREDICTED BY IDOCK:   -1.02 KCAL/MOL
REMARK 927      BINDING AFFINITY PREDICTED BY RF-SCORE:    0.00 PKD
ROOT
HETATM    1  C   UNL     1      -9.122  12.271  67.453  1.00  0.00    -0.184 C  
HETATM    2  S   UNL     1      -8.116  10.983  66.597  1.00  0.00    -0.158 SA 
HETATM    3  C   UNL     1      -9.496  10.415  65.497  1.00  0.00    -0.215 C  
HETATM    4  CA  UNL     1     -10.506  11.592  65.471  1.00  0.00    -0.275 C  
HETATM    5  C   UNL     1     -10.106   9.151  66.136  1.00  0.00    -0.278 C  
HETATM    6  C   UNL     1      -8.922   9.996  64.140  1.00  0.00    -0.268 C  
HETATM    7  N   UNL     1     -10.442  12.253  66.791  1.00  0.00    -0.216 N  
HETATM    8  C   UNL     1     -10.246  12.658  64.385  1.00  0.00    -0.318 C  
HETATM    9  C   UNL     1     -11.077  11.680  67.872  1.00  0.00    -0.247 C  
HETATM   10  OXT UNL     1     -10.116  12.430  63.198  1.00  0.00    -0.359 OA 
HETATM   11  O   UNL     1     -10.251  13.930  64.866  1.00  0.00    -0.395 OA 
HETATM   12  CA  UNL     1      -9.811  11.840  68.775  1.00  0.00    -0.087 C  
HETATM   13  O   UNL     1     -12.156  11.136  67.932  1.00  0.00    -0.627 OA 
ENDROOT
BRANCH  12  14
HETATM   14  N   UNL     1      -9.261  10.599  69.384  1.00  0.00    -0.395 N  
HETATM   15  C   UNL     1      -9.955   9.818  70.283  1.00  0.00    -0.253 C  
HETATM   16  H   UNL     1      -8.318  10.310  69.122  1.00  0.00     0.000 HD 
HETATM   17  O   UNL     1     -11.069  10.138  70.689  1.00  0.00    -0.307 OA 
BRANCH  15  18
HETATM   18  C   UNL     1      -9.229   8.538  70.764  1.00  0.00    -0.172 C  
HETATM   19  C   UNL     1      -9.096   8.532  72.290  1.00  0.00    -0.318 C  
BRANCH  18  20
HETATM   20  O   UNL     1      -9.986   7.411  70.311  1.00  0.00    -0.187 OA 
BRANCH  20  21
HETATM   21  C   UNL     1      -9.615   6.826  69.129  1.00  0.00    -0.139 A  
HETATM   22  C   UNL     1      -8.306   6.695  68.659  1.00  0.00    -0.123 A  
HETATM   23  C   UNL     1      -8.043   6.025  67.460  1.00  0.00    -0.102 A  
HETATM   24  C   UNL     1      -9.087   5.492  66.711  1.00  0.00    -0.118 A  
HETATM   25  C   UNL     1     -10.397   5.623  67.166  1.00  0.00    -0.301 A  
HETATM   26  C   UNL     1     -10.656   6.278  68.376  1.00  0.00    -0.316 A  
ENDBRANCH  20  21
ENDBRANCH  18  20
ENDBRANCH  15  18
ENDBRANCH  12  14
TORSDOF 4
ENDMDL
MODEL       57
REMARK 921   NORMALIZED FREE ENERGY PREDICTED BY IDOCK:   -5.33 KCAL/MOL
REMARK 922        TOTAL FREE ENERGY PREDICTED BY IDOCK:   -7.35 KCAL/MOL
REMARK 923 INTER-LIGAND FREE ENERGY PREDICTED BY IDOCK:   -6.65 KCAL/MOL
REMARK 924 INTRA-LIGAND FREE ENERGY PREDICTED BY IDOCK:   -0.70 KCAL/MOL
REMARK 927      BINDING AFFINITY PREDICTED BY RF-SCORE:    0.00 PKD
ROOT
HETATM    1  C   UNL     1     -11.688  11.858  67.103  1.00  0.00    -0.236 C  
HETATM    2  S   UNL     1     -10.997  13.270  68.067  1.00  0.00    -0.255 SA 
HETATM    3  C   UNL     1      -9.900  13.869  66.698  1.00  0.00    -0.284 C  
HETATM    4  CA  UNL     1     -10.509  13.277  65.400  1.00  0.00    -0.297 C  
HETATM    5  C   UNL     1      -8.483  13.323  66.967  1.00  0.00    -0.138 C  
HETATM    6  C   UNL     1      -9.807  15.398  66.756  1.00  0.00    -0.255 C  
HETATM    7  N   UNL     1     -11.102  11.970  65.752  1.00  0.00    -0.314 N  
HETATM    8  C   UNL     1     -11.603  14.138  64.733  1.00  0.00    -0.396 C  
HETATM    9  C   UNL     1     -10.285  10.872  65.916  1.00  0.00    -0.257 C  
HETATM   10  OXT UNL     1     -11.480  15.309  64.426  1.00  0.00    -0.331 OA 
HETATM   11  O   UNL     1     -12.731  13.441  64.433  1.00  0.00    -0.643 OA 
HETATM   12  CA  UNL     1     -10.969  10.493  67.270  1.00  0.00    -0.260 C  
HETATM   13  O   UNL     1      -9.319  10.529  65.275  1.00  0.00    -0.185 OA 
ENDROOT
BRANCH  12  14
HETATM   14  N   UNL     1     -10.087  10.400  68.465  1.00  0.00    -0.164 N  
HETATM   15  C   UNL     1      -9.450   9.241  68.853  1.00  0.00    -0.154 C  
HETATM   16  H   UNL     1      -9.947  11.239  69.027  1.00  0.00     0.000 HD 
HETATM   17  O   UNL     1      -9.622   8.180  68.258  1.00  0.00    -0.141 OA 
BRANCH  15  18
HETATM   18  C   UNL     1      -8.534   9.360  70.095  1.00  0.00    -0.205 C  
HETATM   19  C   UNL     1      -7.472  10.443  69.884  1.00  0.00    -0.134 C  
BRANCH  18  20
HETATM   20  O   UNL     1      -9.364   9.669  71.220  1.00  0.00    -0.152 OA 
BRANCH  20  21
HETATM   21  C   UNL     1      -9.646   8.659  72.102  1.00  0.00    -0.307 A  
HETATM   22  C   UNL     1      -8.857   8.283  73.191  1.00  0.00    -0.292 A  
HETATM   23  C   UNL     1      -9.277   7.271  74.060  1.00  0.00    -0.292 A  
HETATM   24  C   UNL     1     -10.484   6.614  73.840  1.00  0.00    -0.351 A  
HETATM   25  C   UNL     1     -11.276   6.976  72.754  1.00  0.00    -0.294 A  
HETATM   26  C   UNL     1     -10.862   8.002  71.895  1.00  0.00    -0.316 A  
ENDBRANCH  20  21
ENDBRANCH  18  20
ENDBRANCH  15  18
ENDBRANCH  12  14
TORSDOF 4
ENDMDL
MODEL       58
REMARK 921   NORMALIZED FREE ENERGY PREDICTED BY IDOCK:   -5.32 KCAL/MOL
REMARK 922        TOTAL FREE ENERGY PREDICTED BY IDOCK:   -7.35 KCAL/MOL
REMARK 923 INTER-LIGAND FREE ENERGY PREDICTED BY IDOCK:   -6.78 KCAL/MOL
REMARK 924 INTRA-LIGAND FREE ENERGY PREDICTED BY IDOCK:   -0.56 KCAL/MOL
REMARK 927      BINDING AFFINITY PREDICTED BY RF-SCORE:    0.00 PKD
ROOT
HETATM    1  C   UNL     1     -11.129  15.025  66.888  1.00  0.00    -0.331 C  
HETATM    2  S   UNL     1      -9.316  14.917  66.566  1.00  0.00    -0.288 SA 
HETATM    3  C   UNL     1      -8.942  13.964  68.111  1.00  0.00    -0.185 C  
HETATM    4  CA  UNL     1     -10.290  13.320  68.528  1.00  0.00    -0.239 C  
HETATM    5  C   UNL     1      -8.437  14.971  69.165  1.00  0.00    -0.192 C  
HETATM    6  C   UNL     1      -7.791  12.990  67.839  1.00  0.00    -0.149 C  
HETATM    7  N   UNL     1     -11.363  14.251  68.124  1.00  0.00    -0.273 N  
HETATM    8  C   UNL     1     -10.584  11.942  67.899  1.00  0.00    -0.201 C  
HETATM    9  C   UNL     1     -11.618  15.371  68.885  1.00  0.00    -0.354 C  
HETATM   10  OXT UNL     1      -9.839  10.981  67.939  1.00  0.00    -0.166 OA 
HETATM   11  O   UNL     1     -11.821  11.857  67.340  1.00  0.00    -0.571 OA 
HETATM   12  CA  UNL     1     -11.623  16.297  67.626  1.00  0.00     0.212 C  
HETATM   13  O   UNL     1     -11.637  15.497  70.088  1.00  0.00    -0.281 OA 
ENDROOT
BRANCH  12  14
HETATM   14  N   UNL     1     -10.657  17.430  67.621  1.00  0.00    -0.365 N  
HETATM   15  C   UNL     1     -10.414  18.219  66.518  1.00  0.00    -0.356 C  
HETATM   16  H   UNL     1     -10.148  17.632  68.481  1.00  0.00     0.000 HD 
HETATM   17  O   UNL     1     -10.946  17.995  65.434  1.00  0.00    -0.466 OA 
BRANCH  15  18
HETATM   18  C   UNL     1      -9.411  19.379  66.729  1.00  0.00    -0.333 C  
HETATM   19  C   UNL     1      -9.865  20.287  67.876  1.00  0.00    -0.492 C  
BRANCH  18  20
HETATM   20  O   UNL     1      -8.130  18.804  67.006  1.00  0.00    -0.248 OA 
BRANCH  20  21
HETATM   21  C   UNL     1      -7.132  18.994  66.087  1.00  0.00    -0.253 A  
HETATM   22  C   UNL     1      -6.157  18.058  65.737  1.00  0.00    -0.260 A  
HETATM   23  C   UNL     1      -5.219  18.345  64.740  1.00  0.00    -0.147 A  
HETATM   24  C   UNL     1      -5.239  19.576  64.092  1.00  0.00    -0.234 A  
HETATM   25  C   UNL     1      -6.202  20.520  64.438  1.00  0.00    -0.346 A  
HETATM   26  C   UNL     1      -7.150  20.224  65.424  1.00  0.00    -0.263 A  
ENDBRANCH  20  21
ENDBRANCH  18  20
ENDBRANCH  15  18
ENDBRANCH  12  14
TORSDOF 4
ENDMDL
MODEL       59
REMARK 921   NORMALIZED FREE ENERGY PREDICTED BY IDOCK:   -5.32 KCAL/MOL
REMARK 922        TOTAL FREE ENERGY PREDICTED BY IDOCK:   -7.34 KCAL/MOL
REMARK 923 INTER-LIGAND FREE ENERGY PREDICTED BY IDOCK:   -6.68 KCAL/MOL
REMARK 924 INTRA-LIGAND FREE ENERGY PREDICTED BY IDOCK:   -0.66 KCAL/MOL
REMARK 927      BINDING AFFINITY PREDICTED BY RF-SCORE:    0.00 PKD
ROOT
HETATM    1  C   UNL     1      -8.835   8.089  70.012  1.00  0.00    -0.143 C  
HETATM    2  S   UNL     1      -9.613   8.734  71.555  1.00  0.00    -0.294 SA 
HETATM    3  C   UNL     1     -10.746   7.283  71.774  1.00  0.00    -0.218 C  
HETATM    4  CA  UNL     1     -10.102   6.137  70.952  1.00  0.00    -0.192 C  
HETATM    5  C   UNL     1     -12.126   7.685  71.213  1.00  0.00    -0.337 C  
HETATM    6  C   UNL     1     -10.935   7.010  73.270  1.00  0.00    -0.296 C  
HETATM    7  N   UNL     1      -9.428   6.755  69.792  1.00  0.00    -0.145 N  
HETATM    8  C   UNL     1      -9.065   5.283  71.713  1.00  0.00    -0.138 C  
HETATM    9  C   UNL     1     -10.174   7.165  68.708  1.00  0.00    -0.179 C  
HETATM   10  OXT UNL     1      -9.261   4.731  72.780  1.00  0.00    -0.128 OA 
HETATM   11  O   UNL     1      -7.895   5.125  71.038  1.00  0.00    -0.092 OA 
HETATM   12  CA  UNL     1      -9.467   8.558  68.674  1.00  0.00    -0.143 C  
HETATM   13  O   UNL     1     -11.117   6.627  68.175  1.00  0.00    -0.257 OA 
ENDROOT
BRANCH  12  14
HETATM   14  N   UNL     1     -10.340   9.758  68.789  1.00  0.00    -0.200 N  
HETATM   15  C   UNL     1      -9.905  11.043  68.551  1.00  0.00    -0.192 C  
HETATM   16  H   UNL     1     -11.314   9.620  69.059  1.00  0.00     0.000 HD 
HETATM   17  O   UNL     1      -8.732  11.287  68.281  1.00  0.00    -0.144 OA 
BRANCH  15  18
HETATM   18  C   UNL     1     -10.979  12.151  68.674  1.00  0.00    -0.245 C  
HETATM   19  C   UNL     1     -11.898  12.154  67.449  1.00  0.00    -0.297 C  
BRANCH  18  20
HETATM   20  O   UNL     1     -11.723  11.906  69.872  1.00  0.00    -0.310 OA 
BRANCH  20  21
HETATM   21  C   UNL     1     -12.256  12.987  70.525  1.00  0.00    -0.313 A  
HETATM   22  C   UNL     1     -12.005  14.327  70.223  1.00  0.00    -0.398 A  
HETATM   23  C   UNL     1     -12.654  15.348  70.924  1.00  0.00    -0.496 A  
HETATM   24  C   UNL     1     -13.550  15.040  71.944  1.00  0.00    -0.520 A  
HETATM   25  C   UNL     1     -13.802  13.707  72.258  1.00  0.00    -0.689 A  
HETATM   26  C   UNL     1     -13.165  12.686  71.543  1.00  0.00    -0.313 A  
ENDBRANCH  20  21
ENDBRANCH  18  20
ENDBRANCH  15  18
ENDBRANCH  12  14
TORSDOF 4
ENDMDL
MODEL       60
REMARK 921   NORMALIZED FREE ENERGY PREDICTED BY IDOCK:   -5.31 KCAL/MOL
REMARK 922        TOTAL FREE ENERGY PREDICTED BY IDOCK:   -7.33 KCAL/MOL
REMARK 923 INTER-LIGAND FREE ENERGY PREDICTED BY IDOCK:   -6.68 KCAL/MOL
REMARK 924 INTRA-LIGAND FREE ENERGY PREDICTED BY IDOCK:   -0.66 KCAL/MOL
REMARK 927      BINDING AFFINITY PREDICTED BY RF-SCORE:    0.00 PKD
ROOT
HETATM    1  C   UNL     1     -11.772  15.527  68.673  1.00  0.00    -0.348 C  
HETATM    2  S   UNL     1     -11.848  14.873  66.950  1.00  0.00    -0.079 SA 
HETATM    3  C   UNL     1     -10.686  13.465  67.268  1.00  0.00    -0.260 C  
HETATM    4  CA  UNL     1     -10.711  13.255  68.804  1.00  0.00    -0.227 C  
HETATM    5  C   UNL     1      -9.290  13.895  66.771  1.00  0.00    -0.286 C  
HETATM    6  C   UNL     1     -11.108  12.259  66.421  1.00  0.00    -0.345 C  
HETATM    7  N   UNL     1     -10.922  14.580  69.423  1.00  0.00    -0.256 N  
HETATM    8  C   UNL     1     -11.809  12.302  69.321  1.00  0.00    -0.306 C  
HETATM    9  C   UNL     1      -9.868  15.463  69.521  1.00  0.00    -0.260 C  
HETATM   10  OXT UNL     1     -11.994  11.167  68.923  1.00  0.00    -0.394 OA 
HETATM   11  O   UNL     1     -12.534  12.819  70.349  1.00  0.00    -0.256 OA 
HETATM   12  CA  UNL     1     -10.721  16.637  68.942  1.00  0.00    -0.337 C  
HETATM   13  O   UNL     1      -8.710  15.252  69.802  1.00  0.00    -0.192 OA 
ENDROOT
BRANCH  12  14
HETATM   14  N   UNL     1     -10.200  17.306  67.719  1.00  0.00    -0.317 N  
HETATM   15  C   UNL     1     -10.120  18.674  67.574  1.00  0.00    -0.360 C  
HETATM   16  H   UNL     1      -9.886  16.720  66.945  1.00  0.00     0.000 HD 
HETATM   17  O   UNL     1     -10.536  19.440  68.439  1.00  0.00    -0.383 OA 
BRANCH  15  18
HETATM   18  C   UNL     1      -9.502  19.175  66.246  1.00  0.00    -0.326 C  
HETATM   19  C   UNL     1     -10.358  20.288  65.635  1.00  0.00    -0.197 C  
BRANCH  18  20
HETATM   20  O   UNL     1      -8.179  19.643  66.529  1.00  0.00    -0.295 OA 
BRANCH  20  21
HETATM   21  C   UNL     1      -7.276  18.741  67.028  1.00  0.00    -0.209 A  
HETATM   22  C   UNL     1      -6.977  17.494  66.474  1.00  0.00    -0.288 A  
HETATM   23  C   UNL     1      -5.991  16.681  67.040  1.00  0.00    -0.188 A  
HETATM   24  C   UNL     1      -5.303  17.099  68.175  1.00  0.00    -0.120 A  
HETATM   25  C   UNL     1      -5.597  18.338  68.741  1.00  0.00    -0.193 A  
HETATM   26  C   UNL     1      -6.573  19.158  68.161  1.00  0.00    -0.253 A  
ENDBRANCH  20  21
ENDBRANCH  18  20
ENDBRANCH  15  18
ENDBRANCH  12  14
TORSDOF 4
ENDMDL
MODEL       61
REMARK 921   NORMALIZED FREE ENERGY PREDICTED BY IDOCK:   -5.27 KCAL/MOL
REMARK 922        TOTAL FREE ENERGY PREDICTED BY IDOCK:   -7.28 KCAL/MOL
REMARK 923 INTER-LIGAND FREE ENERGY PREDICTED BY IDOCK:   -6.45 KCAL/MOL
REMARK 924 INTRA-LIGAND FREE ENERGY PREDICTED BY IDOCK:   -0.82 KCAL/MOL
REMARK 927      BINDING AFFINITY PREDICTED BY RF-SCORE:    0.00 PKD
ROOT
HETATM    1  C   UNL     1     -11.148  15.999  68.189  1.00  0.00    -0.344 C  
HETATM    2  S   UNL     1      -9.671  15.876  69.287  1.00  0.00    -0.268 SA 
HETATM    3  C   UNL     1      -8.502  16.623  68.058  1.00  0.00    -0.192 C  
HETATM    4  CA  UNL     1      -9.400  17.412  67.070  1.00  0.00    -0.260 C  
HETATM    5  C   UNL     1      -7.762  15.463  67.359  1.00  0.00    -0.224 C  
HETATM    6  C   UNL     1      -7.442  17.444  68.801  1.00  0.00    -0.258 C  
HETATM    7  N   UNL     1     -10.681  16.684  66.966  1.00  0.00    -0.234 N  
HETATM    8  C   UNL     1      -9.705  18.869  67.477  1.00  0.00    -0.313 C  
HETATM    9  C   UNL     1     -10.759  15.547  66.191  1.00  0.00    -0.313 C  
HETATM   10  OXT UNL     1      -8.868  19.706  67.759  1.00  0.00    -0.309 OA 
HETATM   11  O   UNL     1     -11.028  19.180  67.420  1.00  0.00    -0.475 OA 
HETATM   12  CA  UNL     1     -11.473  14.749  67.330  1.00  0.00    -0.366 C  
HETATM   13  O   UNL     1     -10.268  15.317  65.110  1.00  0.00    -0.368 OA 
ENDROOT
BRANCH  12  14
HETATM   14  N   UNL     1     -10.813  13.495  67.786  1.00  0.00    -0.249 N  
HETATM   15  C   UNL     1     -11.114  12.249  67.281  1.00  0.00    -0.275 C  
HETATM   16  H   UNL     1     -10.099  13.563  68.511  1.00  0.00     0.000 HD 
HETATM   17  O   UNL     1     -12.003  12.086  66.451  1.00  0.00    -0.611 OA 
BRANCH  15  18
HETATM   18  C   UNL     1     -10.281  11.074  67.850  1.00  0.00    -0.182 C  
HETATM   19  C   UNL     1     -10.751   9.741  67.262  1.00  0.00    -0.296 C  
BRANCH  18  20
HETATM   20  O   UNL     1      -8.907  11.319  67.531  1.00  0.00    -0.138 OA 
BRANCH  20  21
HETATM   21  C   UNL     1      -7.980  11.146  68.526  1.00  0.00    -0.143 A  
HETATM   22  C   UNL     1      -7.780   9.974  69.259  1.00  0.00    -0.117 A  
HETATM   23  C   UNL     1      -6.760   9.896  70.213  1.00  0.00    -0.126 A  
HETATM   24  C   UNL     1      -5.939  10.994  70.453  1.00  0.00    -0.141 A  
HETATM   25  C   UNL     1      -6.135  12.170  69.733  1.00  0.00    -0.143 A  
HETATM   26  C   UNL     1      -7.144  12.239  68.766  1.00  0.00    -0.107 A  
ENDBRANCH  20  21
ENDBRANCH  18  20
ENDBRANCH  15  18
ENDBRANCH  12  14
TORSDOF 4
ENDMDL
MODEL       62
REMARK 921   NORMALIZED FREE ENERGY PREDICTED BY IDOCK:   -5.26 KCAL/MOL
REMARK 922        TOTAL FREE ENERGY PREDICTED BY IDOCK:   -7.27 KCAL/MOL
REMARK 923 INTER-LIGAND FREE ENERGY PREDICTED BY IDOCK:   -7.05 KCAL/MOL
REMARK 924 INTRA-LIGAND FREE ENERGY PREDICTED BY IDOCK:   -0.22 KCAL/MOL
REMARK 927      BINDING AFFINITY PREDICTED BY RF-SCORE:    0.00 PKD
ROOT
HETATM    1  C   UNL     1     -10.981  15.459  66.695  1.00  0.00    -0.275 C  
HETATM    2  S   UNL     1     -12.151  14.227  67.412  1.00  0.00    -0.238 SA 
HETATM    3  C   UNL     1     -11.110  13.876  68.905  1.00  0.00    -0.266 C  
HETATM    4  CA  UNL     1     -10.173  15.104  69.046  1.00  0.00    -0.241 C  
HETATM    5  C   UNL     1     -10.319  12.582  68.623  1.00  0.00    -0.193 C  
HETATM    6  C   UNL     1     -12.022  13.589  70.102  1.00  0.00    -0.399 C  
HETATM    7  N   UNL     1      -9.891  15.597  67.682  1.00  0.00    -0.226 N  
HETATM    8  C   UNL     1     -10.743  16.275  69.873  1.00  0.00    -0.322 C  
HETATM    9  C   UNL     1      -8.972  14.938  66.894  1.00  0.00    -0.253 C  
HETATM   10  OXT UNL     1     -11.187  16.183  71.003  1.00  0.00    -0.352 OA 
HETATM   11  O   UNL     1     -10.638  17.479  69.249  1.00  0.00    -0.268 OA 
HETATM   12  CA  UNL     1      -9.947  14.914  65.674  1.00  0.00    -0.358 C  
HETATM   13  O   UNL     1      -7.905  14.453  67.197  1.00  0.00    -0.186 OA 
ENDROOT
BRANCH  12  14
HETATM   14  N   UNL     1     -10.282  13.579  65.107  1.00  0.00    -0.455 N  
HETATM   15  C   UNL     1     -11.376  13.346  64.302  1.00  0.00    -0.389 C  
HETATM   16  H   UNL     1      -9.668  12.795  65.327  1.00  0.00     0.000 HD 
HETATM   17  O   UNL     1     -12.189  14.230  64.046  1.00  0.00    -0.555 OA 
BRANCH  15  18
HETATM   18  C   UNL     1     -11.524  11.899  63.771  1.00  0.00    -0.454 C  
HETATM   19  C   UNL     1     -12.821  11.745  62.971  1.00  0.00     0.115 C  
BRANCH  18  20
HETATM   20  O   UNL     1     -10.382  11.615  62.956  1.00  0.00    -0.337 OA 
BRANCH  20  21
HETATM   21  C   UNL     1      -9.590  10.556  63.313  1.00  0.00    -0.331 A  
HETATM   22  C   UNL     1      -8.645   9.932  62.496  1.00  0.00    -0.197 A  
HETATM   23  C   UNL     1      -7.850   8.893  62.990  1.00  0.00    -0.133 A  
HETATM   24  C   UNL     1      -8.001   8.458  64.304  1.00  0.00    -0.149 A  
HETATM   25  C   UNL     1      -8.945   9.069  65.126  1.00  0.00    -0.216 A  
HETATM   26  C   UNL     1      -9.727  10.120  64.634  1.00  0.00    -0.377 A  
ENDBRANCH  20  21
ENDBRANCH  18  20
ENDBRANCH  15  18
ENDBRANCH  12  14
TORSDOF 4
ENDMDL
MODEL       63
REMARK 921   NORMALIZED FREE ENERGY PREDICTED BY IDOCK:   -5.23 KCAL/MOL
REMARK 922        TOTAL FREE ENERGY PREDICTED BY IDOCK:   -7.24 KCAL/MOL
REMARK 923 INTER-LIGAND FREE ENERGY PREDICTED BY IDOCK:   -6.51 KCAL/MOL
REMARK 924 INTRA-LIGAND FREE ENERGY PREDICTED BY IDOCK:   -0.73 KCAL/MOL
REMARK 927      BINDING AFFINITY PREDICTED BY RF-SCORE:    0.00 PKD
ROOT
HETATM    1  C   UNL     1     -11.312   7.907  71.224  1.00  0.00    -0.260 C  
HETATM    2  S   UNL     1     -11.321   6.562  69.962  1.00  0.00    -0.410 SA 
HETATM    3  C   UNL     1      -9.653   5.902  70.427  1.00  0.00    -0.168 C  
HETATM    4  CA  UNL     1      -9.402   6.410  71.870  1.00  0.00    -0.152 C  
HETATM    5  C   UNL     1      -8.630   6.483  69.429  1.00  0.00    -0.134 C  
HETATM    6  C   UNL     1      -9.640   4.380  70.241  1.00  0.00    -0.263 C  
HETATM    7  N   UNL     1     -10.063   7.726  71.991  1.00  0.00    -0.183 N  
HETATM    8  C   UNL     1      -9.939   5.496  72.993  1.00  0.00    -0.176 C  
HETATM    9  C   UNL     1      -9.463   8.843  71.452  1.00  0.00    -0.274 C  
HETATM   10  OXT UNL     1      -9.687   4.312  73.111  1.00  0.00    -0.125 OA 
HETATM   11  O   UNL     1     -10.681   6.159  73.920  1.00  0.00    -0.249 OA 
HETATM   12  CA  UNL     1     -10.788   9.289  70.753  1.00  0.00    -0.284 C  
HETATM   13  O   UNL     1      -8.296   9.164  71.446  1.00  0.00    -0.321 OA 
ENDROOT
BRANCH  12  14
HETATM   14  N   UNL     1     -10.741   9.463  69.275  1.00  0.00    -0.262 N  
HETATM   15  C   UNL     1     -10.119  10.523  68.652  1.00  0.00    -0.180 C  
HETATM   16  H   UNL     1     -11.195   8.760  68.693  1.00  0.00     0.000 HD 
HETATM   17  O   UNL     1      -9.606  11.437  69.292  1.00  0.00     0.037 OA 
BRANCH  15  18
HETATM   18  C   UNL     1     -10.136  10.498  67.104  1.00  0.00    -0.209 C  
HETATM   19  C   UNL     1      -9.725   9.120  66.579  1.00  0.00    -0.306 C  
BRANCH  18  20
HETATM   20  O   UNL     1     -11.460  10.835  66.678  1.00  0.00    -0.169 OA 
BRANCH  20  21
HETATM   21  C   UNL     1     -11.650  12.059  66.091  1.00  0.00    -0.304 A  
HETATM   22  C   UNL     1     -11.774  13.276  66.766  1.00  0.00    -0.434 A  
HETATM   23  C   UNL     1     -11.907  14.473  66.056  1.00  0.00    -0.339 A  
HETATM   24  C   UNL     1     -11.932  14.465  64.665  1.00  0.00    -0.475 A  
HETATM   25  C   UNL     1     -11.816  13.257  63.982  1.00  0.00    -0.512 A  
HETATM   26  C   UNL     1     -11.665  12.062  64.694  1.00  0.00    -0.358 A  
ENDBRANCH  20  21
ENDBRANCH  18  20
ENDBRANCH  15  18
ENDBRANCH  12  14
TORSDOF 4
ENDMDL
MODEL       64
REMARK 921   NORMALIZED FREE ENERGY PREDICTED BY IDOCK:   -5.23 KCAL/MOL
REMARK 922        TOTAL FREE ENERGY PREDICTED BY IDOCK:   -7.23 KCAL/MOL
REMARK 923 INTER-LIGAND FREE ENERGY PREDICTED BY IDOCK:   -6.55 KCAL/MOL
REMARK 924 INTRA-LIGAND FREE ENERGY PREDICTED BY IDOCK:   -0.68 KCAL/MOL
REMARK 927      BINDING AFFINITY PREDICTED BY RF-SCORE:    0.00 PKD
ROOT
HETATM    1  C   UNL     1     -10.887   6.421  66.976  1.00  0.00    -0.392 C  
HETATM    2  S   UNL     1     -10.031   7.987  66.508  1.00  0.00    -0.161 SA 
HETATM    3  C   UNL     1      -8.326   7.265  66.603  1.00  0.00    -0.121 C  
HETATM    4  CA  UNL     1      -8.526   5.732  66.472  1.00  0.00    -0.116 C  
HETATM    5  C   UNL     1      -7.736   7.651  67.975  1.00  0.00    -0.119 C  
HETATM    6  C   UNL     1      -7.440   7.917  65.536  1.00  0.00    -0.079 C  
HETATM    7  N   UNL     1      -9.823   5.405  67.100  1.00  0.00    -0.145 N  
HETATM    8  C   UNL     1      -8.539   5.191  65.027  1.00  0.00    -0.151 C  
HETATM    9  C   UNL     1      -9.919   5.340  68.473  1.00  0.00    -0.163 C  
HETATM   10  OXT UNL     1      -7.672   5.389  64.197  1.00  0.00    -0.075 OA 
HETATM   11  O   UNL     1      -9.599   4.379  64.764  1.00  0.00    -0.161 OA 
HETATM   12  CA  UNL     1     -11.202   6.233  68.484  1.00  0.00    -0.209 C  
HETATM   13  O   UNL     1      -9.143   4.879  69.279  1.00  0.00    -0.095 OA 
ENDROOT
BRANCH  12  14
HETATM   14  N   UNL     1     -11.142   7.483  69.289  1.00  0.00    -0.442 N  
HETATM   15  C   UNL     1     -11.761   7.632  70.512  1.00  0.00    -0.128 C  
HETATM   16  H   UNL     1     -10.615   8.273  68.916  1.00  0.00     0.000 HD 
HETATM   17  O   UNL     1     -12.461   6.745  70.993  1.00  0.00    -0.367 OA 
BRANCH  15  18
HETATM   18  C   UNL     1     -11.539   8.992  71.217  1.00  0.00    -0.317 C  
HETATM   19  C   UNL     1     -10.136   9.064  71.828  1.00  0.00    -0.373 C  
BRANCH  18  20
HETATM   20  O   UNL     1     -11.727  10.024  70.244  1.00  0.00    -0.258 OA 
BRANCH  20  21
HETATM   21  C   UNL     1     -12.250  11.217  70.670  1.00  0.00    -0.397 A  
HETATM   22  C   UNL     1     -13.099  11.390  71.766  1.00  0.00    -0.523 A  
HETATM   23  C   UNL     1     -13.525  12.667  72.142  1.00  0.00    -0.561 A  
HETATM   24  C   UNL     1     -13.118  13.784  71.418  1.00  0.00    -0.413 A  
HETATM   25  C   UNL     1     -12.277  13.623  70.320  1.00  0.00    -0.423 A  
HETATM   26  C   UNL     1     -11.838  12.345  69.955  1.00  0.00    -0.363 A  
ENDBRANCH  20  21
ENDBRANCH  18  20
ENDBRANCH  15  18
ENDBRANCH  12  14
TORSDOF 4
ENDMDL
MODEL       65
REMARK 921   NORMALIZED FREE ENERGY PREDICTED BY IDOCK:   -5.22 KCAL/MOL
REMARK 922        TOTAL FREE ENERGY PREDICTED BY IDOCK:   -7.22 KCAL/MOL
REMARK 923 INTER-LIGAND FREE ENERGY PREDICTED BY IDOCK:   -6.78 KCAL/MOL
REMARK 924 INTRA-LIGAND FREE ENERGY PREDICTED BY IDOCK:   -0.43 KCAL/MOL
REMARK 927      BINDING AFFINITY PREDICTED BY RF-SCORE:    0.00 PKD
ROOT
HETATM    1  C   UNL     1      -9.797  17.486  65.754  1.00  0.00     0.024 C  
HETATM    2  S   UNL     1     -10.545  18.168  67.295  1.00  0.00    -0.322 SA 
HETATM    3  C   UNL     1      -8.939  18.263  68.216  1.00  0.00    -0.305 C  
HETATM    4  CA  UNL     1      -7.841  18.266  67.121  1.00  0.00    -0.219 C  
HETATM    5  C   UNL     1      -8.846  17.014  69.117  1.00  0.00    -0.035 C  
HETATM    6  C   UNL     1      -8.959  19.482  69.146  1.00  0.00    -0.138 C  
HETATM    7  N   UNL     1      -8.341  17.445  65.998  1.00  0.00    -0.173 N  
HETATM    8  C   UNL     1      -7.464  19.657  66.569  1.00  0.00    -0.261 C  
HETATM    9  C   UNL     1      -8.303  16.070  66.089  1.00  0.00    -0.130 C  
HETATM   10  OXT UNL     1      -7.127  20.610  67.246  1.00  0.00    -0.290 OA 
HETATM   11  O   UNL     1      -7.464  19.718  65.210  1.00  0.00    -0.378 OA 
HETATM   12  CA  UNL     1      -9.788  15.940  65.618  1.00  0.00    -0.302 C  
HETATM   13  O   UNL     1      -7.442  15.352  66.542  1.00  0.00     0.028 OA 
ENDROOT
BRANCH  12  14
HETATM   14  N   UNL     1     -10.723  15.233  66.535  1.00  0.00    -0.308 N  
HETATM   15  C   UNL     1     -10.665  13.879  66.787  1.00  0.00    -0.281 C  
HETATM   16  H   UNL     1     -11.446  15.780  67.002  1.00  0.00     0.000 HD 
HETATM   17  O   UNL     1      -9.860  13.150  66.214  1.00  0.00    -0.275 OA 
BRANCH  15  18
HETATM   18  C   UNL     1     -11.694  13.340  67.811  1.00  0.00    -0.358 C  
HETATM   19  C   UNL     1     -11.914  11.837  67.619  1.00  0.00    -0.106 C  
BRANCH  18  20
HETATM   20  O   UNL     1     -11.194  13.622  69.122  1.00  0.00    -0.256 OA 
BRANCH  20  21
HETATM   21  C   UNL     1     -12.092  13.651  70.156  1.00  0.00    -0.361 A  
HETATM   22  C   UNL     1     -12.820  14.768  70.574  1.00  0.00    -0.374 A  
HETATM   23  C   UNL     1     -13.754  14.663  71.608  1.00  0.00    -0.500 A  
HETATM   24  C   UNL     1     -13.962  13.443  72.245  1.00  0.00    -0.605 A  
HETATM   25  C   UNL     1     -13.238  12.324  71.842  1.00  0.00    -0.481 A  
HETATM   26  C   UNL     1     -12.315  12.428  70.794  1.00  0.00    -0.377 A  
ENDBRANCH  20  21
ENDBRANCH  18  20
ENDBRANCH  15  18
ENDBRANCH  12  14
TORSDOF 4
ENDMDL
MODEL       66
REMARK 921   NORMALIZED FREE ENERGY PREDICTED BY IDOCK:   -5.16 KCAL/MOL
REMARK 922        TOTAL FREE ENERGY PREDICTED BY IDOCK:   -7.15 KCAL/MOL
REMARK 923 INTER-LIGAND FREE ENERGY PREDICTED BY IDOCK:   -6.49 KCAL/MOL
REMARK 924 INTRA-LIGAND FREE ENERGY PREDICTED BY IDOCK:   -0.66 KCAL/MOL
REMARK 927      BINDING AFFINITY PREDICTED BY RF-SCORE:    0.00 PKD
ROOT
HETATM    1  C   UNL     1      -9.551  17.420  68.415  1.00  0.00    -0.292 C  
HETATM    2  S   UNL     1      -8.906  16.034  69.446  1.00  0.00    -0.062 SA 
HETATM    3  C   UNL     1      -7.155  16.209  68.861  1.00  0.00    -0.166 C  
HETATM    4  CA  UNL     1      -7.054  17.654  68.308  1.00  0.00    -0.223 C  
HETATM    5  C   UNL     1      -6.929  15.156  67.756  1.00  0.00    -0.190 C  
HETATM    6  C   UNL     1      -6.201  15.863  70.009  1.00  0.00    -0.119 C  
HETATM    7  N   UNL     1      -8.373  17.998  67.738  1.00  0.00    -0.245 N  
HETATM    8  C   UNL     1      -6.682  18.732  69.348  1.00  0.00    -0.219 C  
HETATM    9  C   UNL     1      -8.730  17.508  66.500  1.00  0.00    -0.262 C  
HETATM   10  OXT UNL     1      -5.714  18.691  70.084  1.00  0.00    -0.229 OA 
HETATM   11  O   UNL     1      -7.509  19.812  69.326  1.00  0.00    -0.316 OA 
HETATM   12  CA  UNL     1     -10.125  17.036  67.025  1.00  0.00    -0.295 C  
HETATM   13  O   UNL     1      -8.064  17.387  65.498  1.00  0.00    -0.295 OA 
ENDROOT
BRANCH  12  14
HETATM   14  N   UNL     1     -10.448  15.592  66.867  1.00  0.00    -0.295 N  
HETATM   15  C   UNL     1     -10.664  14.989  65.646  1.00  0.00    -0.354 C  
HETATM   16  H   UNL     1     -10.512  15.017  67.707  1.00  0.00     0.000 HD 
HETATM   17  O   UNL     1     -10.663  15.632  64.600  1.00  0.00    -0.431 OA 
BRANCH  15  18
HETATM   18  C   UNL     1     -10.937  13.466  65.687  1.00  0.00    -0.281 C  
HETATM   19  C   UNL     1     -11.444  12.969  64.330  1.00  0.00    -0.409 C  
BRANCH  18  20
HETATM   20  O   UNL     1      -9.716  12.814  66.049  1.00  0.00    -0.259 OA 
BRANCH  20  21
HETATM   21  C   UNL     1      -9.752  11.460  66.260  1.00  0.00    -0.212 A  
HETATM   22  C   UNL     1     -10.670  10.785  67.068  1.00  0.00    -0.320 A  
HETATM   23  C   UNL     1     -10.646   9.390  67.162  1.00  0.00    -0.294 A  
HETATM   24  C   UNL     1      -9.695   8.656  66.459  1.00  0.00    -0.325 A  
HETATM   25  C   UNL     1      -8.771   9.319  65.655  1.00  0.00    -0.193 A  
HETATM   26  C   UNL     1      -8.808  10.714  65.549  1.00  0.00    -0.202 A  
ENDBRANCH  20  21
ENDBRANCH  18  20
ENDBRANCH  15  18
ENDBRANCH  12  14
TORSDOF 4
ENDMDL
MODEL       67
REMARK 921   NORMALIZED FREE ENERGY PREDICTED BY IDOCK:   -5.14 KCAL/MOL
REMARK 922        TOTAL FREE ENERGY PREDICTED BY IDOCK:   -7.12 KCAL/MOL
REMARK 923 INTER-LIGAND FREE ENERGY PREDICTED BY IDOCK:   -6.24 KCAL/MOL
REMARK 924 INTRA-LIGAND FREE ENERGY PREDICTED BY IDOCK:   -0.89 KCAL/MOL
REMARK 927      BINDING AFFINITY PREDICTED BY RF-SCORE:    0.00 PKD
ROOT
HETATM    1  C   UNL     1      -9.165   9.085  66.778  1.00  0.00    -0.157 C  
HETATM    2  S   UNL     1      -7.934   9.071  68.151  1.00  0.00    -0.101 SA 
HETATM    3  C   UNL     1      -7.760   7.226  68.184  1.00  0.00    -0.117 C  
HETATM    4  CA  UNL     1      -8.251   6.747  66.794  1.00  0.00    -0.114 C  
HETATM    5  C   UNL     1      -8.656   6.697  69.322  1.00  0.00    -0.131 C  
HETATM    6  C   UNL     1      -6.316   6.860  68.547  1.00  0.00    -0.032 C  
HETATM    7  N   UNL     1      -9.315   7.676  66.361  1.00  0.00    -0.185 N  
HETATM    8  C   UNL     1      -7.171   6.704  65.692  1.00  0.00    -0.070 C  
HETATM    9  C   UNL     1     -10.581   7.559  66.892  1.00  0.00    -0.297 C  
HETATM   10  OXT UNL     1      -6.104   6.125  65.780  1.00  0.00    -0.031 OA 
HETATM   11  O   UNL     1      -7.549   7.322  64.541  1.00  0.00    -0.092 OA 
HETATM   12  CA  UNL     1     -10.660   9.091  67.193  1.00  0.00    -0.220 C  
HETATM   13  O   UNL     1     -11.223   6.564  67.141  1.00  0.00    -0.388 OA 
ENDROOT
BRANCH  12  14
HETATM   14  N   UNL     1     -10.908   9.485  68.607  1.00  0.00    -0.391 N  
HETATM   15  C   UNL     1     -11.610  10.614  68.970  1.00  0.00    -0.261 C  
HETATM   16  H   UNL     1     -10.539   8.887  69.346  1.00  0.00     0.000 HD 
HETATM   17  O   UNL     1     -12.030  11.410  68.135  1.00  0.00    -0.594 OA 
BRANCH  15  18
HETATM   18  C   UNL     1     -11.804  10.824  70.492  1.00  0.00    -0.356 C  
HETATM   19  C   UNL     1     -12.490  12.165  70.771  1.00  0.00    -0.362 C  
BRANCH  18  20
HETATM   20  O   UNL     1     -12.590   9.735  70.986  1.00  0.00    -0.317 OA 
BRANCH  20  21
HETATM   21  C   UNL     1     -11.931   8.687  71.574  1.00  0.00    -0.306 A  
HETATM   22  C   UNL     1     -10.746   8.777  72.307  1.00  0.00    -0.322 A  
HETATM   23  C   UNL     1     -10.194   7.644  72.912  1.00  0.00    -0.356 A  
HETATM   24  C   UNL     1     -10.815   6.406  72.779  1.00  0.00    -0.278 A  
HETATM   25  C   UNL     1     -11.994   6.303  72.045  1.00  0.00    -0.353 A  
HETATM   26  C   UNL     1     -12.554   7.442  71.455  1.00  0.00    -0.405 A  
ENDBRANCH  20  21
ENDBRANCH  18  20
ENDBRANCH  15  18
ENDBRANCH  12  14
TORSDOF 4
ENDMDL
MODEL       68
REMARK 921   NORMALIZED FREE ENERGY PREDICTED BY IDOCK:   -5.14 KCAL/MOL
REMARK 922        TOTAL FREE ENERGY PREDICTED BY IDOCK:   -7.12 KCAL/MOL
REMARK 923 INTER-LIGAND FREE ENERGY PREDICTED BY IDOCK:   -6.55 KCAL/MOL
REMARK 924 INTRA-LIGAND FREE ENERGY PREDICTED BY IDOCK:   -0.57 KCAL/MOL
REMARK 927      BINDING AFFINITY PREDICTED BY RF-SCORE:    0.00 PKD
ROOT
HETATM    1  C   UNL     1      -9.015   7.796  70.031  1.00  0.00    -0.142 C  
HETATM    2  S   UNL     1      -9.665   8.750  71.469  1.00  0.00    -0.307 SA 
HETATM    3  C   UNL     1     -10.712   7.364  72.114  1.00  0.00    -0.225 C  
HETATM    4  CA  UNL     1     -10.106   6.076  71.499  1.00  0.00    -0.192 C  
HETATM    5  C   UNL     1     -12.155   7.607  71.626  1.00  0.00    -0.336 C  
HETATM    6  C   UNL     1     -10.744   7.423  73.645  1.00  0.00    -0.241 C  
HETATM    7  N   UNL     1      -9.573   6.435  70.169  1.00  0.00    -0.160 N  
HETATM    8  C   UNL     1      -8.967   5.429  72.316  1.00  0.00    -0.129 C  
HETATM    9  C   UNL     1     -10.437   6.583  69.105  1.00  0.00    -0.221 C  
HETATM   10  OXT UNL     1      -9.035   5.122  73.491  1.00  0.00    -0.118 OA 
HETATM   11  O   UNL     1      -7.862   5.147  71.573  1.00  0.00    -0.105 OA 
HETATM   12  CA  UNL     1      -9.792   7.948  68.696  1.00  0.00    -0.170 C  
HETATM   13  O   UNL     1     -11.405   5.925  68.802  1.00  0.00    -0.180 OA 
ENDROOT
BRANCH  12  14
HETATM   14  N   UNL     1     -10.698   9.127  68.638  1.00  0.00    -0.380 N  
HETATM   15  C   UNL     1     -10.295  10.377  68.221  1.00  0.00    -0.171 C  
HETATM   16  H   UNL     1     -11.670   9.003  68.922  1.00  0.00     0.000 HD 
HETATM   17  O   UNL     1      -9.127  10.612  67.922  1.00  0.00    -0.142 OA 
BRANCH  15  18
HETATM   18  C   UNL     1     -11.399  11.462  68.183  1.00  0.00    -0.304 C  
HETATM   19  C   UNL     1     -11.800  11.878  69.601  1.00  0.00    -0.406 C  
BRANCH  18  20
HETATM   20  O   UNL     1     -10.888  12.578  67.447  1.00  0.00    -0.230 OA 
BRANCH  20  21
HETATM   21  C   UNL     1     -11.092  12.598  66.092  1.00  0.00    -0.292 A  
HETATM   22  C   UNL     1     -10.141  12.283  65.119  1.00  0.00    -0.284 A  
HETATM   23  C   UNL     1     -10.482  12.281  63.763  1.00  0.00    -0.476 A  
HETATM   24  C   UNL     1     -11.775  12.608  63.365  1.00  0.00    -0.571 A  
HETATM   25  C   UNL     1     -12.730  12.931  64.326  1.00  0.00    -0.286 A  
HETATM   26  C   UNL     1     -12.391  12.915  65.684  1.00  0.00    -0.482 A  
ENDBRANCH  20  21
ENDBRANCH  18  20
ENDBRANCH  15  18
ENDBRANCH  12  14
TORSDOF 4
ENDMDL
MODEL       69
REMARK 921   NORMALIZED FREE ENERGY PREDICTED BY IDOCK:   -5.14 KCAL/MOL
REMARK 922        TOTAL FREE ENERGY PREDICTED BY IDOCK:   -7.12 KCAL/MOL
REMARK 923 INTER-LIGAND FREE ENERGY PREDICTED BY IDOCK:   -6.45 KCAL/MOL
REMARK 924 INTRA-LIGAND FREE ENERGY PREDICTED BY IDOCK:   -0.67 KCAL/MOL
REMARK 927      BINDING AFFINITY PREDICTED BY RF-SCORE:    0.00 PKD
ROOT
HETATM    1  C   UNL     1     -11.229  11.566  66.220  1.00  0.00    -0.222 C  
HETATM    2  S   UNL     1     -11.758  12.534  67.698  1.00  0.00    -0.325 SA 
HETATM    3  C   UNL     1     -10.393  13.781  67.562  1.00  0.00    -0.241 C  
HETATM    4  CA  UNL     1      -9.913  13.700  66.089  1.00  0.00    -0.306 C  
HETATM    5  C   UNL     1      -9.284  13.362  68.549  1.00  0.00    -0.082 C  
HETATM    6  C   UNL     1     -10.908  15.148  68.024  1.00  0.00    -0.284 C  
HETATM    7  N   UNL     1     -10.080  12.299  65.651  1.00  0.00    -0.250 N  
HETATM    8  C   UNL     1     -10.672  14.609  65.099  1.00  0.00    -0.414 C  
HETATM    9  C   UNL     1      -9.163  11.348  66.043  1.00  0.00    -0.214 C  
HETATM   10  OXT UNL     1     -10.833  15.807  65.231  1.00  0.00    -0.378 OA 
HETATM   11  O   UNL     1     -11.098  13.955  63.984  1.00  0.00    -0.199 OA 
HETATM   12  CA  UNL     1     -10.290  10.360  66.487  1.00  0.00    -0.224 C  
HETATM   13  O   UNL     1      -7.959  11.428  66.127  1.00  0.00    -0.102 OA 
ENDROOT
BRANCH  12  14
HETATM   14  N   UNL     1     -10.260   9.900  67.902  1.00  0.00    -0.181 N  
HETATM   15  C   UNL     1     -10.440   8.587  68.280  1.00  0.00    -0.171 C  
HETATM   16  H   UNL     1     -10.098  10.594  68.631  1.00  0.00     0.000 HD 
HETATM   17  O   UNL     1     -10.699   7.709  67.461  1.00  0.00    -0.253 OA 
BRANCH  15  18
HETATM   18  C   UNL     1     -10.323   8.302  69.797  1.00  0.00    -0.216 C  
HETATM   19  C   UNL     1     -10.563   9.578  70.609  1.00  0.00    -0.374 C  
BRANCH  18  20
HETATM   20  O   UNL     1     -11.286   7.296  70.128  1.00  0.00    -0.269 OA 
BRANCH  20  21
HETATM   21  C   UNL     1     -10.886   6.275  70.950  1.00  0.00    -0.272 A  
HETATM   22  C   UNL     1     -11.270   6.103  72.282  1.00  0.00    -0.334 A  
HETATM   23  C   UNL     1     -10.843   4.986  73.007  1.00  0.00    -0.334 A  
HETATM   24  C   UNL     1     -10.018   4.037  72.413  1.00  0.00    -0.229 A  
HETATM   25  C   UNL     1      -9.624   4.201  71.087  1.00  0.00    -0.249 A  
HETATM   26  C   UNL     1     -10.066   5.311  70.357  1.00  0.00    -0.324 A  
ENDBRANCH  20  21
ENDBRANCH  18  20
ENDBRANCH  15  18
ENDBRANCH  12  14
TORSDOF 4
ENDMDL
MODEL       70
REMARK 921   NORMALIZED FREE ENERGY PREDICTED BY IDOCK:   -5.13 KCAL/MOL
REMARK 922        TOTAL FREE ENERGY PREDICTED BY IDOCK:   -7.11 KCAL/MOL
REMARK 923 INTER-LIGAND FREE ENERGY PREDICTED BY IDOCK:   -6.47 KCAL/MOL
REMARK 924 INTRA-LIGAND FREE ENERGY PREDICTED BY IDOCK:   -0.65 KCAL/MOL
REMARK 927      BINDING AFFINITY PREDICTED BY RF-SCORE:    0.00 PKD
ROOT
HETATM    1  C   UNL     1     -10.714  17.747  67.462  1.00  0.00    -0.307 C  
HETATM    2  S   UNL     1      -9.929  18.071  69.099  1.00  0.00    -0.079 SA 
HETATM    3  C   UNL     1      -8.192  17.986  68.457  1.00  0.00    -0.303 C  
HETATM    4  CA  UNL     1      -8.310  18.239  66.931  1.00  0.00    -0.245 C  
HETATM    5  C   UNL     1      -7.653  16.574  68.764  1.00  0.00    -0.219 C  
HETATM    6  C   UNL     1      -7.316  18.976  69.233  1.00  0.00    -0.217 C  
HETATM    7  N   UNL     1      -9.602  17.673  66.493  1.00  0.00    -0.284 N  
HETATM    8  C   UNL     1      -8.263  19.722  66.504  1.00  0.00    -0.335 C  
HETATM    9  C   UNL     1      -9.726  16.312  66.316  1.00  0.00    -0.304 C  
HETATM   10  OXT UNL     1      -7.388  20.510  66.809  1.00  0.00    -0.277 OA 
HETATM   11  O   UNL     1      -9.273  20.074  65.664  1.00  0.00    -0.249 OA 
HETATM   12  CA  UNL     1     -11.053  16.267  67.142  1.00  0.00    -0.014 C  
HETATM   13  O   UNL     1      -8.947  15.524  65.833  1.00  0.00    -0.303 OA 
ENDROOT
BRANCH  12  14
HETATM   14  N   UNL     1     -11.076  15.367  68.327  1.00  0.00    -0.295 N  
HETATM   15  C   UNL     1     -11.631  14.106  68.315  1.00  0.00    -0.321 C  
HETATM   16  H   UNL     1     -10.657  15.702  69.195  1.00  0.00     0.000 HD 
HETATM   17  O   UNL     1     -12.205  13.663  67.324  1.00  0.00    -0.366 OA 
BRANCH  15  18
HETATM   18  C   UNL     1     -11.510  13.305  69.635  1.00  0.00    -0.198 C  
HETATM   19  C   UNL     1     -11.603  14.237  70.846  1.00  0.00    -0.146 C  
BRANCH  18  20
HETATM   20  O   UNL     1     -12.561  12.334  69.654  1.00  0.00     0.099 OA 
BRANCH  20  21
HETATM   21  C   UNL     1     -12.251  11.065  70.067  1.00  0.00    -0.343 A  
HETATM   22  C   UNL     1     -11.118  10.339  69.693  1.00  0.00    -0.323 A  
HETATM   23  C   UNL     1     -10.877   9.069  70.227  1.00  0.00    -0.269 A  
HETATM   24  C   UNL     1     -11.774   8.506  71.131  1.00  0.00    -0.322 A  
HETATM   25  C   UNL     1     -12.911   9.218  71.506  1.00  0.00    -0.427 A  
HETATM   26  C   UNL     1     -13.141  10.496  70.983  1.00  0.00    -0.419 A  
ENDBRANCH  20  21
ENDBRANCH  18  20
ENDBRANCH  15  18
ENDBRANCH  12  14
TORSDOF 4
ENDMDL
MODEL       71
REMARK 921   NORMALIZED FREE ENERGY PREDICTED BY IDOCK:   -5.10 KCAL/MOL
REMARK 922        TOTAL FREE ENERGY PREDICTED BY IDOCK:   -7.07 KCAL/MOL
REMARK 923 INTER-LIGAND FREE ENERGY PREDICTED BY IDOCK:   -6.42 KCAL/MOL
REMARK 924 INTRA-LIGAND FREE ENERGY PREDICTED BY IDOCK:   -0.65 KCAL/MOL
REMARK 927      BINDING AFFINITY PREDICTED BY RF-SCORE:    0.00 PKD
ROOT
HETATM    1  C   UNL     1     -12.032  12.794  66.149  1.00  0.00    -0.414 C  
HETATM    2  S   UNL     1     -11.354  13.813  67.529  1.00  0.00    -0.326 SA 
HETATM    3  C   UNL     1     -10.007  14.576  66.510  1.00  0.00    -0.280 C  
HETATM    4  CA  UNL     1     -10.470  14.416  65.038  1.00  0.00    -0.430 C  
HETATM    5  C   UNL     1      -8.710  13.789  66.791  1.00  0.00    -0.108 C  
HETATM    6  C   UNL     1      -9.767  16.014  66.983  1.00  0.00    -0.235 C  
HETATM    7  N   UNL     1     -11.240  13.157  64.957  1.00  0.00    -0.292 N  
HETATM    8  C   UNL     1     -11.355  15.559  64.498  1.00  0.00    -0.314 C  
HETATM    9  C   UNL     1     -10.574  11.951  64.920  1.00  0.00    -0.287 C  
HETATM   10  OXT UNL     1     -11.069  16.741  64.530  1.00  0.00    -0.989 OA 
HETATM   11  O   UNL     1     -12.491  15.121  63.891  1.00  0.00    -0.768 OA 
HETATM   12  CA  UNL     1     -11.490  11.345  66.031  1.00  0.00     0.088 C  
HETATM   13  O   UNL     1      -9.562  11.648  64.331  1.00  0.00    -0.202 OA 
ENDROOT
BRANCH  12  14
HETATM   14  N   UNL     1     -10.813  10.836  67.255  1.00  0.00    -0.278 N  
HETATM   15  C   UNL     1     -10.178   9.615  67.322  1.00  0.00    -0.233 C  
HETATM   16  H   UNL     1     -10.821  11.423  68.090  1.00  0.00     0.000 HD 
HETATM   17  O   UNL     1     -10.182   8.833  66.376  1.00  0.00    -0.289 OA 
BRANCH  15  18
HETATM   18  C   UNL     1      -9.489   9.289  68.670  1.00  0.00    -0.146 C  
HETATM   19  C   UNL     1     -10.061  10.155  69.796  1.00  0.00    -0.269 C  
BRANCH  18  20
HETATM   20  O   UNL     1      -9.695   7.898  68.939  1.00  0.00    -0.154 OA 
BRANCH  20  21
HETATM   21  C   UNL     1      -8.627   7.053  68.785  1.00  0.00    -0.125 A  
HETATM   22  C   UNL     1      -8.415   6.196  67.702  1.00  0.00    -0.108 A  
HETATM   23  C   UNL     1      -7.256   5.419  67.625  1.00  0.00    -0.072 A  
HETATM   24  C   UNL     1      -6.302   5.480  68.636  1.00  0.00    -0.041 A  
HETATM   25  C   UNL     1      -6.506   6.325  69.724  1.00  0.00    -0.043 A  
HETATM   26  C   UNL     1      -7.659   7.115  69.790  1.00  0.00    -0.103 A  
ENDBRANCH  20  21
ENDBRANCH  18  20
ENDBRANCH  15  18
ENDBRANCH  12  14
TORSDOF 4
ENDMDL
MODEL       72
REMARK 921   NORMALIZED FREE ENERGY PREDICTED BY IDOCK:   -5.06 KCAL/MOL
REMARK 922        TOTAL FREE ENERGY PREDICTED BY IDOCK:   -7.03 KCAL/MOL
REMARK 923 INTER-LIGAND FREE ENERGY PREDICTED BY IDOCK:   -6.12 KCAL/MOL
REMARK 924 INTRA-LIGAND FREE ENERGY PREDICTED BY IDOCK:   -0.90 KCAL/MOL
REMARK 927      BINDING AFFINITY PREDICTED BY RF-SCORE:    0.00 PKD
ROOT
HETATM    1  C   UNL     1     -11.064  16.975  66.436  1.00  0.00     0.378 C  
HETATM    2  S   UNL     1     -11.848  16.138  67.880  1.00  0.00     0.532 SA 
HETATM    3  C   UNL     1     -10.361  16.294  68.976  1.00  0.00    -0.264 C  
HETATM    4  CA  UNL     1      -9.523  17.446  68.362  1.00  0.00    -0.293 C  
HETATM    5  C   UNL     1      -9.607  14.949  68.928  1.00  0.00    -0.215 C  
HETATM    6  C   UNL     1     -10.818  16.498  70.424  1.00  0.00    -0.086 C  
HETATM    7  N   UNL     1      -9.730  17.405  66.899  1.00  0.00    -0.274 N  
HETATM    8  C   UNL     1      -9.885  18.861  68.860  1.00  0.00    -0.390 C  
HETATM    9  C   UNL     1      -9.064  16.466  66.142  1.00  0.00    -0.326 C  
HETATM   10  OXT UNL     1      -9.935  19.200  70.028  1.00  0.00     0.310 OA 
HETATM   11  O   UNL     1     -10.075  19.756  67.854  1.00  0.00    -0.380 OA 
HETATM   12  CA  UNL     1     -10.374  16.053  65.396  1.00  0.00    -0.359 C  
HETATM   13  O   UNL     1      -7.924  16.072  66.232  1.00  0.00    -0.240 OA 
ENDROOT
BRANCH  12  14
HETATM   14  N   UNL     1     -10.771  14.621  65.479  1.00  0.00    -0.327 N  
HETATM   15  C   UNL     1     -11.767  14.062  64.708  1.00  0.00    -0.394 C  
HETATM   16  H   UNL     1     -10.280  14.022  66.142  1.00  0.00     0.000 HD 
HETATM   17  O   UNL     1     -12.441  14.736  63.934  1.00  0.00    -0.811 OA 
BRANCH  15  18
HETATM   18  C   UNL     1     -11.997  12.543  64.905  1.00  0.00    -0.412 C  
HETATM   19  C   UNL     1     -12.633  11.924  63.657  1.00  0.00    -0.555 C  
BRANCH  18  20
HETATM   20  O   UNL     1     -10.729  11.943  65.186  1.00  0.00    -0.273 OA 
BRANCH  20  21
HETATM   21  C   UNL     1     -10.657  11.061  66.233  1.00  0.00    -0.237 A  
HETATM   22  C   UNL     1      -9.937   9.864  66.243  1.00  0.00    -0.322 A  
HETATM   23  C   UNL     1      -9.890   9.071  67.393  1.00  0.00    -0.244 A  
HETATM   24  C   UNL     1     -10.574   9.458  68.541  1.00  0.00    -0.234 A  
HETATM   25  C   UNL     1     -11.301  10.646  68.540  1.00  0.00    -0.348 A  
HETATM   26  C   UNL     1     -11.332  11.448  67.393  1.00  0.00    -0.359 A  
ENDBRANCH  20  21
ENDBRANCH  18  20
ENDBRANCH  15  18
ENDBRANCH  12  14
TORSDOF 4
ENDMDL
MODEL       73
REMARK 921   NORMALIZED FREE ENERGY PREDICTED BY IDOCK:   -5.06 KCAL/MOL
REMARK 922        TOTAL FREE ENERGY PREDICTED BY IDOCK:   -7.02 KCAL/MOL
REMARK 923 INTER-LIGAND FREE ENERGY PREDICTED BY IDOCK:   -6.20 KCAL/MOL
REMARK 924 INTRA-LIGAND FREE ENERGY PREDICTED BY IDOCK:   -0.82 KCAL/MOL
REMARK 927      BINDING AFFINITY PREDICTED BY RF-SCORE:    0.00 PKD
ROOT
HETATM    1  C   UNL     1      -9.381  14.222  66.755  1.00  0.00    -0.276 C  
HETATM    2  S   UNL     1      -9.927  13.011  65.475  1.00  0.00    -0.161 SA 
HETATM    3  C   UNL     1     -11.626  13.730  65.297  1.00  0.00    -0.321 C  
HETATM    4  CA  UNL     1     -11.513  15.180  65.837  1.00  0.00    -0.159 C  
HETATM    5  C   UNL     1     -12.584  12.874  66.151  1.00  0.00     0.126 C  
HETATM    6  C   UNL     1     -12.084  13.593  63.840  1.00  0.00    -0.462 C  
HETATM    7  N   UNL     1     -10.505  15.166  66.917  1.00  0.00    -0.277 N  
HETATM    8  C   UNL     1     -11.090  16.239  64.797  1.00  0.00    -0.281 C  
HETATM    9  C   UNL     1     -10.847  14.687  68.163  1.00  0.00    -0.252 C  
HETATM   10  OXT UNL     1     -11.638  16.426  63.727  1.00  0.00    -1.055 OA 
HETATM   11  O   UNL     1     -10.067  17.030  65.217  1.00  0.00    -0.558 OA 
HETATM   12  CA  UNL     1      -9.568  13.792  68.234  1.00  0.00    -0.219 C  
HETATM   13  O   UNL     1     -11.868  14.840  68.794  1.00  0.00    -0.308 OA 
ENDROOT
BRANCH  12  14
HETATM   14  N   UNL     1      -9.780  12.332  68.432  1.00  0.00    -0.270 N  
HETATM   15  C   UNL     1      -8.752  11.422  68.555  1.00  0.00    -0.149 C  
HETATM   16  H   UNL     1     -10.739  11.986  68.479  1.00  0.00     0.000 HD 
HETATM   17  O   UNL     1      -7.576  11.759  68.448  1.00  0.00    -0.109 OA 
BRANCH  15  18
HETATM   18  C   UNL     1      -9.179   9.955  68.806  1.00  0.00    -0.147 C  
HETATM   19  C   UNL     1     -10.080   9.856  70.041  1.00  0.00    -0.308 C  
BRANCH  18  20
HETATM   20  O   UNL     1      -9.860   9.493  67.636  1.00  0.00    -0.153 OA 
BRANCH  20  21
HETATM   21  C   UNL     1      -9.131   8.800  66.704  1.00  0.00    -0.158 A  
HETATM   22  C   UNL     1      -9.024   9.121  65.349  1.00  0.00    -0.255 A  
HETATM   23  C   UNL     1      -8.202   8.372  64.503  1.00  0.00    -0.149 A  
HETATM   24  C   UNL     1      -7.488   7.285  64.999  1.00  0.00    -0.089 A  
HETATM   25  C   UNL     1      -7.592   6.952  66.347  1.00  0.00    -0.089 A  
HETATM   26  C   UNL     1      -8.403   7.714  67.196  1.00  0.00    -0.121 A  
ENDBRANCH  20  21
ENDBRANCH  18  20
ENDBRANCH  15  18
ENDBRANCH  12  14
TORSDOF 4
ENDMDL
MODEL       74
REMARK 921   NORMALIZED FREE ENERGY PREDICTED BY IDOCK:   -5.05 KCAL/MOL
REMARK 922        TOTAL FREE ENERGY PREDICTED BY IDOCK:   -7.01 KCAL/MOL
REMARK 923 INTER-LIGAND FREE ENERGY PREDICTED BY IDOCK:   -6.30 KCAL/MOL
REMARK 924 INTRA-LIGAND FREE ENERGY PREDICTED BY IDOCK:   -0.71 KCAL/MOL
REMARK 927      BINDING AFFINITY PREDICTED BY RF-SCORE:    0.00 PKD
ROOT
HETATM    1  C   UNL     1      -8.737   8.332  72.010  1.00  0.00    -0.182 C  
HETATM    2  S   UNL     1     -10.461   8.072  72.611  1.00  0.00    -0.346 SA 
HETATM    3  C   UNL     1     -10.652   6.408  71.816  1.00  0.00    -0.220 C  
HETATM    4  CA  UNL     1      -9.206   5.904  71.575  1.00  0.00    -0.146 C  
HETATM    5  C   UNL     1     -11.415   6.613  70.491  1.00  0.00    -0.432 C  
HETATM    6  C   UNL     1     -11.531   5.521  72.704  1.00  0.00    -0.331 C  
HETATM    7  N   UNL     1      -8.369   7.090  71.300  1.00  0.00    -0.114 N  
HETATM    8  C   UNL     1      -8.573   5.131  72.752  1.00  0.00    -0.120 C  
HETATM    9  C   UNL     1      -8.411   7.681  70.056  1.00  0.00    -0.136 C  
HETATM   10  OXT UNL     1      -9.072   4.169  73.305  1.00  0.00    -0.106 OA 
HETATM   11  O   UNL     1      -7.333   5.577  73.087  1.00  0.00    -0.092 OA 
HETATM   12  CA  UNL     1      -8.582   9.107  70.675  1.00  0.00    -0.226 C  
HETATM   13  O   UNL     1      -8.463   7.169  68.961  1.00  0.00    -0.128 OA 
ENDROOT
BRANCH  12  14
HETATM   14  N   UNL     1      -9.787   9.877  70.263  1.00  0.00    -0.365 N  
HETATM   15  C   UNL     1      -9.882  10.563  69.071  1.00  0.00    -0.212 C  
HETATM   16  H   UNL     1     -10.586   9.899  70.897  1.00  0.00     0.000 HD 
HETATM   17  O   UNL     1      -8.939  10.630  68.288  1.00  0.00    -0.133 OA 
BRANCH  15  18
HETATM   18  C   UNL     1     -11.238  11.261  68.803  1.00  0.00    -0.250 C  
HETATM   19  C   UNL     1     -12.239  10.949  69.920  1.00  0.00    -0.408 C  
BRANCH  18  20
HETATM   20  O   UNL     1     -10.994  12.668  68.713  1.00  0.00    -0.238 OA 
BRANCH  20  21
HETATM   21  C   UNL     1     -11.030  13.245  67.470  1.00  0.00    -0.263 A  
HETATM   22  C   UNL     1     -12.005  13.021  66.495  1.00  0.00    -0.457 A  
HETATM   23  C   UNL     1     -11.970  13.712  65.281  1.00  0.00    -0.395 A  
HETATM   24  C   UNL     1     -10.952  14.625  65.022  1.00  0.00    -0.415 A  
HETATM   25  C   UNL     1      -9.970  14.851  65.984  1.00  0.00    -0.337 A  
HETATM   26  C   UNL     1     -10.017  14.171  67.206  1.00  0.00    -0.249 A  
ENDBRANCH  20  21
ENDBRANCH  18  20
ENDBRANCH  15  18
ENDBRANCH  12  14
TORSDOF 4
ENDMDL
MODEL       75
REMARK 921   NORMALIZED FREE ENERGY PREDICTED BY IDOCK:   -4.98 KCAL/MOL
REMARK 922        TOTAL FREE ENERGY PREDICTED BY IDOCK:   -6.92 KCAL/MOL
REMARK 923 INTER-LIGAND FREE ENERGY PREDICTED BY IDOCK:   -6.16 KCAL/MOL
REMARK 924 INTRA-LIGAND FREE ENERGY PREDICTED BY IDOCK:   -0.76 KCAL/MOL
REMARK 927      BINDING AFFINITY PREDICTED BY RF-SCORE:    0.00 PKD
ROOT
HETATM    1  C   UNL     1     -10.111  14.843  68.972  1.00  0.00    -0.237 C  
HETATM    2  S   UNL     1      -8.487  14.769  68.100  1.00  0.00    -0.157 SA 
HETATM    3  C   UNL     1      -9.058  15.745  66.630  1.00  0.00    -0.268 C  
HETATM    4  CA  UNL     1     -10.304  16.527  67.120  1.00  0.00    -0.298 C  
HETATM    5  C   UNL     1      -9.414  14.738  65.517  1.00  0.00    -0.015 C  
HETATM    6  C   UNL     1      -7.896  16.597  66.106  1.00  0.00    -0.197 C  
HETATM    7  N   UNL     1     -10.982  15.683  68.126  1.00  0.00    -0.301 N  
HETATM    8  C   UNL     1     -10.010  17.900  67.760  1.00  0.00    -0.331 C  
HETATM    9  C   UNL     1     -11.760  14.623  67.716  1.00  0.00    -0.359 C  
HETATM   10  OXT UNL     1      -9.360  18.789  67.243  1.00  0.00    -0.285 OA 
HETATM   11  O   UNL     1     -10.622  18.077  68.962  1.00  0.00    -0.166 OA 
HETATM   12  CA  UNL     1     -11.076  13.652  68.732  1.00  0.00    -0.270 C  
HETATM   13  O   UNL     1     -12.531  14.548  66.786  1.00  0.00    -0.257 OA 
ENDROOT
BRANCH  12  14
HETATM   14  N   UNL     1     -10.430  12.436  68.167  1.00  0.00    -0.213 N  
HETATM   15  C   UNL     1     -11.124  11.297  67.819  1.00  0.00    -0.271 C  
HETATM   16  H   UNL     1      -9.420  12.446  68.030  1.00  0.00     0.000 HD 
HETATM   17  O   UNL     1     -12.332  11.193  68.012  1.00  0.00    -0.393 OA 
BRANCH  15  18
HETATM   18  C   UNL     1     -10.278  10.157  67.200  1.00  0.00    -0.225 C  
HETATM   19  C   UNL     1      -9.355  10.699  66.105  1.00  0.00    -0.207 C  
BRANCH  18  20
HETATM   20  O   UNL     1      -9.523   9.552  68.255  1.00  0.00    -0.133 OA 
BRANCH  20  21
HETATM   21  C   UNL     1     -10.023   8.412  68.827  1.00  0.00    -0.187 A  
HETATM   22  C   UNL     1     -10.679   7.381  68.151  1.00  0.00    -0.169 A  
HETATM   23  C   UNL     1     -11.096   6.234  68.833  1.00  0.00    -0.434 A  
HETATM   24  C   UNL     1     -10.875   6.113  70.202  1.00  0.00    -0.395 A  
HETATM   25  C   UNL     1     -10.229   7.138  70.888  1.00  0.00    -0.207 A  
HETATM   26  C   UNL     1      -9.796   8.277  70.199  1.00  0.00    -0.184 A  
ENDBRANCH  20  21
ENDBRANCH  18  20
ENDBRANCH  15  18
ENDBRANCH  12  14
TORSDOF 4
ENDMDL
MODEL       76
REMARK 921   NORMALIZED FREE ENERGY PREDICTED BY IDOCK:   -4.94 KCAL/MOL
REMARK 922        TOTAL FREE ENERGY PREDICTED BY IDOCK:   -6.88 KCAL/MOL
REMARK 923 INTER-LIGAND FREE ENERGY PREDICTED BY IDOCK:   -6.05 KCAL/MOL
REMARK 924 INTRA-LIGAND FREE ENERGY PREDICTED BY IDOCK:   -0.82 KCAL/MOL
REMARK 927      BINDING AFFINITY PREDICTED BY RF-SCORE:    0.00 PKD
ROOT
HETATM    1  C   UNL     1      -9.379  10.269  66.970  1.00  0.00    -0.154 C  
HETATM    2  S   UNL     1      -8.180  10.551  68.343  1.00  0.00    -0.128 SA 
HETATM    3  C   UNL     1      -7.270   8.957  68.084  1.00  0.00    -0.079 C  
HETATM    4  CA  UNL     1      -7.594   8.536  66.627  1.00  0.00    -0.082 C  
HETATM    5  C   UNL     1      -7.814   7.941  69.108  1.00  0.00    -0.109 C  
HETATM    6  C   UNL     1      -5.786   9.163  68.406  1.00  0.00    -0.038 C  
HETATM    7  N   UNL     1      -8.965   9.003  66.331  1.00  0.00    -0.147 N  
HETATM    8  C   UNL     1      -6.648   9.108  65.550  1.00  0.00    -0.068 C  
HETATM    9  C   UNL     1     -10.045   8.299  66.817  1.00  0.00    -0.303 C  
HETATM   10  OXT UNL     1      -5.435   9.010  65.561  1.00  0.00    -0.037 OA 
HETATM   11  O   UNL     1      -7.303   9.685  64.506  1.00  0.00    -0.113 OA 
HETATM   12  CA  UNL     1     -10.724   9.599  67.357  1.00  0.00    -0.241 C  
HETATM   13  O   UNL     1     -10.213   7.103  66.893  1.00  0.00    -0.230 OA 
ENDROOT
BRANCH  12  14
HETATM   14  N   UNL     1     -11.038   9.637  68.812  1.00  0.00    -0.450 N  
HETATM   15  C   UNL     1     -11.819  10.610  69.397  1.00  0.00    -0.253 C  
HETATM   16  H   UNL     1     -10.655   8.903  69.407  1.00  0.00     0.000 HD 
HETATM   17  O   UNL     1     -12.262  11.556  68.752  1.00  0.00    -0.457 OA 
BRANCH  15  18
HETATM   18  C   UNL     1     -12.072  10.447  70.916  1.00  0.00    -0.374 C  
HETATM   19  C   UNL     1     -12.876  11.630  71.462  1.00  0.00    -0.469 C  
BRANCH  18  20
HETATM   20  O   UNL     1     -12.775   9.215  71.111  1.00  0.00    -0.295 OA 
BRANCH  20  21
HETATM   21  C   UNL     1     -12.109   8.192  71.733  1.00  0.00    -0.315 A  
HETATM   22  C   UNL     1     -12.432   6.836  71.643  1.00  0.00    -0.398 A  
HETATM   23  C   UNL     1     -11.642   5.872  72.278  1.00  0.00    -0.338 A  
HETATM   24  C   UNL     1     -10.529   6.255  73.021  1.00  0.00    -0.249 A  
HETATM   25  C   UNL     1     -10.202   7.605  73.123  1.00  0.00    -0.401 A  
HETATM   26  C   UNL     1     -10.984   8.567  72.472  1.00  0.00    -0.323 A  
ENDBRANCH  20  21
ENDBRANCH  18  20
ENDBRANCH  15  18
ENDBRANCH  12  14
TORSDOF 4
ENDMDL
MODEL       77
REMARK 921   NORMALIZED FREE ENERGY PREDICTED BY IDOCK:   -4.94 KCAL/MOL
REMARK 922        TOTAL FREE ENERGY PREDICTED BY IDOCK:   -6.87 KCAL/MOL
REMARK 923 INTER-LIGAND FREE ENERGY PREDICTED BY IDOCK:   -6.28 KCAL/MOL
REMARK 924 INTRA-LIGAND FREE ENERGY PREDICTED BY IDOCK:   -0.59 KCAL/MOL
REMARK 927      BINDING AFFINITY PREDICTED BY RF-SCORE:    0.00 PKD
ROOT
HETATM    1  C   UNL     1     -11.411  10.609  67.133  1.00  0.00     0.036 C  
HETATM    2  S   UNL     1     -11.608  11.834  68.497  1.00  0.00    -0.337 SA 
HETATM    3  C   UNL     1     -10.981  13.271  67.507  1.00  0.00    -0.263 C  
HETATM    4  CA  UNL     1     -11.150  12.847  66.024  1.00  0.00    -0.281 C  
HETATM    5  C   UNL     1      -9.498  13.477  67.878  1.00  0.00    -0.215 C  
HETATM    6  C   UNL     1     -11.728  14.541  67.929  1.00  0.00    -0.381 C  
HETATM    7  N   UNL     1     -10.951  11.384  65.962  1.00  0.00    -0.264 N  
HETATM    8  C   UNL     1     -12.522  13.174  65.398  1.00  0.00    -0.481 C  
HETATM    9  C   UNL     1      -9.675  10.866  66.006  1.00  0.00    -0.224 C  
HETATM   10  OXT UNL     1     -13.044  14.273  65.392  1.00  0.00    -0.685 OA 
HETATM   11  O   UNL     1     -13.091  12.116  64.760  1.00  0.00    -0.602 OA 
HETATM   12  CA  UNL     1     -10.073   9.824  67.101  1.00  0.00    -0.211 C  
HETATM   13  O   UNL     1      -8.664  11.265  65.476  1.00  0.00    -0.148 OA 
ENDROOT
BRANCH  12  14
HETATM   14  N   UNL     1      -9.303   9.861  68.374  1.00  0.00    -0.132 N  
HETATM   15  C   UNL     1      -8.545   8.807  68.837  1.00  0.00    -0.136 C  
HETATM   16  H   UNL     1      -9.338  10.713  68.934  1.00  0.00     0.000 HD 
HETATM   17  O   UNL     1      -8.505   7.732  68.245  1.00  0.00    -0.124 OA 
BRANCH  15  18
HETATM   18  C   UNL     1      -7.777   9.060  70.157  1.00  0.00    -0.089 C  
HETATM   19  C   UNL     1      -6.865  10.284  70.029  1.00  0.00    -0.146 C  
BRANCH  18  20
HETATM   20  O   UNL     1      -8.744   9.248  71.195  1.00  0.00    -0.269 OA 
BRANCH  20  21
HETATM   21  C   UNL     1      -9.304   8.130  71.757  1.00  0.00    -0.181 A  
HETATM   22  C   UNL     1     -10.561   8.063  72.361  1.00  0.00    -0.373 A  
HETATM   23  C   UNL     1     -11.053   6.849  72.850  1.00  0.00    -0.297 A  
HETATM   24  C   UNL     1     -10.287   5.691  72.752  1.00  0.00    -0.224 A  
HETATM   25  C   UNL     1      -9.029   5.747  72.158  1.00  0.00    -0.137 A  
HETATM   26  C   UNL     1      -8.546   6.961  71.654  1.00  0.00    -0.117 A  
ENDBRANCH  20  21
ENDBRANCH  18  20
ENDBRANCH  15  18
ENDBRANCH  12  14
TORSDOF 4
ENDMDL
MODEL       78
REMARK 921   NORMALIZED FREE ENERGY PREDICTED BY IDOCK:   -4.92 KCAL/MOL
REMARK 922        TOTAL FREE ENERGY PREDICTED BY IDOCK:   -6.85 KCAL/MOL
REMARK 923 INTER-LIGAND FREE ENERGY PREDICTED BY IDOCK:   -6.34 KCAL/MOL
REMARK 924 INTRA-LIGAND FREE ENERGY PREDICTED BY IDOCK:   -0.51 KCAL/MOL
REMARK 927      BINDING AFFINITY PREDICTED BY RF-SCORE:    0.00 PKD
ROOT
HETATM    1  C   UNL     1      -9.173  11.960  67.619  1.00  0.00    -0.183 C  
HETATM    2  S   UNL     1      -8.246  10.596  66.793  1.00  0.00    -0.135 SA 
HETATM    3  C   UNL     1      -9.649  10.103  65.687  1.00  0.00    -0.243 C  
HETATM    4  CA  UNL     1     -10.579  11.343  65.632  1.00  0.00    -0.258 C  
HETATM    5  C   UNL     1     -10.348   8.891  66.337  1.00  0.00    -0.189 C  
HETATM    6  C   UNL     1      -9.090   9.626  64.342  1.00  0.00    -0.279 C  
HETATM    7  N   UNL     1     -10.485  12.018  66.943  1.00  0.00    -0.219 N  
HETATM    8  C   UNL     1     -10.240  12.373  64.534  1.00  0.00    -0.299 C  
HETATM    9  C   UNL     1     -11.167  11.505  68.025  1.00  0.00    -0.269 C  
HETATM   10  OXT UNL     1     -10.114  12.118  63.351  1.00  0.00    -0.428 OA 
HETATM   11  O   UNL     1     -10.166  13.650  64.996  1.00  0.00    -0.353 OA 
HETATM   12  CA  UNL     1      -9.903  11.595  68.939  1.00  0.00    -0.040 C  
HETATM   13  O   UNL     1     -12.280  11.033  68.081  1.00  0.00    -0.578 OA 
ENDROOT
BRANCH  12  14
HETATM   14  N   UNL     1      -9.441  10.330  69.573  1.00  0.00    -0.316 N  
HETATM   15  C   UNL     1     -10.125   9.690  70.584  1.00  0.00    -0.256 C  
HETATM   16  H   UNL     1      -8.571   9.914  69.240  1.00  0.00     0.000 HD 
HETATM   17  O   UNL     1     -11.146  10.165  71.073  1.00  0.00    -0.323 OA 
BRANCH  15  18
HETATM   18  C   UNL     1      -9.507   8.358  71.076  1.00  0.00    -0.170 C  
HETATM   19  C   UNL     1      -9.216   8.418  72.578  1.00  0.00    -0.338 C  
BRANCH  18  20
HETATM   20  O   UNL     1     -10.434   7.310  70.775  1.00  0.00    -0.210 OA 
BRANCH  20  21
HETATM   21  C   UNL     1     -10.173   6.062  71.277  1.00  0.00    -0.205 A  
HETATM   22  C   UNL     1     -10.853   5.448  72.330  1.00  0.00    -0.286 A  
HETATM   23  C   UNL     1     -10.535   4.143  72.719  1.00  0.00    -0.241 A  
HETATM   24  C   UNL     1      -9.523   3.444  72.068  1.00  0.00    -0.200 A  
HETATM   25  C   UNL     1      -8.833   4.049  71.020  1.00  0.00    -0.135 A  
HETATM   26  C   UNL     1      -9.165   5.349  70.621  1.00  0.00    -0.183 A  
ENDBRANCH  20  21
ENDBRANCH  18  20
ENDBRANCH  15  18
ENDBRANCH  12  14
TORSDOF 4
ENDMDL
MODEL       79
REMARK 921   NORMALIZED FREE ENERGY PREDICTED BY IDOCK:   -4.90 KCAL/MOL
REMARK 922        TOTAL FREE ENERGY PREDICTED BY IDOCK:   -6.83 KCAL/MOL
REMARK 923 INTER-LIGAND FREE ENERGY PREDICTED BY IDOCK:   -6.38 KCAL/MOL
REMARK 924 INTRA-LIGAND FREE ENERGY PREDICTED BY IDOCK:   -0.44 KCAL/MOL
REMARK 927      BINDING AFFINITY PREDICTED BY RF-SCORE:    0.00 PKD
ROOT
HETATM    1  C   UNL     1     -10.606  13.326  67.430  1.00  0.00    -0.246 C  
HETATM    2  S   UNL     1      -9.332  12.963  66.147  1.00  0.00    -0.012 SA 
HETATM    3  C   UNL     1     -10.415  11.815  65.174  1.00  0.00    -0.283 C  
HETATM    4  CA  UNL     1     -11.865  12.179  65.585  1.00  0.00    -0.276 C  
HETATM    5  C   UNL     1     -10.047  10.374  65.583  1.00  0.00    -0.337 C  
HETATM    6  C   UNL     1     -10.087  11.952  63.683  1.00  0.00    -0.450 C  
HETATM    7  N   UNL     1     -11.824  12.611  66.997  1.00  0.00    -0.379 N  
HETATM    8  C   UNL     1     -12.523  13.302  64.756  1.00  0.00    -0.383 C  
HETATM    9  C   UNL     1     -11.735  11.668  67.998  1.00  0.00    -0.281 C  
HETATM   10  OXT UNL     1     -12.609  13.317  63.542  1.00  0.00    -0.728 OA 
HETATM   11  O   UNL     1     -13.090  14.275  65.518  1.00  0.00    -0.639 OA 
HETATM   12  CA  UNL     1     -10.574  12.440  68.703  1.00  0.00    -0.218 C  
HETATM   13  O   UNL     1     -12.284  10.594  68.095  1.00  0.00    -0.265 OA 
ENDROOT
BRANCH  12  14
HETATM   14  N   UNL     1      -9.301  11.696  68.908  1.00  0.00    -0.404 N  
HETATM   15  C   UNL     1      -9.206  10.538  69.648  1.00  0.00     0.039 C  
HETATM   16  H   UNL     1      -8.453  12.065  68.477  1.00  0.00     0.000 HD 
HETATM   17  O   UNL     1     -10.173  10.071  70.243  1.00  0.00    -0.268 OA 
BRANCH  15  18
HETATM   18  C   UNL     1      -7.802   9.886  69.700  1.00  0.00    -0.154 C  
HETATM   19  C   UNL     1      -6.774  10.754  68.969  1.00  0.00    -0.070 C  
BRANCH  18  20
HETATM   20  O   UNL     1      -7.448   9.722  71.077  1.00  0.00    -0.318 OA 
BRANCH  20  21
HETATM   21  C   UNL     1      -7.585   8.474  71.627  1.00  0.00    -0.108 A  
HETATM   22  C   UNL     1      -7.838   8.200  72.973  1.00  0.00    -0.207 A  
HETATM   23  C   UNL     1      -8.016   6.884  73.411  1.00  0.00    -0.108 A  
HETATM   24  C   UNL     1      -7.929   5.827  72.509  1.00  0.00    -0.103 A  
HETATM   25  C   UNL     1      -7.671   6.089  71.166  1.00  0.00    -0.109 A  
HETATM   26  C   UNL     1      -7.510   7.408  70.727  1.00  0.00    -0.078 A  
ENDBRANCH  20  21
ENDBRANCH  18  20
ENDBRANCH  15  18
ENDBRANCH  12  14
TORSDOF 4
ENDMDL
MODEL       80
REMARK 921   NORMALIZED FREE ENERGY PREDICTED BY IDOCK:   -4.89 KCAL/MOL
REMARK 922        TOTAL FREE ENERGY PREDICTED BY IDOCK:   -6.82 KCAL/MOL
REMARK 923 INTER-LIGAND FREE ENERGY PREDICTED BY IDOCK:   -6.11 KCAL/MOL
REMARK 924 INTRA-LIGAND FREE ENERGY PREDICTED BY IDOCK:   -0.71 KCAL/MOL
REMARK 927      BINDING AFFINITY PREDICTED BY RF-SCORE:    0.00 PKD
ROOT
HETATM    1  C   UNL     1      -7.586  11.151  67.795  1.00  0.00    -0.100 C  
HETATM    2  S   UNL     1      -8.596  10.444  69.167  1.00  0.00    -0.150 SA 
HETATM    3  C   UNL     1      -9.168   8.972  68.196  1.00  0.00    -0.136 C  
HETATM    4  CA  UNL     1      -8.138   8.819  67.046  1.00  0.00    -0.099 C  
HETATM    5  C   UNL     1     -10.579   9.290  67.662  1.00  0.00    -0.324 C  
HETATM    6  C   UNL     1      -9.307   7.769  69.135  1.00  0.00    -0.151 C  
HETATM    7  N   UNL     1      -7.675  10.176  66.689  1.00  0.00    -0.104 N  
HETATM    8  C   UNL     1      -6.900   7.960  67.382  1.00  0.00    -0.070 C  
HETATM    9  C   UNL     1      -8.476  10.988  65.916  1.00  0.00    -0.140 C  
HETATM   10  OXT UNL     1      -6.933   6.827  67.824  1.00  0.00    -0.077 OA 
HETATM   11  O   UNL     1      -5.723   8.561  67.060  1.00  0.00    -0.040 OA 
HETATM   12  CA  UNL     1      -8.291  12.196  66.890  1.00  0.00    -0.151 C  
HETATM   13  O   UNL     1      -9.156  10.709  64.955  1.00  0.00    -0.187 OA 
ENDROOT
BRANCH  12  14
HETATM   14  N   UNL     1      -9.527  12.786  67.471  1.00  0.00    -0.182 N  
HETATM   15  C   UNL     1      -9.597  14.066  67.975  1.00  0.00    -0.217 C  
HETATM   16  H   UNL     1     -10.369  12.210  67.498  1.00  0.00     0.000 HD 
HETATM   17  O   UNL     1      -8.609  14.793  68.030  1.00  0.00    -0.155 OA 
BRANCH  15  18
HETATM   18  C   UNL     1     -10.987  14.512  68.490  1.00  0.00    -0.249 C  
HETATM   19  C   UNL     1     -12.023  14.470  67.362  1.00  0.00    -0.367 C  
BRANCH  18  20
HETATM   20  O   UNL     1     -11.358  13.635  69.559  1.00  0.00    -0.261 OA 
BRANCH  20  21
HETATM   21  C   UNL     1     -12.021  14.178  70.629  1.00  0.00    -0.315 A  
HETATM   22  C   UNL     1     -13.144  13.632  71.254  1.00  0.00    -0.357 A  
HETATM   23  C   UNL     1     -13.702  14.247  72.379  1.00  0.00    -0.616 A  
HETATM   24  C   UNL     1     -13.151  15.421  72.883  1.00  0.00    -0.598 A  
HETATM   25  C   UNL     1     -12.035  15.978  72.263  1.00  0.00    -0.633 A  
HETATM   26  C   UNL     1     -11.467  15.351  71.148  1.00  0.00    -0.425 A  
ENDBRANCH  20  21
ENDBRANCH  18  20
ENDBRANCH  15  18
ENDBRANCH  12  14
TORSDOF 4
ENDMDL
MODEL       81
REMARK 921   NORMALIZED FREE ENERGY PREDICTED BY IDOCK:   -4.88 KCAL/MOL
REMARK 922        TOTAL FREE ENERGY PREDICTED BY IDOCK:   -6.80 KCAL/MOL
REMARK 923 INTER-LIGAND FREE ENERGY PREDICTED BY IDOCK:   -6.18 KCAL/MOL
REMARK 924 INTRA-LIGAND FREE ENERGY PREDICTED BY IDOCK:   -0.62 KCAL/MOL
REMARK 927      BINDING AFFINITY PREDICTED BY RF-SCORE:    0.00 PKD
ROOT
HETATM    1  C   UNL     1     -11.248  11.373  66.759  1.00  0.00    -0.252 C  
HETATM    2  S   UNL     1      -9.734  12.249  66.172  1.00  0.00    -0.238 SA 
HETATM    3  C   UNL     1      -8.573  11.293  67.255  1.00  0.00    -0.143 C  
HETATM    4  CA  UNL     1      -9.336   9.993  67.622  1.00  0.00    -0.144 C  
HETATM    5  C   UNL     1      -8.283  12.157  68.500  1.00  0.00    -0.104 C  
HETATM    6  C   UNL     1      -7.240  11.103  66.524  1.00  0.00    -0.124 C  
HETATM    7  N   UNL     1     -10.772  10.335  67.695  1.00  0.00    -0.267 N  
HETATM    8  C   UNL     1      -9.168   8.828  66.624  1.00  0.00    -0.177 C  
HETATM    9  C   UNL     1     -11.263  10.983  68.807  1.00  0.00    -0.266 C  
HETATM   10  OXT UNL     1      -8.102   8.379  66.246  1.00  0.00    -0.099 OA 
HETATM   11  O   UNL     1     -10.348   8.267  66.245  1.00  0.00    -0.134 OA 
HETATM   12  CA  UNL     1     -12.017  12.036  67.932  1.00  0.00    -0.134 C  
HETATM   13  O   UNL     1     -11.000  10.815  69.976  1.00  0.00    -0.271 OA 
ENDROOT
BRANCH  12  14
HETATM   14  N   UNL     1     -11.678  13.467  68.163  1.00  0.00    -0.341 N  
HETATM   15  C   UNL     1     -11.942  14.131  69.342  1.00  0.00    -0.337 C  
HETATM   16  H   UNL     1     -11.227  13.984  67.409  1.00  0.00     0.000 HD 
HETATM   17  O   UNL     1     -12.536  13.589  70.269  1.00  0.00    -0.254 OA 
BRANCH  15  18
HETATM   18  C   UNL     1     -11.467  15.604  69.405  1.00  0.00    -0.348 C  
HETATM   19  C   UNL     1     -11.161  16.013  70.849  1.00  0.00    -0.288 C  
BRANCH  18  20
HETATM   20  O   UNL     1     -10.303  15.723  68.581  1.00  0.00    -0.215 OA 
BRANCH  20  21
HETATM   21  C   UNL     1      -9.754  16.969  68.427  1.00  0.00    -0.279 A  
HETATM   22  C   UNL     1     -10.435  18.115  68.011  1.00  0.00    -0.387 A  
HETATM   23  C   UNL     1      -9.781  19.348  67.946  1.00  0.00    -0.445 A  
HETATM   24  C   UNL     1      -8.434  19.447  68.284  1.00  0.00    -0.376 A  
HETATM   25  C   UNL     1      -7.743  18.309  68.694  1.00  0.00    -0.318 A  
HETATM   26  C   UNL     1      -8.405  17.078  68.774  1.00  0.00    -0.237 A  
ENDBRANCH  20  21
ENDBRANCH  18  20
ENDBRANCH  15  18
ENDBRANCH  12  14
TORSDOF 4
ENDMDL
MODEL       82
REMARK 921   NORMALIZED FREE ENERGY PREDICTED BY IDOCK:   -4.88 KCAL/MOL
REMARK 922        TOTAL FREE ENERGY PREDICTED BY IDOCK:   -6.80 KCAL/MOL
REMARK 923 INTER-LIGAND FREE ENERGY PREDICTED BY IDOCK:   -6.00 KCAL/MOL
REMARK 924 INTRA-LIGAND FREE ENERGY PREDICTED BY IDOCK:   -0.80 KCAL/MOL
REMARK 927      BINDING AFFINITY PREDICTED BY RF-SCORE:    0.00 PKD
ROOT
HETATM    1  C   UNL     1     -10.331   9.774  67.006  1.00  0.00    -0.239 C  
HETATM    2  S   UNL     1      -8.743  10.266  66.207  1.00  0.00    -0.150 SA 
HETATM    3  C   UNL     1      -7.759  10.216  67.777  1.00  0.00    -0.090 C  
HETATM    4  CA  UNL     1      -8.575   9.315  68.740  1.00  0.00    -0.131 C  
HETATM    5  C   UNL     1      -7.649  11.662  68.301  1.00  0.00    -0.120 C  
HETATM    6  C   UNL     1      -6.334   9.745  67.467  1.00  0.00    -0.064 C  
HETATM    7  N   UNL     1     -10.004   9.517  68.422  1.00  0.00    -0.159 N  
HETATM    8  C   UNL     1      -8.269   7.805  68.647  1.00  0.00    -0.128 C  
HETATM    9  C   UNL     1     -10.649  10.648  68.872  1.00  0.00    -0.212 C  
HETATM   10  OXT UNL     1      -7.162   7.308  68.737  1.00  0.00    -0.084 OA 
HETATM   11  O   UNL     1      -9.384   7.034  68.528  1.00  0.00    -0.137 OA 
HETATM   12  CA  UNL     1     -11.260  10.931  67.461  1.00  0.00    -0.293 C  
HETATM   13  O   UNL     1     -10.562  11.213  69.938  1.00  0.00    -0.048 OA 
ENDROOT
BRANCH  12  14
HETATM   14  N   UNL     1     -10.951  12.251  66.848  1.00  0.00    -0.254 N  
HETATM   15  C   UNL     1     -11.713  12.827  65.854  1.00  0.00    -0.414 C  
HETATM   16  H   UNL     1     -10.130  12.757  67.181  1.00  0.00     0.000 HD 
HETATM   17  O   UNL     1     -12.678  12.248  65.364  1.00  0.00    -0.500 OA 
BRANCH  15  18
HETATM   18  C   UNL     1     -11.255  14.229  65.382  1.00  0.00    -0.329 C  
HETATM   19  C   UNL     1     -12.279  14.838  64.420  1.00  0.00    -0.447 C  
BRANCH  18  20
HETATM   20  O   UNL     1     -11.092  15.048  66.544  1.00  0.00    -0.333 OA 
BRANCH  20  21
HETATM   21  C   UNL     1     -10.045  15.933  66.560  1.00  0.00    -0.282 A  
HETATM   22  C   UNL     1      -8.691  15.594  66.545  1.00  0.00    -0.342 A  
HETATM   23  C   UNL     1      -7.708  16.588  66.505  1.00  0.00    -0.323 A  
HETATM   24  C   UNL     1      -8.069  17.932  66.492  1.00  0.00    -0.303 A  
HETATM   25  C   UNL     1      -9.417  18.282  66.513  1.00  0.00    -0.312 A  
HETATM   26  C   UNL     1     -10.399  17.285  66.536  1.00  0.00    -0.308 A  
ENDBRANCH  20  21
ENDBRANCH  18  20
ENDBRANCH  15  18
ENDBRANCH  12  14
TORSDOF 4
ENDMDL
MODEL       83
REMARK 921   NORMALIZED FREE ENERGY PREDICTED BY IDOCK:   -4.87 KCAL/MOL
REMARK 922        TOTAL FREE ENERGY PREDICTED BY IDOCK:   -6.78 KCAL/MOL
REMARK 923 INTER-LIGAND FREE ENERGY PREDICTED BY IDOCK:   -6.22 KCAL/MOL
REMARK 924 INTRA-LIGAND FREE ENERGY PREDICTED BY IDOCK:   -0.56 KCAL/MOL
REMARK 927      BINDING AFFINITY PREDICTED BY RF-SCORE:    0.00 PKD
ROOT
HETATM    1  C   UNL     1     -10.090  13.115  67.741  1.00  0.00    -0.226 C  
HETATM    2  S   UNL     1      -9.069  12.662  66.273  1.00  0.00     0.039 SA 
HETATM    3  C   UNL     1     -10.478  11.915  65.329  1.00  0.00    -0.275 C  
HETATM    4  CA  UNL     1     -11.758  12.523  65.960  1.00  0.00    -0.417 C  
HETATM    5  C   UNL     1     -10.411  10.387  65.529  1.00  0.00    -0.265 C  
HETATM    6  C   UNL     1     -10.280  12.177  63.832  1.00  0.00    -0.426 C  
HETATM    7  N   UNL     1     -11.476  12.743  67.394  1.00  0.00    -0.319 N  
HETATM    8  C   UNL     1     -12.221  13.862  65.348  1.00  0.00    -0.444 C  
HETATM    9  C   UNL     1     -11.506  11.677  68.266  1.00  0.00    -0.303 C  
HETATM   10  OXT UNL     1     -12.423  14.057  64.164  1.00  0.00    -0.665 OA 
HETATM   11  O   UNL     1     -12.470  14.823  66.278  1.00  0.00    -0.097 OA 
HETATM   12  CA  UNL     1     -10.133  12.080  68.896  1.00  0.00    -0.015 C  
HETATM   13  O   UNL     1     -12.273  10.743  68.316  1.00  0.00    -0.449 OA 
ENDROOT
BRANCH  12  14
HETATM   14  N   UNL     1      -9.050  11.060  68.854  1.00  0.00    -0.303 N  
HETATM   15  C   UNL     1      -9.022   9.945  69.663  1.00  0.00    -0.216 C  
HETATM   16  H   UNL     1      -8.287  11.194  68.190  1.00  0.00     0.000 HD 
HETATM   17  O   UNL     1      -9.874   9.751  70.525  1.00  0.00    -0.260 OA 
BRANCH  15  18
HETATM   18  C   UNL     1      -7.836   8.976  69.432  1.00  0.00    -0.094 C  
HETATM   19  C   UNL     1      -7.903   7.795  70.406  1.00  0.00    -0.090 C  
BRANCH  18  20
HETATM   20  O   UNL     1      -7.899   8.526  68.075  1.00  0.00    -0.101 OA 
BRANCH  20  21
HETATM   21  C   UNL     1      -8.707   7.455  67.794  1.00  0.00    -0.126 A  
HETATM   22  C   UNL     1     -10.094   7.499  67.640  1.00  0.00    -0.243 A  
HETATM   23  C   UNL     1     -10.809   6.348  67.294  1.00  0.00    -0.463 A  
HETATM   24  C   UNL     1     -10.146   5.138  67.113  1.00  0.00    -0.244 A  
HETATM   25  C   UNL     1      -8.764   5.081  67.271  1.00  0.00    -0.103 A  
HETATM   26  C   UNL     1      -8.048   6.238  67.600  1.00  0.00    -0.117 A  
ENDBRANCH  20  21
ENDBRANCH  18  20
ENDBRANCH  15  18
ENDBRANCH  12  14
TORSDOF 4
ENDMDL
MODEL       84
REMARK 921   NORMALIZED FREE ENERGY PREDICTED BY IDOCK:   -4.87 KCAL/MOL
REMARK 922        TOTAL FREE ENERGY PREDICTED BY IDOCK:   -6.78 KCAL/MOL
REMARK 923 INTER-LIGAND FREE ENERGY PREDICTED BY IDOCK:   -6.04 KCAL/MOL
REMARK 924 INTRA-LIGAND FREE ENERGY PREDICTED BY IDOCK:   -0.75 KCAL/MOL
REMARK 927      BINDING AFFINITY PREDICTED BY RF-SCORE:    0.00 PKD
ROOT
HETATM    1  C   UNL     1      -8.209   7.365  67.688  1.00  0.00    -0.118 C  
HETATM    2  S   UNL     1      -8.199   8.948  68.634  1.00  0.00    -0.116 SA 
HETATM    3  C   UNL     1      -9.715   8.546  69.623  1.00  0.00    -0.179 C  
HETATM    4  CA  UNL     1      -9.847   7.003  69.556  1.00  0.00    -0.160 C  
HETATM    5  C   UNL     1     -10.909   9.252  68.947  1.00  0.00    -0.128 C  
HETATM    6  C   UNL     1      -9.578   9.147  71.026  1.00  0.00    -0.350 C  
HETATM    7  N   UNL     1      -9.328   6.575  68.240  1.00  0.00    -0.119 N  
HETATM    8  C   UNL     1      -9.080   6.229  70.650  1.00  0.00    -0.151 C  
HETATM    9  C   UNL     1     -10.111   6.729  67.116  1.00  0.00    -0.190 C  
HETATM   10  OXT UNL     1      -9.181   6.425  71.847  1.00  0.00    -0.149 OA 
HETATM   11  O   UNL     1      -8.312   5.220  70.160  1.00  0.00    -0.095 OA 
HETATM   12  CA  UNL     1      -8.938   7.385  66.318  1.00  0.00    -0.162 C  
HETATM   13  O   UNL     1     -11.298   6.547  66.974  1.00  0.00    -0.342 OA 
ENDROOT
BRANCH  12  14
HETATM   14  N   UNL     1      -9.180   8.746  65.766  1.00  0.00    -0.300 N  
HETATM   15  C   UNL     1      -8.755   9.149  64.519  1.00  0.00    -0.160 C  
HETATM   16  H   UNL     1      -9.688   9.417  66.343  1.00  0.00     0.000 HD 
HETATM   17  O   UNL     1      -8.087   8.415  63.797  1.00  0.00    -0.155 OA 
BRANCH  15  18
HETATM   18  C   UNL     1      -9.149  10.589  64.106  1.00  0.00    -0.231 C  
HETATM   19  C   UNL     1      -8.830  10.836  62.629  1.00  0.00    -0.311 C  
BRANCH  18  20
HETATM   20  O   UNL     1     -10.548  10.748  64.362  1.00  0.00    -0.347 OA 
BRANCH  20  21
HETATM   21  C   UNL     1     -10.984  11.974  64.791  1.00  0.00    -0.311 A  
HETATM   22  C   UNL     1     -10.784  12.511  66.065  1.00  0.00    -0.292 A  
HETATM   23  C   UNL     1     -11.226  13.802  66.371  1.00  0.00    -0.321 A  
HETATM   24  C   UNL     1     -11.884  14.564  65.411  1.00  0.00    -0.344 A  
HETATM   25  C   UNL     1     -12.095  14.037  64.140  1.00  0.00    -0.456 A  
HETATM   26  C   UNL     1     -11.636  12.751  63.830  1.00  0.00    -0.548 A  
ENDBRANCH  20  21
ENDBRANCH  18  20
ENDBRANCH  15  18
ENDBRANCH  12  14
TORSDOF 4
ENDMDL
MODEL       85
REMARK 921   NORMALIZED FREE ENERGY PREDICTED BY IDOCK:   -4.86 KCAL/MOL
REMARK 922        TOTAL FREE ENERGY PREDICTED BY IDOCK:   -6.77 KCAL/MOL
REMARK 923 INTER-LIGAND FREE ENERGY PREDICTED BY IDOCK:   -6.15 KCAL/MOL
REMARK 924 INTRA-LIGAND FREE ENERGY PREDICTED BY IDOCK:   -0.62 KCAL/MOL
REMARK 927      BINDING AFFINITY PREDICTED BY RF-SCORE:    0.00 PKD
ROOT
HETATM    1  C   UNL     1     -10.405   8.281  67.598  1.00  0.00    -0.248 C  
HETATM    2  S   UNL     1      -9.966   9.468  66.256  1.00  0.00    -0.259 SA 
HETATM    3  C   UNL     1      -8.137   9.340  66.529  1.00  0.00    -0.104 C  
HETATM    4  CA  UNL     1      -7.931   7.998  67.280  1.00  0.00    -0.121 C  
HETATM    5  C   UNL     1      -7.712  10.548  67.389  1.00  0.00    -0.102 C  
HETATM    6  C   UNL     1      -7.413   9.472  65.185  1.00  0.00    -0.109 C  
HETATM    7  N   UNL     1      -9.120   7.786  68.131  1.00  0.00    -0.130 N  
HETATM    8  C   UNL     1      -7.757   6.758  66.377  1.00  0.00    -0.098 C  
HETATM    9  C   UNL     1      -9.242   8.476  69.317  1.00  0.00    -0.153 C  
HETATM   10  OXT UNL     1      -6.942   6.656  65.479  1.00  0.00    -0.057 OA 
HETATM   11  O   UNL     1      -8.562   5.719  66.725  1.00  0.00    -0.112 OA 
HETATM   12  CA  UNL     1     -10.711   8.897  68.989  1.00  0.00    -0.126 C  
HETATM   13  O   UNL     1      -8.401   8.736  70.147  1.00  0.00    -0.115 OA 
ENDROOT
BRANCH  12  14
HETATM   14  N   UNL     1     -11.002  10.357  68.969  1.00  0.00    -0.225 N  
HETATM   15  C   UNL     1     -11.583  11.032  70.021  1.00  0.00    -0.344 C  
HETATM   16  H   UNL     1     -10.759  10.886  68.131  1.00  0.00     0.000 HD 
HETATM   17  O   UNL     1     -11.956  10.449  71.034  1.00  0.00    -0.339 OA 
BRANCH  15  18
HETATM   18  C   UNL     1     -11.757  12.558  69.826  1.00  0.00    -0.285 C  
HETATM   19  C   UNL     1     -11.782  12.916  68.337  1.00  0.00    -0.382 C  
BRANCH  18  20
HETATM   20  O   UNL     1     -12.978  12.943  70.466  1.00  0.00     0.035 OA 
BRANCH  20  21
HETATM   21  C   UNL     1     -12.952  14.045  71.280  1.00  0.00    -0.347 A  
HETATM   22  C   UNL     1     -14.045  14.573  71.972  1.00  0.00    -0.606 A  
HETATM   23  C   UNL     1     -13.886  15.671  72.823  1.00  0.00    -0.628 A  
HETATM   24  C   UNL     1     -12.635  16.261  72.981  1.00  0.00    -0.480 A  
HETATM   25  C   UNL     1     -11.540  15.747  72.291  1.00  0.00    -0.522 A  
HETATM   26  C   UNL     1     -11.698  14.637  71.453  1.00  0.00    -0.298 A  
ENDBRANCH  20  21
ENDBRANCH  18  20
ENDBRANCH  15  18
ENDBRANCH  12  14
TORSDOF 4
ENDMDL
MODEL       86
REMARK 921   NORMALIZED FREE ENERGY PREDICTED BY IDOCK:   -4.86 KCAL/MOL
REMARK 922        TOTAL FREE ENERGY PREDICTED BY IDOCK:   -6.77 KCAL/MOL
REMARK 923 INTER-LIGAND FREE ENERGY PREDICTED BY IDOCK:   -6.11 KCAL/MOL
REMARK 924 INTRA-LIGAND FREE ENERGY PREDICTED BY IDOCK:   -0.66 KCAL/MOL
REMARK 927      BINDING AFFINITY PREDICTED BY RF-SCORE:    0.00 PKD
ROOT
HETATM    1  C   UNL     1     -10.435   6.674  69.650  1.00  0.00    -0.213 C  
HETATM    2  S   UNL     1      -9.616   7.426  68.177  1.00  0.00    -0.144 SA 
HETATM    3  C   UNL     1      -7.916   7.402  68.917  1.00  0.00    -0.126 C  
HETATM    4  CA  UNL     1      -7.978   6.338  70.044  1.00  0.00    -0.111 C  
HETATM    5  C   UNL     1      -7.635   8.812  69.476  1.00  0.00    -0.080 C  
HETATM    6  C   UNL     1      -6.886   7.147  67.812  1.00  0.00    -0.074 C  
HETATM    7  N   UNL     1      -9.347   6.369  70.600  1.00  0.00    -0.161 N  
HETATM    8  C   UNL     1      -7.670   4.892  69.601  1.00  0.00    -0.063 C  
HETATM    9  C   UNL     1      -9.706   7.372  71.474  1.00  0.00    -0.159 C  
HETATM   10  OXT UNL     1      -6.673   4.542  68.998  1.00  0.00    -0.044 OA 
HETATM   11  O   UNL     1      -8.597   3.990  70.021  1.00  0.00    -0.063 OA 
HETATM   12  CA  UNL     1     -11.025   7.664  70.689  1.00  0.00    -0.249 C  
HETATM   13  O   UNL     1      -9.072   7.870  72.376  1.00  0.00    -0.141 OA 
ENDROOT
BRANCH  12  14
HETATM   14  N   UNL     1     -11.213   9.052  70.185  1.00  0.00    -0.364 N  
HETATM   15  C   UNL     1     -11.583  10.110  70.987  1.00  0.00    -0.376 C  
HETATM   16  H   UNL     1     -11.060   9.229  69.193  1.00  0.00     0.000 HD 
HETATM   17  O   UNL     1     -11.842   9.957  72.178  1.00  0.00    -0.033 OA 
BRANCH  15  18
HETATM   18  C   UNL     1     -11.677  11.486  70.285  1.00  0.00    -0.289 C  
HETATM   19  C   UNL     1     -11.656  11.320  68.762  1.00  0.00    -0.383 C  
BRANCH  18  20
HETATM   20  O   UNL     1     -12.888  12.114  70.716  1.00  0.00    -0.168 OA 
BRANCH  20  21
HETATM   21  C   UNL     1     -12.788  13.315  71.368  1.00  0.00    -0.322 A  
HETATM   22  C   UNL     1     -13.192  13.566  72.681  1.00  0.00    -0.483 A  
HETATM   23  C   UNL     1     -12.986  14.821  73.262  1.00  0.00    -0.608 A  
HETATM   24  C   UNL     1     -12.386  15.843  72.532  1.00  0.00    -0.575 A  
HETATM   25  C   UNL     1     -11.986  15.606  71.219  1.00  0.00    -0.467 A  
HETATM   26  C   UNL     1     -12.178  14.344  70.645  1.00  0.00    -0.414 A  
ENDBRANCH  20  21
ENDBRANCH  18  20
ENDBRANCH  15  18
ENDBRANCH  12  14
TORSDOF 4
ENDMDL
MODEL       87
REMARK 921   NORMALIZED FREE ENERGY PREDICTED BY IDOCK:   -4.78 KCAL/MOL
REMARK 922        TOTAL FREE ENERGY PREDICTED BY IDOCK:   -6.68 KCAL/MOL
REMARK 923 INTER-LIGAND FREE ENERGY PREDICTED BY IDOCK:   -5.89 KCAL/MOL
REMARK 924 INTRA-LIGAND FREE ENERGY PREDICTED BY IDOCK:   -0.79 KCAL/MOL
REMARK 927      BINDING AFFINITY PREDICTED BY RF-SCORE:    0.00 PKD
ROOT
HETATM    1  C   UNL     1      -7.942   7.929  68.079  1.00  0.00    -0.128 C  
HETATM    2  S   UNL     1      -8.603   6.350  68.765  1.00  0.00    -0.123 SA 
HETATM    3  C   UNL     1      -9.602   5.934  67.260  1.00  0.00    -0.116 C  
HETATM    4  CA  UNL     1      -8.965   6.756  66.109  1.00  0.00    -0.136 C  
HETATM    5  C   UNL     1     -11.056   6.366  67.536  1.00  0.00    -0.401 C  
HETATM    6  C   UNL     1      -9.617   4.413  67.067  1.00  0.00    -0.221 C  
HETATM    7  N   UNL     1      -8.458   8.013  66.698  1.00  0.00    -0.128 N  
HETATM    8  C   UNL     1      -7.798   6.064  65.373  1.00  0.00    -0.104 C  
HETATM    9  C   UNL     1      -9.338   9.032  66.991  1.00  0.00    -0.150 C  
HETATM   10  OXT UNL     1      -7.844   4.955  64.876  1.00  0.00    -0.084 OA 
HETATM   11  O   UNL     1      -6.695   6.850  65.251  1.00  0.00    -0.049 OA 
HETATM   12  CA  UNL     1      -8.739   9.216  68.423  1.00  0.00    -0.129 C  
HETATM   13  O   UNL     1     -10.291   9.432  66.362  1.00  0.00    -0.242 OA 
ENDROOT
BRANCH  12  14
HETATM   14  N   UNL     1      -9.679   9.074  69.568  1.00  0.00    -0.167 N  
HETATM   15  C   UNL     1     -10.625  10.021  69.899  1.00  0.00    -0.282 C  
HETATM   16  H   UNL     1      -9.621   8.231  70.138  1.00  0.00     0.000 HD 
HETATM   17  O   UNL     1     -10.710  11.086  69.294  1.00  0.00    -0.219 OA 
BRANCH  15  18
HETATM   18  C   UNL     1     -11.543   9.665  71.094  1.00  0.00    -0.381 C  
HETATM   19  C   UNL     1     -12.809  10.527  71.080  1.00  0.00    -0.502 C  
BRANCH  18  20
HETATM   20  O   UNL     1     -11.868   8.275  70.996  1.00  0.00    -0.286 OA 
BRANCH  20  21
HETATM   21  C   UNL     1     -11.379   7.435  71.961  1.00  0.00    -0.264 A  
HETATM   22  C   UNL     1     -10.573   7.811  73.038  1.00  0.00    -0.441 A  
HETATM   23  C   UNL     1     -10.180   6.872  73.997  1.00  0.00    -0.384 A  
HETATM   24  C   UNL     1     -10.578   5.544  73.881  1.00  0.00    -0.304 A  
HETATM   25  C   UNL     1     -11.376   5.155  72.808  1.00  0.00    -0.311 A  
HETATM   26  C   UNL     1     -11.782   6.101  71.859  1.00  0.00    -0.337 A  
ENDBRANCH  20  21
ENDBRANCH  18  20
ENDBRANCH  15  18
ENDBRANCH  12  14
TORSDOF 4
ENDMDL
MODEL       88
REMARK 921   NORMALIZED FREE ENERGY PREDICTED BY IDOCK:   -4.76 KCAL/MOL
REMARK 922        TOTAL FREE ENERGY PREDICTED BY IDOCK:   -6.65 KCAL/MOL
REMARK 923 INTER-LIGAND FREE ENERGY PREDICTED BY IDOCK:   -6.84 KCAL/MOL
REMARK 924 INTRA-LIGAND FREE ENERGY PREDICTED BY IDOCK:    0.19 KCAL/MOL
REMARK 927      BINDING AFFINITY PREDICTED BY RF-SCORE:    0.00 PKD
ROOT
HETATM    1  C   UNL     1      -7.810  16.394  66.534  1.00  0.00    -0.288 C  
HETATM    2  S   UNL     1      -9.429  16.950  65.847  1.00  0.00    -0.020 SA 
HETATM    3  C   UNL     1      -9.999  17.748  67.421  1.00  0.00    -0.323 C  
HETATM    4  CA  UNL     1      -8.705  18.009  68.236  1.00  0.00    -0.283 C  
HETATM    5  C   UNL     1     -10.933  16.749  68.134  1.00  0.00    -0.309 C  
HETATM    6  C   UNL     1     -10.840  18.984  67.086  1.00  0.00    -0.473 C  
HETATM    7  N   UNL     1      -7.758  16.922  67.912  1.00  0.00    -0.170 N  
HETATM    8  C   UNL     1      -8.009  19.357  67.951  1.00  0.00    -0.300 C  
HETATM    9  C   UNL     1      -7.918  15.682  68.491  1.00  0.00    -0.138 C  
HETATM   10  OXT UNL     1      -8.547  20.447  68.003  1.00  0.00    -0.151 OA 
HETATM   11  O   UNL     1      -6.677  19.235  67.704  1.00  0.00    -0.214 OA 
HETATM   12  CA  UNL     1      -7.767  14.956  67.116  1.00  0.00    -0.142 C  
HETATM   13  O   UNL     1      -8.230  15.396  69.624  1.00  0.00    -0.235 OA 
ENDROOT
BRANCH  12  14
HETATM   14  N   UNL     1      -8.893  14.082  66.690  1.00  0.00    -0.435 N  
HETATM   15  C   UNL     1      -9.148  12.845  67.241  1.00  0.00    -0.208 C  
HETATM   16  H   UNL     1      -9.511  14.417  65.950  1.00  0.00     0.000 HD 
HETATM   17  O   UNL     1      -8.411  12.353  68.091  1.00  0.00    -0.167 OA 
BRANCH  15  18
HETATM   18  C   UNL     1     -10.398  12.110  66.697  1.00  0.00    -0.208 C  
HETATM   19  C   UNL     1     -10.380  10.634  67.105  1.00  0.00    -0.275 C  
BRANCH  18  20
HETATM   20  O   UNL     1     -11.554  12.772  67.220  1.00  0.00    -0.319 OA 
BRANCH  20  21
HETATM   21  C   UNL     1     -11.855  12.582  68.544  1.00  0.00    -0.295 A  
HETATM   22  C   UNL     1     -11.946  13.585  69.511  1.00  0.00    -0.390 A  
HETATM   23  C   UNL     1     -12.319  13.278  70.823  1.00  0.00    -0.425 A  
HETATM   24  C   UNL     1     -12.592  11.962  71.185  1.00  0.00    -0.390 A  
HETATM   25  C   UNL     1     -12.499  10.953  70.229  1.00  0.00    -0.383 A  
HETATM   26  C   UNL     1     -12.142  11.266  68.913  1.00  0.00    -0.292 A  
ENDBRANCH  20  21
ENDBRANCH  18  20
ENDBRANCH  15  18
ENDBRANCH  12  14
TORSDOF 4
ENDMDL
MODEL       89
REMARK 921   NORMALIZED FREE ENERGY PREDICTED BY IDOCK:   -4.75 KCAL/MOL
REMARK 922        TOTAL FREE ENERGY PREDICTED BY IDOCK:   -6.65 KCAL/MOL
REMARK 923 INTER-LIGAND FREE ENERGY PREDICTED BY IDOCK:   -5.89 KCAL/MOL
REMARK 924 INTRA-LIGAND FREE ENERGY PREDICTED BY IDOCK:   -0.75 KCAL/MOL
REMARK 927      BINDING AFFINITY PREDICTED BY RF-SCORE:    0.00 PKD
ROOT
HETATM    1  C   UNL     1      -8.470  16.022  69.226  1.00  0.00    -0.224 C  
HETATM    2  S   UNL     1      -7.491  15.440  67.775  1.00  0.00    -0.173 SA 
HETATM    3  C   UNL     1      -7.926  16.889  66.703  1.00  0.00    -0.265 C  
HETATM    4  CA  UNL     1      -8.368  18.004  67.687  1.00  0.00    -0.238 C  
HETATM    5  C   UNL     1      -9.081  16.451  65.779  1.00  0.00    -0.078 C  
HETATM    6  C   UNL     1      -6.735  17.227  65.800  1.00  0.00     0.190 C  
HETATM    7  N   UNL     1      -9.012  17.340  68.840  1.00  0.00    -0.223 N  
HETATM    8  C   UNL     1      -7.230  18.900  68.222  1.00  0.00    -0.271 C  
HETATM    9  C   UNL     1     -10.305  16.876  68.724  1.00  0.00    -0.324 C  
HETATM   10  OXT UNL     1      -6.427  19.497  67.530  1.00  0.00    -0.202 OA 
HETATM   11  O   UNL     1      -7.241  19.037  69.575  1.00  0.00    -0.187 OA 
HETATM   12  CA  UNL     1      -9.923  15.489  69.335  1.00  0.00    -0.277 C  
HETATM   13  O   UNL     1     -11.258  17.381  68.178  1.00  0.00    -0.156 OA 
ENDROOT
BRANCH  12  14
HETATM   14  N   UNL     1     -10.205  14.288  68.502  1.00  0.00    -0.241 N  
HETATM   15  C   UNL     1     -11.445  13.690  68.423  1.00  0.00    -0.311 C  
HETATM   16  H   UNL     1      -9.441  13.886  67.960  1.00  0.00     0.000 HD 
HETATM   17  O   UNL     1     -12.395  14.084  69.094  1.00  0.00    -0.313 OA 
BRANCH  15  18
HETATM   18  C   UNL     1     -11.549  12.481  67.462  1.00  0.00    -0.361 C  
HETATM   19  C   UNL     1     -12.030  12.928  66.079  1.00  0.00    -0.505 C  
BRANCH  18  20
HETATM   20  O   UNL     1     -10.255  11.874  67.383  1.00  0.00    -0.194 OA 
BRANCH  20  21
HETATM   21  C   UNL     1     -10.194  10.509  67.281  1.00  0.00    -0.215 A  
HETATM   22  C   UNL     1     -10.731   9.599  68.194  1.00  0.00    -0.266 A  
HETATM   23  C   UNL     1     -10.658   8.223  67.955  1.00  0.00    -0.212 A  
HETATM   24  C   UNL     1     -10.037   7.743  66.806  1.00  0.00    -0.341 A  
HETATM   25  C   UNL     1      -9.492   8.641  65.892  1.00  0.00    -0.243 A  
HETATM   26  C   UNL     1      -9.581  10.018  66.125  1.00  0.00    -0.265 A  
ENDBRANCH  20  21
ENDBRANCH  18  20
ENDBRANCH  15  18
ENDBRANCH  12  14
TORSDOF 4
ENDMDL
MODEL       90
REMARK 921   NORMALIZED FREE ENERGY PREDICTED BY IDOCK:   -4.73 KCAL/MOL
REMARK 922        TOTAL FREE ENERGY PREDICTED BY IDOCK:   -6.62 KCAL/MOL
REMARK 923 INTER-LIGAND FREE ENERGY PREDICTED BY IDOCK:   -5.83 KCAL/MOL
REMARK 924 INTRA-LIGAND FREE ENERGY PREDICTED BY IDOCK:   -0.79 KCAL/MOL
REMARK 927      BINDING AFFINITY PREDICTED BY RF-SCORE:    0.00 PKD
ROOT
HETATM    1  C   UNL     1     -11.310  15.751  66.605  1.00  0.00     0.109 C  
HETATM    2  S   UNL     1      -9.940  15.143  65.529  1.00  0.00    -0.328 SA 
HETATM    3  C   UNL     1     -10.211  13.354  65.930  1.00  0.00    -0.299 C  
HETATM    4  CA  UNL     1     -11.669  13.271  66.454  1.00  0.00    -0.373 C  
HETATM    5  C   UNL     1      -9.189  12.963  67.017  1.00  0.00    -0.226 C  
HETATM    6  C   UNL     1      -9.894  12.504  64.695  1.00  0.00    -0.079 C  
HETATM    7  N   UNL     1     -11.956  14.541  67.152  1.00  0.00    -0.394 N  
HETATM    8  C   UNL     1     -12.747  13.062  65.369  1.00  0.00    -0.307 C  
HETATM    9  C   UNL     1     -11.469  14.745  68.424  1.00  0.00    -0.314 C  
HETATM   10  OXT UNL     1     -12.741  12.172  64.539  1.00  0.00    -0.480 OA 
HETATM   11  O   UNL     1     -13.785  13.936  65.464  1.00  0.00    -0.389 OA 
HETATM   12  CA  UNL     1     -10.920  16.160  68.050  1.00  0.00    -0.338 C  
HETATM   13  O   UNL     1     -11.397  13.975  69.354  1.00  0.00    -0.257 OA 
ENDROOT
BRANCH  12  14
HETATM   14  N   UNL     1      -9.464  16.391  68.257  1.00  0.00    -0.213 N  
HETATM   15  C   UNL     1      -8.849  17.607  68.051  1.00  0.00    -0.257 C  
HETATM   16  H   UNL     1      -8.891  15.607  68.567  1.00  0.00     0.000 HD 
HETATM   17  O   UNL     1      -9.466  18.577  67.620  1.00  0.00    -0.274 OA 
BRANCH  15  18
HETATM   18  C   UNL     1      -7.335  17.658  68.370  1.00  0.00    -0.243 C  
HETATM   19  C   UNL     1      -6.860  19.106  68.521  1.00  0.00    -0.310 C  
BRANCH  18  20
HETATM   20  O   UNL     1      -7.118  16.918  69.576  1.00  0.00    -0.192 OA 
BRANCH  20  21
HETATM   21  C   UNL     1      -6.547  15.677  69.471  1.00  0.00    -0.179 A  
HETATM   22  C   UNL     1      -6.480  14.721  70.486  1.00  0.00    -0.034 A  
HETATM   23  C   UNL     1      -5.923  13.462  70.244  1.00  0.00    -0.141 A  
HETATM   24  C   UNL     1      -5.413  13.150  68.988  1.00  0.00    -0.069 A  
HETATM   25  C   UNL     1      -5.468  14.098  67.969  1.00  0.00    -0.120 A  
HETATM   26  C   UNL     1      -6.042  15.352  68.209  1.00  0.00    -0.120 A  
ENDBRANCH  20  21
ENDBRANCH  18  20
ENDBRANCH  15  18
ENDBRANCH  12  14
TORSDOF 4
ENDMDL
MODEL       91
REMARK 921   NORMALIZED FREE ENERGY PREDICTED BY IDOCK:   -4.72 KCAL/MOL
REMARK 922        TOTAL FREE ENERGY PREDICTED BY IDOCK:   -6.61 KCAL/MOL
REMARK 923 INTER-LIGAND FREE ENERGY PREDICTED BY IDOCK:   -6.18 KCAL/MOL
REMARK 924 INTRA-LIGAND FREE ENERGY PREDICTED BY IDOCK:   -0.43 KCAL/MOL
REMARK 927      BINDING AFFINITY PREDICTED BY RF-SCORE:    0.00 PKD
ROOT
HETATM    1  C   UNL     1      -9.751  10.005  66.274  1.00  0.00    -0.214 C  
HETATM    2  S   UNL     1      -8.350  11.198  66.399  1.00  0.00    -0.155 SA 
HETATM    3  C   UNL     1      -7.493  10.287  67.768  1.00  0.00    -0.088 C  
HETATM    4  CA  UNL     1      -8.045   8.839  67.701  1.00  0.00    -0.106 C  
HETATM    5  C   UNL     1      -7.870  10.983  69.092  1.00  0.00    -0.092 C  
HETATM    6  C   UNL     1      -5.977  10.434  67.603  1.00  0.00    -0.048 C  
HETATM    7  N   UNL     1      -9.444   8.926  67.234  1.00  0.00    -0.149 N  
HETATM    8  C   UNL     1      -7.280   7.887  66.757  1.00  0.00    -0.088 C  
HETATM    9  C   UNL     1     -10.435   9.304  68.115  1.00  0.00    -0.215 C  
HETATM   10  OXT UNL     1      -6.081   7.683  66.790  1.00  0.00    -0.045 OA 
HETATM   11  O   UNL     1      -8.092   7.206  65.903  1.00  0.00    -0.108 OA 
HETATM   12  CA  UNL     1     -11.018  10.343  67.103  1.00  0.00    -0.196 C  
HETATM   13  O   UNL     1     -10.590   9.001  69.275  1.00  0.00    -0.227 OA 
ENDROOT
BRANCH  12  14
HETATM   14  N   UNL     1     -11.099  11.756  67.564  1.00  0.00    -0.254 N  
HETATM   15  C   UNL     1     -11.816  12.731  66.906  1.00  0.00    -0.371 C  
HETATM   16  H   UNL     1     -10.595  12.016  68.412  1.00  0.00     0.000 HD 
HETATM   17  O   UNL     1     -12.395  12.503  65.848  1.00  0.00    -0.626 OA 
BRANCH  15  18
HETATM   18  C   UNL     1     -11.817  14.129  67.571  1.00  0.00    -0.401 C  
HETATM   19  C   UNL     1     -12.049  14.012  69.081  1.00  0.00    -0.375 C  
BRANCH  18  20
HETATM   20  O   UNL     1     -10.555  14.745  67.293  1.00  0.00    -0.265 OA 
BRANCH  20  21
HETATM   21  C   UNL     1     -10.459  16.103  67.452  1.00  0.00    -0.310 A  
HETATM   22  C   UNL     1     -10.333  16.775  68.670  1.00  0.00    -0.318 A  
HETATM   23  C   UNL     1     -10.183  18.165  68.704  1.00  0.00    -0.382 A  
HETATM   24  C   UNL     1     -10.171  18.899  67.522  1.00  0.00    -0.456 A  
HETATM   25  C   UNL     1     -10.303  18.240  66.302  1.00  0.00    -0.422 A  
HETATM   26  C   UNL     1     -10.435  16.847  66.269  1.00  0.00    -0.263 A  
ENDBRANCH  20  21
ENDBRANCH  18  20
ENDBRANCH  15  18
ENDBRANCH  12  14
TORSDOF 4
ENDMDL
MODEL       92
REMARK 921   NORMALIZED FREE ENERGY PREDICTED BY IDOCK:   -4.69 KCAL/MOL
REMARK 922        TOTAL FREE ENERGY PREDICTED BY IDOCK:   -6.56 KCAL/MOL
REMARK 923 INTER-LIGAND FREE ENERGY PREDICTED BY IDOCK:   -5.60 KCAL/MOL
REMARK 924 INTRA-LIGAND FREE ENERGY PREDICTED BY IDOCK:   -0.96 KCAL/MOL
REMARK 927      BINDING AFFINITY PREDICTED BY RF-SCORE:    0.00 PKD
ROOT
HETATM    1  C   UNL     1      -9.475   7.682  66.826  1.00  0.00    -0.191 C  
HETATM    2  S   UNL     1     -10.872   8.604  67.602  1.00  0.00     0.131 SA 
HETATM    3  C   UNL     1     -10.011  10.246  67.565  1.00  0.00    -0.189 C  
HETATM    4  CA  UNL     1      -8.910  10.104  66.482  1.00  0.00    -0.140 C  
HETATM    5  C   UNL     1      -9.410  10.485  68.965  1.00  0.00    -0.205 C  
HETATM    6  C   UNL     1     -11.044  11.354  67.328  1.00  0.00    -0.363 C  
HETATM    7  N   UNL     1      -8.454   8.699  66.504  1.00  0.00    -0.111 N  
HETATM    8  C   UNL     1      -9.354  10.444  65.043  1.00  0.00    -0.229 C  
HETATM    9  C   UNL     1      -7.591   8.277  67.492  1.00  0.00    -0.098 C  
HETATM   10  OXT UNL     1      -9.889  11.483  64.703  1.00  0.00    -0.242 OA 
HETATM   11  O   UNL     1      -9.018   9.490  64.134  1.00  0.00    -0.230 OA 
HETATM   12  CA  UNL     1      -8.465   7.017  67.798  1.00  0.00    -0.120 C  
HETATM   13  O   UNL     1      -6.638   8.843  67.975  1.00  0.00    -0.059 OA 
ENDROOT
BRANCH  12  14
HETATM   14  N   UNL     1      -8.958   6.866  69.195  1.00  0.00    -0.134 N  
HETATM   15  C   UNL     1      -9.658   5.765  69.640  1.00  0.00    -0.152 C  
HETATM   16  H   UNL     1      -8.766   7.616  69.858  1.00  0.00     0.000 HD 
HETATM   17  O   UNL     1      -9.975   4.853  68.882  1.00  0.00    -0.173 OA 
BRANCH  15  18
HETATM   18  C   UNL     1     -10.039   5.772  71.140  1.00  0.00    -0.203 C  
HETATM   19  C   UNL     1      -8.996   5.017  71.969  1.00  0.00    -0.145 C  
BRANCH  18  20
HETATM   20  O   UNL     1     -10.136   7.137  71.559  1.00  0.00    -0.187 OA 
BRANCH  20  21
HETATM   21  C   UNL     1     -11.382   7.706  71.603  1.00  0.00    -0.251 A  
HETATM   22  C   UNL     1     -12.595   7.014  71.594  1.00  0.00    -0.419 A  
HETATM   23  C   UNL     1     -13.808   7.700  71.701  1.00  0.00    -0.480 A  
HETATM   24  C   UNL     1     -13.822   9.088  71.805  1.00  0.00    -0.453 A  
HETATM   25  C   UNL     1     -12.619   9.789  71.808  1.00  0.00    -0.506 A  
HETATM   26  C   UNL     1     -11.405   9.098  71.718  1.00  0.00    -0.451 A  
ENDBRANCH  20  21
ENDBRANCH  18  20
ENDBRANCH  15  18
ENDBRANCH  12  14
TORSDOF 4
ENDMDL
MODEL       93
REMARK 921   NORMALIZED FREE ENERGY PREDICTED BY IDOCK:   -4.68 KCAL/MOL
REMARK 922        TOTAL FREE ENERGY PREDICTED BY IDOCK:   -6.55 KCAL/MOL
REMARK 923 INTER-LIGAND FREE ENERGY PREDICTED BY IDOCK:   -5.64 KCAL/MOL
REMARK 924 INTRA-LIGAND FREE ENERGY PREDICTED BY IDOCK:   -0.91 KCAL/MOL
REMARK 927      BINDING AFFINITY PREDICTED BY RF-SCORE:    0.00 PKD
ROOT
HETATM    1  C   UNL     1      -8.240  16.548  67.919  1.00  0.00    -0.168 C  
HETATM    2  S   UNL     1      -8.549  15.739  66.291  1.00  0.00    -0.170 SA 
HETATM    3  C   UNL     1     -10.358  16.142  66.259  1.00  0.00    -0.328 C  
HETATM    4  CA  UNL     1     -10.527  17.330  67.241  1.00  0.00    -0.319 C  
HETATM    5  C   UNL     1     -11.120  14.890  66.739  1.00  0.00    -0.335 C  
HETATM    6  C   UNL     1     -10.793  16.402  64.812  1.00  0.00    -0.197 C  
HETATM    7  N   UNL     1      -9.526  17.157  68.314  1.00  0.00    -0.267 N  
HETATM    8  C   UNL     1     -10.331  18.730  66.620  1.00  0.00    -0.420 C  
HETATM    9  C   UNL     1      -9.755  16.243  69.319  1.00  0.00    -0.238 C  
HETATM   10  OXT UNL     1     -10.915  19.148  65.638  1.00  0.00    -0.331 OA 
HETATM   11  O   UNL     1      -9.480  19.520  67.328  1.00  0.00    -0.310 OA 
HETATM   12  CA  UNL     1      -8.324  15.633  69.170  1.00  0.00    -0.251 C  
HETATM   13  O   UNL     1     -10.780  15.987  69.908  1.00  0.00    -0.290 OA 
ENDROOT
BRANCH  12  14
HETATM   14  N   UNL     1      -8.243  14.176  68.877  1.00  0.00    -0.309 N  
HETATM   15  C   UNL     1      -7.077  13.446  68.960  1.00  0.00    -0.053 C  
HETATM   16  H   UNL     1      -9.097  13.691  68.600  1.00  0.00     0.000 HD 
HETATM   17  O   UNL     1      -6.002  13.975  69.228  1.00  0.00    -0.087 OA 
BRANCH  15  18
HETATM   18  C   UNL     1      -7.209  11.931  68.665  1.00  0.00    -0.109 C  
HETATM   19  C   UNL     1      -6.852  11.105  69.904  1.00  0.00    -0.060 C  
BRANCH  18  20
HETATM   20  O   UNL     1      -8.557  11.683  68.254  1.00  0.00    -0.151 OA 
BRANCH  20  21
HETATM   21  C   UNL     1      -8.770  11.315  66.951  1.00  0.00    -0.157 A  
HETATM   22  C   UNL     1      -7.787  10.910  66.047  1.00  0.00    -0.121 A  
HETATM   23  C   UNL     1      -8.131  10.501  64.755  1.00  0.00    -0.078 A  
HETATM   24  C   UNL     1      -9.463  10.506  64.350  1.00  0.00    -0.333 A  
HETATM   25  C   UNL     1     -10.452  10.915  65.241  1.00  0.00    -0.299 A  
HETATM   26  C   UNL     1     -10.106  11.307  66.539  1.00  0.00    -0.256 A  
ENDBRANCH  20  21
ENDBRANCH  18  20
ENDBRANCH  15  18
ENDBRANCH  12  14
TORSDOF 4
ENDMDL
MODEL       94
REMARK 921   NORMALIZED FREE ENERGY PREDICTED BY IDOCK:   -4.67 KCAL/MOL
REMARK 922        TOTAL FREE ENERGY PREDICTED BY IDOCK:   -6.54 KCAL/MOL
REMARK 923 INTER-LIGAND FREE ENERGY PREDICTED BY IDOCK:   -5.78 KCAL/MOL
REMARK 924 INTRA-LIGAND FREE ENERGY PREDICTED BY IDOCK:   -0.76 KCAL/MOL
REMARK 927      BINDING AFFINITY PREDICTED BY RF-SCORE:    0.00 PKD
ROOT
HETATM    1  C   UNL     1     -10.371   7.437  69.150  1.00  0.00    -0.208 C  
HETATM    2  S   UNL     1     -10.476   7.403  67.309  1.00  0.00    -0.331 SA 
HETATM    3  C   UNL     1      -8.980   6.331  67.089  1.00  0.00    -0.111 C  
HETATM    4  CA  UNL     1      -8.786   5.620  68.453  1.00  0.00    -0.109 C  
HETATM    5  C   UNL     1      -7.793   7.256  66.750  1.00  0.00    -0.113 C  
HETATM    6  C   UNL     1      -9.189   5.413  65.879  1.00  0.00    -0.165 C  
HETATM    7  N   UNL     1      -9.241   6.555  69.503  1.00  0.00    -0.142 N  
HETATM    8  C   UNL     1      -9.557   4.294  68.621  1.00  0.00    -0.142 C  
HETATM    9  C   UNL     1      -8.427   7.599  69.886  1.00  0.00    -0.137 C  
HETATM   10  OXT UNL     1      -9.506   3.352  67.853  1.00  0.00    -0.193 OA 
HETATM   11  O   UNL     1     -10.268   4.226  69.779  1.00  0.00    -0.087 OA 
HETATM   12  CA  UNL     1      -9.597   8.629  69.773  1.00  0.00    -0.171 C  
HETATM   13  O   UNL     1      -7.229   7.621  70.053  1.00  0.00    -0.068 OA 
ENDROOT
BRANCH  12  14
HETATM   14  N   UNL     1      -9.391   9.782  68.855  1.00  0.00    -0.152 N  
HETATM   15  C   UNL     1     -10.168  10.919  68.873  1.00  0.00    -0.198 C  
HETATM   16  H   UNL     1      -8.632   9.726  68.175  1.00  0.00     0.000 HD 
HETATM   17  O   UNL     1     -11.134  11.029  69.623  1.00  0.00    -0.251 OA 
BRANCH  15  18
HETATM   18  C   UNL     1      -9.762  12.028  67.871  1.00  0.00    -0.194 C  
HETATM   19  C   UNL     1      -8.418  12.647  68.264  1.00  0.00    -0.163 C  
BRANCH  18  20
HETATM   20  O   UNL     1      -9.694  11.437  66.570  1.00  0.00    -0.193 OA 
BRANCH  20  21
HETATM   21  C   UNL     1     -10.588  11.867  65.625  1.00  0.00    -0.268 A  
HETATM   22  C   UNL     1     -11.803  12.506  65.882  1.00  0.00    -0.489 A  
HETATM   23  C   UNL     1     -12.608  12.954  64.831  1.00  0.00    -0.525 A  
HETATM   24  C   UNL     1     -12.214  12.757  63.511  1.00  0.00    -0.613 A  
HETATM   25  C   UNL     1     -11.007  12.115  63.243  1.00  0.00    -0.398 A  
HETATM   26  C   UNL     1     -10.194  11.683  64.297  1.00  0.00    -0.357 A  
ENDBRANCH  20  21
ENDBRANCH  18  20
ENDBRANCH  15  18
ENDBRANCH  12  14
TORSDOF 4
ENDMDL
MODEL       95
REMARK 921   NORMALIZED FREE ENERGY PREDICTED BY IDOCK:   -4.65 KCAL/MOL
REMARK 922        TOTAL FREE ENERGY PREDICTED BY IDOCK:   -6.52 KCAL/MOL
REMARK 923 INTER-LIGAND FREE ENERGY PREDICTED BY IDOCK:   -5.91 KCAL/MOL
REMARK 924 INTRA-LIGAND FREE ENERGY PREDICTED BY IDOCK:   -0.61 KCAL/MOL
REMARK 927      BINDING AFFINITY PREDICTED BY RF-SCORE:    0.00 PKD
ROOT
HETATM    1  C   UNL     1     -10.526  10.924  66.458  1.00  0.00    -0.253 C  
HETATM    2  S   UNL     1     -11.745  11.866  67.472  1.00  0.00    -0.195 SA 
HETATM    3  C   UNL     1     -10.906  13.503  67.240  1.00  0.00    -0.276 C  
HETATM    4  CA  UNL     1     -10.036  13.337  65.967  1.00  0.00    -0.299 C  
HETATM    5  C   UNL     1     -10.045  13.764  68.492  1.00  0.00    -0.225 C  
HETATM    6  C   UNL     1     -11.964  14.611  67.188  1.00  0.00    -0.310 C  
HETATM    7  N   UNL     1      -9.585  11.931  65.925  1.00  0.00    -0.234 N  
HETATM    8  C   UNL     1     -10.750  13.654  64.635  1.00  0.00    -0.421 C  
HETATM    9  C   UNL     1      -8.548  11.523  66.735  1.00  0.00    -0.170 C  
HETATM   10  OXT UNL     1     -11.340  14.689  64.387  1.00  0.00    -0.323 OA 
HETATM   11  O   UNL     1     -10.597  12.683  63.696  1.00  0.00    -0.418 OA 
HETATM   12  CA  UNL     1      -9.346  10.273  67.227  1.00  0.00    -0.149 C  
HETATM   13  O   UNL     1      -7.518  12.093  67.014  1.00  0.00    -0.146 OA 
ENDROOT
BRANCH  12  14
HETATM   14  N   UNL     1      -9.559  10.147  68.695  1.00  0.00    -0.157 N  
HETATM   15  C   UNL     1     -10.109   9.034  69.293  1.00  0.00    -0.195 C  
HETATM   16  H   UNL     1      -9.284  10.928  69.291  1.00  0.00     0.000 HD 
HETATM   17  O   UNL     1     -10.518   8.083  68.632  1.00  0.00    -0.207 OA 
BRANCH  15  18
HETATM   18  C   UNL     1     -10.201   9.076  70.838  1.00  0.00    -0.257 C  
HETATM   19  C   UNL     1     -11.477   9.794  71.286  1.00  0.00    -0.457 C  
BRANCH  18  20
HETATM   20  O   UNL     1     -10.178   7.726  71.313  1.00  0.00    -0.193 OA 
BRANCH  20  21
HETATM   21  C   UNL     1      -9.152   7.358  72.143  1.00  0.00    -0.131 A  
HETATM   22  C   UNL     1      -8.182   6.393  71.862  1.00  0.00    -0.109 A  
HETATM   23  C   UNL     1      -7.145   6.142  72.766  1.00  0.00    -0.076 A  
HETATM   24  C   UNL     1      -7.074   6.843  73.966  1.00  0.00    -0.092 A  
HETATM   25  C   UNL     1      -8.040   7.803  74.259  1.00  0.00    -0.274 A  
HETATM   26  C   UNL     1      -9.068   8.065  73.346  1.00  0.00    -0.340 A  
ENDBRANCH  20  21
ENDBRANCH  18  20
ENDBRANCH  15  18
ENDBRANCH  12  14
TORSDOF 4
ENDMDL
MODEL       96
REMARK 921   NORMALIZED FREE ENERGY PREDICTED BY IDOCK:   -4.64 KCAL/MOL
REMARK 922        TOTAL FREE ENERGY PREDICTED BY IDOCK:   -6.50 KCAL/MOL
REMARK 923 INTER-LIGAND FREE ENERGY PREDICTED BY IDOCK:   -5.83 KCAL/MOL
REMARK 924 INTRA-LIGAND FREE ENERGY PREDICTED BY IDOCK:   -0.67 KCAL/MOL
REMARK 927      BINDING AFFINITY PREDICTED BY RF-SCORE:    0.00 PKD
ROOT
HETATM    1  C   UNL     1      -8.557   7.028  69.890  1.00  0.00    -0.141 C  
HETATM    2  S   UNL     1      -8.977   8.353  71.103  1.00  0.00    -0.184 SA 
HETATM    3  C   UNL     1     -10.654   7.672  71.501  1.00  0.00    -0.212 C  
HETATM    4  CA  UNL     1     -10.597   6.180  71.083  1.00  0.00    -0.246 C  
HETATM    5  C   UNL     1     -11.684   8.462  70.667  1.00  0.00    -0.159 C  
HETATM    6  C   UNL     1     -10.973   7.942  72.975  1.00  0.00    -0.398 C  
HETATM    7  N   UNL     1      -9.695   6.086  69.917  1.00  0.00    -0.160 N  
HETATM    8  C   UNL     1     -10.084   5.211  72.169  1.00  0.00    -0.193 C  
HETATM    9  C   UNL     1     -10.150   6.459  68.670  1.00  0.00    -0.158 C  
HETATM   10  OXT UNL     1     -10.530   5.125  73.297  1.00  0.00    -0.183 OA 
HETATM   11  O   UNL     1      -9.107   4.374  71.727  1.00  0.00    -0.121 OA 
HETATM   12  CA  UNL     1      -8.879   7.329  68.402  1.00  0.00    -0.128 C  
HETATM   13  O   UNL     1     -11.226   6.263  68.153  1.00  0.00    -0.327 OA 
ENDROOT
BRANCH  12  14
HETATM   14  N   UNL     1      -9.104   8.768  68.097  1.00  0.00    -0.140 N  
HETATM   15  C   UNL     1      -8.106   9.624  67.684  1.00  0.00    -0.113 C  
HETATM   16  H   UNL     1     -10.048   9.141  68.198  1.00  0.00     0.000 HD 
HETATM   17  O   UNL     1      -6.937   9.258  67.599  1.00  0.00    -0.076 OA 
BRANCH  15  18
HETATM   18  C   UNL     1      -8.550  11.073  67.367  1.00  0.00    -0.132 C  
HETATM   19  C   UNL     1      -7.508  12.080  67.861  1.00  0.00    -0.114 C  
BRANCH  18  20
HETATM   20  O   UNL     1      -8.729  11.174  65.950  1.00  0.00    -0.183 OA 
BRANCH  20  21
HETATM   21  C   UNL     1      -9.896  11.728  65.492  1.00  0.00    -0.234 A  
HETATM   22  C   UNL     1     -10.289  11.811  64.154  1.00  0.00    -0.376 A  
HETATM   23  C   UNL     1     -11.533  12.348  63.809  1.00  0.00    -0.544 A  
HETATM   24  C   UNL     1     -12.391  12.820  64.798  1.00  0.00    -0.540 A  
HETATM   25  C   UNL     1     -12.007  12.749  66.134  1.00  0.00    -0.476 A  
HETATM   26  C   UNL     1     -10.768  12.195  66.478  1.00  0.00    -0.290 A  
ENDBRANCH  20  21
ENDBRANCH  18  20
ENDBRANCH  15  18
ENDBRANCH  12  14
TORSDOF 4
ENDMDL
MODEL       97
REMARK 921   NORMALIZED FREE ENERGY PREDICTED BY IDOCK:   -4.61 KCAL/MOL
REMARK 922        TOTAL FREE ENERGY PREDICTED BY IDOCK:   -6.47 KCAL/MOL
REMARK 923 INTER-LIGAND FREE ENERGY PREDICTED BY IDOCK:   -5.59 KCAL/MOL
REMARK 924 INTRA-LIGAND FREE ENERGY PREDICTED BY IDOCK:   -0.88 KCAL/MOL
REMARK 927      BINDING AFFINITY PREDICTED BY RF-SCORE:    0.00 PKD
ROOT
HETATM    1  C   UNL     1      -9.468  11.680  65.415  1.00  0.00    -0.171 C  
HETATM    2  S   UNL     1      -8.269  12.024  66.774  1.00  0.00    -0.055 SA 
HETATM    3  C   UNL     1      -9.391  11.428  68.124  1.00  0.00    -0.181 C  
HETATM    4  CA  UNL     1     -10.421  10.507  67.419  1.00  0.00    -0.244 C  
HETATM    5  C   UNL     1     -10.064  12.667  68.748  1.00  0.00    -0.057 C  
HETATM    6  C   UNL     1      -8.552  10.773  69.227  1.00  0.00    -0.047 C  
HETATM    7  N   UNL     1     -10.635  11.048  66.061  1.00  0.00    -0.240 N  
HETATM    8  C   UNL     1      -9.999   9.028  67.287  1.00  0.00    -0.216 C  
HETATM    9  C   UNL     1     -11.444  12.151  65.887  1.00  0.00    -0.363 C  
HETATM   10  OXT UNL     1      -9.636   8.319  68.206  1.00  0.00    -0.144 OA 
HETATM   11  O   UNL     1     -10.144   8.535  66.027  1.00  0.00    -0.154 OA 
HETATM   12  CA  UNL     1     -10.380  12.860  64.987  1.00  0.00    -0.315 C  
HETATM   13  O   UNL     1     -12.492  12.430  66.421  1.00  0.00    -0.418 OA 
ENDROOT
BRANCH  12  14
HETATM   14  N   UNL     1      -9.910  14.200  65.433  1.00  0.00    -0.552 N  
HETATM   15  C   UNL     1     -10.577  15.373  65.155  1.00  0.00    -0.434 C  
HETATM   16  H   UNL     1      -9.047  14.252  65.974  1.00  0.00     0.000 HD 
HETATM   17  O   UNL     1     -11.589  15.391  64.458  1.00  0.00    -0.397 OA 
BRANCH  15  18
HETATM   18  C   UNL     1      -9.954  16.659  65.750  1.00  0.00    -0.243 C  
HETATM   19  C   UNL     1     -10.962  17.812  65.724  1.00  0.00     0.224 C  
BRANCH  18  20
HETATM   20  O   UNL     1      -9.546  16.366  67.090  1.00  0.00    -0.229 OA 
BRANCH  20  21
HETATM   21  C   UNL     1      -8.281  16.736  67.468  1.00  0.00    -0.173 A  
HETATM   22  C   UNL     1      -7.091  16.226  66.942  1.00  0.00    -0.246 A  
HETATM   23  C   UNL     1      -5.855  16.724  67.366  1.00  0.00    -0.190 A  
HETATM   24  C   UNL     1      -5.795  17.726  68.330  1.00  0.00    -0.162 A  
HETATM   25  C   UNL     1      -6.975  18.236  68.866  1.00  0.00    -0.289 A  
HETATM   26  C   UNL     1      -8.212  17.749  68.427  1.00  0.00    -0.298 A  
ENDBRANCH  20  21
ENDBRANCH  18  20
ENDBRANCH  15  18
ENDBRANCH  12  14
TORSDOF 4
ENDMDL
MODEL       98
REMARK 921   NORMALIZED FREE ENERGY PREDICTED BY IDOCK:   -4.60 KCAL/MOL
REMARK 922        TOTAL FREE ENERGY PREDICTED BY IDOCK:   -6.45 KCAL/MOL
REMARK 923 INTER-LIGAND FREE ENERGY PREDICTED BY IDOCK:   -5.78 KCAL/MOL
REMARK 924 INTRA-LIGAND FREE ENERGY PREDICTED BY IDOCK:   -0.68 KCAL/MOL
REMARK 927      BINDING AFFINITY PREDICTED BY RF-SCORE:    0.00 PKD
ROOT
HETATM    1  C   UNL     1      -8.521   8.066  69.369  1.00  0.00    -0.132 C  
HETATM    2  S   UNL     1      -8.841   9.018  70.916  1.00  0.00    -0.242 SA 
HETATM    3  C   UNL     1     -10.655   8.637  70.959  1.00  0.00    -0.221 C  
HETATM    4  CA  UNL     1     -10.824   7.368  70.083  1.00  0.00    -0.256 C  
HETATM    5  C   UNL     1     -11.397   9.849  70.361  1.00  0.00    -0.376 C  
HETATM    6  C   UNL     1     -11.111   8.509  72.416  1.00  0.00    -0.397 C  
HETATM    7  N   UNL     1      -9.808   7.437  69.013  1.00  0.00    -0.164 N  
HETATM    8  C   UNL     1     -10.651   6.027  70.826  1.00  0.00    -0.255 C  
HETATM    9  C   UNL     1     -10.014   8.261  67.928  1.00  0.00    -0.183 C  
HETATM   10  OXT UNL     1     -11.252   5.702  71.833  1.00  0.00    -0.249 OA 
HETATM   11  O   UNL     1      -9.799   5.169  70.202  1.00  0.00    -0.190 OA 
HETATM   12  CA  UNL     1      -8.579   8.869  68.042  1.00  0.00    -0.130 C  
HETATM   13  O   UNL     1     -11.029   8.475  67.305  1.00  0.00    -0.117 OA 
ENDROOT
BRANCH  12  14
HETATM   14  N   UNL     1      -8.486  10.345  68.207  1.00  0.00    -0.120 N  
HETATM   15  C   UNL     1      -8.748  11.242  67.195  1.00  0.00    -0.151 C  
HETATM   16  H   UNL     1      -8.213  10.712  69.119  1.00  0.00     0.000 HD 
HETATM   17  O   UNL     1      -9.022  10.870  66.057  1.00  0.00    -0.174 OA 
BRANCH  15  18
HETATM   18  C   UNL     1      -8.646  12.739  67.579  1.00  0.00    -0.187 C  
HETATM   19  C   UNL     1      -7.195  13.223  67.490  1.00  0.00    -0.157 C  
BRANCH  18  20
HETATM   20  O   UNL     1      -9.488  13.476  66.688  1.00  0.00    -0.257 OA 
BRANCH  20  21
HETATM   21  C   UNL     1      -9.768  14.780  67.006  1.00  0.00    -0.237 A  
HETATM   22  C   UNL     1      -9.431  15.897  66.239  1.00  0.00    -0.350 A  
HETATM   23  C   UNL     1      -9.822  17.179  66.637  1.00  0.00    -0.295 A  
HETATM   24  C   UNL     1     -10.544  17.358  67.813  1.00  0.00    -0.371 A  
HETATM   25  C   UNL     1     -10.880  16.252  68.589  1.00  0.00    -0.322 A  
HETATM   26  C   UNL     1     -10.502  14.968  68.180  1.00  0.00    -0.245 A  
ENDBRANCH  20  21
ENDBRANCH  18  20
ENDBRANCH  15  18
ENDBRANCH  12  14
TORSDOF 4
ENDMDL
MODEL       99
REMARK 921   NORMALIZED FREE ENERGY PREDICTED BY IDOCK:   -4.53 KCAL/MOL
REMARK 922        TOTAL FREE ENERGY PREDICTED BY IDOCK:   -6.37 KCAL/MOL
REMARK 923 INTER-LIGAND FREE ENERGY PREDICTED BY IDOCK:   -5.19 KCAL/MOL
REMARK 924 INTRA-LIGAND FREE ENERGY PREDICTED BY IDOCK:   -1.18 KCAL/MOL
REMARK 927      BINDING AFFINITY PREDICTED BY RF-SCORE:    0.00 PKD
ROOT
HETATM    1  C   UNL     1     -10.642   8.913  72.196  1.00  0.00    -0.253 C  
HETATM    2  S   UNL     1      -9.297   8.879  70.934  1.00  0.00    -0.259 SA 
HETATM    3  C   UNL     1     -10.448   8.906  69.481  1.00  0.00    -0.226 C  
HETATM    4  CA  UNL     1     -11.783   9.472  70.031  1.00  0.00     0.018 C  
HETATM    5  C   UNL     1     -10.602   7.454  68.986  1.00  0.00    -0.203 C  
HETATM    6  C   UNL     1      -9.804   9.701  68.340  1.00  0.00    -0.170 C  
HETATM    7  N   UNL     1     -11.903   9.027  71.435  1.00  0.00    -0.303 N  
HETATM    8  C   UNL     1     -11.909  11.010  70.000  1.00  0.00    -0.355 C  
HETATM    9  C   UNL     1     -12.292   7.734  71.710  1.00  0.00    -0.317 C  
HETATM   10  OXT UNL     1     -11.743  11.706  69.017  1.00  0.00    -0.271 OA 
HETATM   11  O   UNL     1     -12.312  11.542  71.186  1.00  0.00    -0.346 OA 
HETATM   12  CA  UNL     1     -11.122   7.536  72.728  1.00  0.00    -0.366 C  
HETATM   13  O   UNL     1     -13.135   7.053  71.173  1.00  0.00    -0.345 OA 
ENDROOT
BRANCH  12  14
HETATM   14  N   UNL     1     -10.186   6.410  72.464  1.00  0.00    -0.181 N  
HETATM   15  C   UNL     1     -10.484   5.092  72.734  1.00  0.00    -0.211 C  
HETATM   16  H   UNL     1      -9.274   6.625  72.061  1.00  0.00     0.000 HD 
HETATM   17  O   UNL     1     -11.538   4.766  73.273  1.00  0.00    -0.333 OA 
BRANCH  15  18
HETATM   18  C   UNL     1      -9.397   4.062  72.340  1.00  0.00    -0.122 C  
HETATM   19  C   UNL     1      -9.305   2.945  73.384  1.00  0.00    -0.106 C  
BRANCH  18  20
HETATM   20  O   UNL     1      -9.740   3.535  71.055  1.00  0.00    -0.170 OA 
BRANCH  20  21
HETATM   21  C   UNL     1      -9.080   4.033  69.963  1.00  0.00    -0.119 A  
HETATM   22  C   UNL     1      -9.499   3.923  68.635  1.00  0.00    -0.217 A  
HETATM   23  C   UNL     1      -8.770   4.524  67.605  1.00  0.00    -0.111 A  
HETATM   24  C   UNL     1      -7.606   5.231  67.890  1.00  0.00    -0.084 A  
HETATM   25  C   UNL     1      -7.174   5.342  69.210  1.00  0.00    -0.065 A  
HETATM   26  C   UNL     1      -7.915   4.754  70.241  1.00  0.00    -0.068 A  
ENDBRANCH  20  21
ENDBRANCH  18  20
ENDBRANCH  15  18
ENDBRANCH  12  14
TORSDOF 4
ENDMDL
MODEL      100
REMARK 921   NORMALIZED FREE ENERGY PREDICTED BY IDOCK:   -4.53 KCAL/MOL
REMARK 922        TOTAL FREE ENERGY PREDICTED BY IDOCK:   -6.36 KCAL/MOL
REMARK 923 INTER-LIGAND FREE ENERGY PREDICTED BY IDOCK:   -6.72 KCAL/MOL
REMARK 924 INTRA-LIGAND FREE ENERGY PREDICTED BY IDOCK:    0.36 KCAL/MOL
REMARK 927      BINDING AFFINITY PREDICTED BY RF-SCORE:    0.00 PKD
ROOT
HETATM    1  C   UNL     1      -9.458  14.367  66.928  1.00  0.00    -0.258 C  
HETATM    2  S   UNL     1      -9.738  13.179  65.544  1.00  0.00     0.044 SA 
HETATM    3  C   UNL     1     -11.475  13.735  65.212  1.00  0.00    -0.312 C  
HETATM    4  CA  UNL     1     -11.570  15.157  65.824  1.00  0.00    -0.097 C  
HETATM    5  C   UNL     1     -12.421  12.743  65.918  1.00  0.00    -0.160 C  
HETATM    6  C   UNL     1     -11.761  13.632  63.710  1.00  0.00    -0.292 C  
HETATM    7  N   UNL     1     -10.685  15.185  67.007  1.00  0.00    -0.302 N  
HETATM    8  C   UNL     1     -11.155  16.308  64.884  1.00  0.00    -0.290 C  
HETATM    9  C   UNL     1     -11.103  14.607  68.186  1.00  0.00    -0.274 C  
HETATM   10  OXT UNL     1     -11.604  16.498  63.769  1.00  0.00    -1.109 OA 
HETATM   11  O   UNL     1     -10.269  17.173  65.447  1.00  0.00    -0.605 OA 
HETATM   12  CA  UNL     1      -9.752  13.840  68.358  1.00  0.00    -0.219 C  
HETATM   13  O   UNL     1     -12.195  14.623  68.707  1.00  0.00    -0.235 OA 
ENDROOT
BRANCH  12  14
HETATM   14  N   UNL     1      -9.830  12.358  68.467  1.00  0.00    -0.341 N  
HETATM   15  C   UNL     1     -10.842  11.696  69.128  1.00  0.00    -0.184 C  
HETATM   16  H   UNL     1      -9.095  11.803  68.030  1.00  0.00     0.000 HD 
HETATM   17  O   UNL     1     -11.725  12.301  69.729  1.00  0.00    -0.308 OA 
BRANCH  15  18
HETATM   18  C   UNL     1     -10.772  10.149  69.087  1.00  0.00    -0.226 C  
HETATM   19  C   UNL     1     -10.975   9.635  67.659  1.00  0.00    -0.190 C  
BRANCH  18  20
HETATM   20  O   UNL     1      -9.494   9.756  69.597  1.00  0.00    -0.191 OA 
BRANCH  20  21
HETATM   21  C   UNL     1      -9.466   8.825  70.602  1.00  0.00    -0.197 A  
HETATM   22  C   UNL     1      -9.665   9.084  71.960  1.00  0.00    -0.157 A  
HETATM   23  C   UNL     1      -9.671   8.040  72.891  1.00  0.00    -0.353 A  
HETATM   24  C   UNL     1      -9.464   6.728  72.475  1.00  0.00    -0.151 A  
HETATM   25  C   UNL     1      -9.258   6.459  71.124  1.00  0.00    -0.159 A  
HETATM   26  C   UNL     1      -9.270   7.503  70.192  1.00  0.00    -0.154 A  
ENDBRANCH  20  21
ENDBRANCH  18  20
ENDBRANCH  15  18
ENDBRANCH  12  14
TORSDOF 4
ENDMDL
MODEL      101
REMARK 921   NORMALIZED FREE ENERGY PREDICTED BY IDOCK:   -4.50 KCAL/MOL
REMARK 922        TOTAL FREE ENERGY PREDICTED BY IDOCK:   -6.33 KCAL/MOL
REMARK 923 INTER-LIGAND FREE ENERGY PREDICTED BY IDOCK:   -6.07 KCAL/MOL
REMARK 924 INTRA-LIGAND FREE ENERGY PREDICTED BY IDOCK:   -0.26 KCAL/MOL
REMARK 927      BINDING AFFINITY PREDICTED BY RF-SCORE:    0.00 PKD
ROOT
HETATM    1  C   UNL     1      -9.000   7.948  69.441  1.00  0.00    -0.145 C  
HETATM    2  S   UNL     1      -8.831   9.062  70.901  1.00  0.00    -0.242 SA 
HETATM    3  C   UNL     1      -9.458   7.814  72.120  1.00  0.00    -0.164 C  
HETATM    4  CA  UNL     1      -9.267   6.439  71.429  1.00  0.00    -0.149 C  
HETATM    5  C   UNL     1     -10.948   8.125  72.376  1.00  0.00    -0.414 C  
HETATM    6  C   UNL     1      -8.729   8.000  73.456  1.00  0.00    -0.330 C  
HETATM    7  N   UNL     1      -9.451   6.649  69.978  1.00  0.00    -0.157 N  
HETATM    8  C   UNL     1      -7.890   5.777  71.650  1.00  0.00    -0.109 C  
HETATM    9  C   UNL     1     -10.723   6.774  69.463  1.00  0.00    -0.257 C  
HETATM   10  OXT UNL     1      -7.378   5.572  72.734  1.00  0.00    -0.088 OA 
HETATM   11  O   UNL     1      -7.303   5.355  70.498  1.00  0.00    -0.066 OA 
HETATM   12  CA  UNL     1     -10.330   8.049  68.648  1.00  0.00    -0.200 C  
HETATM   13  O   UNL     1     -11.731   6.168  69.745  1.00  0.00    -0.340 OA 
ENDROOT
BRANCH  12  14
HETATM   14  N   UNL     1     -11.116   9.284  68.913  1.00  0.00    -0.447 N  
HETATM   15  C   UNL     1     -11.202  10.337  68.029  1.00  0.00    -0.235 C  
HETATM   16  H   UNL     1     -11.619   9.355  69.798  1.00  0.00     0.000 HD 
HETATM   17  O   UNL     1     -10.575  10.346  66.973  1.00  0.00    -0.243 OA 
BRANCH  15  18
HETATM   18  C   UNL     1     -12.111  11.512  68.466  1.00  0.00    -0.088 C  
HETATM   19  C   UNL     1     -11.892  11.846  69.945  1.00  0.00    -0.418 C  
BRANCH  18  20
HETATM   20  O   UNL     1     -11.803  12.635  67.635  1.00  0.00    -0.357 OA 
BRANCH  20  21
HETATM   21  C   UNL     1     -11.204  13.719  68.223  1.00  0.00    -0.273 A  
HETATM   22  C   UNL     1     -11.865  14.759  68.881  1.00  0.00    -0.331 A  
HETATM   23  C   UNL     1     -11.142  15.786  69.495  1.00  0.00    -0.306 A  
HETATM   24  C   UNL     1      -9.751  15.792  69.445  1.00  0.00    -0.286 A  
HETATM   25  C   UNL     1      -9.082  14.764  68.786  1.00  0.00    -0.191 A  
HETATM   26  C   UNL     1      -9.807  13.727  68.187  1.00  0.00    -0.239 A  
ENDBRANCH  20  21
ENDBRANCH  18  20
ENDBRANCH  15  18
ENDBRANCH  12  14
TORSDOF 4
ENDMDL
MODEL      102
REMARK 921   NORMALIZED FREE ENERGY PREDICTED BY IDOCK:   -4.50 KCAL/MOL
REMARK 922        TOTAL FREE ENERGY PREDICTED BY IDOCK:   -6.33 KCAL/MOL
REMARK 923 INTER-LIGAND FREE ENERGY PREDICTED BY IDOCK:   -5.65 KCAL/MOL
REMARK 924 INTRA-LIGAND FREE ENERGY PREDICTED BY IDOCK:   -0.68 KCAL/MOL
REMARK 927      BINDING AFFINITY PREDICTED BY RF-SCORE:    0.00 PKD
ROOT
HETATM    1  C   UNL     1     -10.392  14.746  67.070  1.00  0.00    -0.255 C  
HETATM    2  S   UNL     1     -11.982  13.902  67.475  1.00  0.00    -0.344 SA 
HETATM    3  C   UNL     1     -11.583  13.674  69.271  1.00  0.00    -0.311 C  
HETATM    4  CA  UNL     1     -10.483  14.723  69.579  1.00  0.00    -0.152 C  
HETATM    5  C   UNL     1     -11.065  12.232  69.451  1.00  0.00    -0.166 C  
HETATM    6  C   UNL     1     -12.870  13.791  70.094  1.00  0.00    -0.017 C  
HETATM    7  N   UNL     1      -9.674  14.882  68.353  1.00  0.00    -0.204 N  
HETATM    8  C   UNL     1     -11.001  16.115  69.999  1.00  0.00    -0.364 C  
HETATM    9  C   UNL     1      -8.730  13.931  68.031  1.00  0.00    -0.183 C  
HETATM   10  OXT UNL     1     -11.790  16.326  70.901  1.00  0.00    -0.341 OA 
HETATM   11  O   UNL     1     -10.426  17.136  69.308  1.00  0.00    -0.337 OA 
HETATM   12  CA  UNL     1      -9.242  13.839  66.557  1.00  0.00    -0.192 C  
HETATM   13  O   UNL     1      -7.959  13.337  68.748  1.00  0.00    -0.084 OA 
ENDROOT
BRANCH  12  14
HETATM   14  N   UNL     1      -9.677  12.498  66.080  1.00  0.00    -0.287 N  
HETATM   15  C   UNL     1      -8.833  11.413  65.984  1.00  0.00    -0.174 C  
HETATM   16  H   UNL     1     -10.653  12.376  65.809  1.00  0.00     0.000 HD 
HETATM   17  O   UNL     1      -7.635  11.504  66.234  1.00  0.00    -0.048 OA 
BRANCH  15  18
HETATM   18  C   UNL     1      -9.488  10.091  65.514  1.00  0.00    -0.237 C  
HETATM   19  C   UNL     1      -9.389   9.948  63.992  1.00  0.00    -0.280 C  
BRANCH  18  20
HETATM   20  O   UNL     1      -8.817   9.013  66.175  1.00  0.00    -0.146 OA 
BRANCH  20  21
HETATM   21  C   UNL     1      -9.545   8.249  67.049  1.00  0.00    -0.191 A  
HETATM   22  C   UNL     1      -9.813   8.567  68.382  1.00  0.00    -0.189 A  
HETATM   23  C   UNL     1     -10.619   7.735  69.165  1.00  0.00    -0.193 A  
HETATM   24  C   UNL     1     -11.154   6.568  68.627  1.00  0.00    -0.348 A  
HETATM   25  C   UNL     1     -10.888   6.237  67.301  1.00  0.00    -0.457 A  
HETATM   26  C   UNL     1     -10.095   7.081  66.514  1.00  0.00    -0.149 A  
ENDBRANCH  20  21
ENDBRANCH  18  20
ENDBRANCH  15  18
ENDBRANCH  12  14
TORSDOF 4
ENDMDL
MODEL      103
REMARK 921   NORMALIZED FREE ENERGY PREDICTED BY IDOCK:   -4.49 KCAL/MOL
REMARK 922        TOTAL FREE ENERGY PREDICTED BY IDOCK:   -6.32 KCAL/MOL
REMARK 923 INTER-LIGAND FREE ENERGY PREDICTED BY IDOCK:   -5.45 KCAL/MOL
REMARK 924 INTRA-LIGAND FREE ENERGY PREDICTED BY IDOCK:   -0.87 KCAL/MOL
REMARK 927      BINDING AFFINITY PREDICTED BY RF-SCORE:    0.00 PKD
ROOT
HETATM    1  C   UNL     1      -7.943   9.740  68.829  1.00  0.00    -0.087 C  
HETATM    2  S   UNL     1      -9.724   9.293  69.001  1.00  0.00    -0.167 SA 
HETATM    3  C   UNL     1      -9.705   8.050  67.626  1.00  0.00    -0.158 C  
HETATM    4  CA  UNL     1      -8.215   7.657  67.454  1.00  0.00    -0.116 C  
HETATM    5  C   UNL     1     -10.264   8.745  66.367  1.00  0.00    -0.256 C  
HETATM    6  C   UNL     1     -10.665   6.905  67.966  1.00  0.00    -0.276 C  
HETATM    7  N   UNL     1      -7.407   8.850  67.778  1.00  0.00    -0.084 N  
HETATM    8  C   UNL     1      -7.734   6.492  68.345  1.00  0.00    -0.105 C  
HETATM    9  C   UNL     1      -7.287   9.865  66.853  1.00  0.00    -0.091 C  
HETATM   10  OXT UNL     1      -8.263   5.398  68.412  1.00  0.00    -0.094 OA 
HETATM   11  O   UNL     1      -6.584   6.766  69.018  1.00  0.00    -0.038 OA 
HETATM   12  CA  UNL     1      -7.623  10.957  67.921  1.00  0.00    -0.095 C  
HETATM   13  O   UNL     1      -7.143   9.801  65.654  1.00  0.00    -0.096 OA 
ENDROOT
BRANCH  12  14
HETATM   14  N   UNL     1      -8.787  11.838  67.635  1.00  0.00    -0.157 N  
HETATM   15  C   UNL     1      -8.818  13.182  67.939  1.00  0.00    -0.196 C  
HETATM   16  H   UNL     1      -9.607  11.426  67.189  1.00  0.00     0.000 HD 
HETATM   17  O   UNL     1      -7.892  13.731  68.530  1.00  0.00    -0.132 OA 
BRANCH  15  18
HETATM   18  C   UNL     1     -10.100  13.939  67.516  1.00  0.00    -0.244 C  
HETATM   19  C   UNL     1     -10.290  15.201  68.362  1.00  0.00    -0.229 C  
BRANCH  18  20
HETATM   20  O   UNL     1      -9.976  14.266  66.128  1.00  0.00    -0.290 OA 
BRANCH  20  21
HETATM   21  C   UNL     1     -10.691  13.519  65.229  1.00  0.00    -0.323 A  
HETATM   22  C   UNL     1     -10.154  12.788  64.167  1.00  0.00    -0.260 A  
HETATM   23  C   UNL     1     -10.979  12.012  63.347  1.00  0.00    -0.475 A  
HETATM   24  C   UNL     1     -12.351  11.971  63.571  1.00  0.00    -0.661 A  
HETATM   25  C   UNL     1     -12.899  12.701  64.623  1.00  0.00    -0.361 A  
HETATM   26  C   UNL     1     -12.069  13.463  65.454  1.00  0.00    -0.457 A  
ENDBRANCH  20  21
ENDBRANCH  18  20
ENDBRANCH  15  18
ENDBRANCH  12  14
TORSDOF 4
ENDMDL
MODEL      104
REMARK 921   NORMALIZED FREE ENERGY PREDICTED BY IDOCK:   -4.44 KCAL/MOL
REMARK 922        TOTAL FREE ENERGY PREDICTED BY IDOCK:   -6.26 KCAL/MOL
REMARK 923 INTER-LIGAND FREE ENERGY PREDICTED BY IDOCK:   -5.53 KCAL/MOL
REMARK 924 INTRA-LIGAND FREE ENERGY PREDICTED BY IDOCK:   -0.72 KCAL/MOL
REMARK 927      BINDING AFFINITY PREDICTED BY RF-SCORE:    0.00 PKD
ROOT
HETATM    1  C   UNL     1      -9.547   9.015  65.978  1.00  0.00    -0.272 C  
HETATM    2  S   UNL     1      -8.570  10.245  66.943  1.00  0.00    -0.126 SA 
HETATM    3  C   UNL     1      -6.922   9.602  66.390  1.00  0.00    -0.088 C  
HETATM    4  CA  UNL     1      -7.210   8.817  65.084  1.00  0.00    -0.087 C  
HETATM    5  C   UNL     1      -6.386   8.681  67.506  1.00  0.00    -0.057 C  
HETATM    6  C   UNL     1      -5.938  10.770  66.266  1.00  0.00    -0.126 C  
HETATM    7  N   UNL     1      -8.558   8.226  65.216  1.00  0.00    -0.161 N  
HETATM    8  C   UNL     1      -7.176   9.657  63.790  1.00  0.00    -0.114 C  
HETATM    9  C   UNL     1      -8.735   7.094  65.982  1.00  0.00    -0.147 C  
HETATM   10  OXT UNL     1      -6.253  10.368  63.441  1.00  0.00    -0.142 OA 
HETATM   11  O   UNL     1      -8.268   9.475  62.999  1.00  0.00    -0.140 OA 
HETATM   12  CA  UNL     1      -9.957   7.720  66.729  1.00  0.00    -0.261 C  
HETATM   13  O   UNL     1      -8.036   6.112  66.077  1.00  0.00    -0.102 OA 
ENDROOT
BRANCH  12  14
HETATM   14  N   UNL     1      -9.865   7.808  68.211  1.00  0.00    -0.162 N  
HETATM   15  C   UNL     1     -10.408   6.872  69.065  1.00  0.00    -0.192 C  
HETATM   16  H   UNL     1      -9.373   8.604  68.617  1.00  0.00     0.000 HD 
HETATM   17  O   UNL     1     -11.064   5.922  68.649  1.00  0.00    -0.284 OA 
BRANCH  15  18
HETATM   18  C   UNL     1     -10.160   7.116  70.575  1.00  0.00    -0.195 C  
HETATM   19  C   UNL     1      -9.018   6.233  71.086  1.00  0.00    -0.146 C  
BRANCH  18  20
HETATM   20  O   UNL     1      -9.854   8.503  70.748  1.00  0.00    -0.170 OA 
BRANCH  20  21
HETATM   21  C   UNL     1     -10.890   9.357  71.019  1.00  0.00    -0.336 A  
HETATM   22  C   UNL     1     -11.132  10.575  70.380  1.00  0.00    -0.321 A  
HETATM   23  C   UNL     1     -12.259  11.337  70.702  1.00  0.00    -0.489 A  
HETATM   24  C   UNL     1     -13.149  10.897  71.677  1.00  0.00    -0.538 A  
HETATM   25  C   UNL     1     -12.914   9.687  72.326  1.00  0.00    -0.440 A  
HETATM   26  C   UNL     1     -11.795   8.917  71.990  1.00  0.00    -0.438 A  
ENDBRANCH  20  21
ENDBRANCH  18  20
ENDBRANCH  15  18
ENDBRANCH  12  14
TORSDOF 4
ENDMDL
MODEL      105
REMARK 921   NORMALIZED FREE ENERGY PREDICTED BY IDOCK:   -4.38 KCAL/MOL
REMARK 922        TOTAL FREE ENERGY PREDICTED BY IDOCK:   -6.18 KCAL/MOL
REMARK 923 INTER-LIGAND FREE ENERGY PREDICTED BY IDOCK:   -5.47 KCAL/MOL
REMARK 924 INTRA-LIGAND FREE ENERGY PREDICTED BY IDOCK:   -0.72 KCAL/MOL
REMARK 927      BINDING AFFINITY PREDICTED BY RF-SCORE:    0.00 PKD
ROOT
HETATM    1  C   UNL     1      -7.531  10.466  65.980  1.00  0.00    -0.134 C  
HETATM    2  S   UNL     1      -7.163  11.457  67.492  1.00  0.00    -0.115 SA 
HETATM    3  C   UNL     1      -8.055  10.314  68.647  1.00  0.00    -0.114 C  
HETATM    4  CA  UNL     1      -8.139   8.960  67.895  1.00  0.00    -0.106 C  
HETATM    5  C   UNL     1      -9.453  10.914  68.903  1.00  0.00    -0.182 C  
HETATM    6  C   UNL     1      -7.328  10.287  69.995  1.00  0.00    -0.157 C  
HETATM    7  N   UNL     1      -8.250   9.266  66.454  1.00  0.00    -0.110 N  
HETATM    8  C   UNL     1      -6.932   8.019  68.096  1.00  0.00    -0.077 C  
HETATM    9  C   UNL     1      -9.459   9.674  65.934  1.00  0.00    -0.236 C  
HETATM   10  OXT UNL     1      -6.493   7.666  69.174  1.00  0.00    -0.038 OA 
HETATM   11  O   UNL     1      -6.424   7.535  66.931  1.00  0.00    -0.053 OA 
HETATM   12  CA  UNL     1      -8.798  10.874  65.182  1.00  0.00    -0.156 C  
HETATM   13  O   UNL     1     -10.576   9.278  66.178  1.00  0.00    -0.052 OA 
ENDROOT
BRANCH  12  14
HETATM   14  N   UNL     1      -9.317  12.232  65.497  1.00  0.00    -0.438 N  
HETATM   15  C   UNL     1     -10.409  12.794  64.871  1.00  0.00    -0.309 C  
HETATM   16  H   UNL     1      -8.840  12.777  66.215  1.00  0.00     0.000 HD 
HETATM   17  O   UNL     1     -10.995  12.221  63.957  1.00  0.00    -0.318 OA 
BRANCH  15  18
HETATM   18  C   UNL     1     -10.825  14.198  65.375  1.00  0.00    -0.337 C  
HETATM   19  C   UNL     1     -12.214  14.154  66.019  1.00  0.00    -0.464 C  
BRANCH  18  20
HETATM   20  O   UNL     1      -9.838  14.633  66.316  1.00  0.00    -0.271 OA 
BRANCH  20  21
HETATM   21  C   UNL     1      -9.827  15.960  66.662  1.00  0.00    -0.254 A  
HETATM   22  C   UNL     1     -10.181  17.023  65.828  1.00  0.00    -0.262 A  
HETATM   23  C   UNL     1     -10.186  18.335  66.311  1.00  0.00    -0.414 A  
HETATM   24  C   UNL     1      -9.824  18.599  67.629  1.00  0.00    -0.351 A  
HETATM   25  C   UNL     1      -9.462  17.548  68.467  1.00  0.00    -0.296 A  
HETATM   26  C   UNL     1      -9.475  16.233  67.986  1.00  0.00    -0.223 A  
ENDBRANCH  20  21
ENDBRANCH  18  20
ENDBRANCH  15  18
ENDBRANCH  12  14
TORSDOF 4
ENDMDL
MODEL      106
REMARK 921   NORMALIZED FREE ENERGY PREDICTED BY IDOCK:   -4.38 KCAL/MOL
REMARK 922        TOTAL FREE ENERGY PREDICTED BY IDOCK:   -6.18 KCAL/MOL
REMARK 923 INTER-LIGAND FREE ENERGY PREDICTED BY IDOCK:   -5.46 KCAL/MOL
REMARK 924 INTRA-LIGAND FREE ENERGY PREDICTED BY IDOCK:   -0.73 KCAL/MOL
REMARK 927      BINDING AFFINITY PREDICTED BY RF-SCORE:    0.00 PKD
ROOT
HETATM    1  C   UNL     1      -9.835   9.083  68.381  1.00  0.00    -0.166 C  
HETATM    2  S   UNL     1      -9.089  10.280  67.193  1.00  0.00    -0.142 SA 
HETATM    3  C   UNL     1      -7.363  10.083  67.839  1.00  0.00    -0.088 C  
HETATM    4  CA  UNL     1      -7.359   8.720  68.579  1.00  0.00    -0.085 C  
HETATM    5  C   UNL     1      -7.091  11.258  68.800  1.00  0.00    -0.096 C  
HETATM    6  C   UNL     1      -6.370  10.217  66.679  1.00  0.00    -0.072 C  
HETATM    7  N   UNL     1      -8.706   8.533  69.157  1.00  0.00    -0.133 N  
HETATM    8  C   UNL     1      -7.037   7.494  67.700  1.00  0.00    -0.085 C  
HETATM    9  C   UNL     1      -9.053   9.203  70.310  1.00  0.00    -0.218 C  
HETATM   10  OXT UNL     1      -6.056   7.381  66.989  1.00  0.00    -0.042 OA 
HETATM   11  O   UNL     1      -7.928   6.476  67.844  1.00  0.00    -0.107 OA 
HETATM   12  CA  UNL     1     -10.407   9.682  69.694  1.00  0.00    -0.227 C  
HETATM   13  O   UNL     1      -8.397   9.417  71.304  1.00  0.00    -0.308 OA 
ENDROOT
BRANCH  12  14
HETATM   14  N   UNL     1     -10.644  11.151  69.653  1.00  0.00    -0.454 N  
HETATM   15  C   UNL     1     -11.768  11.726  69.101  1.00  0.00    -0.325 C  
HETATM   16  H   UNL     1      -9.935  11.765  70.054  1.00  0.00     0.000 HD 
HETATM   17  O   UNL     1     -12.632  11.052  68.547  1.00  0.00    -0.202 OA 
BRANCH  15  18
HETATM   18  C   UNL     1     -11.852  13.269  69.202  1.00  0.00    -0.329 C  
HETATM   19  C   UNL     1     -12.375  13.696  70.576  1.00  0.00    -0.425 C  
BRANCH  18  20
HETATM   20  O   UNL     1     -10.542  13.793  68.967  1.00  0.00    -0.219 OA 
BRANCH  20  21
HETATM   21  C   UNL     1     -10.396  14.729  67.976  1.00  0.00    -0.237 A  
HETATM   22  C   UNL     1      -9.919  16.031  68.148  1.00  0.00    -0.228 A  
HETATM   23  C   UNL     1      -9.759  16.881  67.049  1.00  0.00    -0.255 A  
HETATM   24  C   UNL     1     -10.086  16.443  65.769  1.00  0.00    -0.352 A  
HETATM   25  C   UNL     1     -10.569  15.150  65.587  1.00  0.00    -0.370 A  
HETATM   26  C   UNL     1     -10.712  14.295  66.686  1.00  0.00    -0.290 A  
ENDBRANCH  20  21
ENDBRANCH  18  20
ENDBRANCH  15  18
ENDBRANCH  12  14
TORSDOF 4
ENDMDL
MODEL      107
REMARK 921   NORMALIZED FREE ENERGY PREDICTED BY IDOCK:   -4.35 KCAL/MOL
REMARK 922        TOTAL FREE ENERGY PREDICTED BY IDOCK:   -6.15 KCAL/MOL
REMARK 923 INTER-LIGAND FREE ENERGY PREDICTED BY IDOCK:   -6.35 KCAL/MOL
REMARK 924 INTRA-LIGAND FREE ENERGY PREDICTED BY IDOCK:    0.20 KCAL/MOL
REMARK 927      BINDING AFFINITY PREDICTED BY RF-SCORE:    0.00 PKD
ROOT
HETATM    1  C   UNL     1      -7.659  16.230  66.470  1.00  0.00    -0.183 C  
HETATM    2  S   UNL     1      -9.396  16.357  65.864  1.00  0.00    -0.136 SA 
HETATM    3  C   UNL     1      -9.765  17.927  66.778  1.00  0.00    -0.314 C  
HETATM    4  CA  UNL     1      -8.379  18.556  67.079  1.00  0.00    -0.255 C  
HETATM    5  C   UNL     1     -10.512  17.544  68.072  1.00  0.00    -0.387 C  
HETATM    6  C   UNL     1     -10.724  18.785  65.946  1.00  0.00    -0.323 C  
HETATM    7  N   UNL     1      -7.427  17.445  67.277  1.00  0.00    -0.182 N  
HETATM    8  C   UNL     1      -7.821  19.478  65.973  1.00  0.00    -0.308 C  
HETATM    9  C   UNL     1      -7.418  16.759  68.472  1.00  0.00    -0.213 C  
HETATM   10  OXT UNL     1      -8.412  20.424  65.487  1.00  0.00     0.102 OA 
HETATM   11  O   UNL     1      -6.539  19.189  65.625  1.00  0.00    -0.230 OA 
HETATM   12  CA  UNL     1      -7.435  15.375  67.745  1.00  0.00    -0.155 C  
HETATM   13  O   UNL     1      -7.531  17.178  69.601  1.00  0.00     0.097 OA 
ENDROOT
BRANCH  12  14
HETATM   14  N   UNL     1      -8.558  14.456  68.079  1.00  0.00    -0.157 N  
HETATM   15  C   UNL     1      -8.604  13.136  67.685  1.00  0.00    -0.193 C  
HETATM   16  H   UNL     1      -9.334  14.823  68.629  1.00  0.00     0.000 HD 
HETATM   17  O   UNL     1      -7.734  12.645  66.972  1.00  0.00    -0.123 OA 
BRANCH  15  18
HETATM   18  C   UNL     1      -9.832  12.330  68.175  1.00  0.00    -0.212 C  
HETATM   19  C   UNL     1     -11.041  13.250  68.370  1.00  0.00    -0.299 C  
BRANCH  18  20
HETATM   20  O   UNL     1     -10.108  11.320  67.201  1.00  0.00    -0.186 OA 
BRANCH  20  21
HETATM   21  C   UNL     1     -10.702  11.708  66.028  1.00  0.00    -0.280 A  
HETATM   22  C   UNL     1     -11.851  12.495  65.918  1.00  0.00    -0.489 A  
HETATM   23  C   UNL     1     -12.334  12.878  64.663  1.00  0.00    -0.501 A  
HETATM   24  C   UNL     1     -11.683  12.465  63.505  1.00  0.00    -0.592 A  
HETATM   25  C   UNL     1     -10.541  11.674  63.603  1.00  0.00    -0.493 A  
HETATM   26  C   UNL     1     -10.049  11.307  64.860  1.00  0.00    -0.333 A  
ENDBRANCH  20  21
ENDBRANCH  18  20
ENDBRANCH  15  18
ENDBRANCH  12  14
TORSDOF 4
ENDMDL
MODEL      108
REMARK 921   NORMALIZED FREE ENERGY PREDICTED BY IDOCK:   -4.34 KCAL/MOL
REMARK 922        TOTAL FREE ENERGY PREDICTED BY IDOCK:   -6.13 KCAL/MOL
REMARK 923 INTER-LIGAND FREE ENERGY PREDICTED BY IDOCK:   -6.00 KCAL/MOL
REMARK 924 INTRA-LIGAND FREE ENERGY PREDICTED BY IDOCK:   -0.13 KCAL/MOL
REMARK 927      BINDING AFFINITY PREDICTED BY RF-SCORE:    0.00 PKD
ROOT
HETATM    1  C   UNL     1      -9.865  13.298  68.512  1.00  0.00    -0.168 C  
HETATM    2  S   UNL     1      -8.586  14.075  67.434  1.00  0.00    -0.213 SA 
HETATM    3  C   UNL     1      -9.804  15.031  66.414  1.00  0.00    -0.272 C  
HETATM    4  CA  UNL     1     -11.084  15.118  67.286  1.00  0.00    -0.332 C  
HETATM    5  C   UNL     1     -10.048  14.234  65.117  1.00  0.00    -0.353 C  
HETATM    6  C   UNL     1      -9.181  16.370  66.005  1.00  0.00    -0.328 C  
HETATM    7  N   UNL     1     -11.154  13.878  68.085  1.00  0.00    -0.247 N  
HETATM    8  C   UNL     1     -11.141  16.319  68.254  1.00  0.00    -0.346 C  
HETATM    9  C   UNL     1     -11.588  12.710  67.496  1.00  0.00    -0.359 C  
HETATM   10  OXT UNL     1     -10.991  17.483  67.934  1.00  0.00    -0.323 OA 
HETATM   11  O   UNL     1     -11.460  15.970  69.529  1.00  0.00    -0.326 OA 
HETATM   12  CA  UNL     1     -10.380  11.902  68.072  1.00  0.00    -0.196 C  
HETATM   13  O   UNL     1     -12.487  12.534  66.706  1.00  0.00    -0.318 OA 
ENDROOT
BRANCH  12  14
HETATM   14  N   UNL     1      -9.510  11.203  67.088  1.00  0.00    -0.172 N  
HETATM   15  C   UNL     1      -8.609  10.218  67.432  1.00  0.00    -0.125 C  
HETATM   16  H   UNL     1      -9.584  11.467  66.105  1.00  0.00     0.000 HD 
HETATM   17  O   UNL     1      -8.424   9.893  68.601  1.00  0.00    -0.108 OA 
BRANCH  15  18
HETATM   18  C   UNL     1      -7.832   9.577  66.256  1.00  0.00    -0.100 C  
HETATM   19  C   UNL     1      -6.676   8.716  66.776  1.00  0.00    -0.069 C  
BRANCH  18  20
HETATM   20  O   UNL     1      -8.757   8.790  65.500  1.00  0.00    -0.166 OA 
BRANCH  20  21
HETATM   21  C   UNL     1      -9.294   7.681  66.100  1.00  0.00    -0.080 A  
HETATM   22  C   UNL     1     -10.445   7.659  66.892  1.00  0.00    -0.388 A  
HETATM   23  C   UNL     1     -10.932   6.454  67.407  1.00  0.00    -0.463 A  
HETATM   24  C   UNL     1     -10.267   5.260  67.146  1.00  0.00    -0.264 A  
HETATM   25  C   UNL     1      -9.114   5.271  66.364  1.00  0.00    -0.137 A  
HETATM   26  C   UNL     1      -8.638   6.476  65.836  1.00  0.00    -0.153 A  
ENDBRANCH  20  21
ENDBRANCH  18  20
ENDBRANCH  15  18
ENDBRANCH  12  14
TORSDOF 4
ENDMDL
MODEL      109
REMARK 921   NORMALIZED FREE ENERGY PREDICTED BY IDOCK:   -4.32 KCAL/MOL
REMARK 922        TOTAL FREE ENERGY PREDICTED BY IDOCK:   -6.11 KCAL/MOL
REMARK 923 INTER-LIGAND FREE ENERGY PREDICTED BY IDOCK:   -6.29 KCAL/MOL
REMARK 924 INTRA-LIGAND FREE ENERGY PREDICTED BY IDOCK:    0.18 KCAL/MOL
REMARK 927      BINDING AFFINITY PREDICTED BY RF-SCORE:    0.00 PKD
ROOT
HETATM    1  C   UNL     1      -7.788  17.096  66.228  1.00  0.00    -0.316 C  
HETATM    2  S   UNL     1      -8.991  18.453  65.890  1.00  0.00     0.428 SA 
HETATM    3  C   UNL     1      -9.212  18.911  67.673  1.00  0.00    -0.286 C  
HETATM    4  CA  UNL     1      -7.957  18.354  68.394  1.00  0.00    -0.307 C  
HETATM    5  C   UNL     1     -10.506  18.231  68.168  1.00  0.00    -0.359 C  
HETATM    6  C   UNL     1      -9.433  20.423  67.783  1.00  0.00    -0.424 C  
HETATM    7  N   UNL     1      -7.556  17.121  67.686  1.00  0.00    -0.165 N  
HETATM    8  C   UNL     1      -6.742  19.306  68.429  1.00  0.00    -0.263 C  
HETATM    9  C   UNL     1      -8.250  15.951  67.908  1.00  0.00    -0.145 C  
HETATM   10  OXT UNL     1      -6.763  20.452  68.837  1.00  0.00    -0.258 OA 
HETATM   11  O   UNL     1      -5.584  18.718  68.026  1.00  0.00    -0.184 OA 
HETATM   12  CA  UNL     1      -8.382  15.670  66.376  1.00  0.00    -0.180 C  
HETATM   13  O   UNL     1      -8.688  15.500  68.942  1.00  0.00    -0.174 OA 
ENDROOT
BRANCH  12  14
HETATM   14  N   UNL     1      -9.761  15.515  65.839  1.00  0.00    -0.337 N  
HETATM   15  C   UNL     1     -10.255  14.330  65.338  1.00  0.00    -0.371 C  
HETATM   16  H   UNL     1     -10.374  16.330  65.841  1.00  0.00     0.000 HD 
HETATM   17  O   UNL     1      -9.554  13.325  65.249  1.00  0.00    -0.025 OA 
BRANCH  15  18
HETATM   18  C   UNL     1     -11.731  14.359  64.872  1.00  0.00    -0.408 C  
HETATM   19  C   UNL     1     -12.122  13.026  64.226  1.00  0.00    -0.480 C  
BRANCH  18  20
HETATM   20  O   UNL     1     -12.544  14.631  66.018  1.00  0.00    -0.184 OA 
BRANCH  20  21
HETATM   21  C   UNL     1     -12.236  13.988  67.188  1.00  0.00    -0.321 A  
HETATM   22  C   UNL     1     -11.882  12.642  67.310  1.00  0.00    -0.395 A  
HETATM   23  C   UNL     1     -11.531  12.108  68.553  1.00  0.00    -0.349 A  
HETATM   24  C   UNL     1     -11.543  12.910  69.690  1.00  0.00    -0.318 A  
HETATM   25  C   UNL     1     -11.901  14.252  69.582  1.00  0.00    -0.370 A  
HETATM   26  C   UNL     1     -12.236  14.789  68.333  1.00  0.00    -0.098 A  
ENDBRANCH  20  21
ENDBRANCH  18  20
ENDBRANCH  15  18
ENDBRANCH  12  14
TORSDOF 4
ENDMDL
MODEL      110
REMARK 921   NORMALIZED FREE ENERGY PREDICTED BY IDOCK:   -4.31 KCAL/MOL
REMARK 922        TOTAL FREE ENERGY PREDICTED BY IDOCK:   -6.10 KCAL/MOL
REMARK 923 INTER-LIGAND FREE ENERGY PREDICTED BY IDOCK:   -6.05 KCAL/MOL
REMARK 924 INTRA-LIGAND FREE ENERGY PREDICTED BY IDOCK:   -0.05 KCAL/MOL
REMARK 927      BINDING AFFINITY PREDICTED BY RF-SCORE:    0.00 PKD
ROOT
HETATM    1  C   UNL     1      -9.497  12.433  68.390  1.00  0.00    -0.169 C  
HETATM    2  S   UNL     1      -9.299  12.867  66.609  1.00  0.00    -0.217 SA 
HETATM    3  C   UNL     1     -11.017  13.539  66.422  1.00  0.00    -0.293 C  
HETATM    4  CA  UNL     1     -11.477  13.883  67.863  1.00  0.00    -0.318 C  
HETATM    5  C   UNL     1     -11.883  12.428  65.794  1.00  0.00    -0.467 C  
HETATM    6  C   UNL     1     -10.998  14.706  65.428  1.00  0.00    -0.358 C  
HETATM    7  N   UNL     1     -10.844  12.904  68.770  1.00  0.00    -0.253 N  
HETATM    8  C   UNL     1     -11.109  15.301  68.350  1.00  0.00    -0.287 C  
HETATM    9  C   UNL     1     -11.361  11.630  68.867  1.00  0.00    -0.267 C  
HETATM   10  OXT UNL     1     -11.373  16.333  67.763  1.00  0.00    -0.227 OA 
HETATM   11  O   UNL     1     -10.512  15.313  69.573  1.00  0.00    -0.233 OA 
HETATM   12  CA  UNL     1      -9.949  10.982  68.700  1.00  0.00    -0.199 C  
HETATM   13  O   UNL     1     -12.515  11.268  68.895  1.00  0.00    -0.433 OA 
ENDROOT
BRANCH  12  14
HETATM   14  N   UNL     1      -9.779  10.026  67.572  1.00  0.00    -0.156 N  
HETATM   15  C   UNL     1      -8.785   9.072  67.525  1.00  0.00    -0.119 C  
HETATM   16  H   UNL     1     -10.433  10.080  66.791  1.00  0.00     0.000 HD 
HETATM   17  O   UNL     1      -7.928   8.990  68.400  1.00  0.00    -0.102 OA 
BRANCH  15  18
HETATM   18  C   UNL     1      -8.806   8.139  66.289  1.00  0.00    -0.164 C  
HETATM   19  C   UNL     1      -7.474   7.398  66.146  1.00  0.00    -0.083 C  
BRANCH  18  20
HETATM   20  O   UNL     1      -9.889   7.219  66.456  1.00  0.00    -0.193 OA 
BRANCH  20  21
HETATM   21  C   UNL     1      -9.908   6.454  67.593  1.00  0.00    -0.121 A  
HETATM   22  C   UNL     1      -8.944   5.512  67.958  1.00  0.00    -0.108 A  
HETATM   23  C   UNL     1      -9.039   4.830  69.175  1.00  0.00    -0.155 A  
HETATM   24  C   UNL     1     -10.107   5.073  70.034  1.00  0.00    -0.342 A  
HETATM   25  C   UNL     1     -11.078   6.006  69.677  1.00  0.00    -0.474 A  
HETATM   26  C   UNL     1     -10.971   6.699  68.466  1.00  0.00    -0.314 A  
ENDBRANCH  20  21
ENDBRANCH  18  20
ENDBRANCH  15  18
ENDBRANCH  12  14
TORSDOF 4
ENDMDL
MODEL      111
REMARK 921   NORMALIZED FREE ENERGY PREDICTED BY IDOCK:   -4.31 KCAL/MOL
REMARK 922        TOTAL FREE ENERGY PREDICTED BY IDOCK:   -6.09 KCAL/MOL
REMARK 923 INTER-LIGAND FREE ENERGY PREDICTED BY IDOCK:   -5.98 KCAL/MOL
REMARK 924 INTRA-LIGAND FREE ENERGY PREDICTED BY IDOCK:   -0.11 KCAL/MOL
REMARK 927      BINDING AFFINITY PREDICTED BY RF-SCORE:    0.00 PKD
ROOT
HETATM    1  C   UNL     1     -11.457  13.349  66.819  1.00  0.00    -0.343 C  
HETATM    2  S   UNL     1      -9.781  13.393  66.049  1.00  0.00    -0.162 SA 
HETATM    3  C   UNL     1      -8.927  12.606  67.493  1.00  0.00    -0.187 C  
HETATM    4  CA  UNL     1     -10.045  11.869  68.275  1.00  0.00    -0.203 C  
HETATM    5  C   UNL     1      -8.293  13.737  68.329  1.00  0.00    -0.161 C  
HETATM    6  C   UNL     1      -7.777  11.730  66.985  1.00  0.00    -0.158 C  
HETATM    7  N   UNL     1     -11.285  12.656  68.112  1.00  0.00    -0.250 N  
HETATM    8  C   UNL     1     -10.328  10.423  67.814  1.00  0.00    -0.206 C  
HETATM    9  C   UNL     1     -11.467  13.803  68.855  1.00  0.00    -0.304 C  
HETATM   10  OXT UNL     1      -9.492   9.545  67.711  1.00  0.00    -0.131 OA 
HETATM   11  O   UNL     1     -11.647  10.174  67.597  1.00  0.00    -0.204 OA 
HETATM   12  CA  UNL     1     -11.893  14.621  67.593  1.00  0.00    -0.337 C  
HETATM   13  O   UNL     1     -11.200  14.020  70.014  1.00  0.00    -0.156 OA 
ENDROOT
BRANCH  12  14
HETATM   14  N   UNL     1     -11.095  15.838  67.282  1.00  0.00    -0.264 N  
HETATM   15  C   UNL     1     -10.816  16.823  68.206  1.00  0.00    -0.366 C  
HETATM   16  H   UNL     1     -10.734  15.950  66.335  1.00  0.00     0.000 HD 
HETATM   17  O   UNL     1     -11.268  16.784  69.346  1.00  0.00    -0.182 OA 
BRANCH  15  18
HETATM   18  C   UNL     1      -9.927  17.986  67.701  1.00  0.00    -0.329 C  
HETATM   19  C   UNL     1      -9.815  19.083  68.764  1.00  0.00    -0.485 C  
BRANCH  18  20
HETATM   20  O   UNL     1      -8.640  17.446  67.386  1.00  0.00    -0.211 OA 
BRANCH  20  21
HETATM   21  C   UNL     1      -7.673  18.312  66.947  1.00  0.00    -0.224 A  
HETATM   22  C   UNL     1      -7.849  19.315  65.991  1.00  0.00    -0.274 A  
HETATM   23  C   UNL     1      -6.801  20.180  65.665  1.00  0.00    -0.314 A  
HETATM   24  C   UNL     1      -5.561  20.044  66.281  1.00  0.00    -0.187 A  
HETATM   25  C   UNL     1      -5.371  19.043  67.231  1.00  0.00    -0.154 A  
HETATM   26  C   UNL     1      -6.428  18.189  67.569  1.00  0.00    -0.192 A  
ENDBRANCH  20  21
ENDBRANCH  18  20
ENDBRANCH  15  18
ENDBRANCH  12  14
TORSDOF 4
ENDMDL
MODEL      112
REMARK 921   NORMALIZED FREE ENERGY PREDICTED BY IDOCK:   -4.29 KCAL/MOL
REMARK 922        TOTAL FREE ENERGY PREDICTED BY IDOCK:   -6.08 KCAL/MOL
REMARK 923 INTER-LIGAND FREE ENERGY PREDICTED BY IDOCK:   -5.24 KCAL/MOL
REMARK 924 INTRA-LIGAND FREE ENERGY PREDICTED BY IDOCK:   -0.84 KCAL/MOL
REMARK 927      BINDING AFFINITY PREDICTED BY RF-SCORE:    0.00 PKD
ROOT
HETATM    1  C   UNL     1     -10.009   8.584  69.742  1.00  0.00    -0.191 C  
HETATM    2  S   UNL     1     -11.210   7.184  69.751  1.00  0.00    -0.123 SA 
HETATM    3  C   UNL     1     -11.740   7.447  71.508  1.00  0.00    -0.284 C  
HETATM    4  CA  UNL     1     -11.360   8.915  71.832  1.00  0.00    -0.376 C  
HETATM    5  C   UNL     1     -10.956   6.446  72.382  1.00  0.00    -0.284 C  
HETATM    6  C   UNL     1     -13.224   7.093  71.647  1.00  0.00    -0.403 C  
HETATM    7  N   UNL     1     -10.138   9.231  71.063  1.00  0.00    -0.294 N  
HETATM    8  C   UNL     1     -12.435   9.966  71.481  1.00  0.00    -0.411 C  
HETATM    9  C   UNL     1      -8.916   8.776  71.507  1.00  0.00    -0.236 C  
HETATM   10  OXT UNL     1     -13.593   9.932  71.852  1.00  0.00    -0.367 OA 
HETATM   11  O   UNL     1     -11.951  11.014  70.762  1.00  0.00    -0.333 OA 
HETATM   12  CA  UNL     1      -8.538   8.231  70.091  1.00  0.00    -0.128 C  
HETATM   13  O   UNL     1      -8.478   8.718  72.633  1.00  0.00    -0.413 OA 
ENDROOT
BRANCH  12  14
HETATM   14  N   UNL     1      -8.209   6.783  69.995  1.00  0.00    -0.131 N  
HETATM   15  C   UNL     1      -7.335   6.261  69.065  1.00  0.00    -0.085 C  
HETATM   16  H   UNL     1      -8.654   6.143  70.652  1.00  0.00     0.000 HD 
HETATM   17  O   UNL     1      -6.811   6.964  68.206  1.00  0.00    -0.068 OA 
BRANCH  15  18
HETATM   18  C   UNL     1      -7.086   4.736  69.160  1.00  0.00    -0.052 C  
HETATM   19  C   UNL     1      -6.558   4.357  70.547  1.00  0.00    -0.035 C  
BRANCH  18  20
HETATM   20  O   UNL     1      -8.324   4.073  68.884  1.00  0.00    -0.076 OA 
BRANCH  20  21
HETATM   21  C   UNL     1      -8.762   4.053  67.585  1.00  0.00    -0.105 A  
HETATM   22  C   UNL     1      -9.952   4.614  67.117  1.00  0.00    -0.215 A  
HETATM   23  C   UNL     1     -10.267   4.582  65.756  1.00  0.00    -0.289 A  
HETATM   24  C   UNL     1      -9.403   3.976  64.849  1.00  0.00    -0.163 A  
HETATM   25  C   UNL     1      -8.216   3.407  65.306  1.00  0.00    -0.097 A  
HETATM   26  C   UNL     1      -7.894   3.456  66.667  1.00  0.00    -0.081 A  
ENDBRANCH  20  21
ENDBRANCH  18  20
ENDBRANCH  15  18
ENDBRANCH  12  14
TORSDOF 4
ENDMDL
MODEL      113
REMARK 921   NORMALIZED FREE ENERGY PREDICTED BY IDOCK:   -4.28 KCAL/MOL
REMARK 922        TOTAL FREE ENERGY PREDICTED BY IDOCK:   -6.06 KCAL/MOL
REMARK 923 INTER-LIGAND FREE ENERGY PREDICTED BY IDOCK:   -4.92 KCAL/MOL
REMARK 924 INTRA-LIGAND FREE ENERGY PREDICTED BY IDOCK:   -1.14 KCAL/MOL
REMARK 927      BINDING AFFINITY PREDICTED BY RF-SCORE:    0.00 PKD
ROOT
HETATM    1  C   UNL     1      -9.938   8.452  69.801  1.00  0.00    -0.191 C  
HETATM    2  S   UNL     1     -11.156   7.068  69.873  1.00  0.00    -0.245 SA 
HETATM    3  C   UNL     1     -11.709   7.439  71.604  1.00  0.00    -0.279 C  
HETATM    4  CA  UNL     1     -11.316   8.919  71.847  1.00  0.00    -0.376 C  
HETATM    5  C   UNL     1     -10.950   6.483  72.547  1.00  0.00    -0.281 C  
HETATM    6  C   UNL     1     -13.200   7.111  71.740  1.00  0.00    -0.355 C  
HETATM    7  N   UNL     1     -10.080   9.176  71.080  1.00  0.00    -0.294 N  
HETATM    8  C   UNL     1     -12.373   9.960  71.420  1.00  0.00    -0.404 C  
HETATM    9  C   UNL     1      -8.869   8.734  71.569  1.00  0.00    -0.225 C  
HETATM   10  OXT UNL     1     -13.537   9.961  71.774  1.00  0.00    -0.347 OA 
HETATM   11  O   UNL     1     -11.867  10.959  70.648  1.00  0.00    -0.327 OA 
HETATM   12  CA  UNL     1      -8.477   8.104  70.194  1.00  0.00    -0.127 C  
HETATM   13  O   UNL     1      -8.450   8.738  72.704  1.00  0.00    -0.413 OA 
ENDROOT
BRANCH  12  14
HETATM   14  N   UNL     1      -8.164   6.649  70.187  1.00  0.00    -0.131 N  
HETATM   15  C   UNL     1      -6.886   6.145  70.294  1.00  0.00    -0.054 C  
HETATM   16  H   UNL     1      -8.937   5.990  70.098  1.00  0.00     0.000 HD 
HETATM   17  O   UNL     1      -5.904   6.880  70.344  1.00  0.00    -0.023 OA 
BRANCH  15  18
HETATM   18  C   UNL     1      -6.772   4.601  70.318  1.00  0.00    -0.036 C  
HETATM   19  C   UNL     1      -5.505   4.139  69.593  1.00  0.00    -0.015 C  
BRANCH  18  20
HETATM   20  O   UNL     1      -6.759   4.186  71.688  1.00  0.00    -0.025 OA 
BRANCH  20  21
HETATM   21  C   UNL     1      -7.933   3.729  72.228  1.00  0.00    -0.069 A  
HETATM   22  C   UNL     1      -9.045   3.287  71.507  1.00  0.00    -0.174 A  
HETATM   23  C   UNL     1     -10.170   2.787  72.170  1.00  0.00    -0.158 A  
HETATM   24  C   UNL     1     -10.200   2.735  73.560  1.00  0.00    -0.198 A  
HETATM   25  C   UNL     1      -9.100   3.178  74.289  1.00  0.00    -0.094 A  
HETATM   26  C   UNL     1      -7.968   3.663  73.623  1.00  0.00    -0.079 A  
ENDBRANCH  20  21
ENDBRANCH  18  20
ENDBRANCH  15  18
ENDBRANCH  12  14
TORSDOF 4
ENDMDL
MODEL      114
REMARK 921   NORMALIZED FREE ENERGY PREDICTED BY IDOCK:   -4.27 KCAL/MOL
REMARK 922        TOTAL FREE ENERGY PREDICTED BY IDOCK:   -6.05 KCAL/MOL
REMARK 923 INTER-LIGAND FREE ENERGY PREDICTED BY IDOCK:   -5.16 KCAL/MOL
REMARK 924 INTRA-LIGAND FREE ENERGY PREDICTED BY IDOCK:   -0.89 KCAL/MOL
REMARK 927      BINDING AFFINITY PREDICTED BY RF-SCORE:    0.00 PKD
ROOT
HETATM    1  C   UNL     1      -8.530  11.150  66.554  1.00  0.00    -0.165 C  
HETATM    2  S   UNL     1      -8.157   9.536  67.366  1.00  0.00    -0.110 SA 
HETATM    3  C   UNL     1      -9.142   8.526  66.163  1.00  0.00    -0.195 C  
HETATM    4  CA  UNL     1      -9.272   9.414  64.898  1.00  0.00    -0.183 C  
HETATM    5  C   UNL     1     -10.514   8.245  66.809  1.00  0.00    -0.313 C  
HETATM    6  C   UNL     1      -8.458   7.170  65.961  1.00  0.00    -0.148 C  
HETATM    7  N   UNL     1      -9.324  10.819  65.353  1.00  0.00    -0.196 N  
HETATM    8  C   UNL     1      -8.122   9.280  63.878  1.00  0.00    -0.151 C  
HETATM    9  C   UNL     1     -10.495  11.324  65.876  1.00  0.00    -0.259 C  
HETATM   10  OXT UNL     1      -7.734   8.233  63.395  1.00  0.00    -0.127 OA 
HETATM   11  O   UNL     1      -7.605  10.476  63.486  1.00  0.00    -0.088 OA 
HETATM   12  CA  UNL     1      -9.750  11.934  67.108  1.00  0.00    -0.185 C  
HETATM   13  O   UNL     1     -11.637  11.149  65.518  1.00  0.00     0.083 OA 
ENDROOT
BRANCH  12  14
HETATM   14  N   UNL     1     -10.208  11.494  68.454  1.00  0.00    -0.199 N  
HETATM   15  C   UNL     1     -11.373  11.937  69.044  1.00  0.00    -0.279 C  
HETATM   16  H   UNL     1      -9.630  10.830  68.968  1.00  0.00     0.000 HD 
HETATM   17  O   UNL     1     -12.086  12.781  68.510  1.00  0.00    -0.270 OA 
BRANCH  15  18
HETATM   18  C   UNL     1     -11.701  11.324  70.427  1.00  0.00    -0.304 C  
HETATM   19  C   UNL     1     -12.693  12.207  71.190  1.00  0.00    -0.351 C  
BRANCH  18  20
HETATM   20  O   UNL     1     -12.243  10.017  70.208  1.00  0.00    -0.215 OA 
BRANCH  20  21
HETATM   21  C   UNL     1     -11.631   8.960  70.829  1.00  0.00    -0.259 A  
HETATM   22  C   UNL     1     -11.754   7.617  70.463  1.00  0.00    -0.148 A  
HETATM   23  C   UNL     1     -11.033   6.627  71.137  1.00  0.00    -0.302 A  
HETATM   24  C   UNL     1     -10.193   6.966  72.193  1.00  0.00    -0.213 A  
HETATM   25  C   UNL     1     -10.068   8.301  72.571  1.00  0.00    -0.376 A  
HETATM   26  C   UNL     1     -10.777   9.293  71.883  1.00  0.00    -0.209 A  
ENDBRANCH  20  21
ENDBRANCH  18  20
ENDBRANCH  15  18
ENDBRANCH  12  14
TORSDOF 4
ENDMDL
MODEL      115
REMARK 921   NORMALIZED FREE ENERGY PREDICTED BY IDOCK:   -4.26 KCAL/MOL
REMARK 922        TOTAL FREE ENERGY PREDICTED BY IDOCK:   -6.04 KCAL/MOL
REMARK 923 INTER-LIGAND FREE ENERGY PREDICTED BY IDOCK:   -5.38 KCAL/MOL
REMARK 924 INTRA-LIGAND FREE ENERGY PREDICTED BY IDOCK:   -0.66 KCAL/MOL
REMARK 927      BINDING AFFINITY PREDICTED BY RF-SCORE:    0.00 PKD
ROOT
HETATM    1  C   UNL     1      -8.298   8.055  67.155  1.00  0.00    -0.121 C  
HETATM    2  S   UNL     1      -8.117   8.928  68.770  1.00  0.00    -0.115 SA 
HETATM    3  C   UNL     1      -9.132   7.703  69.722  1.00  0.00    -0.147 C  
HETATM    4  CA  UNL     1      -9.117   6.410  68.866  1.00  0.00    -0.129 C  
HETATM    5  C   UNL     1     -10.554   8.284  69.857  1.00  0.00    -0.232 C  
HETATM    6  C   UNL     1      -8.568   7.572  71.141  1.00  0.00    -0.121 C  
HETATM    7  N   UNL     1      -9.060   6.824  67.449  1.00  0.00    -0.118 N  
HETATM    8  C   UNL     1      -7.936   5.454  69.137  1.00  0.00    -0.094 C  
HETATM    9  C   UNL     1     -10.202   7.273  66.822  1.00  0.00    -0.235 C  
HETATM   10  OXT UNL     1      -7.624   5.019  70.229  1.00  0.00    -0.060 OA 
HETATM   11  O   UNL     1      -7.291   5.058  68.006  1.00  0.00    -0.072 OA 
HETATM   12  CA  UNL     1      -9.465   8.525  66.246  1.00  0.00    -0.231 C  
HETATM   13  O   UNL     1     -11.337   6.861  66.903  1.00  0.00    -0.269 OA 
ENDROOT
BRANCH  12  14
HETATM   14  N   UNL     1     -10.028   9.857  66.599  1.00  0.00    -0.205 N  
HETATM   15  C   UNL     1     -10.308  10.836  65.671  1.00  0.00    -0.230 C  
HETATM   16  H   UNL     1     -10.216  10.055  67.582  1.00  0.00     0.000 HD 
HETATM   17  O   UNL     1     -10.050  10.688  64.479  1.00  0.00    -0.320 OA 
BRANCH  15  18
HETATM   18  C   UNL     1     -10.937  12.135  66.232  1.00  0.00    -0.295 C  
HETATM   19  C   UNL     1     -11.676  11.857  67.544  1.00  0.00    -0.335 C  
BRANCH  18  20
HETATM   20  O   UNL     1      -9.881  13.081  66.428  1.00  0.00    -0.259 OA 
BRANCH  20  21
HETATM   21  C   UNL     1     -10.173  14.409  66.258  1.00  0.00    -0.299 A  
HETATM   22  C   UNL     1      -9.892  15.429  67.169  1.00  0.00    -0.221 A  
HETATM   23  C   UNL     1     -10.185  16.761  66.859  1.00  0.00    -0.290 A  
HETATM   24  C   UNL     1     -10.775  17.085  65.641  1.00  0.00    -0.150 A  
HETATM   25  C   UNL     1     -11.066  16.074  64.728  1.00  0.00    -0.378 A  
HETATM   26  C   UNL     1     -10.756  14.744  65.033  1.00  0.00    -0.452 A  
ENDBRANCH  20  21
ENDBRANCH  18  20
ENDBRANCH  15  18
ENDBRANCH  12  14
TORSDOF 4
ENDMDL
MODEL      116
REMARK 921   NORMALIZED FREE ENERGY PREDICTED BY IDOCK:   -4.26 KCAL/MOL
REMARK 922        TOTAL FREE ENERGY PREDICTED BY IDOCK:   -6.04 KCAL/MOL
REMARK 923 INTER-LIGAND FREE ENERGY PREDICTED BY IDOCK:   -5.31 KCAL/MOL
REMARK 924 INTRA-LIGAND FREE ENERGY PREDICTED BY IDOCK:   -0.73 KCAL/MOL
REMARK 927      BINDING AFFINITY PREDICTED BY RF-SCORE:    0.00 PKD
ROOT
HETATM    1  C   UNL     1      -9.614  14.478  68.720  1.00  0.00    -0.193 C  
HETATM    2  S   UNL     1      -8.308  14.845  67.470  1.00  0.00    -0.194 SA 
HETATM    3  C   UNL     1      -9.339  16.060  66.522  1.00  0.00    -0.268 C  
HETATM    4  CA  UNL     1     -10.440  16.518  67.513  1.00  0.00    -0.310 C  
HETATM    5  C   UNL     1      -9.933  15.315  65.309  1.00  0.00    -0.322 C  
HETATM    6  C   UNL     1      -8.435  17.166  65.967  1.00  0.00    -0.154 C  
HETATM    7  N   UNL     1     -10.744  15.370  68.392  1.00  0.00    -0.248 N  
HETATM    8  C   UNL     1     -10.065  17.722  68.404  1.00  0.00    -0.376 C  
HETATM    9  C   UNL     1     -11.537  14.344  67.925  1.00  0.00    -0.345 C  
HETATM   10  OXT UNL     1      -9.650  18.791  67.997  1.00  0.00    -0.299 OA 
HETATM   11  O   UNL     1     -10.315  17.515  69.724  1.00  0.00    -0.029 OA 
HETATM   12  CA  UNL     1     -10.528  13.260  68.424  1.00  0.00    -0.253 C  
HETATM   13  O   UNL     1     -12.535  14.392  67.243  1.00  0.00    -0.211 OA 
ENDROOT
BRANCH  12  14
HETATM   14  N   UNL     1      -9.994  12.319  67.402  1.00  0.00    -0.200 N  
HETATM   15  C   UNL     1     -10.706  11.249  66.905  1.00  0.00    -0.273 C  
HETATM   16  H   UNL     1      -9.049  12.475  67.050  1.00  0.00     0.000 HD 
HETATM   17  O   UNL     1     -11.824  10.967  67.327  1.00  0.00    -0.389 OA 
BRANCH  15  18
HETATM   18  C   UNL     1      -9.995  10.417  65.810  1.00  0.00    -0.270 C  
HETATM   19  C   UNL     1     -10.521  10.787  64.420  1.00  0.00    -0.344 C  
BRANCH  18  20
HETATM   20  O   UNL     1      -8.590  10.674  65.910  1.00  0.00    -0.161 OA 
BRANCH  20  21
HETATM   21  C   UNL     1      -7.768   9.619  66.209  1.00  0.00    -0.101 A  
HETATM   22  C   UNL     1      -6.588   9.690  66.953  1.00  0.00    -0.067 A  
HETATM   23  C   UNL     1      -5.860   8.533  67.245  1.00  0.00    -0.043 A  
HETATM   24  C   UNL     1      -6.296   7.294  66.784  1.00  0.00    -0.047 A  
HETATM   25  C   UNL     1      -7.467   7.212  66.036  1.00  0.00    -0.080 A  
HETATM   26  C   UNL     1      -8.204   8.370  65.760  1.00  0.00    -0.131 A  
ENDBRANCH  20  21
ENDBRANCH  18  20
ENDBRANCH  15  18
ENDBRANCH  12  14
TORSDOF 4
ENDMDL
MODEL      117
REMARK 921   NORMALIZED FREE ENERGY PREDICTED BY IDOCK:   -4.23 KCAL/MOL
REMARK 922        TOTAL FREE ENERGY PREDICTED BY IDOCK:   -6.00 KCAL/MOL
REMARK 923 INTER-LIGAND FREE ENERGY PREDICTED BY IDOCK:   -5.33 KCAL/MOL
REMARK 924 INTRA-LIGAND FREE ENERGY PREDICTED BY IDOCK:   -0.67 KCAL/MOL
REMARK 927      BINDING AFFINITY PREDICTED BY RF-SCORE:    0.00 PKD
ROOT
HETATM    1  C   UNL     1     -10.763  10.564  65.796  1.00  0.00     0.016 C  
HETATM    2  S   UNL     1     -11.154  11.298  67.443  1.00  0.00    -0.300 SA 
HETATM    3  C   UNL     1      -9.816  12.579  67.361  1.00  0.00    -0.201 C  
HETATM    4  CA  UNL     1      -9.480  12.721  65.854  1.00  0.00    -0.066 C  
HETATM    5  C   UNL     1      -8.615  12.046  68.168  1.00  0.00    -0.173 C  
HETATM    6  C   UNL     1     -10.294  13.855  68.064  1.00  0.00    -0.245 C  
HETATM    7  N   UNL     1      -9.679  11.394  65.235  1.00  0.00    -0.235 N  
HETATM    8  C   UNL     1     -10.337  13.747  65.082  1.00  0.00    -0.372 C  
HETATM    9  C   UNL     1      -8.722  10.416  65.396  1.00  0.00    -0.180 C  
HETATM   10  OXT UNL     1     -10.492  14.910  65.402  1.00  0.00    -0.327 OA 
HETATM   11  O   UNL     1     -10.864  13.252  63.930  1.00  0.00    -0.331 OA 
HETATM   12  CA  UNL     1      -9.795   9.351  65.796  1.00  0.00    -0.275 C  
HETATM   13  O   UNL     1      -7.516  10.507  65.377  1.00  0.00    -0.145 OA 
ENDROOT
BRANCH  12  14
HETATM   14  N   UNL     1      -9.626   8.693  67.120  1.00  0.00    -0.161 N  
HETATM   15  C   UNL     1      -8.876   7.554  67.314  1.00  0.00    -0.124 C  
HETATM   16  H   UNL     1     -10.091   9.108  67.928  1.00  0.00     0.000 HD 
HETATM   17  O   UNL     1      -8.340   6.967  66.378  1.00  0.00    -0.114 OA 
BRANCH  15  18
HETATM   18  C   UNL     1      -8.782   7.051  68.776  1.00  0.00    -0.127 C  
HETATM   19  C   UNL     1      -7.572   7.668  69.484  1.00  0.00    -0.098 C  
BRANCH  18  20
HETATM   20  O   UNL     1     -10.000   7.405  69.438  1.00  0.00    -0.170 OA 
BRANCH  20  21
HETATM   21  C   UNL     1     -10.096   7.144  70.780  1.00  0.00    -0.190 A  
HETATM   22  C   UNL     1     -10.066   8.097  71.801  1.00  0.00    -0.267 A  
HETATM   23  C   UNL     1     -10.233   7.716  73.136  1.00  0.00    -0.401 A  
HETATM   24  C   UNL     1     -10.418   6.377  73.465  1.00  0.00    -0.300 A  
HETATM   25  C   UNL     1     -10.443   5.417  72.456  1.00  0.00    -0.262 A  
HETATM   26  C   UNL     1     -10.293   5.803  71.119  1.00  0.00    -0.286 A  
ENDBRANCH  20  21
ENDBRANCH  18  20
ENDBRANCH  15  18
ENDBRANCH  12  14
TORSDOF 4
ENDMDL
MODEL      118
REMARK 921   NORMALIZED FREE ENERGY PREDICTED BY IDOCK:   -4.22 KCAL/MOL
REMARK 922        TOTAL FREE ENERGY PREDICTED BY IDOCK:   -5.99 KCAL/MOL
REMARK 923 INTER-LIGAND FREE ENERGY PREDICTED BY IDOCK:   -5.31 KCAL/MOL
REMARK 924 INTRA-LIGAND FREE ENERGY PREDICTED BY IDOCK:   -0.67 KCAL/MOL
REMARK 927      BINDING AFFINITY PREDICTED BY RF-SCORE:    0.00 PKD
ROOT
HETATM    1  C   UNL     1     -10.016   8.023  66.710  1.00  0.00    -0.274 C  
HETATM    2  S   UNL     1      -8.279   8.519  66.340  1.00  0.00    -0.112 SA 
HETATM    3  C   UNL     1      -7.549   7.611  67.782  1.00  0.00    -0.117 C  
HETATM    4  CA  UNL     1      -8.606   6.543  68.167  1.00  0.00    -0.118 C  
HETATM    5  C   UNL     1      -7.333   8.636  68.914  1.00  0.00    -0.082 C  
HETATM    6  C   UNL     1      -6.166   7.074  67.396  1.00  0.00    -0.041 C  
HETATM    7  N   UNL     1      -9.935   7.118  67.873  1.00  0.00    -0.148 N  
HETATM    8  C   UNL     1      -8.486   5.198  67.419  1.00  0.00    -0.105 C  
HETATM    9  C   UNL     1     -10.489   8.035  68.740  1.00  0.00    -0.173 C  
HETATM   10  OXT UNL     1      -7.478   4.521  67.354  1.00  0.00    -0.073 OA 
HETATM   11  O   UNL     1      -9.661   4.772  66.882  1.00  0.00    -0.157 OA 
HETATM   12  CA  UNL     1     -10.846   9.011  67.573  1.00  0.00    -0.060 C  
HETATM   13  O   UNL     1     -10.486   8.050  69.950  1.00  0.00    -0.223 OA 
ENDROOT
BRANCH  12  14
HETATM   14  N   UNL     1     -10.283  10.386  67.652  1.00  0.00    -0.190 N  
HETATM   15  C   UNL     1     -11.051  11.513  67.856  1.00  0.00    -0.256 C  
HETATM   16  H   UNL     1      -9.275  10.501  67.550  1.00  0.00     0.000 HD 
HETATM   17  O   UNL     1     -12.275  11.455  67.926  1.00  0.00    -0.592 OA 
BRANCH  15  18
HETATM   18  C   UNL     1     -10.273  12.847  67.959  1.00  0.00    -0.229 C  
HETATM   19  C   UNL     1      -8.762  12.597  67.948  1.00  0.00    -0.181 C  
BRANCH  18  20
HETATM   20  O   UNL     1     -10.664  13.667  66.853  1.00  0.00    -0.273 OA 
BRANCH  20  21
HETATM   21  C   UNL     1     -10.327  14.995  66.890  1.00  0.00    -0.266 A  
HETATM   22  C   UNL     1      -9.477  15.646  65.993  1.00  0.00    -0.390 A  
HETATM   23  C   UNL     1      -9.252  17.022  66.097  1.00  0.00    -0.244 A  
HETATM   24  C   UNL     1      -9.862  17.759  67.107  1.00  0.00    -0.311 A  
HETATM   25  C   UNL     1     -10.706  17.119  68.012  1.00  0.00    -0.372 A  
HETATM   26  C   UNL     1     -10.944  15.744  67.895  1.00  0.00    -0.324 A  
ENDBRANCH  20  21
ENDBRANCH  18  20
ENDBRANCH  15  18
ENDBRANCH  12  14
TORSDOF 4
ENDMDL
MODEL      119
REMARK 921   NORMALIZED FREE ENERGY PREDICTED BY IDOCK:   -4.22 KCAL/MOL
REMARK 922        TOTAL FREE ENERGY PREDICTED BY IDOCK:   -5.98 KCAL/MOL
REMARK 923 INTER-LIGAND FREE ENERGY PREDICTED BY IDOCK:   -5.07 KCAL/MOL
REMARK 924 INTRA-LIGAND FREE ENERGY PREDICTED BY IDOCK:   -0.91 KCAL/MOL
REMARK 927      BINDING AFFINITY PREDICTED BY RF-SCORE:    0.00 PKD
ROOT
HETATM    1  C   UNL     1      -8.959  10.137  69.643  1.00  0.00    -0.169 C  
HETATM    2  S   UNL     1      -8.375   9.266  68.125  1.00  0.00    -0.120 SA 
HETATM    3  C   UNL     1     -10.061   9.128  67.368  1.00  0.00    -0.230 C  
HETATM    4  CA  UNL     1     -10.911  10.221  68.067  1.00  0.00    -0.289 C  
HETATM    5  C   UNL     1     -10.589   7.711  67.670  1.00  0.00    -0.294 C  
HETATM    6  C   UNL     1      -9.943   9.245  65.845  1.00  0.00    -0.289 C  
HETATM    7  N   UNL     1     -10.407  10.349  69.450  1.00  0.00    -0.225 N  
HETATM    8  C   UNL     1     -10.865  11.615  67.406  1.00  0.00    -0.250 C  
HETATM    9  C   UNL     1     -10.763   9.412  70.396  1.00  0.00    -0.263 C  
HETATM   10  OXT UNL     1     -11.103  11.841  66.235  1.00  0.00    -0.297 OA 
HETATM   11  O   UNL     1     -10.603  12.620  68.284  1.00  0.00    -0.222 OA 
HETATM   12  CA  UNL     1      -9.283   9.242  70.869  1.00  0.00    -0.233 C  
HETATM   13  O   UNL     1     -11.829   8.872  70.582  1.00  0.00    -0.241 OA 
ENDROOT
BRANCH  12  14
HETATM   14  N   UNL     1      -8.711   7.869  70.801  1.00  0.00    -0.132 N  
HETATM   15  C   UNL     1      -8.824   6.946  71.818  1.00  0.00    -0.131 C  
HETATM   16  H   UNL     1      -8.207   7.598  69.957  1.00  0.00     0.000 HD 
HETATM   17  O   UNL     1      -9.363   7.225  72.886  1.00  0.00    -0.141 OA 
BRANCH  15  18
HETATM   18  C   UNL     1      -8.204   5.555  71.537  1.00  0.00    -0.119 C  
HETATM   19  C   UNL     1      -7.258   5.144  72.668  1.00  0.00    -0.092 C  
BRANCH  18  20
HETATM   20  O   UNL     1      -9.278   4.619  71.401  1.00  0.00    -0.133 OA 
BRANCH  20  21
HETATM   21  C   UNL     1      -9.266   3.787  70.312  1.00  0.00    -0.149 A  
HETATM   22  C   UNL     1      -9.294   2.391  70.351  1.00  0.00    -0.197 A  
HETATM   23  C   UNL     1      -9.337   1.646  69.169  1.00  0.00    -0.179 A  
HETATM   24  C   UNL     1      -9.339   2.288  67.935  1.00  0.00    -0.232 A  
HETATM   25  C   UNL     1      -9.305   3.679  67.883  1.00  0.00    -0.241 A  
HETATM   26  C   UNL     1      -9.279   4.424  69.068  1.00  0.00    -0.201 A  
ENDBRANCH  20  21
ENDBRANCH  18  20
ENDBRANCH  15  18
ENDBRANCH  12  14
TORSDOF 4
ENDMDL
MODEL      120
REMARK 921   NORMALIZED FREE ENERGY PREDICTED BY IDOCK:   -4.21 KCAL/MOL
REMARK 922        TOTAL FREE ENERGY PREDICTED BY IDOCK:   -5.98 KCAL/MOL
REMARK 923 INTER-LIGAND FREE ENERGY PREDICTED BY IDOCK:   -5.36 KCAL/MOL
REMARK 924 INTRA-LIGAND FREE ENERGY PREDICTED BY IDOCK:   -0.62 KCAL/MOL
REMARK 927      BINDING AFFINITY PREDICTED BY RF-SCORE:    0.00 PKD
ROOT
HETATM    1  C   UNL     1      -9.352  14.483  68.869  1.00  0.00    -0.136 C  
HETATM    2  S   UNL     1      -8.118  14.989  67.595  1.00  0.00    -0.185 SA 
HETATM    3  C   UNL     1      -9.324  15.981  66.596  1.00  0.00    -0.243 C  
HETATM    4  CA  UNL     1     -10.486  16.308  67.571  1.00  0.00    -0.302 C  
HETATM    5  C   UNL     1      -9.793  15.095  65.424  1.00  0.00    -0.309 C  
HETATM    6  C   UNL     1      -8.604  17.187  65.984  1.00  0.00    -0.140 C  
HETATM    7  N   UNL     1     -10.608  15.170  68.505  1.00  0.00    -0.232 N  
HETATM    8  C   UNL     1     -10.305  17.597  68.401  1.00  0.00    -0.375 C  
HETATM    9  C   UNL     1     -11.229  14.011  68.092  1.00  0.00    -0.275 C  
HETATM   10  OXT UNL     1     -10.063  18.697  67.942  1.00  0.00    -0.334 OA 
HETATM   11  O   UNL     1     -10.523  17.416  69.732  1.00  0.00    -0.096 OA 
HETATM   12  CA  UNL     1     -10.063  13.123  68.636  1.00  0.00    -0.139 C  
HETATM   13  O   UNL     1     -12.221  13.869  67.415  1.00  0.00    -0.378 OA 
ENDROOT
BRANCH  12  14
HETATM   14  N   UNL     1      -9.387  12.230  67.657  1.00  0.00    -0.180 N  
HETATM   15  C   UNL     1      -9.361  10.857  67.770  1.00  0.00    -0.157 C  
HETATM   16  H   UNL     1      -8.916  12.657  66.859  1.00  0.00     0.000 HD 
HETATM   17  O   UNL     1      -9.853  10.279  68.735  1.00  0.00    -0.165 OA 
BRANCH  15  18
HETATM   18  C   UNL     1      -8.648  10.101  66.622  1.00  0.00    -0.126 C  
HETATM   19  C   UNL     1      -7.891   8.884  67.161  1.00  0.00    -0.096 C  
BRANCH  18  20
HETATM   20  O   UNL     1      -9.646   9.705  65.675  1.00  0.00    -0.233 OA 
BRANCH  20  21
HETATM   21  C   UNL     1     -10.163  10.670  64.850  1.00  0.00    -0.324 A  
HETATM   22  C   UNL     1      -9.603  11.096  63.643  1.00  0.00    -0.316 A  
HETATM   23  C   UNL     1     -10.252  12.050  62.855  1.00  0.00     0.147 A  
HETATM   24  C   UNL     1     -11.462  12.599  63.271  1.00  0.00    -0.368 A  
HETATM   25  C   UNL     1     -12.026  12.186  64.476  1.00  0.00    -0.415 A  
HETATM   26  C   UNL     1     -11.382  11.218  65.255  1.00  0.00     0.021 A  
ENDBRANCH  20  21
ENDBRANCH  18  20
ENDBRANCH  15  18
ENDBRANCH  12  14
TORSDOF 4
ENDMDL
MODEL      121
REMARK 921   NORMALIZED FREE ENERGY PREDICTED BY IDOCK:   -4.18 KCAL/MOL
REMARK 922        TOTAL FREE ENERGY PREDICTED BY IDOCK:   -5.93 KCAL/MOL
REMARK 923 INTER-LIGAND FREE ENERGY PREDICTED BY IDOCK:   -5.74 KCAL/MOL
REMARK 924 INTRA-LIGAND FREE ENERGY PREDICTED BY IDOCK:   -0.19 KCAL/MOL
REMARK 927      BINDING AFFINITY PREDICTED BY RF-SCORE:    0.00 PKD
ROOT
HETATM    1  C   UNL     1     -10.125   7.718  69.135  1.00  0.00    -0.196 C  
HETATM    2  S   UNL     1      -8.496   7.864  68.283  1.00  0.00    -0.124 SA 
HETATM    3  C   UNL     1      -7.495   7.510  69.802  1.00  0.00    -0.091 C  
HETATM    4  CA  UNL     1      -8.464   6.778  70.766  1.00  0.00    -0.133 C  
HETATM    5  C   UNL     1      -7.029   8.864  70.376  1.00  0.00    -0.052 C  
HETATM    6  C   UNL     1      -6.233   6.735  69.407  1.00  0.00    -0.030 C  
HETATM    7  N   UNL     1      -9.816   7.323  70.524  1.00  0.00    -0.183 N  
HETATM    8  C   UNL     1      -8.526   5.245  70.601  1.00  0.00    -0.117 C  
HETATM    9  C   UNL     1     -10.161   8.551  71.046  1.00  0.00    -0.205 C  
HETATM   10  OXT UNL     1      -7.564   4.500  70.620  1.00  0.00    -0.051 OA 
HETATM   11  O   UNL     1      -9.794   4.762  70.504  1.00  0.00    -0.195 OA 
HETATM   12  CA  UNL     1     -10.739   9.036  69.677  1.00  0.00    -0.219 C  
HETATM   13  O   UNL     1      -9.904   9.027  72.128  1.00  0.00    -0.273 OA 
ENDROOT
BRANCH  12  14
HETATM   14  N   UNL     1     -10.150  10.276  69.102  1.00  0.00    -0.206 N  
HETATM   15  C   UNL     1     -10.827  11.112  68.240  1.00  0.00    -0.212 C  
HETATM   16  H   UNL     1      -9.194  10.520  69.359  1.00  0.00     0.000 HD 
HETATM   17  O   UNL     1     -11.958  10.848  67.841  1.00  0.00    -0.585 OA 
BRANCH  15  18
HETATM   18  C   UNL     1     -10.060  12.380  67.791  1.00  0.00    -0.203 C  
HETATM   19  C   UNL     1      -9.428  12.171  66.412  1.00  0.00    -0.238 C  
BRANCH  18  20
HETATM   20  O   UNL     1     -10.990  13.467  67.769  1.00  0.00    -0.256 OA 
BRANCH  20  21
HETATM   21  C   UNL     1     -11.210  14.096  66.571  1.00  0.00    -0.330 A  
HETATM   22  C   UNL     1     -12.176  13.739  65.628  1.00  0.00    -0.484 A  
HETATM   23  C   UNL     1     -12.347  14.493  64.463  1.00  0.00    -0.434 A  
HETATM   24  C   UNL     1     -11.544  15.604  64.222  1.00  0.00    -0.191 A  
HETATM   25  C   UNL     1     -10.573  15.965  65.153  1.00  0.00    -0.421 A  
HETATM   26  C   UNL     1     -10.415  15.219  66.326  1.00  0.00    -0.313 A  
ENDBRANCH  20  21
ENDBRANCH  18  20
ENDBRANCH  15  18
ENDBRANCH  12  14
TORSDOF 4
ENDMDL
MODEL      122
REMARK 921   NORMALIZED FREE ENERGY PREDICTED BY IDOCK:   -4.17 KCAL/MOL
REMARK 922        TOTAL FREE ENERGY PREDICTED BY IDOCK:   -5.92 KCAL/MOL
REMARK 923 INTER-LIGAND FREE ENERGY PREDICTED BY IDOCK:   -5.14 KCAL/MOL
REMARK 924 INTRA-LIGAND FREE ENERGY PREDICTED BY IDOCK:   -0.78 KCAL/MOL
REMARK 927      BINDING AFFINITY PREDICTED BY RF-SCORE:    0.00 PKD
ROOT
HETATM    1  C   UNL     1     -10.630   8.287  67.458  1.00  0.00    -0.221 C  
HETATM    2  S   UNL     1      -9.057   8.046  66.525  1.00  0.00    -0.183 SA 
HETATM    3  C   UNL     1      -7.996   7.925  68.040  1.00  0.00    -0.128 C  
HETATM    4  CA  UNL     1      -8.968   7.547  69.188  1.00  0.00    -0.135 C  
HETATM    5  C   UNL     1      -7.353   9.309  68.267  1.00  0.00    -0.078 C  
HETATM    6  C   UNL     1      -6.852   6.939  67.780  1.00  0.00    -0.081 C  
HETATM    7  N   UNL     1     -10.269   8.179  68.886  1.00  0.00    -0.207 N  
HETATM    8  C   UNL     1      -9.201   6.033  69.382  1.00  0.00    -0.132 C  
HETATM    9  C   UNL     1     -10.446   9.524  69.126  1.00  0.00    -0.210 C  
HETATM   10  OXT UNL     1      -8.323   5.204  69.531  1.00  0.00    -0.091 OA 
HETATM   11  O   UNL     1     -10.516   5.694  69.455  1.00  0.00    -0.247 OA 
HETATM   12  CA  UNL     1     -11.064   9.755  67.709  1.00  0.00    -0.075 C  
HETATM   13  O   UNL     1     -10.067  10.196  70.057  1.00  0.00    -0.247 OA 
ENDROOT
BRANCH  12  14
HETATM   14  N   UNL     1     -10.390  10.757  66.838  1.00  0.00    -0.231 N  
HETATM   15  C   UNL     1     -10.947  11.972  66.504  1.00  0.00    -0.295 C  
HETATM   16  H   UNL     1      -9.466  10.532  66.470  1.00  0.00     0.000 HD 
HETATM   17  O   UNL     1     -12.079  12.284  66.862  1.00  0.00    -0.583 OA 
BRANCH  15  18
HETATM   18  C   UNL     1     -10.066  12.898  65.628  1.00  0.00    -0.272 C  
HETATM   19  C   UNL     1     -10.736  13.165  64.277  1.00  0.00    -0.431 C  
BRANCH  18  20
HETATM   20  O   UNL     1      -9.863  14.117  66.350  1.00  0.00    -0.276 OA 
BRANCH  20  21
HETATM   21  C   UNL     1      -8.894  14.132  67.319  1.00  0.00    -0.218 A  
HETATM   22  C   UNL     1      -7.884  13.180  67.478  1.00  0.00    -0.173 A  
HETATM   23  C   UNL     1      -6.912  13.332  68.471  1.00  0.00    -0.103 A  
HETATM   24  C   UNL     1      -6.946  14.430  69.324  1.00  0.00    -0.129 A  
HETATM   25  C   UNL     1      -7.952  15.383  69.179  1.00  0.00    -0.222 A  
HETATM   26  C   UNL     1      -8.914  15.238  68.173  1.00  0.00    -0.173 A  
ENDBRANCH  20  21
ENDBRANCH  18  20
ENDBRANCH  15  18
ENDBRANCH  12  14
TORSDOF 4
ENDMDL
MODEL      123
REMARK 921   NORMALIZED FREE ENERGY PREDICTED BY IDOCK:   -4.17 KCAL/MOL
REMARK 922        TOTAL FREE ENERGY PREDICTED BY IDOCK:   -5.92 KCAL/MOL
REMARK 923 INTER-LIGAND FREE ENERGY PREDICTED BY IDOCK:   -5.54 KCAL/MOL
REMARK 924 INTRA-LIGAND FREE ENERGY PREDICTED BY IDOCK:   -0.38 KCAL/MOL
REMARK 927      BINDING AFFINITY PREDICTED BY RF-SCORE:    0.00 PKD
ROOT
HETATM    1  C   UNL     1     -10.670  10.100  67.365  1.00  0.00    -0.277 C  
HETATM    2  S   UNL     1      -9.545  10.516  68.765  1.00  0.00    -0.186 SA 
HETATM    3  C   UNL     1      -8.280  11.358  67.703  1.00  0.00    -0.128 C  
HETATM    4  CA  UNL     1      -9.033  11.742  66.402  1.00  0.00    -0.201 C  
HETATM    5  C   UNL     1      -7.152  10.341  67.432  1.00  0.00    -0.083 C  
HETATM    6  C   UNL     1      -7.656  12.520  68.483  1.00  0.00    -0.119 C  
HETATM    7  N   UNL     1     -10.055  10.702  66.165  1.00  0.00    -0.240 N  
HETATM    8  C   UNL     1      -9.740  13.114  66.432  1.00  0.00    -0.269 C  
HETATM    9  C   UNL     1      -9.681   9.486  65.635  1.00  0.00    -0.290 C  
HETATM   10  OXT UNL     1      -9.207  14.170  66.719  1.00  0.00    -0.255 OA 
HETATM   11  O   UNL     1     -11.036  13.063  66.021  1.00  0.00    -0.273 OA 
HETATM   12  CA  UNL     1     -10.481   8.700  66.723  1.00  0.00    -0.228 C  
HETATM   13  O   UNL     1      -8.885   9.241  64.758  1.00  0.00    -0.191 OA 
ENDROOT
BRANCH  12  14
HETATM   14  N   UNL     1      -9.712   7.735  67.556  1.00  0.00    -0.150 N  
HETATM   15  C   UNL     1      -9.795   6.367  67.409  1.00  0.00    -0.131 C  
HETATM   16  H   UNL     1      -9.091   8.107  68.274  1.00  0.00     0.000 HD 
HETATM   17  O   UNL     1     -10.567   5.850  66.607  1.00  0.00    -0.263 OA 
BRANCH  15  18
HETATM   18  C   UNL     1      -8.877   5.535  68.338  1.00  0.00    -0.107 C  
HETATM   19  C   UNL     1      -8.056   6.450  69.251  1.00  0.00    -0.111 C  
BRANCH  18  20
HETATM   20  O   UNL     1      -9.710   4.659  69.104  1.00  0.00    -0.165 OA 
BRANCH  20  21
HETATM   21  C   UNL     1     -10.328   5.174  70.213  1.00  0.00    -0.261 A  
HETATM   22  C   UNL     1     -11.380   6.092  70.209  1.00  0.00    -0.414 A  
HETATM   23  C   UNL     1     -11.972   6.504  71.407  1.00  0.00    -0.371 A  
HETATM   24  C   UNL     1     -11.509   6.011  72.623  1.00  0.00    -0.297 A  
HETATM   25  C   UNL     1     -10.456   5.100  72.640  1.00  0.00    -0.262 A  
HETATM   26  C   UNL     1      -9.877   4.677  71.439  1.00  0.00    -0.264 A  
ENDBRANCH  20  21
ENDBRANCH  18  20
ENDBRANCH  15  18
ENDBRANCH  12  14
TORSDOF 4
ENDMDL
MODEL      124
REMARK 921   NORMALIZED FREE ENERGY PREDICTED BY IDOCK:   -4.16 KCAL/MOL
REMARK 922        TOTAL FREE ENERGY PREDICTED BY IDOCK:   -5.91 KCAL/MOL
REMARK 923 INTER-LIGAND FREE ENERGY PREDICTED BY IDOCK:   -5.26 KCAL/MOL
REMARK 924 INTRA-LIGAND FREE ENERGY PREDICTED BY IDOCK:   -0.65 KCAL/MOL
REMARK 927      BINDING AFFINITY PREDICTED BY RF-SCORE:    0.00 PKD
ROOT
HETATM    1  C   UNL     1     -10.349   5.734  67.929  1.00  0.00    -0.214 C  
HETATM    2  S   UNL     1      -9.268   6.163  66.497  1.00  0.00    -0.150 SA 
HETATM    3  C   UNL     1      -7.694   5.655  67.335  1.00  0.00    -0.100 C  
HETATM    4  CA  UNL     1      -8.130   4.691  68.469  1.00  0.00    -0.083 C  
HETATM    5  C   UNL     1      -7.032   6.932  67.891  1.00  0.00    -0.083 C  
HETATM    6  C   UNL     1      -6.732   5.071  66.294  1.00  0.00    -0.054 C  
HETATM    7  N   UNL     1      -9.453   5.145  68.945  1.00  0.00    -0.125 N  
HETATM    8  C   UNL     1      -8.247   3.206  68.063  1.00  0.00    -0.078 C  
HETATM    9  C   UNL     1      -9.539   6.235  69.784  1.00  0.00    -0.151 C  
HETATM   10  OXT UNL     1      -7.371   2.557  67.523  1.00  0.00    -0.055 OA 
HETATM   11  O   UNL     1      -9.423   2.635  68.439  1.00  0.00    -0.201 OA 
HETATM   12  CA  UNL     1     -10.668   6.885  68.920  1.00  0.00    -0.222 C  
HETATM   13  O   UNL     1      -8.832   6.548  70.715  1.00  0.00    -0.142 OA 
ENDROOT
BRANCH  12  14
HETATM   14  N   UNL     1     -10.404   8.250  68.389  1.00  0.00    -0.230 N  
HETATM   15  C   UNL     1     -10.688   9.406  69.084  1.00  0.00    -0.197 C  
HETATM   16  H   UNL     1      -9.992   8.335  67.460  1.00  0.00     0.000 HD 
HETATM   17  O   UNL     1     -11.240   9.380  70.181  1.00  0.00    -0.242 OA 
BRANCH  15  18
HETATM   18  C   UNL     1     -10.293  10.728  68.381  1.00  0.00    -0.180 C  
HETATM   19  C   UNL     1      -8.773  10.911  68.385  1.00  0.00    -0.147 C  
BRANCH  18  20
HETATM   20  O   UNL     1     -10.800  10.679  67.044  1.00  0.00    -0.267 OA 
BRANCH  20  21
HETATM   21  C   UNL     1     -11.378  11.814  66.538  1.00  0.00    -0.305 A  
HETATM   22  C   UNL     1     -11.835  11.982  65.229  1.00  0.00    -0.269 A  
HETATM   23  C   UNL     1     -12.462  13.170  64.841  1.00  0.00    -0.490 A  
HETATM   24  C   UNL     1     -12.626  14.207  65.753  1.00  0.00    -0.475 A  
HETATM   25  C   UNL     1     -12.168  14.053  67.060  1.00  0.00    -0.387 A  
HETATM   26  C   UNL     1     -11.556  12.857  67.451  1.00  0.00    -0.414 A  
ENDBRANCH  20  21
ENDBRANCH  18  20
ENDBRANCH  15  18
ENDBRANCH  12  14
TORSDOF 4
ENDMDL
MODEL      125
REMARK 921   NORMALIZED FREE ENERGY PREDICTED BY IDOCK:   -4.16 KCAL/MOL
REMARK 922        TOTAL FREE ENERGY PREDICTED BY IDOCK:   -5.91 KCAL/MOL
REMARK 923 INTER-LIGAND FREE ENERGY PREDICTED BY IDOCK:   -6.48 KCAL/MOL
REMARK 924 INTRA-LIGAND FREE ENERGY PREDICTED BY IDOCK:    0.57 KCAL/MOL
REMARK 927      BINDING AFFINITY PREDICTED BY RF-SCORE:    0.00 PKD
ROOT
HETATM    1  C   UNL     1      -8.318  17.153  66.205  1.00  0.00    -0.263 C  
HETATM    2  S   UNL     1      -9.894  18.110  66.159  1.00  0.00    -0.191 SA 
HETATM    3  C   UNL     1      -9.567  19.022  67.740  1.00  0.00    -0.311 C  
HETATM    4  CA  UNL     1      -8.033  18.938  67.947  1.00  0.00    -0.271 C  
HETATM    5  C   UNL     1     -10.337  18.295  68.861  1.00  0.00    -0.191 C  
HETATM    6  C   UNL     1     -10.153  20.434  67.639  1.00  0.00    -0.476 C  
HETATM    7  N   UNL     1      -7.585  17.645  67.389  1.00  0.00    -0.196 N  
HETATM    8  C   UNL     1      -7.215  20.062  67.275  1.00  0.00    -0.251 C  
HETATM    9  C   UNL     1      -7.785  16.487  68.108  1.00  0.00    -0.166 C  
HETATM   10  OXT UNL     1      -7.411  21.254  67.423  1.00  0.00    -0.484 OA 
HETATM   11  O   UNL     1      -6.170  19.602  66.537  1.00  0.00    -0.169 OA 
HETATM   12  CA  UNL     1      -8.383  15.750  66.866  1.00  0.00    -0.248 C  
HETATM   13  O   UNL     1      -7.665  16.286  69.295  1.00  0.00    -0.231 OA 
ENDROOT
BRANCH  12  14
HETATM   14  N   UNL     1      -9.757  15.197  67.011  1.00  0.00    -0.227 N  
HETATM   15  C   UNL     1     -10.090  13.894  66.709  1.00  0.00    -0.265 C  
HETATM   16  H   UNL     1     -10.492  15.816  67.352  1.00  0.00     0.000 HD 
HETATM   17  O   UNL     1      -9.270  13.112  66.236  1.00  0.00    -0.184 OA 
BRANCH  15  18
HETATM   18  C   UNL     1     -11.562  13.497  66.975  1.00  0.00    -0.359 C  
HETATM   19  C   UNL     1     -12.116  12.660  65.818  1.00  0.00    -0.484 C  
BRANCH  18  20
HETATM   20  O   UNL     1     -11.600  12.763  68.203  1.00  0.00    -0.292 OA 
BRANCH  20  21
HETATM   21  C   UNL     1     -11.052  11.507  68.214  1.00  0.00    -0.239 A  
HETATM   22  C   UNL     1     -11.183  10.551  67.204  1.00  0.00    -0.134 A  
HETATM   23  C   UNL     1     -10.528   9.319  67.299  1.00  0.00    -0.334 A  
HETATM   24  C   UNL     1      -9.746   9.025  68.411  1.00  0.00    -0.170 A  
HETATM   25  C   UNL     1      -9.613   9.968  69.428  1.00  0.00    -0.237 A  
HETATM   26  C   UNL     1     -10.256  11.207  69.322  1.00  0.00    -0.110 A  
ENDBRANCH  20  21
ENDBRANCH  18  20
ENDBRANCH  15  18
ENDBRANCH  12  14
TORSDOF 4
ENDMDL
MODEL      126
REMARK 921   NORMALIZED FREE ENERGY PREDICTED BY IDOCK:   -4.16 KCAL/MOL
REMARK 922        TOTAL FREE ENERGY PREDICTED BY IDOCK:   -5.91 KCAL/MOL
REMARK 923 INTER-LIGAND FREE ENERGY PREDICTED BY IDOCK:   -5.51 KCAL/MOL
REMARK 924 INTRA-LIGAND FREE ENERGY PREDICTED BY IDOCK:   -0.40 KCAL/MOL
REMARK 927      BINDING AFFINITY PREDICTED BY RF-SCORE:    0.00 PKD
ROOT
HETATM    1  C   UNL     1     -10.814  13.275  65.559  1.00  0.00    -0.284 C  
HETATM    2  S   UNL     1     -12.138  13.373  66.840  1.00  0.00    -0.309 SA 
HETATM    3  C   UNL     1     -11.122  14.359  68.037  1.00  0.00    -0.272 C  
HETATM    4  CA  UNL     1     -10.007  15.014  67.180  1.00  0.00    -0.237 C  
HETATM    5  C   UNL     1     -10.544  13.375  69.074  1.00  0.00    -0.106 C  
HETATM    6  C   UNL     1     -12.034  15.326  68.799  1.00  0.00    -0.279 C  
HETATM    7  N   UNL     1      -9.690  14.075  66.083  1.00  0.00    -0.295 N  
HETATM    8  C   UNL     1     -10.371  16.378  66.557  1.00  0.00    -0.303 C  
HETATM    9  C   UNL     1      -8.903  12.973  66.335  1.00  0.00     0.099 C  
HETATM   10  OXT UNL     1     -10.792  17.339  67.173  1.00  0.00    -0.231 OA 
HETATM   11  O   UNL     1     -10.101  16.453  65.226  1.00  0.00    -0.545 OA 
HETATM   12  CA  UNL     1      -9.903  12.019  65.605  1.00  0.00    -0.243 C  
HETATM   13  O   UNL     1      -7.914  12.873  67.025  1.00  0.00    -0.131 OA 
ENDROOT
BRANCH  12  14
HETATM   14  N   UNL     1     -10.451  10.886  66.399  1.00  0.00    -0.255 N  
HETATM   15  C   UNL     1     -10.038   9.580  66.248  1.00  0.00    -0.257 C  
HETATM   16  H   UNL     1     -11.171  11.086  67.093  1.00  0.00     0.000 HD 
HETATM   17  O   UNL     1      -9.219   9.257  65.391  1.00  0.00    -0.213 OA 
BRANCH  15  18
HETATM   18  C   UNL     1     -10.692   8.552  67.203  1.00  0.00    -0.139 C  
HETATM   19  C   UNL     1      -9.984   7.197  67.110  1.00  0.00    -0.270 C  
BRANCH  18  20
HETATM   20  O   UNL     1     -10.616   9.080  68.531  1.00  0.00    -0.209 OA 
BRANCH  20  21
HETATM   21  C   UNL     1     -10.679   8.195  69.575  1.00  0.00    -0.175 A  
HETATM   22  C   UNL     1     -11.777   7.398  69.903  1.00  0.00     0.132 A  
HETATM   23  C   UNL     1     -11.705   6.486  70.960  1.00  0.00    -0.402 A  
HETATM   24  C   UNL     1     -10.539   6.371  71.710  1.00  0.00    -0.256 A  
HETATM   25  C   UNL     1      -9.439   7.166  71.397  1.00  0.00    -0.162 A  
HETATM   26  C   UNL     1      -9.508   8.066  70.327  1.00  0.00    -0.167 A  
ENDBRANCH  20  21
ENDBRANCH  18  20
ENDBRANCH  15  18
ENDBRANCH  12  14
TORSDOF 4
ENDMDL
MODEL      127
REMARK 921   NORMALIZED FREE ENERGY PREDICTED BY IDOCK:   -4.15 KCAL/MOL
REMARK 922        TOTAL FREE ENERGY PREDICTED BY IDOCK:   -5.89 KCAL/MOL
REMARK 923 INTER-LIGAND FREE ENERGY PREDICTED BY IDOCK:   -5.59 KCAL/MOL
REMARK 924 INTRA-LIGAND FREE ENERGY PREDICTED BY IDOCK:   -0.30 KCAL/MOL
REMARK 927      BINDING AFFINITY PREDICTED BY RF-SCORE:    0.00 PKD
ROOT
HETATM    1  C   UNL     1      -9.779  16.258  68.758  1.00  0.00    -0.240 C  
HETATM    2  S   UNL     1      -8.292  15.564  69.600  1.00  0.00     0.027 SA 
HETATM    3  C   UNL     1      -7.075  16.404  68.483  1.00  0.00    -0.157 C  
HETATM    4  CA  UNL     1      -7.852  17.589  67.853  1.00  0.00    -0.218 C  
HETATM    5  C   UNL     1      -6.638  15.376  67.419  1.00  0.00    -0.150 C  
HETATM    6  C   UNL     1      -5.823  16.775  69.285  1.00  0.00    -0.168 C  
HETATM    7  N   UNL     1      -9.260  17.165  67.714  1.00  0.00    -0.238 N  
HETATM    8  C   UNL     1      -7.822  18.901  68.665  1.00  0.00    -0.340 C  
HETATM    9  C   UNL     1      -9.622  16.328  66.680  1.00  0.00    -0.246 C  
HETATM   10  OXT UNL     1      -6.815  19.459  69.057  1.00  0.00    -0.312 OA 
HETATM   11  O   UNL     1      -9.053  19.450  68.851  1.00  0.00    -0.370 OA 
HETATM   12  CA  UNL     1     -10.410  15.382  67.643  1.00  0.00    -0.262 C  
HETATM   13  O   UNL     1      -9.259  16.329  65.526  1.00  0.00    -0.402 OA 
ENDROOT
BRANCH  12  14
HETATM   14  N   UNL     1      -9.995  13.953  67.669  1.00  0.00    -0.234 N  
HETATM   15  C   UNL     1     -10.761  12.948  68.218  1.00  0.00    -0.244 C  
HETATM   16  H   UNL     1      -9.096  13.705  67.258  1.00  0.00     0.000 HD 
HETATM   17  O   UNL     1     -11.825  13.183  68.784  1.00  0.00    -0.303 OA 
BRANCH  15  18
HETATM   18  C   UNL     1     -10.178  11.518  68.102  1.00  0.00    -0.194 C  
HETATM   19  C   UNL     1     -10.733  10.614  69.207  1.00  0.00    -0.275 C  
BRANCH  18  20
HETATM   20  O   UNL     1     -10.519  11.013  66.807  1.00  0.00    -0.231 OA 
BRANCH  20  21
HETATM   21  C   UNL     1      -9.968   9.819  66.422  1.00  0.00    -0.247 A  
HETATM   22  C   UNL     1     -10.402   8.553  66.822  1.00  0.00    -0.346 A  
HETATM   23  C   UNL     1      -9.796   7.399  66.316  1.00  0.00    -0.042 A  
HETATM   24  C   UNL     1      -8.740   7.499  65.415  1.00  0.00    -0.013 A  
HETATM   25  C   UNL     1      -8.294   8.756  65.014  1.00  0.00    -0.180 A  
HETATM   26  C   UNL     1      -8.914   9.909  65.509  1.00  0.00    -0.209 A  
ENDBRANCH  20  21
ENDBRANCH  18  20
ENDBRANCH  15  18
ENDBRANCH  12  14
TORSDOF 4
ENDMDL
MODEL      128
REMARK 921   NORMALIZED FREE ENERGY PREDICTED BY IDOCK:   -4.14 KCAL/MOL
REMARK 922        TOTAL FREE ENERGY PREDICTED BY IDOCK:   -5.89 KCAL/MOL
REMARK 923 INTER-LIGAND FREE ENERGY PREDICTED BY IDOCK:   -5.47 KCAL/MOL
REMARK 924 INTRA-LIGAND FREE ENERGY PREDICTED BY IDOCK:   -0.42 KCAL/MOL
REMARK 927      BINDING AFFINITY PREDICTED BY RF-SCORE:    0.00 PKD
ROOT
HETATM    1  C   UNL     1      -8.390  18.274  67.449  1.00  0.00    -0.244 C  
HETATM    2  S   UNL     1      -7.746  17.424  68.954  1.00  0.00    -0.156 SA 
HETATM    3  C   UNL     1      -5.990  17.958  68.693  1.00  0.00    -0.187 C  
HETATM    4  CA  UNL     1      -6.076  19.195  67.762  1.00  0.00    -0.202 C  
HETATM    5  C   UNL     1      -5.244  16.787  68.023  1.00  0.00    -0.123 C  
HETATM    6  C   UNL     1      -5.325  18.190  70.054  1.00  0.00    -0.227 C  
HETATM    7  N   UNL     1      -7.237  18.993  66.871  1.00  0.00    -0.209 N  
HETATM    8  C   UNL     1      -6.251  20.550  68.481  1.00  0.00    -0.322 C  
HETATM    9  C   UNL     1      -7.129  18.140  65.793  1.00  0.00    -0.221 C  
HETATM   10  OXT UNL     1      -5.531  20.969  69.368  1.00  0.00    -0.380 OA 
HETATM   11  O   UNL     1      -7.264  21.303  67.975  1.00  0.00    -0.085 OA 
HETATM   12  CA  UNL     1      -8.468  17.420  66.155  1.00  0.00    -0.163 C  
HETATM   13  O   UNL     1      -6.210  17.985  65.023  1.00  0.00    -0.171 OA 
ENDROOT
BRANCH  12  14
HETATM   14  N   UNL     1      -8.400  15.950  66.379  1.00  0.00    -0.296 N  
HETATM   15  C   UNL     1      -9.483  15.108  66.243  1.00  0.00    -0.309 C  
HETATM   16  H   UNL     1      -7.504  15.544  66.648  1.00  0.00     0.000 HD 
HETATM   17  O   UNL     1     -10.604  15.535  65.982  1.00  0.00    -0.303 OA 
BRANCH  15  18
HETATM   18  C   UNL     1      -9.197  13.603  66.470  1.00  0.00    -0.179 C  
HETATM   19  C   UNL     1      -7.894  13.410  67.251  1.00  0.00    -0.107 C  
BRANCH  18  20
HETATM   20  O   UNL     1     -10.308  13.050  67.182  1.00  0.00    -0.240 OA 
BRANCH  20  21
HETATM   21  C   UNL     1     -10.197  11.764  67.641  1.00  0.00    -0.199 A  
HETATM   22  C   UNL     1      -9.758  11.386  68.911  1.00  0.00    -0.105 A  
HETATM   23  C   UNL     1      -9.742  10.039  69.288  1.00  0.00    -0.227 A  
HETATM   24  C   UNL     1     -10.152   9.055  68.393  1.00  0.00    -0.216 A  
HETATM   25  C   UNL     1     -10.585   9.420  67.121  1.00  0.00    -0.294 A  
HETATM   26  C   UNL     1     -10.617  10.770  66.752  1.00  0.00    -0.307 A  
ENDBRANCH  20  21
ENDBRANCH  18  20
ENDBRANCH  15  18
ENDBRANCH  12  14
TORSDOF 4
ENDMDL
MODEL      129
REMARK 921   NORMALIZED FREE ENERGY PREDICTED BY IDOCK:   -4.14 KCAL/MOL
REMARK 922        TOTAL FREE ENERGY PREDICTED BY IDOCK:   -5.89 KCAL/MOL
REMARK 923 INTER-LIGAND FREE ENERGY PREDICTED BY IDOCK:   -5.70 KCAL/MOL
REMARK 924 INTRA-LIGAND FREE ENERGY PREDICTED BY IDOCK:   -0.19 KCAL/MOL
REMARK 927      BINDING AFFINITY PREDICTED BY RF-SCORE:    0.00 PKD
ROOT
HETATM    1  C   UNL     1     -10.706  13.572  67.157  1.00  0.00    -0.279 C  
HETATM    2  S   UNL     1      -9.435  13.238  65.864  1.00  0.00     0.069 SA 
HETATM    3  C   UNL     1     -10.459  11.985  64.960  1.00  0.00    -0.287 C  
HETATM    4  CA  UNL     1     -11.922  12.273  65.386  1.00  0.00    -0.332 C  
HETATM    5  C   UNL     1      -9.993  10.588  65.417  1.00  0.00    -0.353 C  
HETATM    6  C   UNL     1     -10.169  12.082  63.458  1.00  0.00    -0.477 C  
HETATM    7  N   UNL     1     -11.883  12.764  66.779  1.00  0.00    -0.395 N  
HETATM    8  C   UNL     1     -12.666  13.317  64.527  1.00  0.00    -0.162 C  
HETATM    9  C   UNL     1     -11.716  11.870  67.814  1.00  0.00    -0.292 C  
HETATM   10  OXT UNL     1     -12.775  13.277  63.316  1.00  0.00    -0.658 OA 
HETATM   11  O   UNL     1     -13.280  14.283  65.262  1.00  0.00    -0.704 OA 
HETATM   12  CA  UNL     1     -10.593  12.742  68.464  1.00  0.00    -0.252 C  
HETATM   13  O   UNL     1     -12.193  10.769  67.965  1.00  0.00    -0.297 OA 
ENDROOT
BRANCH  12  14
HETATM   14  N   UNL     1      -9.272  12.090  68.671  1.00  0.00    -0.380 N  
HETATM   15  C   UNL     1      -9.111  10.880  69.310  1.00  0.00     0.023 C  
HETATM   16  H   UNL     1      -8.440  12.565  68.320  1.00  0.00     0.000 HD 
HETATM   17  O   UNL     1     -10.061  10.283  69.810  1.00  0.00    -0.236 OA 
BRANCH  15  18
HETATM   18  C   UNL     1      -7.661  10.343  69.381  1.00  0.00    -0.140 C  
HETATM   19  C   UNL     1      -6.692  11.453  69.798  1.00  0.00    -0.076 C  
BRANCH  18  20
HETATM   20  O   UNL     1      -7.640   9.265  70.321  1.00  0.00    -0.089 OA 
BRANCH  20  21
HETATM   21  C   UNL     1      -7.249   8.031  69.870  1.00  0.00    -0.061 A  
HETATM   22  C   UNL     1      -6.563   7.070  70.616  1.00  0.00    -0.052 A  
HETATM   23  C   UNL     1      -6.267   5.819  70.065  1.00  0.00    -0.027 A  
HETATM   24  C   UNL     1      -6.642   5.522  68.758  1.00  0.00    -0.048 A  
HETATM   25  C   UNL     1      -7.320   6.475  68.003  1.00  0.00    -0.090 A  
HETATM   26  C   UNL     1      -7.630   7.720  68.562  1.00  0.00    -0.105 A  
ENDBRANCH  20  21
ENDBRANCH  18  20
ENDBRANCH  15  18
ENDBRANCH  12  14
TORSDOF 4
ENDMDL
MODEL      130
REMARK 921   NORMALIZED FREE ENERGY PREDICTED BY IDOCK:   -4.13 KCAL/MOL
REMARK 922        TOTAL FREE ENERGY PREDICTED BY IDOCK:   -5.88 KCAL/MOL
REMARK 923 INTER-LIGAND FREE ENERGY PREDICTED BY IDOCK:   -5.19 KCAL/MOL
REMARK 924 INTRA-LIGAND FREE ENERGY PREDICTED BY IDOCK:   -0.69 KCAL/MOL
REMARK 927      BINDING AFFINITY PREDICTED BY RF-SCORE:    0.00 PKD
ROOT
HETATM    1  C   UNL     1     -10.701  10.552  66.103  1.00  0.00    -0.045 C  
HETATM    2  S   UNL     1     -11.334  11.531  67.533  1.00  0.00    -0.285 SA 
HETATM    3  C   UNL     1     -10.062  12.870  67.377  1.00  0.00    -0.223 C  
HETATM    4  CA  UNL     1      -9.545  12.773  65.919  1.00  0.00    -0.136 C  
HETATM    5  C   UNL     1      -8.947  12.572  68.401  1.00  0.00    -0.130 C  
HETATM    6  C   UNL     1     -10.687  14.211  67.777  1.00  0.00    -0.251 C  
HETATM    7  N   UNL     1      -9.597  11.348  65.530  1.00  0.00    -0.224 N  
HETATM    8  C   UNL     1     -10.346  13.586  64.880  1.00  0.00    -0.377 C  
HETATM    9  C   UNL     1      -8.621  10.483  65.975  1.00  0.00    -0.160 C  
HETATM   10  OXT UNL     1     -10.598  14.773  64.964  1.00  0.00    -0.386 OA 
HETATM   11  O   UNL     1     -10.697  12.862  63.783  1.00  0.00    -0.397 OA 
HETATM   12  CA  UNL     1      -9.681   9.430  66.434  1.00  0.00    -0.250 C  
HETATM   13  O   UNL     1      -7.428  10.656  66.081  1.00  0.00    -0.130 OA 
ENDROOT
BRANCH  12  14
HETATM   14  N   UNL     1      -9.650   9.025  67.865  1.00  0.00    -0.145 N  
HETATM   15  C   UNL     1      -8.946   7.936  68.333  1.00  0.00    -0.133 C  
HETATM   16  H   UNL     1     -10.177   9.584  68.536  1.00  0.00     0.000 HD 
HETATM   17  O   UNL     1      -8.340   7.185  67.575  1.00  0.00    -0.115 OA 
BRANCH  15  18
HETATM   18  C   UNL     1      -8.998   7.710  69.864  1.00  0.00    -0.144 C  
HETATM   19  C   UNL     1      -9.251   9.029  70.600  1.00  0.00    -0.279 C  
BRANCH  18  20
HETATM   20  O   UNL     1     -10.040   6.766  70.131  1.00  0.00    -0.177 OA 
BRANCH  20  21
HETATM   21  C   UNL     1      -9.675   5.500  70.508  1.00  0.00    -0.183 A  
HETATM   22  C   UNL     1      -9.356   5.096  71.807  1.00  0.00    -0.179 A  
HETATM   23  C   UNL     1      -9.053   3.760  72.083  1.00  0.00    -0.157 A  
HETATM   24  C   UNL     1      -9.052   2.815  71.061  1.00  0.00    -0.181 A  
HETATM   25  C   UNL     1      -9.362   3.207  69.761  1.00  0.00    -0.223 A  
HETATM   26  C   UNL     1      -9.682   4.543  69.490  1.00  0.00    -0.282 A  
ENDBRANCH  20  21
ENDBRANCH  18  20
ENDBRANCH  15  18
ENDBRANCH  12  14
TORSDOF 4
ENDMDL
MODEL      131
REMARK 921   NORMALIZED FREE ENERGY PREDICTED BY IDOCK:   -4.12 KCAL/MOL
REMARK 922        TOTAL FREE ENERGY PREDICTED BY IDOCK:   -5.86 KCAL/MOL
REMARK 923 INTER-LIGAND FREE ENERGY PREDICTED BY IDOCK:   -5.37 KCAL/MOL
REMARK 924 INTRA-LIGAND FREE ENERGY PREDICTED BY IDOCK:   -0.49 KCAL/MOL
REMARK 927      BINDING AFFINITY PREDICTED BY RF-SCORE:    0.00 PKD
ROOT
HETATM    1  C   UNL     1     -12.376  15.218  69.230  1.00  0.00    -0.093 C  
HETATM    2  S   UNL     1     -12.281  13.979  67.867  1.00  0.00    -0.008 SA 
HETATM    3  C   UNL     1     -11.292  12.752  68.844  1.00  0.00    -0.296 C  
HETATM    4  CA  UNL     1     -11.536  13.124  70.330  1.00  0.00    -0.002 C  
HETATM    5  C   UNL     1      -9.813  12.927  68.445  1.00  0.00    -0.197 C  
HETATM    6  C   UNL     1     -11.699  11.332  68.434  1.00  0.00    -0.365 C  
HETATM    7  N   UNL     1     -11.714  14.589  70.390  1.00  0.00    -0.290 N  
HETATM    8  C   UNL     1     -12.769  12.461  70.981  1.00  0.00    -0.223 C  
HETATM    9  C   UNL     1     -10.612  15.414  70.324  1.00  0.00    -0.277 C  
HETATM   10  OXT UNL     1     -12.995  11.265  70.994  1.00  0.00    -0.318 OA 
HETATM   11  O   UNL     1     -13.576  13.342  71.630  1.00  0.00    -0.336 OA 
HETATM   12  CA  UNL     1     -11.281  16.318  69.239  1.00  0.00    -0.312 C  
HETATM   13  O   UNL     1      -9.523  15.286  70.835  1.00  0.00     0.934 OA 
ENDROOT
BRANCH  12  14
HETATM   14  N   UNL     1     -10.550  16.473  67.952  1.00  0.00    -0.319 N  
HETATM   15  C   UNL     1     -10.454  17.667  67.269  1.00  0.00    -0.338 C  
HETATM   16  H   UNL     1     -10.095  15.652  67.553  1.00  0.00     0.000 HD 
HETATM   17  O   UNL     1     -11.027  18.680  67.659  1.00  0.00    -0.365 OA 
BRANCH  15  18
HETATM   18  C   UNL     1      -9.607  17.635  65.974  1.00  0.00    -0.103 C  
HETATM   19  C   UNL     1      -8.366  18.522  66.115  1.00  0.00    -0.166 C  
BRANCH  18  20
HETATM   20  O   UNL     1      -9.239  16.274  65.726  1.00  0.00    -0.439 OA 
BRANCH  20  21
HETATM   21  C   UNL     1     -10.181  15.449  65.170  1.00  0.00    -0.325 A  
HETATM   22  C   UNL     1     -11.406  15.853  64.636  1.00  0.00    -0.328 A  
HETATM   23  C   UNL     1     -12.265  14.924  64.040  1.00  0.00    -0.151 A  
HETATM   24  C   UNL     1     -11.913  13.578  63.984  1.00  0.00    -0.501 A  
HETATM   25  C   UNL     1     -10.696  13.163  64.520  1.00  0.00    -0.416 A  
HETATM   26  C   UNL     1      -9.830  14.098  65.100  1.00  0.00    -0.140 A  
ENDBRANCH  20  21
ENDBRANCH  18  20
ENDBRANCH  15  18
ENDBRANCH  12  14
TORSDOF 4
ENDMDL
MODEL      132
REMARK 921   NORMALIZED FREE ENERGY PREDICTED BY IDOCK:   -4.11 KCAL/MOL
REMARK 922        TOTAL FREE ENERGY PREDICTED BY IDOCK:   -5.85 KCAL/MOL
REMARK 923 INTER-LIGAND FREE ENERGY PREDICTED BY IDOCK:   -5.19 KCAL/MOL
REMARK 924 INTRA-LIGAND FREE ENERGY PREDICTED BY IDOCK:   -0.66 KCAL/MOL
REMARK 927      BINDING AFFINITY PREDICTED BY RF-SCORE:    0.00 PKD
ROOT
HETATM    1  C   UNL     1      -9.439   9.549  67.501  1.00  0.00    -0.130 C  
HETATM    2  S   UNL     1      -7.671   9.142  67.833  1.00  0.00    -0.093 SA 
HETATM    3  C   UNL     1      -7.584   7.792  66.565  1.00  0.00    -0.096 C  
HETATM    4  CA  UNL     1      -8.754   8.076  65.588  1.00  0.00    -0.125 C  
HETATM    5  C   UNL     1      -7.768   6.450  67.304  1.00  0.00    -0.100 C  
HETATM    6  C   UNL     1      -6.183   7.770  65.944  1.00  0.00    -0.042 C  
HETATM    7  N   UNL     1      -9.846   8.683  66.377  1.00  0.00    -0.269 N  
HETATM    8  C   UNL     1      -8.418   9.025  64.418  1.00  0.00    -0.174 C  
HETATM    9  C   UNL     1     -10.646   7.883  67.163  1.00  0.00    -0.313 C  
HETATM   10  OXT UNL     1      -7.491   8.881  63.644  1.00  0.00    -0.100 OA 
HETATM   11  O   UNL     1      -9.319  10.033  64.265  1.00  0.00    -0.261 OA 
HETATM   12  CA  UNL     1     -10.489   8.835  68.393  1.00  0.00    -0.176 C  
HETATM   13  O   UNL     1     -11.101   6.786  66.933  1.00  0.00    -0.397 OA 
ENDROOT
BRANCH  12  14
HETATM   14  N   UNL     1      -9.939   8.237  69.639  1.00  0.00    -0.189 N  
HETATM   15  C   UNL     1     -10.708   7.931  70.741  1.00  0.00    -0.223 C  
HETATM   16  H   UNL     1      -8.939   8.043  69.680  1.00  0.00     0.000 HD 
HETATM   17  O   UNL     1     -11.907   8.193  70.785  1.00  0.00    -0.260 OA 
BRANCH  15  18
HETATM   18  C   UNL     1      -9.958   7.267  71.922  1.00  0.00    -0.166 C  
HETATM   19  C   UNL     1      -9.318   8.328  72.823  1.00  0.00    -0.338 C  
BRANCH  18  20
HETATM   20  O   UNL     1     -10.903   6.478  72.651  1.00  0.00    -0.227 OA 
BRANCH  20  21
HETATM   21  C   UNL     1     -10.650   5.137  72.782  1.00  0.00    -0.229 A  
HETATM   22  C   UNL     1     -10.929   4.361  73.909  1.00  0.00    -0.315 A  
HETATM   23  C   UNL     1     -10.679   2.985  73.906  1.00  0.00    -0.284 A  
HETATM   24  C   UNL     1     -10.135   2.374  72.780  1.00  0.00    -0.219 A  
HETATM   25  C   UNL     1      -9.846   3.139  71.653  1.00  0.00    -0.216 A  
HETATM   26  C   UNL     1     -10.113   4.513  71.653  1.00  0.00    -0.249 A  
ENDBRANCH  20  21
ENDBRANCH  18  20
ENDBRANCH  15  18
ENDBRANCH  12  14
TORSDOF 4
ENDMDL
MODEL      133
REMARK 921   NORMALIZED FREE ENERGY PREDICTED BY IDOCK:   -4.06 KCAL/MOL
REMARK 922        TOTAL FREE ENERGY PREDICTED BY IDOCK:   -5.79 KCAL/MOL
REMARK 923 INTER-LIGAND FREE ENERGY PREDICTED BY IDOCK:   -5.67 KCAL/MOL
REMARK 924 INTRA-LIGAND FREE ENERGY PREDICTED BY IDOCK:   -0.12 KCAL/MOL
REMARK 927      BINDING AFFINITY PREDICTED BY RF-SCORE:    0.00 PKD
ROOT
HETATM    1  C   UNL     1     -11.717  12.753  68.591  1.00  0.00    -0.324 C  
HETATM    2  S   UNL     1     -10.083  13.531  68.948  1.00  0.00     0.074 SA 
HETATM    3  C   UNL     1      -9.417  13.284  67.235  1.00  0.00    -0.233 C  
HETATM    4  CA  UNL     1     -10.667  13.096  66.336  1.00  0.00    -0.284 C  
HETATM    5  C   UNL     1      -8.534  12.019  67.260  1.00  0.00    -0.175 C  
HETATM    6  C   UNL     1      -8.503  14.459  66.873  1.00  0.00    -0.156 C  
HETATM    7  N   UNL     1     -11.695  12.419  67.153  1.00  0.00    -0.361 N  
HETATM    8  C   UNL     1     -11.277  14.399  65.777  1.00  0.00    -0.326 C  
HETATM    9  C   UNL     1     -11.604  11.062  67.376  1.00  0.00    -0.017 C  
HETATM   10  OXT UNL     1     -10.664  15.249  65.158  1.00  0.00    -0.376 OA 
HETATM   11  O   UNL     1     -12.620  14.492  65.968  1.00  0.00    -0.293 OA 
HETATM   12  CA  UNL     1     -11.843  11.239  68.911  1.00  0.00    -0.345 C  
HETATM   13  O   UNL     1     -11.283  10.176  66.617  1.00  0.00     0.061 OA 
ENDROOT
BRANCH  12  14
HETATM   14  N   UNL     1     -10.791  10.709  69.819  1.00  0.00    -0.328 N  
HETATM   15  C   UNL     1     -10.953   9.582  70.596  1.00  0.00    -0.306 C  
HETATM   16  H   UNL     1      -9.902  11.206  69.870  1.00  0.00     0.000 HD 
HETATM   17  O   UNL     1     -12.016   8.970  70.631  1.00  0.00    -0.226 OA 
BRANCH  15  18
HETATM   18  C   UNL     1      -9.723   9.162  71.438  1.00  0.00    -0.268 C  
HETATM   19  C   UNL     1     -10.146   8.281  72.616  1.00  0.00    -0.365 C  
BRANCH  18  20
HETATM   20  O   UNL     1      -8.821   8.464  70.573  1.00  0.00    -0.138 OA 
BRANCH  20  21
HETATM   21  C   UNL     1      -9.342   7.497  69.753  1.00  0.00    -0.150 A  
HETATM   22  C   UNL     1      -9.811   6.247  70.162  1.00  0.00    -0.201 A  
HETATM   23  C   UNL     1     -10.377   5.361  69.240  1.00  0.00    -0.322 A  
HETATM   24  C   UNL     1     -10.467   5.712  67.896  1.00  0.00    -0.274 A  
HETATM   25  C   UNL     1      -9.997   6.953  67.476  1.00  0.00    -0.190 A  
HETATM   26  C   UNL     1      -9.447   7.845  68.404  1.00  0.00    -0.150 A  
ENDBRANCH  20  21
ENDBRANCH  18  20
ENDBRANCH  15  18
ENDBRANCH  12  14
TORSDOF 4
ENDMDL
MODEL      134
REMARK 921   NORMALIZED FREE ENERGY PREDICTED BY IDOCK:   -4.05 KCAL/MOL
REMARK 922        TOTAL FREE ENERGY PREDICTED BY IDOCK:   -5.77 KCAL/MOL
REMARK 923 INTER-LIGAND FREE ENERGY PREDICTED BY IDOCK:   -4.76 KCAL/MOL
REMARK 924 INTRA-LIGAND FREE ENERGY PREDICTED BY IDOCK:   -1.02 KCAL/MOL
REMARK 927      BINDING AFFINITY PREDICTED BY RF-SCORE:    0.00 PKD
ROOT
HETATM    1  C   UNL     1      -7.918  10.796  69.356  1.00  0.00    -0.067 C  
HETATM    2  S   UNL     1      -6.681   9.430  69.435  1.00  0.00    -0.049 SA 
HETATM    3  C   UNL     1      -6.663   9.132  67.606  1.00  0.00    -0.069 C  
HETATM    4  CA  UNL     1      -7.204  10.441  66.975  1.00  0.00    -0.093 C  
HETATM    5  C   UNL     1      -7.591   7.933  67.323  1.00  0.00    -0.101 C  
HETATM    6  C   UNL     1      -5.252   8.715  67.175  1.00  0.00    -0.033 C  
HETATM    7  N   UNL     1      -8.190  11.007  67.919  1.00  0.00    -0.116 N  
HETATM    8  C   UNL     1      -6.141  11.521  66.684  1.00  0.00    -0.126 C  
HETATM    9  C   UNL     1      -9.457  10.469  67.987  1.00  0.00    -0.148 C  
HETATM   10  OXT UNL     1      -5.126  11.346  66.035  1.00  0.00    -0.248 OA 
HETATM   11  O   UNL     1      -6.474  12.750  67.160  1.00  0.00    -0.185 OA 
HETATM   12  CA  UNL     1      -9.404  10.392  69.547  1.00  0.00    -0.127 C  
HETATM   13  O   UNL     1     -10.178  10.083  67.096  1.00  0.00    -0.203 OA 
ENDROOT
BRANCH  12  14
HETATM   14  N   UNL     1      -9.606   9.051  70.160  1.00  0.00    -0.181 N  
HETATM   15  C   UNL     1     -10.826   8.597  70.614  1.00  0.00    -0.229 C  
HETATM   16  H   UNL     1      -8.799   8.435  70.249  1.00  0.00     0.000 HD 
HETATM   17  O   UNL     1     -11.827   9.308  70.594  1.00  0.00    -0.267 OA 
BRANCH  15  18
HETATM   18  C   UNL     1     -10.841   7.153  71.173  1.00  0.00    -0.239 C  
HETATM   19  C   UNL     1     -11.479   7.117  72.565  1.00  0.00    -0.297 C  
BRANCH  18  20
HETATM   20  O   UNL     1     -11.572   6.337  70.253  1.00  0.00    -0.395 OA 
BRANCH  20  21
HETATM   21  C   UNL     1     -10.881   5.770  69.214  1.00  0.00    -0.303 A  
HETATM   22  C   UNL     1     -10.053   4.648  69.301  1.00  0.00    -0.170 A  
HETATM   23  C   UNL     1      -9.444   4.122  68.158  1.00  0.00    -0.215 A  
HETATM   24  C   UNL     1      -9.645   4.721  66.917  1.00  0.00    -0.185 A  
HETATM   25  C   UNL     1     -10.463   5.844  66.820  1.00  0.00    -0.344 A  
HETATM   26  C   UNL     1     -11.086   6.358  67.963  1.00  0.00    -0.365 A  
ENDBRANCH  20  21
ENDBRANCH  18  20
ENDBRANCH  15  18
ENDBRANCH  12  14
TORSDOF 4
ENDMDL
MODEL      135
REMARK 921   NORMALIZED FREE ENERGY PREDICTED BY IDOCK:   -4.02 KCAL/MOL
REMARK 922        TOTAL FREE ENERGY PREDICTED BY IDOCK:   -5.74 KCAL/MOL
REMARK 923 INTER-LIGAND FREE ENERGY PREDICTED BY IDOCK:   -5.10 KCAL/MOL
REMARK 924 INTRA-LIGAND FREE ENERGY PREDICTED BY IDOCK:   -0.64 KCAL/MOL
REMARK 927      BINDING AFFINITY PREDICTED BY RF-SCORE:    0.00 PKD
ROOT
HETATM    1  C   UNL     1      -8.386  16.090  68.170  1.00  0.00    -0.160 C  
HETATM    2  S   UNL     1      -8.813  15.609  66.441  1.00  0.00    -0.327 SA 
HETATM    3  C   UNL     1     -10.521  16.328  66.499  1.00  0.00    -0.290 C  
HETATM    4  CA  UNL     1     -10.488  17.362  67.654  1.00  0.00    -0.368 C  
HETATM    5  C   UNL     1     -11.500  15.172  66.792  1.00  0.00    -0.195 C  
HETATM    6  C   UNL     1     -10.885  16.880  65.116  1.00  0.00    -0.105 C  
HETATM    7  N   UNL     1      -9.547  16.850  68.673  1.00  0.00    -0.257 N  
HETATM    8  C   UNL     1     -10.038  18.783  67.254  1.00  0.00    -0.357 C  
HETATM    9  C   UNL     1      -9.948  15.847  69.529  1.00  0.00    -0.274 C  
HETATM   10  OXT UNL     1     -10.526  19.444  66.357  1.00  0.00    -0.424 OA 
HETATM   11  O   UNL     1      -9.068  19.290  68.061  1.00  0.00    -0.300 OA 
HETATM   12  CA  UNL     1      -8.647  15.022  69.266  1.00  0.00    -0.167 C  
HETATM   13  O   UNL     1     -11.010  15.690  70.087  1.00  0.00    -0.283 OA 
ENDROOT
BRANCH  12  14
HETATM   14  N   UNL     1      -8.823  13.637  68.751  1.00  0.00    -0.373 N  
HETATM   15  C   UNL     1      -7.780  12.756  68.563  1.00  0.00    -0.113 C  
HETATM   16  H   UNL     1      -9.767  13.323  68.525  1.00  0.00     0.000 HD 
HETATM   17  O   UNL     1      -6.613  13.086  68.756  1.00  0.00    -0.084 OA 
BRANCH  15  18
HETATM   18  C   UNL     1      -8.174  11.343  68.067  1.00  0.00    -0.140 C  
HETATM   19  C   UNL     1      -8.473  11.359  66.565  1.00  0.00    -0.170 C  
BRANCH  18  20
HETATM   20  O   UNL     1      -7.089  10.458  68.365  1.00  0.00    -0.075 OA 
BRANCH  20  21
HETATM   21  C   UNL     1      -7.319   9.443  69.256  1.00  0.00    -0.071 A  
HETATM   22  C   UNL     1      -7.459   9.587  70.638  1.00  0.00    -0.136 A  
HETATM   23  C   UNL     1      -7.750   8.482  71.444  1.00  0.00    -0.131 A  
HETATM   24  C   UNL     1      -7.891   7.219  70.877  1.00  0.00    -0.094 A  
HETATM   25  C   UNL     1      -7.747   7.062  69.501  1.00  0.00    -0.107 A  
HETATM   26  C   UNL     1      -7.472   8.172  68.694  1.00  0.00    -0.098 A  
ENDBRANCH  20  21
ENDBRANCH  18  20
ENDBRANCH  15  18
ENDBRANCH  12  14
TORSDOF 4
ENDMDL
MODEL      136
REMARK 921   NORMALIZED FREE ENERGY PREDICTED BY IDOCK:   -4.02 KCAL/MOL
REMARK 922        TOTAL FREE ENERGY PREDICTED BY IDOCK:   -5.74 KCAL/MOL
REMARK 923 INTER-LIGAND FREE ENERGY PREDICTED BY IDOCK:   -5.10 KCAL/MOL
REMARK 924 INTRA-LIGAND FREE ENERGY PREDICTED BY IDOCK:   -0.64 KCAL/MOL
REMARK 927      BINDING AFFINITY PREDICTED BY RF-SCORE:    0.00 PKD
ROOT
HETATM    1  C   UNL     1      -9.378  14.258  66.350  1.00  0.00    -0.245 C  
HETATM    2  S   UNL     1      -9.868  12.642  65.607  1.00  0.00    -0.148 SA 
HETATM    3  C   UNL     1     -11.690  12.966  65.723  1.00  0.00    -0.390 C  
HETATM    4  CA  UNL     1     -11.823  14.507  65.836  1.00  0.00    -0.331 C  
HETATM    5  C   UNL     1     -12.207  12.252  66.989  1.00  0.00     0.240 C  
HETATM    6  C   UNL     1     -12.396  12.319  64.527  1.00  0.00    -0.468 C  
HETATM    7  N   UNL     1     -10.638  14.995  66.571  1.00  0.00    -0.298 N  
HETATM    8  C   UNL     1     -11.901  15.261  64.492  1.00  0.00    -0.295 C  
HETATM    9  C   UNL     1     -10.582  14.861  67.942  1.00  0.00    -0.254 C  
HETATM   10  OXT UNL     1     -12.691  15.020  63.599  1.00  0.00    -0.627 OA 
HETATM   11  O   UNL     1     -11.037  16.309  64.410  1.00  0.00    -0.735 OA 
HETATM   12  CA  UNL     1      -9.137  14.266  67.883  1.00  0.00    -0.190 C  
HETATM   13  O   UNL     1     -11.453  15.015  68.767  1.00  0.00    -0.286 OA 
ENDROOT
BRANCH  12  14
HETATM   14  N   UNL     1      -8.940  12.920  68.486  1.00  0.00    -0.368 N  
HETATM   15  C   UNL     1      -7.701  12.357  68.704  1.00  0.00    -0.067 C  
HETATM   16  H   UNL     1      -9.767  12.385  68.752  1.00  0.00     0.000 HD 
HETATM   17  O   UNL     1      -6.667  12.918  68.353  1.00  0.00    -0.077 OA 
BRANCH  15  18
HETATM   18  C   UNL     1      -7.704  10.968  69.389  1.00  0.00    -0.020 C  
HETATM   19  C   UNL     1      -9.118  10.380  69.416  1.00  0.00    -0.170 C  
BRANCH  18  20
HETATM   20  O   UNL     1      -6.811  10.121  68.660  1.00  0.00    -0.056 OA 
BRANCH  20  21
HETATM   21  C   UNL     1      -6.642   8.836  69.106  1.00  0.00    -0.047 A  
HETATM   22  C   UNL     1      -6.246   8.465  70.393  1.00  0.00    -0.035 A  
HETATM   23  C   UNL     1      -6.163   7.117  70.752  1.00  0.00    -0.036 A  
HETATM   24  C   UNL     1      -6.463   6.124  69.824  1.00  0.00    -0.043 A  
HETATM   25  C   UNL     1      -6.853   6.482  68.536  1.00  0.00    -0.071 A  
HETATM   26  C   UNL     1      -6.951   7.833  68.184  1.00  0.00    -0.079 A  
ENDBRANCH  20  21
ENDBRANCH  18  20
ENDBRANCH  15  18
ENDBRANCH  12  14
TORSDOF 4
ENDMDL
MODEL      137
REMARK 921   NORMALIZED FREE ENERGY PREDICTED BY IDOCK:   -4.02 KCAL/MOL
REMARK 922        TOTAL FREE ENERGY PREDICTED BY IDOCK:   -5.73 KCAL/MOL
REMARK 923 INTER-LIGAND FREE ENERGY PREDICTED BY IDOCK:   -6.37 KCAL/MOL
REMARK 924 INTRA-LIGAND FREE ENERGY PREDICTED BY IDOCK:    0.64 KCAL/MOL
REMARK 927      BINDING AFFINITY PREDICTED BY RF-SCORE:    0.00 PKD
ROOT
HETATM    1  C   UNL     1      -9.891  14.526  67.417  1.00  0.00    -0.227 C  
HETATM    2  S   UNL     1     -10.424  13.366  66.086  1.00  0.00    -0.300 SA 
HETATM    3  C   UNL     1     -11.932  14.341  65.626  1.00  0.00    -0.386 C  
HETATM    4  CA  UNL     1     -11.666  15.775  66.155  1.00  0.00     0.579 C  
HETATM    5  C   UNL     1     -13.139  13.686  66.329  1.00  0.00     0.575 C  
HETATM    6  C   UNL     1     -12.174  14.218  64.118  1.00  0.00    -0.410 C  
HETATM    7  N   UNL     1     -10.855  15.645  67.383  1.00  0.00    -0.317 N  
HETATM    8  C   UNL     1     -10.918  16.708  65.180  1.00  0.00    -0.151 C  
HETATM    9  C   UNL     1     -11.461  15.279  68.565  1.00  0.00    -0.342 C  
HETATM   10  OXT UNL     1     -11.254  16.936  64.033  1.00  0.00    -1.037 OA 
HETATM   11  O   UNL     1      -9.856  17.341  65.746  1.00  0.00    -0.528 OA 
HETATM   12  CA  UNL     1     -10.374  14.193  68.854  1.00  0.00    -0.199 C  
HETATM   13  O   UNL     1     -12.528  15.620  69.022  1.00  0.00    -0.088 OA 
ENDROOT
BRANCH  12  14
HETATM   14  N   UNL     1     -10.853  12.796  69.038  1.00  0.00    -0.398 N  
HETATM   15  C   UNL     1     -11.916  12.456  69.847  1.00  0.00    -0.299 C  
HETATM   16  H   UNL     1     -10.368  12.050  68.539  1.00  0.00     0.000 HD 
HETATM   17  O   UNL     1     -12.507  13.293  70.523  1.00  0.00    -0.315 OA 
BRANCH  15  18
HETATM   18  C   UNL     1     -12.292  10.954  69.866  1.00  0.00    -0.285 C  
HETATM   19  C   UNL     1     -11.564  10.198  68.751  1.00  0.00    -0.037 C  
BRANCH  18  20
HETATM   20  O   UNL     1     -11.942  10.433  71.152  1.00  0.00    -0.352 OA 
BRANCH  20  21
HETATM   21  C   UNL     1     -11.822   9.074  71.280  1.00  0.00    -0.312 A  
HETATM   22  C   UNL     1     -12.823   8.204  71.717  1.00  0.00    -0.355 A  
HETATM   23  C   UNL     1     -12.602   6.824  71.752  1.00  0.00    -0.370 A  
HETATM   24  C   UNL     1     -11.373   6.300  71.362  1.00  0.00    -0.353 A  
HETATM   25  C   UNL     1     -10.365   7.158  70.930  1.00  0.00    -0.214 A  
HETATM   26  C   UNL     1     -10.594   8.538  70.880  1.00  0.00    -0.252 A  
ENDBRANCH  20  21
ENDBRANCH  18  20
ENDBRANCH  15  18
ENDBRANCH  12  14
TORSDOF 4
ENDMDL
MODEL      138
REMARK 921   NORMALIZED FREE ENERGY PREDICTED BY IDOCK:   -3.96 KCAL/MOL
REMARK 922        TOTAL FREE ENERGY PREDICTED BY IDOCK:   -5.66 KCAL/MOL
REMARK 923 INTER-LIGAND FREE ENERGY PREDICTED BY IDOCK:   -5.83 KCAL/MOL
REMARK 924 INTRA-LIGAND FREE ENERGY PREDICTED BY IDOCK:    0.17 KCAL/MOL
REMARK 927      BINDING AFFINITY PREDICTED BY RF-SCORE:    0.00 PKD
ROOT
HETATM    1  C   UNL     1     -10.404   8.131  66.833  1.00  0.00    -0.331 C  
HETATM    2  S   UNL     1      -8.792   8.605  66.072  1.00  0.00    -0.189 SA 
HETATM    3  C   UNL     1      -7.778   7.491  67.153  1.00  0.00    -0.112 C  
HETATM    4  CA  UNL     1      -8.771   6.423  67.681  1.00  0.00    -0.114 C  
HETATM    5  C   UNL     1      -7.202   8.353  68.295  1.00  0.00    -0.086 C  
HETATM    6  C   UNL     1      -6.585   6.958  66.352  1.00  0.00    -0.052 C  
HETATM    7  N   UNL     1     -10.087   7.080  67.821  1.00  0.00    -0.155 N  
HETATM    8  C   UNL     1      -8.945   5.182  66.779  1.00  0.00    -0.113 C  
HETATM    9  C   UNL     1     -10.329   7.897  68.904  1.00  0.00    -0.213 C  
HETATM   10  OXT UNL     1      -8.038   4.482  66.369  1.00  0.00    -0.102 OA 
HETATM   11  O   UNL     1     -10.246   4.874  66.530  1.00  0.00    -0.226 OA 
HETATM   12  CA  UNL     1     -10.908   9.029  67.994  1.00  0.00    -0.041 C  
HETATM   13  O   UNL     1     -10.010   7.756  70.062  1.00  0.00    -0.184 OA 
ENDROOT
BRANCH  12  14
HETATM   14  N   UNL     1     -10.249  10.360  68.077  1.00  0.00    -0.162 N  
HETATM   15  C   UNL     1     -10.941  11.549  68.159  1.00  0.00    -0.228 C  
HETATM   16  H   UNL     1      -9.230  10.395  68.074  1.00  0.00     0.000 HD 
HETATM   17  O   UNL     1     -12.168  11.587  68.108  1.00  0.00    -0.576 OA 
BRANCH  15  18
HETATM   18  C   UNL     1     -10.074  12.825  68.290  1.00  0.00    -0.237 C  
HETATM   19  C   UNL     1      -8.587  12.488  68.145  1.00  0.00    -0.189 C  
BRANCH  18  20
HETATM   20  O   UNL     1     -10.492  13.743  67.274  1.00  0.00    -0.261 OA 
BRANCH  20  21
HETATM   21  C   UNL     1     -10.724  13.244  66.019  1.00  0.00    -0.277 A  
HETATM   22  C   UNL     1      -9.839  12.457  65.278  1.00  0.00    -0.180 A  
HETATM   23  C   UNL     1     -10.209  11.955  64.026  1.00  0.00    -0.394 A  
HETATM   24  C   UNL     1     -11.463  12.246  63.496  1.00  0.00    -0.558 A  
HETATM   25  C   UNL     1     -12.351  13.035  64.223  1.00  0.00    -0.436 A  
HETATM   26  C   UNL     1     -11.984  13.522  65.484  1.00  0.00    -0.420 A  
ENDBRANCH  20  21
ENDBRANCH  18  20
ENDBRANCH  15  18
ENDBRANCH  12  14
TORSDOF 4
ENDMDL
MODEL      139
REMARK 921   NORMALIZED FREE ENERGY PREDICTED BY IDOCK:   -3.92 KCAL/MOL
REMARK 922        TOTAL FREE ENERGY PREDICTED BY IDOCK:   -5.62 KCAL/MOL
REMARK 923 INTER-LIGAND FREE ENERGY PREDICTED BY IDOCK:   -4.94 KCAL/MOL
REMARK 924 INTRA-LIGAND FREE ENERGY PREDICTED BY IDOCK:   -0.67 KCAL/MOL
REMARK 927      BINDING AFFINITY PREDICTED BY RF-SCORE:    0.00 PKD
ROOT
HETATM    1  C   UNL     1      -8.340  10.645  68.652  1.00  0.00    -0.137 C  
HETATM    2  S   UNL     1      -8.172   9.644  67.111  1.00  0.00    -0.121 SA 
HETATM    3  C   UNL     1      -9.877  10.028  66.492  1.00  0.00    -0.210 C  
HETATM    4  CA  UNL     1     -10.296  11.324  67.233  1.00  0.00    -0.201 C  
HETATM    5  C   UNL     1     -10.784   8.837  66.863  1.00  0.00    -0.151 C  
HETATM    6  C   UNL     1      -9.853  10.110  64.962  1.00  0.00    -0.392 C  
HETATM    7  N   UNL     1      -9.667  11.288  68.569  1.00  0.00    -0.194 N  
HETATM    8  C   UNL     1      -9.884  12.641  66.541  1.00  0.00    -0.256 C  
HETATM    9  C   UNL     1     -10.212  10.499  69.559  1.00  0.00    -0.200 C  
HETATM   10  OXT UNL     1     -10.136  12.934  65.388  1.00  0.00    -0.285 OA 
HETATM   11  O   UNL     1      -9.259  13.516  67.375  1.00  0.00    -0.204 OA 
HETATM   12  CA  UNL     1      -8.820   9.885  69.917  1.00  0.00    -0.195 C  
HETATM   13  O   UNL     1     -11.373  10.308  69.839  1.00  0.00    -0.254 OA 
ENDROOT
BRANCH  12  14
HETATM   14  N   UNL     1      -8.698   8.404  69.834  1.00  0.00    -0.134 N  
HETATM   15  C   UNL     1      -9.245   7.542  70.759  1.00  0.00    -0.158 C  
HETATM   16  H   UNL     1      -8.181   8.007  69.049  1.00  0.00     0.000 HD 
HETATM   17  O   UNL     1      -9.828   7.952  71.759  1.00  0.00    -0.163 OA 
BRANCH  15  18
HETATM   18  C   UNL     1      -9.052   6.033  70.468  1.00  0.00    -0.149 C  
HETATM   19  C   UNL     1      -8.040   5.824  69.338  1.00  0.00    -0.101 C  
BRANCH  18  20
HETATM   20  O   UNL     1      -8.607   5.410  71.677  1.00  0.00    -0.128 OA 
BRANCH  20  21
HETATM   21  C   UNL     1      -9.463   4.540  72.301  1.00  0.00    -0.134 A  
HETATM   22  C   UNL     1     -10.387   4.875  73.293  1.00  0.00    -0.233 A  
HETATM   23  C   UNL     1     -11.252   3.910  73.817  1.00  0.00    -0.244 A  
HETATM   24  C   UNL     1     -11.193   2.595  73.363  1.00  0.00    -0.267 A  
HETATM   25  C   UNL     1     -10.272   2.248  72.378  1.00  0.00    -0.222 A  
HETATM   26  C   UNL     1      -9.418   3.220  71.843  1.00  0.00    -0.210 A  
ENDBRANCH  20  21
ENDBRANCH  18  20
ENDBRANCH  15  18
ENDBRANCH  12  14
TORSDOF 4
ENDMDL
MODEL      140
REMARK 921   NORMALIZED FREE ENERGY PREDICTED BY IDOCK:   -3.91 KCAL/MOL
REMARK 922        TOTAL FREE ENERGY PREDICTED BY IDOCK:   -5.60 KCAL/MOL
REMARK 923 INTER-LIGAND FREE ENERGY PREDICTED BY IDOCK:   -5.62 KCAL/MOL
REMARK 924 INTRA-LIGAND FREE ENERGY PREDICTED BY IDOCK:    0.02 KCAL/MOL
REMARK 927      BINDING AFFINITY PREDICTED BY RF-SCORE:    0.00 PKD
ROOT
HETATM    1  C   UNL     1     -10.838  12.427  66.946  1.00  0.00    -0.251 C  
HETATM    2  S   UNL     1     -11.728  13.525  68.131  1.00  0.00    -0.373 SA 
HETATM    3  C   UNL     1     -10.463  14.878  68.067  1.00  0.00    -0.246 C  
HETATM    4  CA  UNL     1      -9.690  14.650  66.742  1.00  0.00    -0.257 C  
HETATM    5  C   UNL     1      -9.549  14.716  69.299  1.00  0.00    -0.018 C  
HETATM    6  C   UNL     1     -11.164  16.234  68.208  1.00  0.00    -0.324 C  
HETATM    7  N   UNL     1      -9.657  13.193  66.500  1.00  0.00    -0.266 N  
HETATM    8  C   UNL     1     -10.300  15.332  65.499  1.00  0.00    -0.383 C  
HETATM    9  C   UNL     1      -8.769  12.405  67.200  1.00  0.00    -0.195 C  
HETATM   10  OXT UNL     1     -10.575  16.514  65.413  1.00  0.00    -0.509 OA 
HETATM   11  O   UNL     1     -10.439  14.493  64.437  1.00  0.00    -0.180 OA 
HETATM   12  CA  UNL     1      -9.883  11.373  67.568  1.00  0.00    -0.178 C  
HETATM   13  O   UNL     1      -7.617  12.622  67.498  1.00  0.00    -0.137 OA 
ENDROOT
BRANCH  12  14
HETATM   14  N   UNL     1     -10.106  11.114  69.016  1.00  0.00    -0.326 N  
HETATM   15  C   UNL     1     -10.580   9.919  69.512  1.00  0.00    -0.242 C  
HETATM   16  H   UNL     1      -9.898  11.862  69.678  1.00  0.00     0.000 HD 
HETATM   17  O   UNL     1     -10.908   8.997  68.771  1.00  0.00    -0.153 OA 
BRANCH  15  18
HETATM   18  C   UNL     1     -10.695   9.829  71.054  1.00  0.00    -0.272 C  
HETATM   19  C   UNL     1     -11.765   8.810  71.459  1.00  0.00    -0.377 C  
BRANCH  18  20
HETATM   20  O   UNL     1      -9.412   9.456  71.567  1.00  0.00    -0.259 OA 
BRANCH  20  21
HETATM   21  C   UNL     1      -8.809   8.347  71.034  1.00  0.00    -0.161 A  
HETATM   22  C   UNL     1      -9.209   7.024  71.237  1.00  0.00    -0.152 A  
HETATM   23  C   UNL     1      -8.549   5.974  70.592  1.00  0.00    -0.134 A  
HETATM   24  C   UNL     1      -7.474   6.233  69.748  1.00  0.00    -0.081 A  
HETATM   25  C   UNL     1      -7.062   7.548  69.543  1.00  0.00    -0.069 A  
HETATM   26  C   UNL     1      -7.735   8.599  70.176  1.00  0.00    -0.081 A  
ENDBRANCH  20  21
ENDBRANCH  18  20
ENDBRANCH  15  18
ENDBRANCH  12  14
TORSDOF 4
ENDMDL
MODEL      141
REMARK 921   NORMALIZED FREE ENERGY PREDICTED BY IDOCK:   -3.89 KCAL/MOL
REMARK 922        TOTAL FREE ENERGY PREDICTED BY IDOCK:   -5.58 KCAL/MOL
REMARK 923 INTER-LIGAND FREE ENERGY PREDICTED BY IDOCK:   -4.83 KCAL/MOL
REMARK 924 INTRA-LIGAND FREE ENERGY PREDICTED BY IDOCK:   -0.75 KCAL/MOL
REMARK 927      BINDING AFFINITY PREDICTED BY RF-SCORE:    0.00 PKD
ROOT
HETATM    1  C   UNL     1     -11.451  11.273  67.312  1.00  0.00    -0.186 C  
HETATM    2  S   UNL     1     -10.565  12.115  68.694  1.00  0.00    -0.202 SA 
HETATM    3  C   UNL     1      -9.501  13.153  67.585  1.00  0.00    -0.207 C  
HETATM    4  CA  UNL     1     -10.245  13.189  66.225  1.00  0.00    -0.293 C  
HETATM    5  C   UNL     1      -8.131  12.453  67.471  1.00  0.00    -0.173 C  
HETATM    6  C   UNL     1      -9.253  14.512  68.249  1.00  0.00    -0.201 C  
HETATM    7  N   UNL     1     -10.941  11.894  66.073  1.00  0.00    -0.299 N  
HETATM    8  C   UNL     1     -11.287  14.317  66.074  1.00  0.00    -0.335 C  
HETATM    9  C   UNL     1     -10.228  10.776  65.698  1.00  0.00    -0.257 C  
HETATM   10  OXT UNL     1     -11.069  15.500  66.257  1.00  0.00    -0.286 OA 
HETATM   11  O   UNL     1     -12.496  13.880  65.628  1.00  0.00    -0.453 OA 
HETATM   12  CA  UNL     1     -10.861   9.918  66.840  1.00  0.00    -0.066 C  
HETATM   13  O   UNL     1      -9.342  10.666  64.882  1.00  0.00    -0.197 OA 
ENDROOT
BRANCH  12  14
HETATM   14  N   UNL     1      -9.920   9.283  67.803  1.00  0.00    -0.179 N  
HETATM   15  C   UNL     1      -9.391   8.022  67.633  1.00  0.00    -0.143 C  
HETATM   16  H   UNL     1      -9.652   9.811  68.634  1.00  0.00     0.000 HD 
HETATM   17  O   UNL     1      -9.717   7.308  66.688  1.00  0.00    -0.191 OA 
BRANCH  15  18
HETATM   18  C   UNL     1      -8.391   7.560  68.720  1.00  0.00    -0.129 C  
HETATM   19  C   UNL     1      -7.782   8.764  69.445  1.00  0.00    -0.093 C  
BRANCH  18  20
HETATM   20  O   UNL     1      -9.099   6.716  69.634  1.00  0.00    -0.142 OA 
BRANCH  20  21
HETATM   21  C   UNL     1      -8.834   5.372  69.598  1.00  0.00    -0.109 A  
HETATM   22  C   UNL     1      -9.726   4.356  69.949  1.00  0.00    -0.291 A  
HETATM   23  C   UNL     1      -9.362   3.012  69.816  1.00  0.00    -0.215 A  
HETATM   24  C   UNL     1      -8.099   2.670  69.343  1.00  0.00    -0.063 A  
HETATM   25  C   UNL     1      -7.199   3.675  68.996  1.00  0.00    -0.050 A  
HETATM   26  C   UNL     1      -7.572   5.019  69.114  1.00  0.00    -0.072 A  
ENDBRANCH  20  21
ENDBRANCH  18  20
ENDBRANCH  15  18
ENDBRANCH  12  14
TORSDOF 4
ENDMDL
MODEL      142
REMARK 921   NORMALIZED FREE ENERGY PREDICTED BY IDOCK:   -3.87 KCAL/MOL
REMARK 922        TOTAL FREE ENERGY PREDICTED BY IDOCK:   -5.56 KCAL/MOL
REMARK 923 INTER-LIGAND FREE ENERGY PREDICTED BY IDOCK:   -4.94 KCAL/MOL
REMARK 924 INTRA-LIGAND FREE ENERGY PREDICTED BY IDOCK:   -0.62 KCAL/MOL
REMARK 927      BINDING AFFINITY PREDICTED BY RF-SCORE:    0.00 PKD
ROOT
HETATM    1  C   UNL     1      -9.965  13.782  68.614  1.00  0.00    -0.174 C  
HETATM    2  S   UNL     1      -8.573  14.467  67.616  1.00  0.00    -0.192 SA 
HETATM    3  C   UNL     1      -9.653  15.556  66.573  1.00  0.00    -0.272 C  
HETATM    4  CA  UNL     1     -10.958  15.737  67.391  1.00  0.00    -0.279 C  
HETATM    5  C   UNL     1      -9.908  14.818  65.243  1.00  0.00    -0.235 C  
HETATM    6  C   UNL     1      -8.894  16.843  66.231  1.00  0.00    -0.314 C  
HETATM    7  N   UNL     1     -11.176  14.488  68.149  1.00  0.00    -0.272 N  
HETATM    8  C   UNL     1     -10.951  16.913  68.391  1.00  0.00    -0.296 C  
HETATM    9  C   UNL     1     -11.686  13.380  67.507  1.00  0.00    -0.366 C  
HETATM   10  OXT UNL     1     -10.683  18.066  68.113  1.00  0.00    -0.355 OA 
HETATM   11  O   UNL     1     -11.358  16.561  69.641  1.00  0.00    -0.246 OA 
HETATM   12  CA  UNL     1     -10.583  12.451  68.110  1.00  0.00    -0.216 C  
HETATM   13  O   UNL     1     -12.560  13.307  66.674  1.00  0.00    -0.254 OA 
ENDROOT
BRANCH  12  14
HETATM   14  N   UNL     1      -9.735  11.701  67.144  1.00  0.00    -0.181 N  
HETATM   15  C   UNL     1      -8.794  10.767  67.521  1.00  0.00    -0.128 C  
HETATM   16  H   UNL     1      -9.857  11.888  66.149  1.00  0.00     0.000 HD 
HETATM   17  O   UNL     1      -8.552  10.536  68.702  1.00  0.00    -0.124 OA 
BRANCH  15  18
HETATM   18  C   UNL     1      -8.049  10.058  66.364  1.00  0.00    -0.120 C  
HETATM   19  C   UNL     1      -6.641   9.642  66.800  1.00  0.00    -0.067 C  
BRANCH  18  20
HETATM   20  O   UNL     1      -8.824   8.918  65.979  1.00  0.00    -0.150 OA 
BRANCH  20  21
HETATM   21  C   UNL     1      -8.501   8.293  64.803  1.00  0.00    -0.070 A  
HETATM   22  C   UNL     1      -8.471   8.892  63.542  1.00  0.00    -0.146 A  
HETATM   23  C   UNL     1      -8.068   8.166  62.418  1.00  0.00    -0.167 A  
HETATM   24  C   UNL     1      -7.704   6.828  62.540  1.00  0.00    -0.100 A  
HETATM   25  C   UNL     1      -7.737   6.218  63.792  1.00  0.00    -0.107 A  
HETATM   26  C   UNL     1      -8.124   6.952  64.919  1.00  0.00    -0.109 A  
ENDBRANCH  20  21
ENDBRANCH  18  20
ENDBRANCH  15  18
ENDBRANCH  12  14
TORSDOF 4
ENDMDL
MODEL      143
REMARK 921   NORMALIZED FREE ENERGY PREDICTED BY IDOCK:   -3.79 KCAL/MOL
REMARK 922        TOTAL FREE ENERGY PREDICTED BY IDOCK:   -5.46 KCAL/MOL
REMARK 923 INTER-LIGAND FREE ENERGY PREDICTED BY IDOCK:   -5.12 KCAL/MOL
REMARK 924 INTRA-LIGAND FREE ENERGY PREDICTED BY IDOCK:   -0.34 KCAL/MOL
REMARK 927      BINDING AFFINITY PREDICTED BY RF-SCORE:    0.00 PKD
ROOT
HETATM    1  C   UNL     1      -9.966  10.189  67.645  1.00  0.00    -0.181 C  
HETATM    2  S   UNL     1      -8.140  10.390  67.487  1.00  0.00    -0.107 SA 
HETATM    3  C   UNL     1      -8.004   9.367  65.947  1.00  0.00    -0.106 C  
HETATM    4  CA  UNL     1      -9.429   9.361  65.336  1.00  0.00    -0.253 C  
HETATM    5  C   UNL     1      -7.556   7.953  66.369  1.00  0.00    -0.091 C  
HETATM    6  C   UNL     1      -6.896   9.939  65.056  1.00  0.00    -0.126 C  
HETATM    7  N   UNL     1     -10.387   9.415  66.460  1.00  0.00    -0.232 N  
HETATM    8  C   UNL     1      -9.741  10.533  64.381  1.00  0.00    -0.328 C  
HETATM    9  C   UNL     1     -10.652   8.274  67.186  1.00  0.00    -0.270 C  
HETATM   10  OXT UNL     1      -9.070  10.846  63.416  1.00  0.00    -0.212 OA 
HETATM   11  O   UNL     1     -10.911  11.166  64.666  1.00  0.00    -0.281 OA 
HETATM   12  CA  UNL     1     -10.455   9.022  68.544  1.00  0.00    -0.196 C  
HETATM   13  O   UNL     1     -10.797   7.135  66.805  1.00  0.00    -0.320 OA 
ENDROOT
BRANCH  12  14
HETATM   14  N   UNL     1      -9.422   8.477  69.467  1.00  0.00    -0.164 N  
HETATM   15  C   UNL     1      -9.460   8.642  70.835  1.00  0.00    -0.194 C  
HETATM   16  H   UNL     1      -8.645   7.954  69.066  1.00  0.00     0.000 HD 
HETATM   17  O   UNL     1     -10.333   9.312  71.380  1.00  0.00    -0.321 OA 
BRANCH  15  18
HETATM   18  C   UNL     1      -8.320   7.957  71.627  1.00  0.00    -0.116 C  
HETATM   19  C   UNL     1      -8.468   8.221  73.128  1.00  0.00    -0.265 C  
BRANCH  18  20
HETATM   20  O   UNL     1      -8.376   6.554  71.346  1.00  0.00    -0.123 OA 
BRANCH  20  21
HETATM   21  C   UNL     1      -9.084   5.758  72.207  1.00  0.00    -0.142 A  
HETATM   22  C   UNL     1     -10.476   5.666  72.275  1.00  0.00    -0.260 A  
HETATM   23  C   UNL     1     -11.088   4.771  73.158  1.00  0.00    -0.388 A  
HETATM   24  C   UNL     1     -10.315   3.969  73.992  1.00  0.00    -0.249 A  
HETATM   25  C   UNL     1      -8.927   4.056  73.937  1.00  0.00    -0.091 A  
HETATM   26  C   UNL     1      -8.316   4.940  73.040  1.00  0.00    -0.101 A  
ENDBRANCH  20  21
ENDBRANCH  18  20
ENDBRANCH  15  18
ENDBRANCH  12  14
TORSDOF 4
ENDMDL
MODEL      144
REMARK 921   NORMALIZED FREE ENERGY PREDICTED BY IDOCK:   -3.79 KCAL/MOL
REMARK 922        TOTAL FREE ENERGY PREDICTED BY IDOCK:   -5.45 KCAL/MOL
REMARK 923 INTER-LIGAND FREE ENERGY PREDICTED BY IDOCK:   -4.38 KCAL/MOL
REMARK 924 INTRA-LIGAND FREE ENERGY PREDICTED BY IDOCK:   -1.08 KCAL/MOL
REMARK 927      BINDING AFFINITY PREDICTED BY RF-SCORE:    0.00 PKD
ROOT
HETATM    1  C   UNL     1      -9.641  10.102  69.691  1.00  0.00    -0.210 C  
HETATM    2  S   UNL     1      -7.832   9.795  69.876  1.00  0.00    -0.174 SA 
HETATM    3  C   UNL     1      -7.458   9.987  68.071  1.00  0.00    -0.088 C  
HETATM    4  CA  UNL     1      -8.648  10.796  67.493  1.00  0.00    -0.125 C  
HETATM    5  C   UNL     1      -7.377   8.572  67.462  1.00  0.00    -0.089 C  
HETATM    6  C   UNL     1      -6.073  10.623  67.905  1.00  0.00    -0.050 C  
HETATM    7  N   UNL     1      -9.850  10.417  68.264  1.00  0.00    -0.151 N  
HETATM    8  C   UNL     1      -8.495  12.330  67.560  1.00  0.00    -0.172 C  
HETATM    9  C   UNL     1     -10.483   9.222  67.998  1.00  0.00    -0.223 C  
HETATM   10  OXT UNL     1      -7.548  12.959  67.127  1.00  0.00    -0.128 OA 
HETATM   11  O   UNL     1      -9.579  12.958  68.091  1.00  0.00    -0.214 OA 
HETATM   12  CA  UNL     1     -10.538   8.848  69.515  1.00  0.00    -0.228 C  
HETATM   13  O   UNL     1     -10.705   8.688  66.936  1.00  0.00    -0.252 OA 
ENDROOT
BRANCH  12  14
HETATM   14  N   UNL     1      -9.895   7.566  69.913  1.00  0.00    -0.185 N  
HETATM   15  C   UNL     1     -10.590   6.391  70.102  1.00  0.00    -0.240 C  
HETATM   16  H   UNL     1      -8.884   7.557  70.054  1.00  0.00     0.000 HD 
HETATM   17  O   UNL     1     -11.813   6.343  70.009  1.00  0.00    -0.404 OA 
BRANCH  15  18
HETATM   18  C   UNL     1      -9.734   5.153  70.466  1.00  0.00    -0.193 C  
HETATM   19  C   UNL     1     -10.155   4.582  71.823  1.00  0.00    -0.254 C  
BRANCH  18  20
HETATM   20  O   UNL     1      -9.905   4.184  69.427  1.00  0.00    -0.197 OA 
BRANCH  20  21
HETATM   21  C   UNL     1      -9.361   4.461  68.199  1.00  0.00    -0.146 A  
HETATM   22  C   UNL     1     -10.075   4.654  67.015  1.00  0.00    -0.207 A  
HETATM   23  C   UNL     1      -9.413   4.989  65.830  1.00  0.00    -0.171 A  
HETATM   24  C   UNL     1      -8.028   5.122  65.814  1.00  0.00    -0.108 A  
HETATM   25  C   UNL     1      -7.304   4.925  66.987  1.00  0.00    -0.082 A  
HETATM   26  C   UNL     1      -7.971   4.607  68.176  1.00  0.00    -0.084 A  
ENDBRANCH  20  21
ENDBRANCH  18  20
ENDBRANCH  15  18
ENDBRANCH  12  14
TORSDOF 4
ENDMDL
MODEL      145
REMARK 921   NORMALIZED FREE ENERGY PREDICTED BY IDOCK:   -3.75 KCAL/MOL
REMARK 922        TOTAL FREE ENERGY PREDICTED BY IDOCK:   -5.41 KCAL/MOL
REMARK 923 INTER-LIGAND FREE ENERGY PREDICTED BY IDOCK:   -4.65 KCAL/MOL
REMARK 924 INTRA-LIGAND FREE ENERGY PREDICTED BY IDOCK:   -0.76 KCAL/MOL
REMARK 927      BINDING AFFINITY PREDICTED BY RF-SCORE:    0.00 PKD
ROOT
HETATM    1  C   UNL     1      -9.489   6.250  69.218  1.00  0.00    -0.134 C  
HETATM    2  S   UNL     1      -8.239   7.198  70.189  1.00  0.00    -0.137 SA 
HETATM    3  C   UNL     1      -9.045   6.882  71.828  1.00  0.00    -0.138 C  
HETATM    4  CA  UNL     1      -9.932   5.629  71.610  1.00  0.00    -0.174 C  
HETATM    5  C   UNL     1      -9.887   8.126  72.178  1.00  0.00    -0.313 C  
HETATM    6  C   UNL     1      -7.964   6.757  72.908  1.00  0.00    -0.107 C  
HETATM    7  N   UNL     1     -10.413   5.671  70.213  1.00  0.00    -0.270 N  
HETATM    8  C   UNL     1      -9.227   4.275  71.836  1.00  0.00    -0.126 C  
HETATM    9  C   UNL     1     -11.450   6.513  69.874  1.00  0.00    -0.403 C  
HETATM   10  OXT UNL     1      -8.618   3.963  72.842  1.00  0.00    -0.097 OA 
HETATM   11  O   UNL     1      -9.411   3.393  70.816  1.00  0.00    -0.127 OA 
HETATM   12  CA  UNL     1     -10.673   7.067  68.636  1.00  0.00    -0.189 C  
HETATM   13  O   UNL     1     -12.464   6.769  70.481  1.00  0.00    -0.273 OA 
ENDROOT
BRANCH  12  14
HETATM   14  N   UNL     1     -10.446   8.537  68.589  1.00  0.00    -0.297 N  
HETATM   15  C   UNL     1     -10.290   9.246  67.418  1.00  0.00    -0.263 C  
HETATM   16  H   UNL     1     -10.405   9.047  69.471  1.00  0.00     0.000 HD 
HETATM   17  O   UNL     1     -10.268   8.689  66.324  1.00  0.00    -0.264 OA 
BRANCH  15  18
HETATM   18  C   UNL     1     -10.115  10.777  67.576  1.00  0.00    -0.186 C  
HETATM   19  C   UNL     1     -11.477  11.471  67.676  1.00  0.00    -0.357 C  
BRANCH  18  20
HETATM   20  O   UNL     1      -9.335  11.007  68.754  1.00  0.00    -0.189 OA 
BRANCH  20  21
HETATM   21  C   UNL     1      -8.121  11.625  68.605  1.00  0.00    -0.121 A  
HETATM   22  C   UNL     1      -6.873  11.003  68.695  1.00  0.00    -0.064 A  
HETATM   23  C   UNL     1      -5.699  11.727  68.466  1.00  0.00    -0.048 A  
HETATM   24  C   UNL     1      -5.759  13.083  68.159  1.00  0.00    -0.093 A  
HETATM   25  C   UNL     1      -6.997  13.715  68.073  1.00  0.00    -0.135 A  
HETATM   26  C   UNL     1      -8.172  12.984  68.285  1.00  0.00    -0.150 A  
ENDBRANCH  20  21
ENDBRANCH  18  20
ENDBRANCH  15  18
ENDBRANCH  12  14
TORSDOF 4
ENDMDL
MODEL      146
REMARK 921   NORMALIZED FREE ENERGY PREDICTED BY IDOCK:   -3.72 KCAL/MOL
REMARK 922        TOTAL FREE ENERGY PREDICTED BY IDOCK:   -5.37 KCAL/MOL
REMARK 923 INTER-LIGAND FREE ENERGY PREDICTED BY IDOCK:   -4.37 KCAL/MOL
REMARK 924 INTRA-LIGAND FREE ENERGY PREDICTED BY IDOCK:   -1.00 KCAL/MOL
REMARK 927      BINDING AFFINITY PREDICTED BY RF-SCORE:    0.00 PKD
ROOT
HETATM    1  C   UNL     1     -10.865   8.450  69.270  1.00  0.00    -0.054 C  
HETATM    2  S   UNL     1     -10.485   7.035  68.150  1.00  0.00    -0.202 SA 
HETATM    3  C   UNL     1      -8.770   6.777  68.805  1.00  0.00    -0.125 C  
HETATM    4  CA  UNL     1      -8.766   7.441  70.206  1.00  0.00    -0.146 C  
HETATM    5  C   UNL     1      -7.794   7.476  67.837  1.00  0.00    -0.117 C  
HETATM    6  C   UNL     1      -8.435   5.281  68.773  1.00  0.00    -0.092 C  
HETATM    7  N   UNL     1      -9.685   8.596  70.146  1.00  0.00    -0.169 N  
HETATM    8  C   UNL     1      -9.213   6.530  71.369  1.00  0.00    -0.148 C  
HETATM    9  C   UNL     1      -9.272   9.767  69.546  1.00  0.00    -0.213 C  
HETATM   10  OXT UNL     1      -8.741   5.437  71.623  1.00  0.00    -0.132 OA 
HETATM   11  O   UNL     1     -10.158   7.096  72.166  1.00  0.00    -0.179 OA 
HETATM   12  CA  UNL     1     -10.586   9.869  68.707  1.00  0.00    -0.222 C  
HETATM   13  O   UNL     1      -8.198  10.321  69.598  1.00  0.00    -0.167 OA 
ENDROOT
BRANCH  12  14
HETATM   14  N   UNL     1     -10.435   9.928  67.227  1.00  0.00    -0.248 N  
HETATM   15  C   UNL     1     -10.745  11.040  66.474  1.00  0.00    -0.241 C  
HETATM   16  H   UNL     1     -10.082   9.102  66.745  1.00  0.00     0.000 HD 
HETATM   17  O   UNL     1     -11.231  12.048  66.980  1.00  0.00    -0.282 OA 
BRANCH  15  18
HETATM   18  C   UNL     1     -10.470  10.921  64.955  1.00  0.00    -0.282 C  
HETATM   19  C   UNL     1     -11.305  11.939  64.171  1.00  0.00    -0.455 C  
BRANCH  18  20
HETATM   20  O   UNL     1      -9.071  11.138  64.747  1.00  0.00    -0.174 OA 
BRANCH  20  21
HETATM   21  C   UNL     1      -8.298  10.054  64.420  1.00  0.00    -0.168 A  
HETATM   22  C   UNL     1      -8.643   9.051  63.511  1.00  0.00    -0.146 A  
HETATM   23  C   UNL     1      -7.746   8.020  63.213  1.00  0.00    -0.143 A  
HETATM   24  C   UNL     1      -6.500   7.975  63.831  1.00  0.00    -0.066 A  
HETATM   25  C   UNL     1      -6.148   8.966  64.744  1.00  0.00    -0.065 A  
HETATM   26  C   UNL     1      -7.041  10.006  65.027  1.00  0.00    -0.136 A  
ENDBRANCH  20  21
ENDBRANCH  18  20
ENDBRANCH  15  18
ENDBRANCH  12  14
TORSDOF 4
ENDMDL
MODEL      147
REMARK 921   NORMALIZED FREE ENERGY PREDICTED BY IDOCK:   -3.70 KCAL/MOL
REMARK 922        TOTAL FREE ENERGY PREDICTED BY IDOCK:   -5.34 KCAL/MOL
REMARK 923 INTER-LIGAND FREE ENERGY PREDICTED BY IDOCK:   -4.71 KCAL/MOL
REMARK 924 INTRA-LIGAND FREE ENERGY PREDICTED BY IDOCK:   -0.64 KCAL/MOL
REMARK 927      BINDING AFFINITY PREDICTED BY RF-SCORE:    0.00 PKD
ROOT
HETATM    1  C   UNL     1      -9.900  10.078  67.825  1.00  0.00    -0.157 C  
HETATM    2  S   UNL     1      -8.059  10.193  67.799  1.00  0.00    -0.109 SA 
HETATM    3  C   UNL     1      -7.858   9.105  66.311  1.00  0.00    -0.103 C  
HETATM    4  CA  UNL     1      -9.233   9.137  65.595  1.00  0.00    -0.234 C  
HETATM    5  C   UNL     1      -7.508   7.690  66.817  1.00  0.00    -0.093 C  
HETATM    6  C   UNL     1      -6.662   9.591  65.486  1.00  0.00    -0.080 C  
HETATM    7  N   UNL     1     -10.268   9.277  66.640  1.00  0.00    -0.262 N  
HETATM    8  C   UNL     1      -9.419  10.282  64.577  1.00  0.00    -0.298 C  
HETATM    9  C   UNL     1     -10.638   8.178  67.385  1.00  0.00    -0.255 C  
HETATM   10  OXT UNL     1      -8.664  10.528  63.655  1.00  0.00    -0.177 OA 
HETATM   11  O   UNL     1     -10.576  10.976  64.750  1.00  0.00    -0.319 OA 
HETATM   12  CA  UNL     1     -10.508   8.970  68.726  1.00  0.00    -0.206 C  
HETATM   13  O   UNL     1     -10.807   7.032  67.036  1.00  0.00    -0.348 OA 
ENDROOT
BRANCH  12  14
HETATM   14  N   UNL     1      -9.573   8.418  69.744  1.00  0.00    -0.170 N  
HETATM   15  C   UNL     1      -9.848   8.386  71.094  1.00  0.00    -0.192 C  
HETATM   16  H   UNL     1      -8.680   8.042  69.425  1.00  0.00     0.000 HD 
HETATM   17  O   UNL     1     -10.877   8.874  71.554  1.00  0.00    -0.272 OA 
BRANCH  15  18
HETATM   18  C   UNL     1      -8.769   7.725  71.986  1.00  0.00    -0.126 C  
HETATM   19  C   UNL     1      -8.846   8.260  73.418  1.00  0.00    -0.270 C  
BRANCH  18  20
HETATM   20  O   UNL     1      -8.984   6.310  71.955  1.00  0.00    -0.140 OA 
BRANCH  20  21
HETATM   21  C   UNL     1      -8.677   5.642  70.798  1.00  0.00    -0.132 A  
HETATM   22  C   UNL     1      -7.455   5.698  70.125  1.00  0.00    -0.077 A  
HETATM   23  C   UNL     1      -7.236   4.924  68.981  1.00  0.00    -0.053 A  
HETATM   24  C   UNL     1      -8.242   4.096  68.491  1.00  0.00    -0.088 A  
HETATM   25  C   UNL     1      -9.467   4.038  69.151  1.00  0.00    -0.249 A  
HETATM   26  C   UNL     1      -9.678   4.800  70.305  1.00  0.00    -0.296 A  
ENDBRANCH  20  21
ENDBRANCH  18  20
ENDBRANCH  15  18
ENDBRANCH  12  14
TORSDOF 4
ENDMDL
MODEL      148
REMARK 921   NORMALIZED FREE ENERGY PREDICTED BY IDOCK:   -3.69 KCAL/MOL
REMARK 922        TOTAL FREE ENERGY PREDICTED BY IDOCK:   -5.33 KCAL/MOL
REMARK 923 INTER-LIGAND FREE ENERGY PREDICTED BY IDOCK:   -5.17 KCAL/MOL
REMARK 924 INTRA-LIGAND FREE ENERGY PREDICTED BY IDOCK:   -0.16 KCAL/MOL
REMARK 927      BINDING AFFINITY PREDICTED BY RF-SCORE:    0.00 PKD
ROOT
HETATM    1  C   UNL     1     -10.677   6.900  70.369  1.00  0.00    -0.246 C  
HETATM    2  S   UNL     1      -8.891   6.606  70.720  1.00  0.00    -0.147 SA 
HETATM    3  C   UNL     1      -9.013   7.040  72.518  1.00  0.00    -0.128 C  
HETATM    4  CA  UNL     1     -10.514   6.876  72.874  1.00  0.00    -0.244 C  
HETATM    5  C   UNL     1      -8.543   8.500  72.675  1.00  0.00    -0.185 C  
HETATM    6  C   UNL     1      -8.037   6.169  73.316  1.00  0.00    -0.113 C  
HETATM    7  N   UNL     1     -11.291   7.235  71.670  1.00  0.00    -0.249 N  
HETATM    8  C   UNL     1     -10.935   5.458  73.315  1.00  0.00    -0.307 C  
HETATM    9  C   UNL     1     -11.472   8.562  71.345  1.00  0.00    -0.287 C  
HETATM   10  OXT UNL     1     -10.408   4.816  74.204  1.00  0.00    -0.209 OA 
HETATM   11  O   UNL     1     -12.033   4.993  72.660  1.00  0.00    -0.048 OA 
HETATM   12  CA  UNL     1     -11.056   8.316  69.859  1.00  0.00    -0.100 C  
HETATM   13  O   UNL     1     -11.702   9.506  72.065  1.00  0.00    -0.331 OA 
ENDROOT
BRANCH  12  14
HETATM   14  N   UNL     1      -9.911   9.114  69.342  1.00  0.00    -0.168 N  
HETATM   15  C   UNL     1      -9.788   9.504  68.026  1.00  0.00    -0.155 C  
HETATM   16  H   UNL     1      -9.178   9.386  69.997  1.00  0.00     0.000 HD 
HETATM   17  O   UNL     1     -10.600   9.161  67.172  1.00  0.00    -0.263 OA 
BRANCH  15  18
HETATM   18  C   UNL     1      -8.549  10.373  67.696  1.00  0.00    -0.118 C  
HETATM   19  C   UNL     1      -8.546  10.773  66.217  1.00  0.00    -0.163 C  
BRANCH  18  20
HETATM   20  O   UNL     1      -8.590  11.529  68.539  1.00  0.00    -0.152 OA 
BRANCH  20  21
HETATM   21  C   UNL     1      -9.188  12.659  68.045  1.00  0.00    -0.208 A  
HETATM   22  C   UNL     1      -8.578  13.614  67.229  1.00  0.00    -0.220 A  
HETATM   23  C   UNL     1      -9.307  14.701  66.737  1.00  0.00    -0.275 A  
HETATM   24  C   UNL     1     -10.651  14.851  67.067  1.00  0.00    -0.289 A  
HETATM   25  C   UNL     1     -11.268  13.909  67.886  1.00  0.00    -0.302 A  
HETATM   26  C   UNL     1     -10.540  12.813  68.363  1.00  0.00    -0.262 A  
ENDBRANCH  20  21
ENDBRANCH  18  20
ENDBRANCH  15  18
ENDBRANCH  12  14
TORSDOF 4
ENDMDL
MODEL      149
REMARK 921   NORMALIZED FREE ENERGY PREDICTED BY IDOCK:   -3.68 KCAL/MOL
REMARK 922        TOTAL FREE ENERGY PREDICTED BY IDOCK:   -5.32 KCAL/MOL
REMARK 923 INTER-LIGAND FREE ENERGY PREDICTED BY IDOCK:   -4.12 KCAL/MOL
REMARK 924 INTRA-LIGAND FREE ENERGY PREDICTED BY IDOCK:   -1.19 KCAL/MOL
REMARK 927      BINDING AFFINITY PREDICTED BY RF-SCORE:    0.00 PKD
ROOT
HETATM    1  C   UNL     1      -9.111   9.405  69.026  1.00  0.00    -0.142 C  
HETATM    2  S   UNL     1      -8.332  10.688  67.954  1.00  0.00    -0.121 SA 
HETATM    3  C   UNL     1      -9.826  10.921  66.881  1.00  0.00    -0.189 C  
HETATM    4  CA  UNL     1     -11.016  10.392  67.722  1.00  0.00    -0.309 C  
HETATM    5  C   UNL     1      -9.611  10.086  65.602  1.00  0.00    -0.313 C  
HETATM    6  C   UNL     1      -9.913  12.388  66.447  1.00  0.00    -0.254 C  
HETATM    7  N   UNL     1     -10.506   9.283  68.555  1.00  0.00    -0.210 N  
HETATM    8  C   UNL     1     -11.678  11.430  68.653  1.00  0.00    -0.329 C  
HETATM    9  C   UNL     1     -10.302   8.043  67.990  1.00  0.00    -0.206 C  
HETATM   10  OXT UNL     1     -12.098  12.516  68.303  1.00  0.00    -0.284 OA 
HETATM   11  O   UNL     1     -11.831  10.988  69.931  1.00  0.00    -0.289 OA 
HETATM   12  CA  UNL     1      -8.874   7.928  68.615  1.00  0.00    -0.134 C  
HETATM   13  O   UNL     1     -10.978   7.443  67.186  1.00  0.00    -0.312 OA 
ENDROOT
BRANCH  12  14
HETATM   14  N   UNL     1      -7.743   7.722  67.670  1.00  0.00    -0.119 N  
HETATM   15  C   UNL     1      -7.475   6.519  67.053  1.00  0.00    -0.087 C  
HETATM   16  H   UNL     1      -7.133   8.514  67.469  1.00  0.00     0.000 HD 
HETATM   17  O   UNL     1      -8.130   5.510  67.295  1.00  0.00    -0.101 OA 
BRANCH  15  18
HETATM   18  C   UNL     1      -6.283   6.521  66.065  1.00  0.00    -0.038 C  
HETATM   19  C   UNL     1      -5.330   5.359  66.362  1.00  0.00    -0.012 C  
BRANCH  18  20
HETATM   20  O   UNL     1      -6.814   6.422  64.740  1.00  0.00    -0.047 OA 
BRANCH  20  21
HETATM   21  C   UNL     1      -6.919   7.575  64.006  1.00  0.00    -0.058 A  
HETATM   22  C   UNL     1      -7.892   7.841  63.040  1.00  0.00    -0.136 A  
HETATM   23  C   UNL     1      -7.935   9.080  62.394  1.00  0.00    -0.132 A  
HETATM   24  C   UNL     1      -6.997  10.062  62.698  1.00  0.00    -0.124 A  
HETATM   25  C   UNL     1      -6.018   9.806  63.655  1.00  0.00    -0.111 A  
HETATM   26  C   UNL     1      -5.988   8.570  64.312  1.00  0.00    -0.066 A  
ENDBRANCH  20  21
ENDBRANCH  18  20
ENDBRANCH  15  18
ENDBRANCH  12  14
TORSDOF 4
ENDMDL
MODEL      150
REMARK 921   NORMALIZED FREE ENERGY PREDICTED BY IDOCK:   -3.64 KCAL/MOL
REMARK 922        TOTAL FREE ENERGY PREDICTED BY IDOCK:   -5.27 KCAL/MOL
REMARK 923 INTER-LIGAND FREE ENERGY PREDICTED BY IDOCK:   -5.09 KCAL/MOL
REMARK 924 INTRA-LIGAND FREE ENERGY PREDICTED BY IDOCK:   -0.17 KCAL/MOL
REMARK 927      BINDING AFFINITY PREDICTED BY RF-SCORE:    0.00 PKD
ROOT
HETATM    1  C   UNL     1      -8.795  10.315  69.101  1.00  0.00    -0.176 C  
HETATM    2  S   UNL     1      -7.937   8.699  68.867  1.00  0.00    -0.115 SA 
HETATM    3  C   UNL     1      -8.121   8.693  67.023  1.00  0.00    -0.100 C  
HETATM    4  CA  UNL     1      -8.360  10.174  66.633  1.00  0.00    -0.123 C  
HETATM    5  C   UNL     1      -9.337   7.807  66.682  1.00  0.00    -0.238 C  
HETATM    6  C   UNL     1      -6.893   8.025  66.394  1.00  0.00    -0.062 C  
HETATM    7  N   UNL     1      -9.105  10.804  67.743  1.00  0.00    -0.150 N  
HETATM    8  C   UNL     1      -7.083  11.003  66.378  1.00  0.00    -0.120 C  
HETATM    9  C   UNL     1     -10.458  10.578  67.871  1.00  0.00    -0.210 C  
HETATM   10  OXT UNL     1      -6.192  10.696  65.609  1.00  0.00    -0.129 OA 
HETATM   11  O   UNL     1      -7.065  12.187  67.047  1.00  0.00    -0.133 OA 
HETATM   12  CA  UNL     1     -10.318  10.249  69.393  1.00  0.00    -0.235 C  
HETATM   13  O   UNL     1     -11.313  10.517  67.018  1.00  0.00    -0.266 OA 
ENDROOT
BRANCH  12  14
HETATM   14  N   UNL     1     -10.806   8.916  69.839  1.00  0.00    -0.253 N  
HETATM   15  C   UNL     1     -11.591   8.727  70.956  1.00  0.00    -0.288 C  
HETATM   16  H   UNL     1     -10.546   8.098  69.289  1.00  0.00     0.000 HD 
HETATM   17  O   UNL     1     -11.892   9.658  71.699  1.00  0.00    -0.379 OA 
BRANCH  15  18
HETATM   18  C   UNL     1     -12.039   7.269  71.225  1.00  0.00    -0.338 C  
HETATM   19  C   UNL     1     -11.647   6.358  70.058  1.00  0.00    -0.446 C  
BRANCH  18  20
HETATM   20  O   UNL     1     -11.419   6.840  72.441  1.00  0.00    -0.268 OA 
BRANCH  20  21
HETATM   21  C   UNL     1     -10.055   6.938  72.533  1.00  0.00    -0.172 A  
HETATM   22  C   UNL     1      -9.350   8.001  73.101  1.00  0.00    -0.346 A  
HETATM   23  C   UNL     1      -7.955   7.964  73.190  1.00  0.00    -0.198 A  
HETATM   24  C   UNL     1      -7.250   6.869  72.701  1.00  0.00    -0.078 A  
HETATM   25  C   UNL     1      -7.942   5.806  72.126  1.00  0.00    -0.107 A  
HETATM   26  C   UNL     1      -9.340   5.838  72.053  1.00  0.00    -0.163 A  
ENDBRANCH  20  21
ENDBRANCH  18  20
ENDBRANCH  15  18
ENDBRANCH  12  14
TORSDOF 4
ENDMDL
MODEL      151
REMARK 921   NORMALIZED FREE ENERGY PREDICTED BY IDOCK:   -3.61 KCAL/MOL
REMARK 922        TOTAL FREE ENERGY PREDICTED BY IDOCK:   -5.23 KCAL/MOL
REMARK 923 INTER-LIGAND FREE ENERGY PREDICTED BY IDOCK:   -4.21 KCAL/MOL
REMARK 924 INTRA-LIGAND FREE ENERGY PREDICTED BY IDOCK:   -1.02 KCAL/MOL
REMARK 927      BINDING AFFINITY PREDICTED BY RF-SCORE:    0.00 PKD
ROOT
HETATM    1  C   UNL     1     -11.309   6.785  70.161  1.00  0.00    -0.350 C  
HETATM    2  S   UNL     1      -9.834   6.095  69.296  1.00  0.00    -0.156 SA 
HETATM    3  C   UNL     1      -8.718   6.217  70.772  1.00  0.00    -0.136 C  
HETATM    4  CA  UNL     1      -9.669   6.286  71.995  1.00  0.00    -0.151 C  
HETATM    5  C   UNL     1      -7.888   7.508  70.619  1.00  0.00    -0.095 C  
HETATM    6  C   UNL     1      -7.730   5.046  70.758  1.00  0.00    -0.078 C  
HETATM    7  N   UNL     1     -10.890   6.996  71.561  1.00  0.00    -0.229 N  
HETATM    8  C   UNL     1     -10.089   4.921  72.581  1.00  0.00    -0.174 C  
HETATM    9  C   UNL     1     -10.876   8.370  71.446  1.00  0.00    -0.244 C  
HETATM   10  OXT UNL     1      -9.321   4.042  72.925  1.00  0.00    -0.112 OA 
HETATM   11  O   UNL     1     -11.431   4.800  72.762  1.00  0.00    -0.161 OA 
HETATM   12  CA  UNL     1     -11.532   8.315  70.028  1.00  0.00     0.094 C  
HETATM   13  O   UNL     1     -10.363   9.197  72.163  1.00  0.00    -0.253 OA 
ENDROOT
BRANCH  12  14
HETATM   14  N   UNL     1     -10.779   8.956  68.915  1.00  0.00    -0.386 N  
HETATM   15  C   UNL     1     -11.096  10.192  68.394  1.00  0.00    -0.218 C  
HETATM   16  H   UNL     1      -9.986   8.453  68.517  1.00  0.00     0.000 HD 
HETATM   17  O   UNL     1     -12.073  10.825  68.783  1.00  0.00    -0.451 OA 
BRANCH  15  18
HETATM   18  C   UNL     1     -10.161  10.709  67.273  1.00  0.00    -0.199 C  
HETATM   19  C   UNL     1     -10.970  11.374  66.155  1.00  0.00    -0.294 C  
BRANCH  18  20
HETATM   20  O   UNL     1      -9.244  11.635  67.863  1.00  0.00    -0.160 OA 
BRANCH  20  21
HETATM   21  C   UNL     1      -7.954  11.217  68.064  1.00  0.00    -0.119 A  
HETATM   22  C   UNL     1      -7.140  11.575  69.141  1.00  0.00    -0.105 A  
HETATM   23  C   UNL     1      -5.855  11.038  69.272  1.00  0.00    -0.043 A  
HETATM   24  C   UNL     1      -5.367  10.148  68.320  1.00  0.00    -0.035 A  
HETATM   25  C   UNL     1      -6.168   9.789  67.238  1.00  0.00    -0.067 A  
HETATM   26  C   UNL     1      -7.459  10.315  67.119  1.00  0.00    -0.092 A  
ENDBRANCH  20  21
ENDBRANCH  18  20
ENDBRANCH  15  18
ENDBRANCH  12  14
TORSDOF 4
ENDMDL
MODEL      152
REMARK 921   NORMALIZED FREE ENERGY PREDICTED BY IDOCK:   -3.60 KCAL/MOL
REMARK 922        TOTAL FREE ENERGY PREDICTED BY IDOCK:   -5.23 KCAL/MOL
REMARK 923 INTER-LIGAND FREE ENERGY PREDICTED BY IDOCK:   -4.59 KCAL/MOL
REMARK 924 INTRA-LIGAND FREE ENERGY PREDICTED BY IDOCK:   -0.64 KCAL/MOL
REMARK 927      BINDING AFFINITY PREDICTED BY RF-SCORE:    0.00 PKD
ROOT
HETATM    1  C   UNL     1      -6.511   9.892  67.318  1.00  0.00    -0.069 C  
HETATM    2  S   UNL     1      -7.105   8.165  67.057  1.00  0.00    -0.080 SA 
HETATM    3  C   UNL     1      -8.053   8.559  65.514  1.00  0.00    -0.126 C  
HETATM    4  CA  UNL     1      -7.437   9.880  64.985  1.00  0.00    -0.134 C  
HETATM    5  C   UNL     1      -9.532   8.737  65.913  1.00  0.00    -0.278 C  
HETATM    6  C   UNL     1      -7.989   7.361  64.560  1.00  0.00    -0.122 C  
HETATM    7  N   UNL     1      -7.005  10.664  66.161  1.00  0.00    -0.130 N  
HETATM    8  C   UNL     1      -6.223   9.711  64.046  1.00  0.00    -0.108 C  
HETATM    9  C   UNL     1      -7.940  11.352  66.903  1.00  0.00    -0.158 C  
HETATM   10  OXT UNL     1      -6.204   9.021  63.044  1.00  0.00    -0.090 OA 
HETATM   11  O   UNL     1      -5.158  10.482  64.396  1.00  0.00    -0.121 OA 
HETATM   12  CA  UNL     1      -7.378  10.784  68.246  1.00  0.00    -0.086 C  
HETATM   13  O   UNL     1      -8.900  11.989  66.533  1.00  0.00    -0.205 OA 
ENDROOT
BRANCH  12  14
HETATM   14  N   UNL     1      -8.331  10.037  69.110  1.00  0.00    -0.134 N  
HETATM   15  C   UNL     1      -8.044   9.645  70.400  1.00  0.00    -0.168 C  
HETATM   16  H   UNL     1      -9.247   9.802  68.728  1.00  0.00     0.000 HD 
HETATM   17  O   UNL     1      -6.941   9.840  70.903  1.00  0.00    -0.277 OA 
BRANCH  15  18
HETATM   18  C   UNL     1      -9.186   8.921  71.154  1.00  0.00    -0.256 C  
HETATM   19  C   UNL     1     -10.547   9.281  70.551  1.00  0.00    -0.309 C  
BRANCH  18  20
HETATM   20  O   UNL     1      -8.943   7.513  71.066  1.00  0.00    -0.145 OA 
BRANCH  20  21
HETATM   21  C   UNL     1      -9.515   6.706  72.015  1.00  0.00    -0.148 A  
HETATM   22  C   UNL     1      -9.952   5.395  71.814  1.00  0.00    -0.235 A  
HETATM   23  C   UNL     1     -10.469   4.646  72.875  1.00  0.00    -0.254 A  
HETATM   24  C   UNL     1     -10.566   5.204  74.146  1.00  0.00    -0.322 A  
HETATM   25  C   UNL     1     -10.140   6.513  74.357  1.00  0.00    -0.371 A  
HETATM   26  C   UNL     1      -9.607   7.256  73.296  1.00  0.00    -0.257 A  
ENDBRANCH  20  21
ENDBRANCH  18  20
ENDBRANCH  15  18
ENDBRANCH  12  14
TORSDOF 4
ENDMDL
MODEL      153
REMARK 921   NORMALIZED FREE ENERGY PREDICTED BY IDOCK:   -3.60 KCAL/MOL
REMARK 922        TOTAL FREE ENERGY PREDICTED BY IDOCK:   -5.22 KCAL/MOL
REMARK 923 INTER-LIGAND FREE ENERGY PREDICTED BY IDOCK:   -4.83 KCAL/MOL
REMARK 924 INTRA-LIGAND FREE ENERGY PREDICTED BY IDOCK:   -0.39 KCAL/MOL
REMARK 927      BINDING AFFINITY PREDICTED BY RF-SCORE:    0.00 PKD
ROOT
HETATM    1  C   UNL     1      -8.160  15.106  69.387  1.00  0.00    -0.200 C  
HETATM    2  S   UNL     1      -8.883  13.442  69.055  1.00  0.00     0.564 SA 
HETATM    3  C   UNL     1      -7.280  12.683  68.514  1.00  0.00    -0.113 C  
HETATM    4  CA  UNL     1      -6.177  13.590  69.117  1.00  0.00    -0.097 C  
HETATM    5  C   UNL     1      -7.257  12.700  66.972  1.00  0.00     0.064 C  
HETATM    6  C   UNL     1      -7.247  11.212  68.944  1.00  0.00    -0.106 C  
HETATM    7  N   UNL     1      -6.710  14.968  69.145  1.00  0.00    -0.116 N  
HETATM    8  C   UNL     1      -5.727  13.219  70.547  1.00  0.00    -0.176 C  
HETATM    9  C   UNL     1      -6.741  15.711  67.984  1.00  0.00    -0.136 C  
HETATM   10  OXT UNL     1      -5.347  12.118  70.897  1.00  0.00    -0.138 OA 
HETATM   11  O   UNL     1      -5.715  14.278  71.401  1.00  0.00    -0.200 OA 
HETATM   12  CA  UNL     1      -8.227  16.131  68.224  1.00  0.00    -0.162 C  
HETATM   13  O   UNL     1      -5.920  15.792  67.100  1.00  0.00    -0.328 OA 
ENDROOT
BRANCH  12  14
HETATM   14  N   UNL     1      -9.203  15.788  67.153  1.00  0.00    -0.205 N  
HETATM   15  C   UNL     1     -10.560  16.003  67.262  1.00  0.00    -0.313 C  
HETATM   16  H   UNL     1      -8.847  15.372  66.292  1.00  0.00     0.000 HD 
HETATM   17  O   UNL     1     -11.063  16.444  68.291  1.00  0.00    -0.347 OA 
BRANCH  15  18
HETATM   18  C   UNL     1     -11.402  15.626  66.018  1.00  0.00     0.053 C  
HETATM   19  C   UNL     1     -10.538  15.640  64.754  1.00  0.00    -0.212 C  
BRANCH  18  20
HETATM   20  O   UNL     1     -11.958  14.327  66.246  1.00  0.00    -0.396 OA 
BRANCH  20  21
HETATM   21  C   UNL     1     -11.523  13.298  65.452  1.00  0.00    -0.304 A  
HETATM   22  C   UNL     1     -10.397  12.506  65.688  1.00  0.00    -0.294 A  
HETATM   23  C   UNL     1     -10.083  11.443  64.837  1.00  0.00    -0.323 A  
HETATM   24  C   UNL     1     -10.884  11.169  63.732  1.00  0.00    -0.337 A  
HETATM   25  C   UNL     1     -12.005  11.956  63.483  1.00  0.00    -0.567 A  
HETATM   26  C   UNL     1     -12.328  13.009  64.347  1.00  0.00    -0.442 A  
ENDBRANCH  20  21
ENDBRANCH  18  20
ENDBRANCH  15  18
ENDBRANCH  12  14
TORSDOF 4
ENDMDL
MODEL      154
REMARK 921   NORMALIZED FREE ENERGY PREDICTED BY IDOCK:   -3.58 KCAL/MOL
REMARK 922        TOTAL FREE ENERGY PREDICTED BY IDOCK:   -5.20 KCAL/MOL
REMARK 923 INTER-LIGAND FREE ENERGY PREDICTED BY IDOCK:   -4.58 KCAL/MOL
REMARK 924 INTRA-LIGAND FREE ENERGY PREDICTED BY IDOCK:   -0.62 KCAL/MOL
REMARK 927      BINDING AFFINITY PREDICTED BY RF-SCORE:    0.00 PKD
ROOT
HETATM    1  C   UNL     1      -7.764   9.906  68.745  1.00  0.00    -0.086 C  
HETATM    2  S   UNL     1      -9.493   9.403  69.145  1.00  0.00    -0.169 SA 
HETATM    3  C   UNL     1      -9.669   8.279  67.681  1.00  0.00    -0.159 C  
HETATM    4  CA  UNL     1      -8.218   7.939  67.253  1.00  0.00    -0.122 C  
HETATM    5  C   UNL     1     -10.421   9.062  66.584  1.00  0.00    -0.235 C  
HETATM    6  C   UNL     1     -10.552   7.086  68.061  1.00  0.00    -0.260 C  
HETATM    7  N   UNL     1      -7.384   9.121  67.554  1.00  0.00    -0.083 N  
HETATM    8  C   UNL     1      -7.593   6.716  67.958  1.00  0.00    -0.107 C  
HETATM    9  C   UNL     1      -7.418  10.212  66.712  1.00  0.00    -0.104 C  
HETATM   10  OXT UNL     1      -8.092   5.608  68.010  1.00  0.00    -0.097 OA 
HETATM   11  O   UNL     1      -6.357   6.962  68.471  1.00  0.00    -0.029 OA 
HETATM   12  CA  UNL     1      -7.601  11.202  67.907  1.00  0.00    -0.099 C  
HETATM   13  O   UNL     1      -7.457  10.251  65.504  1.00  0.00    -0.140 OA 
ENDROOT
BRANCH  12  14
HETATM   14  N   UNL     1      -8.806  12.076  67.877  1.00  0.00    -0.167 N  
HETATM   15  C   UNL     1      -8.781  13.418  68.186  1.00  0.00    -0.179 C  
HETATM   16  H   UNL     1      -9.698  11.658  67.613  1.00  0.00     0.000 HD 
HETATM   17  O   UNL     1      -7.755  13.973  68.569  1.00  0.00    -0.128 OA 
BRANCH  15  18
HETATM   18  C   UNL     1     -10.130  14.166  68.046  1.00  0.00    -0.233 C  
HETATM   19  C   UNL     1     -11.281  13.313  68.587  1.00  0.00    -0.311 C  
BRANCH  18  20
HETATM   20  O   UNL     1     -10.022  15.398  68.766  1.00  0.00    -0.195 OA 
BRANCH  20  21
HETATM   21  C   UNL     1      -9.856  16.549  68.041  1.00  0.00    -0.240 A  
HETATM   22  C   UNL     1      -9.001  17.604  68.369  1.00  0.00    -0.280 A  
HETATM   23  C   UNL     1      -8.871  18.706  67.519  1.00  0.00    -0.284 A  
HETATM   24  C   UNL     1      -9.606  18.773  66.339  1.00  0.00    -0.354 A  
HETATM   25  C   UNL     1     -10.467  17.730  66.005  1.00  0.00    -0.286 A  
HETATM   26  C   UNL     1     -10.582  16.619  66.849  1.00  0.00    -0.229 A  
ENDBRANCH  20  21
ENDBRANCH  18  20
ENDBRANCH  15  18
ENDBRANCH  12  14
TORSDOF 4
ENDMDL
MODEL      155
REMARK 921   NORMALIZED FREE ENERGY PREDICTED BY IDOCK:   -3.57 KCAL/MOL
REMARK 922        TOTAL FREE ENERGY PREDICTED BY IDOCK:   -5.18 KCAL/MOL
REMARK 923 INTER-LIGAND FREE ENERGY PREDICTED BY IDOCK:   -4.37 KCAL/MOL
REMARK 924 INTRA-LIGAND FREE ENERGY PREDICTED BY IDOCK:   -0.81 KCAL/MOL
REMARK 927      BINDING AFFINITY PREDICTED BY RF-SCORE:    0.00 PKD
ROOT
HETATM    1  C   UNL     1     -10.176   7.638  71.933  1.00  0.00    -0.193 C  
HETATM    2  S   UNL     1      -9.443   9.173  71.220  1.00  0.00    -0.181 SA 
HETATM    3  C   UNL     1     -10.887   9.535  70.115  1.00  0.00    -0.258 C  
HETATM    4  CA  UNL     1     -12.077   8.756  70.734  1.00  0.00    -0.082 C  
HETATM    5  C   UNL     1     -10.533   9.015  68.706  1.00  0.00    -0.230 C  
HETATM    6  C   UNL     1     -11.068  11.052  69.998  1.00  0.00    -0.236 C  
HETATM    7  N   UNL     1     -11.526   7.529  71.346  1.00  0.00    -0.258 N  
HETATM    8  C   UNL     1     -12.872   9.519  71.814  1.00  0.00    -0.406 C  
HETATM    9  C   UNL     1     -11.191   6.458  70.546  1.00  0.00    -0.352 C  
HETATM   10  OXT UNL     1     -13.359  10.625  71.674  1.00  0.00    -0.372 OA 
HETATM   11  O   UNL     1     -13.062   8.800  72.953  1.00  0.00    -0.312 OA 
HETATM   12  CA  UNL     1      -9.796   6.305  71.235  1.00  0.00    -0.175 C  
HETATM   13  O   UNL     1     -11.769   6.005  69.585  1.00  0.00    -0.196 OA 
ENDROOT
BRANCH  12  14
HETATM   14  N   UNL     1      -8.600   6.387  70.353  1.00  0.00    -0.141 N  
HETATM   15  C   UNL     1      -8.233   5.392  69.473  1.00  0.00    -0.096 C  
HETATM   16  H   UNL     1      -8.020   7.224  70.404  1.00  0.00     0.000 HD 
HETATM   17  O   UNL     1      -8.849   4.332  69.404  1.00  0.00    -0.083 OA 
BRANCH  15  18
HETATM   18  C   UNL     1      -6.984   5.687  68.607  1.00  0.00    -0.064 C  
HETATM   19  C   UNL     1      -5.751   4.978  69.174  1.00  0.00    -0.016 C  
BRANCH  18  20
HETATM   20  O   UNL     1      -7.263   5.244  67.275  1.00  0.00    -0.072 OA 
BRANCH  20  21
HETATM   21  C   UNL     1      -7.480   6.199  66.316  1.00  0.00    -0.086 A  
HETATM   22  C   UNL     1      -7.474   5.985  64.936  1.00  0.00    -0.082 A  
HETATM   23  C   UNL     1      -7.767   7.029  64.053  1.00  0.00    -0.116 A  
HETATM   24  C   UNL     1      -8.057   8.300  64.539  1.00  0.00    -0.146 A  
HETATM   25  C   UNL     1      -8.060   8.526  65.914  1.00  0.00    -0.116 A  
HETATM   26  C   UNL     1      -7.782   7.476  66.797  1.00  0.00    -0.102 A  
ENDBRANCH  20  21
ENDBRANCH  18  20
ENDBRANCH  15  18
ENDBRANCH  12  14
TORSDOF 4
ENDMDL
MODEL      156
REMARK 921   NORMALIZED FREE ENERGY PREDICTED BY IDOCK:   -3.55 KCAL/MOL
REMARK 922        TOTAL FREE ENERGY PREDICTED BY IDOCK:   -5.16 KCAL/MOL
REMARK 923 INTER-LIGAND FREE ENERGY PREDICTED BY IDOCK:   -4.45 KCAL/MOL
REMARK 924 INTRA-LIGAND FREE ENERGY PREDICTED BY IDOCK:   -0.72 KCAL/MOL
REMARK 927      BINDING AFFINITY PREDICTED BY RF-SCORE:    0.00 PKD
ROOT
HETATM    1  C   UNL     1     -10.844  10.535  65.969  1.00  0.00     0.064 C  
HETATM    2  S   UNL     1     -11.284  11.221  67.623  1.00  0.00    -0.290 SA 
HETATM    3  C   UNL     1      -9.949  12.506  67.618  1.00  0.00    -0.201 C  
HETATM    4  CA  UNL     1      -9.570  12.692  66.126  1.00  0.00    -0.222 C  
HETATM    5  C   UNL     1      -8.770  11.953  68.444  1.00  0.00    -0.157 C  
HETATM    6  C   UNL     1     -10.450  13.760  68.342  1.00  0.00    -0.256 C  
HETATM    7  N   UNL     1      -9.746  11.383  65.463  1.00  0.00    -0.223 N  
HETATM    8  C   UNL     1     -10.407  13.738  65.359  1.00  0.00    -0.333 C  
HETATM    9  C   UNL     1      -8.791  10.403  65.624  1.00  0.00    -0.173 C  
HETATM   10  OXT UNL     1     -10.575  14.891  65.707  1.00  0.00    -0.297 OA 
HETATM   11  O   UNL     1     -10.898  13.275  64.178  1.00  0.00    -0.396 OA 
HETATM   12  CA  UNL     1      -9.872   9.325  65.962  1.00  0.00    -0.293 C  
HETATM   13  O   UNL     1      -7.586  10.498  65.643  1.00  0.00    -0.148 OA 
ENDROOT
BRANCH  12  14
HETATM   14  N   UNL     1      -9.739   8.629  67.271  1.00  0.00    -0.172 N  
HETATM   15  C   UNL     1     -10.474   7.517  67.620  1.00  0.00    -0.250 C  
HETATM   16  H   UNL     1      -9.069   8.996  67.946  1.00  0.00     0.000 HD 
HETATM   17  O   UNL     1     -11.341   7.058  66.881  1.00  0.00    -0.199 OA 
BRANCH  15  18
HETATM   18  C   UNL     1     -10.155   6.908  69.007  1.00  0.00    -0.170 C  
HETATM   19  C   UNL     1     -11.222   5.887  69.410  1.00  0.00    -0.277 C  
BRANCH  18  20
HETATM   20  O   UNL     1      -8.863   6.296  68.929  1.00  0.00    -0.124 OA 
BRANCH  20  21
HETATM   21  C   UNL     1      -7.782   7.031  69.339  1.00  0.00    -0.108 A  
HETATM   22  C   UNL     1      -7.760   7.919  70.417  1.00  0.00    -0.087 A  
HETATM   23  C   UNL     1      -6.578   8.572  70.778  1.00  0.00    -0.041 A  
HETATM   24  C   UNL     1      -5.408   8.355  70.057  1.00  0.00    -0.022 A  
HETATM   25  C   UNL     1      -5.419   7.477  68.976  1.00  0.00    -0.022 A  
HETATM   26  C   UNL     1      -6.600   6.811  68.627  1.00  0.00    -0.051 A  
ENDBRANCH  20  21
ENDBRANCH  18  20
ENDBRANCH  15  18
ENDBRANCH  12  14
TORSDOF 4
ENDMDL
MODEL      157
REMARK 921   NORMALIZED FREE ENERGY PREDICTED BY IDOCK:   -3.53 KCAL/MOL
REMARK 922        TOTAL FREE ENERGY PREDICTED BY IDOCK:   -5.14 KCAL/MOL
REMARK 923 INTER-LIGAND FREE ENERGY PREDICTED BY IDOCK:   -4.42 KCAL/MOL
REMARK 924 INTRA-LIGAND FREE ENERGY PREDICTED BY IDOCK:   -0.71 KCAL/MOL
REMARK 927      BINDING AFFINITY PREDICTED BY RF-SCORE:    0.00 PKD
ROOT
HETATM    1  C   UNL     1      -9.167   9.011  65.389  1.00  0.00    -0.176 C  
HETATM    2  S   UNL     1      -7.581   9.798  64.872  1.00  0.00    -0.134 SA 
HETATM    3  C   UNL     1      -6.517   8.713  65.934  1.00  0.00    -0.057 C  
HETATM    4  CA  UNL     1      -7.381   7.459  66.228  1.00  0.00    -0.082 C  
HETATM    5  C   UNL     1      -6.194   9.499  67.221  1.00  0.00    -0.064 C  
HETATM    6  C   UNL     1      -5.185   8.457  65.222  1.00  0.00    -0.035 C  
HETATM    7  N   UNL     1      -8.789   7.901  66.288  1.00  0.00    -0.152 N  
HETATM    8  C   UNL     1      -7.275   6.327  65.183  1.00  0.00    -0.070 C  
HETATM    9  C   UNL     1      -9.258   8.536  67.418  1.00  0.00    -0.140 C  
HETATM   10  OXT UNL     1      -6.237   5.818  64.806  1.00  0.00    -0.028 OA 
HETATM   11  O   UNL     1      -8.484   5.872  64.756  1.00  0.00    -0.128 OA 
HETATM   12  CA  UNL     1      -9.913   9.679  66.575  1.00  0.00    -0.246 C  
HETATM   13  O   UNL     1      -9.034   8.299  68.582  1.00  0.00    -0.137 OA 
ENDROOT
BRANCH  12  14
HETATM   14  N   UNL     1      -9.476  11.069  66.877  1.00  0.00    -0.175 N  
HETATM   15  C   UNL     1     -10.101  11.880  67.800  1.00  0.00    -0.191 C  
HETATM   16  H   UNL     1      -8.672  11.442  66.373  1.00  0.00     0.000 HD 
HETATM   17  O   UNL     1     -11.110  11.519  68.398  1.00  0.00    -0.201 OA 
BRANCH  15  18
HETATM   18  C   UNL     1      -9.465  13.277  68.007  1.00  0.00    -0.219 C  
HETATM   19  C   UNL     1      -7.952  13.224  67.775  1.00  0.00    -0.166 C  
BRANCH  18  20
HETATM   20  O   UNL     1     -10.092  14.181  67.092  1.00  0.00    -0.253 OA 
BRANCH  20  21
HETATM   21  C   UNL     1     -10.106  15.513  67.418  1.00  0.00    -0.246 A  
HETATM   22  C   UNL     1     -10.606  16.057  68.603  1.00  0.00    -0.266 A  
HETATM   23  C   UNL     1     -10.513  17.430  68.851  1.00  0.00    -0.312 A  
HETATM   24  C   UNL     1      -9.931  18.275  67.911  1.00  0.00    -0.359 A  
HETATM   25  C   UNL     1      -9.434  17.744  66.723  1.00  0.00    -0.289 A  
HETATM   26  C   UNL     1      -9.513  16.367  66.484  1.00  0.00    -0.296 A  
ENDBRANCH  20  21
ENDBRANCH  18  20
ENDBRANCH  15  18
ENDBRANCH  12  14
TORSDOF 4
ENDMDL
MODEL      158
REMARK 921   NORMALIZED FREE ENERGY PREDICTED BY IDOCK:   -3.52 KCAL/MOL
REMARK 922        TOTAL FREE ENERGY PREDICTED BY IDOCK:   -5.13 KCAL/MOL
REMARK 923 INTER-LIGAND FREE ENERGY PREDICTED BY IDOCK:   -4.41 KCAL/MOL
REMARK 924 INTRA-LIGAND FREE ENERGY PREDICTED BY IDOCK:   -0.72 KCAL/MOL
REMARK 927      BINDING AFFINITY PREDICTED BY RF-SCORE:    0.00 PKD
ROOT
HETATM    1  C   UNL     1      -8.998  16.244  68.814  1.00  0.00    -0.243 C  
HETATM    2  S   UNL     1      -8.696  16.263  66.995  1.00  0.00    -0.212 SA 
HETATM    3  C   UNL     1     -10.337  17.017  66.574  1.00  0.00    -0.298 C  
HETATM    4  CA  UNL     1     -10.816  17.702  67.881  1.00  0.00    -0.239 C  
HETATM    5  C   UNL     1     -11.277  15.871  66.150  1.00  0.00     0.091 C  
HETATM    6  C   UNL     1     -10.175  17.935  65.358  1.00  0.00     0.392 C  
HETATM    7  N   UNL     1     -10.309  16.894  69.009  1.00  0.00    -0.317 N  
HETATM    8  C   UNL     1     -10.338  19.156  68.076  1.00  0.00    -0.393 C  
HETATM    9  C   UNL     1     -10.944  15.718  69.346  1.00  0.00    -0.296 C  
HETATM   10  OXT UNL     1     -10.484  20.055  67.269  1.00  0.00    -0.414 OA 
HETATM   11  O   UNL     1      -9.788  19.385  69.299  1.00  0.00    -0.394 OA 
HETATM   12  CA  UNL     1      -9.592  14.936  69.400  1.00  0.00    -0.073 C  
HETATM   13  O   UNL     1     -12.126  15.466  69.387  1.00  0.00    -0.325 OA 
ENDROOT
BRANCH  12  14
HETATM   14  N   UNL     1      -9.469  13.748  68.512  1.00  0.00    -0.308 N  
HETATM   15  C   UNL     1     -10.182  12.583  68.694  1.00  0.00    -0.154 C  
HETATM   16  H   UNL     1      -8.821  13.799  67.726  1.00  0.00     0.000 HD 
HETATM   17  O   UNL     1     -10.933  12.430  69.653  1.00  0.00    -0.022 OA 
BRANCH  15  18
HETATM   18  C   UNL     1      -9.951  11.479  67.633  1.00  0.00    -0.184 C  
HETATM   19  C   UNL     1     -11.276  11.057  66.992  1.00  0.00    -0.255 C  
BRANCH  18  20
HETATM   20  O   UNL     1      -9.049  12.000  66.651  1.00  0.00    -0.198 OA 
BRANCH  20  21
HETATM   21  C   UNL     1      -7.933  11.263  66.354  1.00  0.00    -0.125 A  
HETATM   22  C   UNL     1      -7.913  10.065  65.637  1.00  0.00    -0.140 A  
HETATM   23  C   UNL     1      -6.703   9.430  65.344  1.00  0.00    -0.078 A  
HETATM   24  C   UNL     1      -5.500   9.979  65.776  1.00  0.00    -0.052 A  
HETATM   25  C   UNL     1      -5.507  11.170  66.498  1.00  0.00    -0.124 A  
HETATM   26  C   UNL     1      -6.719  11.813  66.776  1.00  0.00    -0.048 A  
ENDBRANCH  20  21
ENDBRANCH  18  20
ENDBRANCH  15  18
ENDBRANCH  12  14
TORSDOF 4
ENDMDL
MODEL      159
REMARK 921   NORMALIZED FREE ENERGY PREDICTED BY IDOCK:   -3.52 KCAL/MOL
REMARK 922        TOTAL FREE ENERGY PREDICTED BY IDOCK:   -5.12 KCAL/MOL
REMARK 923 INTER-LIGAND FREE ENERGY PREDICTED BY IDOCK:   -4.33 KCAL/MOL
REMARK 924 INTRA-LIGAND FREE ENERGY PREDICTED BY IDOCK:   -0.80 KCAL/MOL
REMARK 927      BINDING AFFINITY PREDICTED BY RF-SCORE:    0.00 PKD
ROOT
HETATM    1  C   UNL     1      -9.408  16.811  69.682  1.00  0.00     0.409 C  
HETATM    2  S   UNL     1      -8.085  15.577  69.322  1.00  0.00    -0.247 SA 
HETATM    3  C   UNL     1      -7.980  15.986  67.517  1.00  0.00    -0.144 C  
HETATM    4  CA  UNL     1      -8.586  17.408  67.386  1.00  0.00    -0.214 C  
HETATM    5  C   UNL     1      -8.814  14.935  66.755  1.00  0.00    -0.291 C  
HETATM    6  C   UNL     1      -6.530  15.831  67.046  1.00  0.00     0.102 C  
HETATM    7  N   UNL     1      -9.641  17.530  68.413  1.00  0.00    -0.291 N  
HETATM    8  C   UNL     1      -7.588  18.569  67.579  1.00  0.00    -0.228 C  
HETATM    9  C   UNL     1     -10.870  16.944  68.201  1.00  0.00    -0.351 C  
HETATM   10  OXT UNL     1      -6.541  18.700  66.974  1.00  0.00    -0.186 OA 
HETATM   11  O   UNL     1      -8.022  19.513  68.457  1.00  0.00    -0.338 OA 
HETATM   12  CA  UNL     1     -10.869  16.291  69.622  1.00  0.00    -0.345 C  
HETATM   13  O   UNL     1     -11.531  16.883  67.190  1.00  0.00     0.347 OA 
ENDROOT
BRANCH  12  14
HETATM   14  N   UNL     1     -11.002  14.810  69.680  1.00  0.00    -0.298 N  
HETATM   15  C   UNL     1     -11.719  14.148  70.653  1.00  0.00    -0.193 C  
HETATM   16  H   UNL     1     -10.537  14.256  68.961  1.00  0.00     0.000 HD 
HETATM   17  O   UNL     1     -12.253  14.747  71.582  1.00  0.00    -0.321 OA 
BRANCH  15  18
HETATM   18  C   UNL     1     -11.780  12.607  70.512  1.00  0.00     0.126 C  
HETATM   19  C   UNL     1     -12.869  12.022  71.416  1.00  0.00    -0.391 C  
BRANCH  18  20
HETATM   20  O   UNL     1     -12.038  12.305  69.137  1.00  0.00    -0.264 OA 
BRANCH  20  21
HETATM   21  C   UNL     1     -11.223  11.393  68.519  1.00  0.00    -0.250 A  
HETATM   22  C   UNL     1     -11.404  10.008  68.516  1.00  0.00    -0.115 A  
HETATM   23  C   UNL     1     -10.537   9.178  67.799  1.00  0.00    -0.289 A  
HETATM   24  C   UNL     1      -9.471   9.723  67.089  1.00  0.00    -0.189 A  
HETATM   25  C   UNL     1      -9.277  11.102  67.091  1.00  0.00    -0.165 A  
HETATM   26  C   UNL     1     -10.157  11.932  67.795  1.00  0.00    -0.200 A  
ENDBRANCH  20  21
ENDBRANCH  18  20
ENDBRANCH  15  18
ENDBRANCH  12  14
TORSDOF 4
ENDMDL
MODEL      160
REMARK 921   NORMALIZED FREE ENERGY PREDICTED BY IDOCK:   -3.49 KCAL/MOL
REMARK 922        TOTAL FREE ENERGY PREDICTED BY IDOCK:   -5.08 KCAL/MOL
REMARK 923 INTER-LIGAND FREE ENERGY PREDICTED BY IDOCK:   -4.45 KCAL/MOL
REMARK 924 INTRA-LIGAND FREE ENERGY PREDICTED BY IDOCK:   -0.64 KCAL/MOL
REMARK 927      BINDING AFFINITY PREDICTED BY RF-SCORE:    0.00 PKD
ROOT
HETATM    1  C   UNL     1     -10.178  10.535  67.248  1.00  0.00    -0.215 C  
HETATM    2  S   UNL     1      -8.415  10.971  67.568  1.00  0.00    -0.129 SA 
HETATM    3  C   UNL     1      -7.726   9.668  66.444  1.00  0.00    -0.101 C  
HETATM    4  CA  UNL     1      -8.885   9.312  65.477  1.00  0.00    -0.187 C  
HETATM    5  C   UNL     1      -7.323   8.465  67.322  1.00  0.00    -0.085 C  
HETATM    6  C   UNL     1      -6.444  10.191  65.788  1.00  0.00    -0.107 C  
HETATM    7  N   UNL     1     -10.147   9.465  66.231  1.00  0.00    -0.277 N  
HETATM    8  C   UNL     1      -8.974  10.184  64.207  1.00  0.00    -0.237 C  
HETATM    9  C   UNL     1     -10.535   8.484  67.118  1.00  0.00    -0.299 C  
HETATM   10  OXT UNL     1      -8.062  10.376  63.425  1.00  0.00    -0.161 OA 
HETATM   11  O   UNL     1     -10.220  10.679  63.977  1.00  0.00    -0.341 OA 
HETATM   12  CA  UNL     1     -10.830   9.533  68.238  1.00  0.00    -0.145 C  
HETATM   13  O   UNL     1     -10.464   7.281  67.015  1.00  0.00    -0.278 OA 
ENDROOT
BRANCH  12  14
HETATM   14  N   UNL     1     -10.098   9.368  69.523  1.00  0.00    -0.194 N  
HETATM   15  C   UNL     1     -10.455   8.454  70.491  1.00  0.00    -0.207 C  
HETATM   16  H   UNL     1      -9.288   9.963  69.697  1.00  0.00     0.000 HD 
HETATM   17  O   UNL     1     -11.453   7.748  70.376  1.00  0.00    -0.252 OA 
BRANCH  15  18
HETATM   18  C   UNL     1      -9.536   8.399  71.737  1.00  0.00    -0.234 C  
HETATM   19  C   UNL     1     -10.326   7.965  72.975  1.00  0.00    -0.401 C  
BRANCH  18  20
HETATM   20  O   UNL     1      -8.476   7.480  71.456  1.00  0.00    -0.113 OA 
BRANCH  20  21
HETATM   21  C   UNL     1      -7.592   7.198  72.464  1.00  0.00    -0.088 A  
HETATM   22  C   UNL     1      -7.447   5.964  73.101  1.00  0.00    -0.095 A  
HETATM   23  C   UNL     1      -6.467   5.778  74.081  1.00  0.00    -0.074 A  
HETATM   24  C   UNL     1      -5.630   6.829  74.444  1.00  0.00    -0.055 A  
HETATM   25  C   UNL     1      -5.769   8.066  73.820  1.00  0.00    -0.065 A  
HETATM   26  C   UNL     1      -6.739   8.245  72.827  1.00  0.00    -0.109 A  
ENDBRANCH  20  21
ENDBRANCH  18  20
ENDBRANCH  15  18
ENDBRANCH  12  14
TORSDOF 4
ENDMDL
MODEL      161
REMARK 921   NORMALIZED FREE ENERGY PREDICTED BY IDOCK:   -3.44 KCAL/MOL
REMARK 922        TOTAL FREE ENERGY PREDICTED BY IDOCK:   -5.03 KCAL/MOL
REMARK 923 INTER-LIGAND FREE ENERGY PREDICTED BY IDOCK:   -4.61 KCAL/MOL
REMARK 924 INTRA-LIGAND FREE ENERGY PREDICTED BY IDOCK:   -0.42 KCAL/MOL
REMARK 927      BINDING AFFINITY PREDICTED BY RF-SCORE:    0.00 PKD
ROOT
HETATM    1  C   UNL     1      -8.734   6.712  67.928  1.00  0.00    -0.116 C  
HETATM    2  S   UNL     1      -8.812   7.417  66.226  1.00  0.00    -0.157 SA 
HETATM    3  C   UNL     1      -6.981   7.345  65.945  1.00  0.00    -0.061 C  
HETATM    4  CA  UNL     1      -6.455   6.296  66.960  1.00  0.00    -0.050 C  
HETATM    5  C   UNL     1      -6.413   8.751  66.228  1.00  0.00    -0.065 C  
HETATM    6  C   UNL     1      -6.707   7.042  64.468  1.00  0.00    -0.046 C  
HETATM    7  N   UNL     1      -7.314   6.380  68.160  1.00  0.00    -0.087 N  
HETATM    8  C   UNL     1      -6.464   4.836  66.462  1.00  0.00    -0.041 C  
HETATM    9  C   UNL     1      -7.127   7.405  69.062  1.00  0.00    -0.079 C  
HETATM   10  OXT UNL     1      -5.951   4.445  65.430  1.00  0.00    -0.022 OA 
HETATM   11  O   UNL     1      -7.044   3.970  67.337  1.00  0.00    -0.064 OA 
HETATM   12  CA  UNL     1      -8.655   7.733  69.094  1.00  0.00    -0.138 C  
HETATM   13  O   UNL     1      -6.099   7.892  69.473  1.00  0.00    -0.032 OA 
ENDROOT
BRANCH  12  14
HETATM   14  N   UNL     1      -9.052   9.120  68.730  1.00  0.00    -0.136 N  
HETATM   15  C   UNL     1     -10.279   9.667  69.037  1.00  0.00    -0.199 C  
HETATM   16  H   UNL     1      -8.379   9.697  68.225  1.00  0.00     0.000 HD 
HETATM   17  O   UNL     1     -11.158   9.011  69.589  1.00  0.00    -0.187 OA 
BRANCH  15  18
HETATM   18  C   UNL     1     -10.482  11.144  68.616  1.00  0.00    -0.197 C  
HETATM   19  C   UNL     1      -9.196  11.717  68.014  1.00  0.00    -0.181 C  
BRANCH  18  20
HETATM   20  O   UNL     1     -11.554  11.184  67.670  1.00  0.00    -0.512 OA 
BRANCH  20  21
HETATM   21  C   UNL     1     -11.245  11.477  66.367  1.00  0.00    -0.243 A  
HETATM   22  C   UNL     1     -10.536  10.652  65.491  1.00  0.00    -0.180 A  
HETATM   23  C   UNL     1     -10.331  11.033  64.162  1.00  0.00    -0.434 A  
HETATM   24  C   UNL     1     -10.820  12.250  63.698  1.00  0.00    -0.522 A  
HETATM   25  C   UNL     1     -11.523  13.085  64.564  1.00  0.00    -0.389 A  
HETATM   26  C   UNL     1     -11.742  12.693  65.890  1.00  0.00    -0.470 A  
ENDBRANCH  20  21
ENDBRANCH  18  20
ENDBRANCH  15  18
ENDBRANCH  12  14
TORSDOF 4
ENDMDL
MODEL      162
REMARK 921   NORMALIZED FREE ENERGY PREDICTED BY IDOCK:   -3.44 KCAL/MOL
REMARK 922        TOTAL FREE ENERGY PREDICTED BY IDOCK:   -5.02 KCAL/MOL
REMARK 923 INTER-LIGAND FREE ENERGY PREDICTED BY IDOCK:   -4.29 KCAL/MOL
REMARK 924 INTRA-LIGAND FREE ENERGY PREDICTED BY IDOCK:   -0.73 KCAL/MOL
REMARK 927      BINDING AFFINITY PREDICTED BY RF-SCORE:    0.00 PKD
ROOT
HETATM    1  C   UNL     1      -9.208   7.595  70.832  1.00  0.00    -0.149 C  
HETATM    2  S   UNL     1      -8.708   9.119  69.922  1.00  0.00    -0.180 SA 
HETATM    3  C   UNL     1     -10.414   9.492  69.298  1.00  0.00    -0.212 C  
HETATM    4  CA  UNL     1     -11.371   8.728  70.250  1.00  0.00    -0.147 C  
HETATM    5  C   UNL     1     -10.503   8.963  67.851  1.00  0.00    -0.281 C  
HETATM    6  C   UNL     1     -10.607  11.010  69.230  1.00  0.00    -0.236 C  
HETATM    7  N   UNL     1     -10.673   7.498  70.678  1.00  0.00    -0.226 N  
HETATM    8  C   UNL     1     -11.799   9.504  71.514  1.00  0.00    -0.405 C  
HETATM    9  C   UNL     1     -10.603   6.421  69.821  1.00  0.00    -0.254 C  
HETATM   10  OXT UNL     1     -12.295  10.615  71.518  1.00  0.00    -0.360 OA 
HETATM   11  O   UNL     1     -11.645   8.792  72.662  1.00  0.00    -0.249 OA 
HETATM   12  CA  UNL     1      -9.067   6.255  70.062  1.00  0.00    -0.148 C  
HETATM   13  O   UNL     1     -11.446   5.969  69.080  1.00  0.00    -0.316 OA 
ENDROOT
BRANCH  12  14
HETATM   14  N   UNL     1      -8.189   6.320  68.862  1.00  0.00    -0.113 N  
HETATM   15  C   UNL     1      -8.010   5.267  67.991  1.00  0.00    -0.091 C  
HETATM   16  H   UNL     1      -7.693   7.191  68.674  1.00  0.00     0.000 HD 
HETATM   17  O   UNL     1      -8.528   4.172  68.188  1.00  0.00    -0.092 OA 
BRANCH  15  18
HETATM   18  C   UNL     1      -7.096   5.549  66.773  1.00  0.00    -0.070 C  
HETATM   19  C   UNL     1      -5.663   5.843  67.227  1.00  0.00    -0.016 C  
BRANCH  18  20
HETATM   20  O   UNL     1      -7.138   4.401  65.921  1.00  0.00    -0.068 OA 
BRANCH  20  21
HETATM   21  C   UNL     1      -7.934   4.461  64.806  1.00  0.00    -0.090 A  
HETATM   22  C   UNL     1      -7.809   5.383  63.764  1.00  0.00    -0.097 A  
HETATM   23  C   UNL     1      -8.645   5.311  62.646  1.00  0.00    -0.089 A  
HETATM   24  C   UNL     1      -9.623   4.325  62.563  1.00  0.00    -0.129 A  
HETATM   25  C   UNL     1      -9.761   3.405  63.599  1.00  0.00    -0.141 A  
HETATM   26  C   UNL     1      -8.912   3.468  64.710  1.00  0.00    -0.129 A  
ENDBRANCH  20  21
ENDBRANCH  18  20
ENDBRANCH  15  18
ENDBRANCH  12  14
TORSDOF 4
ENDMDL
MODEL      163
REMARK 921   NORMALIZED FREE ENERGY PREDICTED BY IDOCK:   -3.43 KCAL/MOL
REMARK 922        TOTAL FREE ENERGY PREDICTED BY IDOCK:   -5.02 KCAL/MOL
REMARK 923 INTER-LIGAND FREE ENERGY PREDICTED BY IDOCK:   -4.16 KCAL/MOL
REMARK 924 INTRA-LIGAND FREE ENERGY PREDICTED BY IDOCK:   -0.85 KCAL/MOL
REMARK 927      BINDING AFFINITY PREDICTED BY RF-SCORE:    0.00 PKD
ROOT
HETATM    1  C   UNL     1      -8.368  10.642  68.595  1.00  0.00    -0.137 C  
HETATM    2  S   UNL     1      -8.134   9.789  66.976  1.00  0.00    -0.113 SA 
HETATM    3  C   UNL     1      -9.833  10.182  66.348  1.00  0.00    -0.222 C  
HETATM    4  CA  UNL     1     -10.308  11.395  67.190  1.00  0.00    -0.212 C  
HETATM    5  C   UNL     1     -10.714   8.939  66.588  1.00  0.00    -0.017 C  
HETATM    6  C   UNL     1      -9.775  10.401  64.832  1.00  0.00    -0.372 C  
HETATM    7  N   UNL     1      -9.710  11.255  68.534  1.00  0.00    -0.194 N  
HETATM    8  C   UNL     1      -9.916  12.779  66.630  1.00  0.00    -0.245 C  
HETATM    9  C   UNL     1     -10.256  10.366  69.435  1.00  0.00    -0.234 C  
HETATM   10  OXT UNL     1     -10.148  13.168  65.501  1.00  0.00    -0.289 OA 
HETATM   11  O   UNL     1      -9.337  13.591  67.554  1.00  0.00    -0.205 OA 
HETATM   12  CA  UNL     1      -8.856   9.760  69.774  1.00  0.00    -0.224 C  
HETATM   13  O   UNL     1     -11.418  10.120  69.665  1.00  0.00    -0.241 OA 
ENDROOT
BRANCH  12  14
HETATM   14  N   UNL     1      -8.690   8.296  69.562  1.00  0.00    -0.137 N  
HETATM   15  C   UNL     1      -9.279   7.339  70.360  1.00  0.00    -0.158 C  
HETATM   16  H   UNL     1      -8.108   7.984  68.785  1.00  0.00     0.000 HD 
HETATM   17  O   UNL     1      -9.942   7.642  71.348  1.00  0.00    -0.181 OA 
BRANCH  15  18
HETATM   18  C   UNL     1      -9.026   5.869  69.945  1.00  0.00    -0.139 C  
HETATM   19  C   UNL     1      -9.872   4.913  70.792  1.00  0.00    -0.285 C  
BRANCH  18  20
HETATM   20  O   UNL     1      -9.350   5.745  68.557  1.00  0.00    -0.119 OA 
BRANCH  20  21
HETATM   21  C   UNL     1      -8.411   5.185  67.730  1.00  0.00    -0.104 A  
HETATM   22  C   UNL     1      -7.351   5.861  67.123  1.00  0.00    -0.077 A  
HETATM   23  C   UNL     1      -6.419   5.170  66.343  1.00  0.00    -0.044 A  
HETATM   24  C   UNL     1      -6.545   3.798  66.150  1.00  0.00    -0.037 A  
HETATM   25  C   UNL     1      -7.603   3.114  66.744  1.00  0.00    -0.076 A  
HETATM   26  C   UNL     1      -8.525   3.805  67.539  1.00  0.00    -0.103 A  
ENDBRANCH  20  21
ENDBRANCH  18  20
ENDBRANCH  15  18
ENDBRANCH  12  14
TORSDOF 4
ENDMDL
MODEL      164
REMARK 921   NORMALIZED FREE ENERGY PREDICTED BY IDOCK:   -3.43 KCAL/MOL
REMARK 922        TOTAL FREE ENERGY PREDICTED BY IDOCK:   -5.01 KCAL/MOL
REMARK 923 INTER-LIGAND FREE ENERGY PREDICTED BY IDOCK:   -4.96 KCAL/MOL
REMARK 924 INTRA-LIGAND FREE ENERGY PREDICTED BY IDOCK:   -0.05 KCAL/MOL
REMARK 927      BINDING AFFINITY PREDICTED BY RF-SCORE:    0.00 PKD
ROOT
HETATM    1  C   UNL     1     -10.147   7.306  69.106  1.00  0.00    -0.183 C  
HETATM    2  S   UNL     1      -8.319   7.360  68.867  1.00  0.00    -0.129 SA 
HETATM    3  C   UNL     1      -7.935   7.604  70.664  1.00  0.00    -0.099 C  
HETATM    4  CA  UNL     1      -9.193   7.104  71.420  1.00  0.00    -0.150 C  
HETATM    5  C   UNL     1      -7.695   9.111  70.885  1.00  0.00    -0.152 C  
HETATM    6  C   UNL     1      -6.623   6.889  71.003  1.00  0.00    -0.053 C  
HETATM    7  N   UNL     1     -10.363   7.395  70.565  1.00  0.00    -0.212 N  
HETATM    8  C   UNL     1      -9.205   5.597  71.755  1.00  0.00    -0.145 C  
HETATM    9  C   UNL     1     -10.861   8.679  70.504  1.00  0.00    -0.228 C  
HETATM   10  OXT UNL     1      -8.322   5.005  72.346  1.00  0.00    -0.117 OA 
HETATM   11  O   UNL     1     -10.358   4.972  71.394  1.00  0.00    -0.209 OA 
HETATM   12  CA  UNL     1     -10.903   8.651  68.942  1.00  0.00     0.008 C  
HETATM   13  O   UNL     1     -11.006   9.491  71.389  1.00  0.00    -0.351 OA 
ENDROOT
BRANCH  12  14
HETATM   14  N   UNL     1     -10.136   9.710  68.231  1.00  0.00    -0.170 N  
HETATM   15  C   UNL     1     -10.726  10.773  67.582  1.00  0.00    -0.258 C  
HETATM   16  H   UNL     1      -9.118   9.645  68.224  1.00  0.00     0.000 HD 
HETATM   17  O   UNL     1     -11.946  10.881  67.498  1.00  0.00    -0.442 OA 
BRANCH  15  18
HETATM   18  C   UNL     1      -9.754  11.796  66.945  1.00  0.00    -0.198 C  
HETATM   19  C   UNL     1     -10.388  12.455  65.717  1.00  0.00    -0.289 C  
BRANCH  18  20
HETATM   20  O   UNL     1      -9.433  12.771  67.942  1.00  0.00    -0.194 OA 
BRANCH  20  21
HETATM   21  C   UNL     1      -8.708  13.867  67.553  1.00  0.00    -0.193 A  
HETATM   22  C   UNL     1      -9.190  14.937  66.796  1.00  0.00    -0.281 A  
HETATM   23  C   UNL     1      -8.371  16.033  66.508  1.00  0.00    -0.348 A  
HETATM   24  C   UNL     1      -7.056  16.064  66.963  1.00  0.00    -0.233 A  
HETATM   25  C   UNL     1      -6.562  15.000  67.713  1.00  0.00    -0.189 A  
HETATM   26  C   UNL     1      -7.390  13.912  68.015  1.00  0.00    -0.141 A  
ENDBRANCH  20  21
ENDBRANCH  18  20
ENDBRANCH  15  18
ENDBRANCH  12  14
TORSDOF 4
ENDMDL
MODEL      165
REMARK 921   NORMALIZED FREE ENERGY PREDICTED BY IDOCK:   -3.34 KCAL/MOL
REMARK 922        TOTAL FREE ENERGY PREDICTED BY IDOCK:   -4.90 KCAL/MOL
REMARK 923 INTER-LIGAND FREE ENERGY PREDICTED BY IDOCK:   -4.29 KCAL/MOL
REMARK 924 INTRA-LIGAND FREE ENERGY PREDICTED BY IDOCK:   -0.60 KCAL/MOL
REMARK 927      BINDING AFFINITY PREDICTED BY RF-SCORE:    0.00 PKD
ROOT
HETATM    1  C   UNL     1      -9.168  13.366  67.787  1.00  0.00    -0.211 C  
HETATM    2  S   UNL     1      -8.864  12.561  66.155  1.00  0.00     0.284 SA 
HETATM    3  C   UNL     1     -10.567  12.891  65.502  1.00  0.00    -0.279 C  
HETATM    4  CA  UNL     1     -11.113  14.062  66.360  1.00  0.00    -0.316 C  
HETATM    5  C   UNL     1     -11.395  11.604  65.697  1.00  0.00    -0.233 C  
HETATM    6  C   UNL     1     -10.490  13.147  63.992  1.00  0.00    -0.258 C  
HETATM    7  N   UNL     1     -10.535  13.919  67.712  1.00  0.00    -0.240 N  
HETATM    8  C   UNL     1     -10.774  15.474  65.838  1.00  0.00    -0.339 C  
HETATM    9  C   UNL     1     -11.057  12.987  68.582  1.00  0.00    -0.269 C  
HETATM   10  OXT UNL     1     -11.002  15.878  64.713  1.00  0.00    -0.480 OA 
HETATM   11  O   UNL     1     -10.251  16.292  66.791  1.00  0.00    -0.267 OA 
HETATM   12  CA  UNL     1      -9.638  12.436  68.937  1.00  0.00     0.205 C  
HETATM   13  O   UNL     1     -12.210  12.683  68.784  1.00  0.00    -0.178 OA 
ENDROOT
BRANCH  12  14
HETATM   14  N   UNL     1      -9.401  10.987  68.697  1.00  0.00    -0.190 N  
HETATM   15  C   UNL     1     -10.050   9.985  69.385  1.00  0.00    -0.219 C  
HETATM   16  H   UNL     1      -8.721  10.721  67.984  1.00  0.00     0.000 HD 
HETATM   17  O   UNL     1     -10.835  10.232  70.296  1.00  0.00    -0.288 OA 
BRANCH  15  18
HETATM   18  C   UNL     1      -9.703   8.539  68.954  1.00  0.00    -0.170 C  
HETATM   19  C   UNL     1     -10.029   8.320  67.474  1.00  0.00    -0.252 C  
BRANCH  18  20
HETATM   20  O   UNL     1      -8.310   8.331  69.207  1.00  0.00    -0.119 OA 
BRANCH  20  21
HETATM   21  C   UNL     1      -7.882   7.044  69.408  1.00  0.00    -0.113 A  
HETATM   22  C   UNL     1      -8.347   6.175  70.398  1.00  0.00    -0.125 A  
HETATM   23  C   UNL     1      -7.876   4.861  70.470  1.00  0.00    -0.066 A  
HETATM   24  C   UNL     1      -6.925   4.406  69.562  1.00  0.00    -0.049 A  
HETATM   25  C   UNL     1      -6.448   5.266  68.576  1.00  0.00    -0.040 A  
HETATM   26  C   UNL     1      -6.934   6.576  68.495  1.00  0.00    -0.080 A  
ENDBRANCH  20  21
ENDBRANCH  18  20
ENDBRANCH  15  18
ENDBRANCH  12  14
TORSDOF 4
ENDMDL
MODEL      166
REMARK 921   NORMALIZED FREE ENERGY PREDICTED BY IDOCK:   -3.30 KCAL/MOL
REMARK 922        TOTAL FREE ENERGY PREDICTED BY IDOCK:   -4.85 KCAL/MOL
REMARK 923 INTER-LIGAND FREE ENERGY PREDICTED BY IDOCK:   -4.42 KCAL/MOL
REMARK 924 INTRA-LIGAND FREE ENERGY PREDICTED BY IDOCK:   -0.43 KCAL/MOL
REMARK 927      BINDING AFFINITY PREDICTED BY RF-SCORE:    0.00 PKD
ROOT
HETATM    1  C   UNL     1      -8.802   9.756  67.596  1.00  0.00    -0.125 C  
HETATM    2  S   UNL     1      -8.639  10.157  69.389  1.00  0.00    -0.163 SA 
HETATM    3  C   UNL     1      -6.807   9.880  69.444  1.00  0.00    -0.060 C  
HETATM    4  CA  UNL     1      -6.332  10.008  67.973  1.00  0.00    -0.054 C  
HETATM    5  C   UNL     1      -6.570   8.461  70.000  1.00  0.00    -0.039 C  
HETATM    6  C   UNL     1      -6.176  10.860  70.439  1.00  0.00    -0.118 C  
HETATM    7  N   UNL     1      -7.427   9.510  67.114  1.00  0.00    -0.091 N  
HETATM    8  C   UNL     1      -5.976  11.439  67.518  1.00  0.00    -0.064 C  
HETATM    9  C   UNL     1      -7.621   8.153  66.974  1.00  0.00    -0.096 C  
HETATM   10  OXT UNL     1      -5.195  12.180  68.086  1.00  0.00    -0.051 OA 
HETATM   11  O   UNL     1      -6.567  11.796  66.346  1.00  0.00     0.011 OA 
HETATM   12  CA  UNL     1      -9.154   8.285  67.249  1.00  0.00    -0.137 C  
HETATM   13  O   UNL     1      -6.807   7.267  66.857  1.00  0.00    -0.065 OA 
ENDROOT
BRANCH  12  14
HETATM   14  N   UNL     1      -9.703   7.495  68.384  1.00  0.00    -0.153 N  
HETATM   15  C   UNL     1     -10.769   6.630  68.265  1.00  0.00    -0.257 C  
HETATM   16  H   UNL     1      -9.267   7.601  69.300  1.00  0.00     0.000 HD 
HETATM   17  O   UNL     1     -11.380   6.499  67.208  1.00  0.00    -0.316 OA 
BRANCH  15  18
HETATM   18  C   UNL     1     -11.159   5.862  69.552  1.00  0.00    -0.332 C  
HETATM   19  C   UNL     1      -9.989   5.008  70.050  1.00  0.00    -0.324 C  
BRANCH  18  20
HETATM   20  O   UNL     1     -11.544   6.827  70.536  1.00  0.00    -0.332 OA 
BRANCH  20  21
HETATM   21  C   UNL     1     -10.826   6.873  71.702  1.00  0.00    -0.226 A  
HETATM   22  C   UNL     1      -9.817   7.791  72.003  1.00  0.00    -0.226 A  
HETATM   23  C   UNL     1      -9.191   7.777  73.253  1.00  0.00    -0.318 A  
HETATM   24  C   UNL     1      -9.557   6.836  74.211  1.00  0.00    -0.305 A  
HETATM   25  C   UNL     1     -10.557   5.911  73.919  1.00  0.00    -0.248 A  
HETATM   26  C   UNL     1     -11.194   5.938  72.673  1.00  0.00    -0.335 A  
ENDBRANCH  20  21
ENDBRANCH  18  20
ENDBRANCH  15  18
ENDBRANCH  12  14
TORSDOF 4
ENDMDL
MODEL      167
REMARK 921   NORMALIZED FREE ENERGY PREDICTED BY IDOCK:   -3.29 KCAL/MOL
REMARK 922        TOTAL FREE ENERGY PREDICTED BY IDOCK:   -4.83 KCAL/MOL
REMARK 923 INTER-LIGAND FREE ENERGY PREDICTED BY IDOCK:   -4.45 KCAL/MOL
REMARK 924 INTRA-LIGAND FREE ENERGY PREDICTED BY IDOCK:   -0.38 KCAL/MOL
REMARK 927      BINDING AFFINITY PREDICTED BY RF-SCORE:    0.00 PKD
ROOT
HETATM    1  C   UNL     1      -8.781  10.012  66.785  1.00  0.00    -0.129 C  
HETATM    2  S   UNL     1      -7.967  11.635  66.457  1.00  0.00     0.015 SA 
HETATM    3  C   UNL     1      -7.596  11.985  68.239  1.00  0.00    -0.117 C  
HETATM    4  CA  UNL     1      -7.640  10.603  68.942  1.00  0.00    -0.113 C  
HETATM    5  C   UNL     1      -8.695  12.930  68.764  1.00  0.00     0.173 C  
HETATM    6  C   UNL     1      -6.269  12.745  68.340  1.00  0.00    -0.073 C  
HETATM    7  N   UNL     1      -8.650   9.786  68.239  1.00  0.00    -0.118 N  
HETATM    8  C   UNL     1      -6.307   9.824  68.946  1.00  0.00    -0.041 C  
HETATM    9  C   UNL     1      -9.990   9.997  68.484  1.00  0.00    -0.162 C  
HETATM   10  OXT UNL     1      -5.243  10.259  69.344  1.00  0.00    -0.039 OA 
HETATM   11  O   UNL     1      -6.434   8.536  68.527  1.00  0.00    -0.053 OA 
HETATM   12  CA  UNL     1     -10.323  10.037  66.957  1.00  0.00    -0.243 C  
HETATM   13  O   UNL     1     -10.554  10.224  69.529  1.00  0.00    -0.213 OA 
ENDROOT
BRANCH  12  14
HETATM   14  N   UNL     1     -10.983  11.270  66.447  1.00  0.00    -0.262 N  
HETATM   15  C   UNL     1     -11.250  11.494  65.114  1.00  0.00    -0.146 C  
HETATM   16  H   UNL     1     -11.252  11.987  67.120  1.00  0.00     0.000 HD 
HETATM   17  O   UNL     1     -10.900  10.702  64.243  1.00  0.00    -0.098 OA 
BRANCH  15  18
HETATM   18  C   UNL     1     -11.989  12.815  64.788  1.00  0.00    -0.402 C  
HETATM   19  C   UNL     1     -12.507  13.476  66.069  1.00  0.00    -0.456 C  
BRANCH  18  20
HETATM   20  O   UNL     1     -11.069  13.673  64.105  1.00  0.00    -0.354 OA 
BRANCH  20  21
HETATM   21  C   UNL     1     -10.679  14.824  64.738  1.00  0.00    -0.358 A  
HETATM   22  C   UNL     1     -11.285  16.075  64.601  1.00  0.00    -0.340 A  
HETATM   23  C   UNL     1     -10.834  17.170  65.345  1.00  0.00    -0.051 A  
HETATM   24  C   UNL     1      -9.763  17.029  66.222  1.00  0.00    -0.302 A  
HETATM   25  C   UNL     1      -9.146  15.788  66.361  1.00  0.00    -0.357 A  
HETATM   26  C   UNL     1      -9.611  14.689  65.629  1.00  0.00    -0.215 A  
ENDBRANCH  20  21
ENDBRANCH  18  20
ENDBRANCH  15  18
ENDBRANCH  12  14
TORSDOF 4
ENDMDL
MODEL      168
REMARK 921   NORMALIZED FREE ENERGY PREDICTED BY IDOCK:   -3.28 KCAL/MOL
REMARK 922        TOTAL FREE ENERGY PREDICTED BY IDOCK:   -4.83 KCAL/MOL
REMARK 923 INTER-LIGAND FREE ENERGY PREDICTED BY IDOCK:   -4.07 KCAL/MOL
REMARK 924 INTRA-LIGAND FREE ENERGY PREDICTED BY IDOCK:   -0.76 KCAL/MOL
REMARK 927      BINDING AFFINITY PREDICTED BY RF-SCORE:    0.00 PKD
ROOT
HETATM    1  C   UNL     1      -8.537  10.166  69.011  1.00  0.00    -0.156 C  
HETATM    2  S   UNL     1      -8.173   8.990  67.637  1.00  0.00    -0.109 SA 
HETATM    3  C   UNL     1      -9.745   9.336  66.717  1.00  0.00    -0.200 C  
HETATM    4  CA  UNL     1     -10.223  10.718  67.234  1.00  0.00    -0.205 C  
HETATM    5  C   UNL     1     -10.744   8.215  67.072  1.00  0.00    -0.247 C  
HETATM    6  C   UNL     1      -9.482   9.239  65.211  1.00  0.00    -0.234 C  
HETATM    7  N   UNL     1      -9.809  10.823  68.649  1.00  0.00    -0.176 N  
HETATM    8  C   UNL     1      -9.657  11.936  66.474  1.00  0.00    -0.214 C  
HETATM    9  C   UNL     1     -10.530  10.166  69.622  1.00  0.00    -0.252 C  
HETATM   10  OXT UNL     1      -9.717  12.099  65.270  1.00  0.00    -0.230 OA 
HETATM   11  O   UNL     1      -9.135  12.889  67.293  1.00  0.00    -0.191 OA 
HETATM   12  CA  UNL     1      -9.235   9.568  70.261  1.00  0.00    -0.258 C  
HETATM   13  O   UNL     1     -11.727  10.033  69.735  1.00  0.00    -0.188 OA 
ENDROOT
BRANCH  12  14
HETATM   14  N   UNL     1      -9.159   8.086  70.363  1.00  0.00    -0.150 N  
HETATM   15  C   UNL     1      -9.804   7.355  71.338  1.00  0.00    -0.185 C  
HETATM   16  H   UNL     1      -8.600   7.583  69.674  1.00  0.00     0.000 HD 
HETATM   17  O   UNL     1     -10.445   7.898  72.233  1.00  0.00    -0.223 OA 
BRANCH  15  18
HETATM   18  C   UNL     1      -9.643   5.818  71.244  1.00  0.00    -0.166 C  
HETATM   19  C   UNL     1     -10.560   5.242  70.161  1.00  0.00    -0.297 C  
BRANCH  18  20
HETATM   20  O   UNL     1      -8.270   5.541  70.954  1.00  0.00    -0.114 OA 
BRANCH  20  21
HETATM   21  C   UNL     1      -7.796   4.288  71.244  1.00  0.00    -0.072 A  
HETATM   22  C   UNL     1      -7.268   3.382  70.321  1.00  0.00    -0.041 A  
HETATM   23  C   UNL     1      -6.759   2.150  70.744  1.00  0.00    -0.032 A  
HETATM   24  C   UNL     1      -6.786   1.805  72.092  1.00  0.00    -0.015 A  
HETATM   25  C   UNL     1      -7.316   2.698  73.020  1.00  0.00    -0.041 A  
HETATM   26  C   UNL     1      -7.809   3.938  72.597  1.00  0.00    -0.078 A  
ENDBRANCH  20  21
ENDBRANCH  18  20
ENDBRANCH  15  18
ENDBRANCH  12  14
TORSDOF 4
ENDMDL
MODEL      169
REMARK 921   NORMALIZED FREE ENERGY PREDICTED BY IDOCK:   -3.27 KCAL/MOL
REMARK 922        TOTAL FREE ENERGY PREDICTED BY IDOCK:   -4.81 KCAL/MOL
REMARK 923 INTER-LIGAND FREE ENERGY PREDICTED BY IDOCK:   -5.41 KCAL/MOL
REMARK 924 INTRA-LIGAND FREE ENERGY PREDICTED BY IDOCK:    0.60 KCAL/MOL
REMARK 927      BINDING AFFINITY PREDICTED BY RF-SCORE:    0.00 PKD
ROOT
HETATM    1  C   UNL     1      -8.577  10.797  66.970  1.00  0.00    -0.130 C  
HETATM    2  S   UNL     1      -8.314  10.967  68.788  1.00  0.00    -0.121 SA 
HETATM    3  C   UNL     1     -10.003  10.355  69.246  1.00  0.00    -0.228 C  
HETATM    4  CA  UNL     1     -10.493   9.554  68.011  1.00  0.00    -0.230 C  
HETATM    5  C   UNL     1     -10.887  11.591  69.514  1.00  0.00    -0.121 C  
HETATM    6  C   UNL     1      -9.919   9.573  70.561  1.00  0.00    -0.335 C  
HETATM    7  N   UNL     1      -9.918  10.200  66.814  1.00  0.00    -0.202 N  
HETATM    8  C   UNL     1     -10.094   8.063  67.993  1.00  0.00    -0.194 C  
HETATM    9  C   UNL     1     -10.479  11.363  66.330  1.00  0.00    -0.254 C  
HETATM   10  OXT UNL     1     -10.308   7.271  68.891  1.00  0.00    -0.192 OA 
HETATM   11  O   UNL     1      -9.532   7.669  66.819  1.00  0.00    -0.169 OA 
HETATM   12  CA  UNL     1      -9.084  12.061  66.226  1.00  0.00    -0.165 C  
HETATM   13  O   UNL     1     -11.644  11.672  66.230  1.00  0.00    -0.420 OA 
ENDROOT
BRANCH  12  14
HETATM   14  N   UNL     1      -8.912  13.333  66.979  1.00  0.00    -0.227 N  
HETATM   15  C   UNL     1      -7.685  13.838  67.352  1.00  0.00    -0.143 C  
HETATM   16  H   UNL     1      -9.748  13.860  67.233  1.00  0.00     0.000 HD 
HETATM   17  O   UNL     1      -6.643  13.227  67.133  1.00  0.00    -0.194 OA 
BRANCH  15  18
HETATM   18  C   UNL     1      -7.713  15.201  68.085  1.00  0.00    -0.115 C  
HETATM   19  C   UNL     1      -7.208  15.054  69.523  1.00  0.00    -0.199 C  
BRANCH  18  20
HETATM   20  O   UNL     1      -6.894  16.112  67.345  1.00  0.00    -0.148 OA 
BRANCH  20  21
HETATM   21  C   UNL     1      -7.003  17.447  67.632  1.00  0.00    -0.162 A  
HETATM   22  C   UNL     1      -6.987  18.010  68.910  1.00  0.00    -0.263 A  
HETATM   23  C   UNL     1      -7.047  19.397  69.079  1.00  0.00    -0.397 A  
HETATM   24  C   UNL     1      -7.137  20.235  67.971  1.00  0.00    -0.316 A  
HETATM   25  C   UNL     1      -7.160  19.684  66.692  1.00  0.00    -0.230 A  
HETATM   26  C   UNL     1      -7.082  18.296  66.526  1.00  0.00    -0.257 A  
ENDBRANCH  20  21
ENDBRANCH  18  20
ENDBRANCH  15  18
ENDBRANCH  12  14
TORSDOF 4
ENDMDL
MODEL      170
REMARK 921   NORMALIZED FREE ENERGY PREDICTED BY IDOCK:   -3.26 KCAL/MOL
REMARK 922        TOTAL FREE ENERGY PREDICTED BY IDOCK:   -4.80 KCAL/MOL
REMARK 923 INTER-LIGAND FREE ENERGY PREDICTED BY IDOCK:   -4.59 KCAL/MOL
REMARK 924 INTRA-LIGAND FREE ENERGY PREDICTED BY IDOCK:   -0.21 KCAL/MOL
REMARK 927      BINDING AFFINITY PREDICTED BY RF-SCORE:    0.00 PKD
ROOT
HETATM    1  C   UNL     1     -10.561   8.845  69.081  1.00  0.00    -0.195 C  
HETATM    2  S   UNL     1     -11.321   7.198  69.415  1.00  0.00     0.116 SA 
HETATM    3  C   UNL     1     -11.153   7.321  71.258  1.00  0.00    -0.247 C  
HETATM    4  CA  UNL     1     -11.008   8.837  71.552  1.00  0.00    -0.307 C  
HETATM    5  C   UNL     1      -9.887   6.537  71.661  1.00  0.00    -0.180 C  
HETATM    6  C   UNL     1     -12.343   6.621  71.923  1.00  0.00    -0.364 C  
HETATM    7  N   UNL     1     -10.295   9.439  70.406  1.00  0.00    -0.242 N  
HETATM    8  C   UNL     1     -12.336   9.599  71.747  1.00  0.00    -0.392 C  
HETATM    9  C   UNL     1      -8.929   9.290  70.299  1.00  0.00    -0.229 C  
HETATM   10  OXT UNL     1     -13.214   9.288  72.530  1.00  0.00    -0.437 OA 
HETATM   11  O   UNL     1     -12.422  10.735  71.002  1.00  0.00    -0.349 OA 
HETATM   12  CA  UNL     1      -9.035   8.856  68.801  1.00  0.00    -0.134 C  
HETATM   13  O   UNL     1      -8.079   9.337  71.159  1.00  0.00    -0.298 OA 
ENDROOT
BRANCH  12  14
HETATM   14  N   UNL     1      -8.462   7.530  68.445  1.00  0.00    -0.125 N  
HETATM   15  C   UNL     1      -8.459   7.020  67.164  1.00  0.00    -0.121 C  
HETATM   16  H   UNL     1      -8.048   6.967  69.189  1.00  0.00     0.000 HD 
HETATM   17  O   UNL     1      -8.993   7.615  66.232  1.00  0.00    -0.158 OA 
BRANCH  15  18
HETATM   18  C   UNL     1      -7.770   5.645  66.989  1.00  0.00    -0.101 C  
HETATM   19  C   UNL     1      -8.540   4.553  67.735  1.00  0.00    -0.107 C  
BRANCH  18  20
HETATM   20  O   UNL     1      -7.710   5.363  65.587  1.00  0.00    -0.088 OA 
BRANCH  20  21
HETATM   21  C   UNL     1      -8.062   4.105  65.173  1.00  0.00    -0.101 A  
HETATM   22  C   UNL     1      -7.256   2.967  65.247  1.00  0.00    -0.066 A  
HETATM   23  C   UNL     1      -7.746   1.720  64.846  1.00  0.00    -0.068 A  
HETATM   24  C   UNL     1      -9.041   1.601  64.352  1.00  0.00    -0.120 A  
HETATM   25  C   UNL     1      -9.851   2.731  64.267  1.00  0.00    -0.118 A  
HETATM   26  C   UNL     1      -9.365   3.975  64.686  1.00  0.00    -0.161 A  
ENDBRANCH  20  21
ENDBRANCH  18  20
ENDBRANCH  15  18
ENDBRANCH  12  14
TORSDOF 4
ENDMDL
MODEL      171
REMARK 921   NORMALIZED FREE ENERGY PREDICTED BY IDOCK:   -3.23 KCAL/MOL
REMARK 922        TOTAL FREE ENERGY PREDICTED BY IDOCK:   -4.77 KCAL/MOL
REMARK 923 INTER-LIGAND FREE ENERGY PREDICTED BY IDOCK:   -4.01 KCAL/MOL
REMARK 924 INTRA-LIGAND FREE ENERGY PREDICTED BY IDOCK:   -0.76 KCAL/MOL
REMARK 927      BINDING AFFINITY PREDICTED BY RF-SCORE:    0.00 PKD
ROOT
HETATM    1  C   UNL     1      -9.428   7.655  71.135  1.00  0.00    -0.154 C  
HETATM    2  S   UNL     1      -8.178   8.637  70.200  1.00  0.00    -0.132 SA 
HETATM    3  C   UNL     1      -9.363   9.177  68.880  1.00  0.00    -0.146 C  
HETATM    4  CA  UNL     1     -10.772   9.013  69.507  1.00  0.00    -0.206 C  
HETATM    5  C   UNL     1      -9.164   8.243  67.668  1.00  0.00    -0.150 C  
HETATM    6  C   UNL     1      -8.996  10.591  68.418  1.00  0.00    -0.141 C  
HETATM    7  N   UNL     1     -10.709   7.861  70.430  1.00  0.00    -0.229 N  
HETATM    8  C   UNL     1     -11.288  10.236  70.296  1.00  0.00    -0.323 C  
HETATM    9  C   UNL     1     -10.742   6.579  69.925  1.00  0.00    -0.257 C  
HETATM   10  OXT UNL     1     -11.350  11.371  69.865  1.00  0.00    -0.270 OA 
HETATM   11  O   UNL     1     -11.758   9.921  71.533  1.00  0.00    -0.380 OA 
HETATM   12  CA  UNL     1      -9.516   6.144  70.791  1.00  0.00    -0.168 C  
HETATM   13  O   UNL     1     -11.408   6.124  69.023  1.00  0.00    -0.390 OA 
ENDROOT
BRANCH  12  14
HETATM   14  N   UNL     1      -8.336   5.606  70.060  1.00  0.00    -0.119 N  
HETATM   15  C   UNL     1      -8.083   4.260  69.907  1.00  0.00    -0.058 C  
HETATM   16  H   UNL     1      -7.679   6.270  69.651  1.00  0.00     0.000 HD 
HETATM   17  O   UNL     1      -8.798   3.407  70.424  1.00  0.00    -0.070 OA 
BRANCH  15  18
HETATM   18  C   UNL     1      -6.831   3.902  69.070  1.00  0.00    -0.046 C  
HETATM   19  C   UNL     1      -5.691   3.426  69.976  1.00  0.00    -0.017 C  
BRANCH  18  20
HETATM   20  O   UNL     1      -7.206   2.881  68.140  1.00  0.00    -0.049 OA 
BRANCH  20  21
HETATM   21  C   UNL     1      -7.787   3.272  66.962  1.00  0.00    -0.079 A  
HETATM   22  C   UNL     1      -9.153   3.471  66.753  1.00  0.00    -0.179 A  
HETATM   23  C   UNL     1      -9.626   3.929  65.520  1.00  0.00    -0.184 A  
HETATM   24  C   UNL     1      -8.739   4.180  64.477  1.00  0.00    -0.129 A  
HETATM   25  C   UNL     1      -7.375   3.978  64.672  1.00  0.00    -0.071 A  
HETATM   26  C   UNL     1      -6.902   3.537  65.913  1.00  0.00    -0.056 A  
ENDBRANCH  20  21
ENDBRANCH  18  20
ENDBRANCH  15  18
ENDBRANCH  12  14
TORSDOF 4
ENDMDL
MODEL      172
REMARK 921   NORMALIZED FREE ENERGY PREDICTED BY IDOCK:   -3.23 KCAL/MOL
REMARK 922        TOTAL FREE ENERGY PREDICTED BY IDOCK:   -4.76 KCAL/MOL
REMARK 923 INTER-LIGAND FREE ENERGY PREDICTED BY IDOCK:   -4.64 KCAL/MOL
REMARK 924 INTRA-LIGAND FREE ENERGY PREDICTED BY IDOCK:   -0.12 KCAL/MOL
REMARK 927      BINDING AFFINITY PREDICTED BY RF-SCORE:    0.00 PKD
ROOT
HETATM    1  C   UNL     1      -7.763   7.986  69.814  1.00  0.00    -0.101 C  
HETATM    2  S   UNL     1      -9.380   7.685  70.649  1.00  0.00    -0.162 SA 
HETATM    3  C   UNL     1      -9.546   5.942  70.041  1.00  0.00    -0.163 C  
HETATM    4  CA  UNL     1      -8.106   5.503  69.666  1.00  0.00    -0.101 C  
HETATM    5  C   UNL     1     -10.475   5.968  68.810  1.00  0.00    -0.307 C  
HETATM    6  C   UNL     1     -10.246   5.097  71.111  1.00  0.00    -0.291 C  
HETATM    7  N   UNL     1      -7.395   6.704  69.180  1.00  0.00    -0.091 N  
HETATM    8  C   UNL     1      -7.284   4.891  70.820  1.00  0.00    -0.059 C  
HETATM    9  C   UNL     1      -7.629   7.164  67.902  1.00  0.00    -0.111 C  
HETATM   10  OXT UNL     1      -7.642   3.961  71.518  1.00  0.00    -0.057 OA 
HETATM   11  O   UNL     1      -6.047   5.441  70.953  1.00  0.00    -0.023 OA 
HETATM   12  CA  UNL     1      -7.825   8.631  68.404  1.00  0.00    -0.105 C  
HETATM   13  O   UNL     1      -7.776   6.543  66.874  1.00  0.00    -0.097 OA 
ENDROOT
BRANCH  12  14
HETATM   14  N   UNL     1      -9.123   9.284  68.079  1.00  0.00    -0.128 N  
HETATM   15  C   UNL     1      -9.611  10.384  68.749  1.00  0.00    -0.177 C  
HETATM   16  H   UNL     1      -9.681   8.895  67.319  1.00  0.00     0.000 HD 
HETATM   17  O   UNL     1      -9.022  10.867  69.712  1.00  0.00     0.252 OA 
BRANCH  15  18
HETATM   18  C   UNL     1     -10.956  10.948  68.228  1.00  0.00    -0.239 C  
HETATM   19  C   UNL     1     -12.065  10.749  69.265  1.00  0.00    -0.278 C  
BRANCH  18  20
HETATM   20  O   UNL     1     -10.765  12.337  67.942  1.00  0.00    -0.205 OA 
BRANCH  20  21
HETATM   21  C   UNL     1     -11.123  12.788  66.698  1.00  0.00    -0.276 A  
HETATM   22  C   UNL     1     -11.328  14.123  66.342  1.00  0.00    -0.342 A  
HETATM   23  C   UNL     1     -11.635  14.469  65.023  1.00  0.00    -0.382 A  
HETATM   24  C   UNL     1     -11.753  13.483  64.048  1.00  0.00    -0.440 A  
HETATM   25  C   UNL     1     -11.558  12.148  64.393  1.00  0.00    -0.422 A  
HETATM   26  C   UNL     1     -11.233  11.805  65.711  1.00  0.00    -0.337 A  
ENDBRANCH  20  21
ENDBRANCH  18  20
ENDBRANCH  15  18
ENDBRANCH  12  14
TORSDOF 4
ENDMDL
MODEL      173
REMARK 921   NORMALIZED FREE ENERGY PREDICTED BY IDOCK:   -3.16 KCAL/MOL
REMARK 922        TOTAL FREE ENERGY PREDICTED BY IDOCK:   -4.68 KCAL/MOL
REMARK 923 INTER-LIGAND FREE ENERGY PREDICTED BY IDOCK:   -3.90 KCAL/MOL
REMARK 924 INTRA-LIGAND FREE ENERGY PREDICTED BY IDOCK:   -0.78 KCAL/MOL
REMARK 927      BINDING AFFINITY PREDICTED BY RF-SCORE:    0.00 PKD
ROOT
HETATM    1  C   UNL     1     -10.668   6.700  68.966  1.00  0.00    -0.259 C  
HETATM    2  S   UNL     1     -10.042   4.975  69.153  1.00  0.00    -0.152 SA 
HETATM    3  C   UNL     1      -9.413   5.225  70.879  1.00  0.00    -0.165 C  
HETATM    4  CA  UNL     1     -10.185   6.458  71.418  1.00  0.00    -0.199 C  
HETATM    5  C   UNL     1      -7.897   5.495  70.786  1.00  0.00    -0.092 C  
HETATM    6  C   UNL     1      -9.587   3.927  71.674  1.00  0.00    -0.232 C  
HETATM    7  N   UNL     1     -10.436   7.354  70.270  1.00  0.00    -0.216 N  
HETATM    8  C   UNL     1     -11.539   6.145  72.090  1.00  0.00    -0.317 C  
HETATM    9  C   UNL     1      -9.418   8.151  69.792  1.00  0.00    -0.159 C  
HETATM   10  OXT UNL     1     -11.704   5.347  72.993  1.00  0.00    -0.275 OA 
HETATM   11  O   UNL     1     -12.561   6.915  71.629  1.00  0.00    -0.357 OA 
HETATM   12  CA  UNL     1      -9.695   7.719  68.316  1.00  0.00    -0.159 C  
HETATM   13  O   UNL     1      -8.578   8.774  70.400  1.00  0.00    -0.137 OA 
ENDROOT
BRANCH  12  14
HETATM   14  N   UNL     1      -8.561   7.105  67.572  1.00  0.00    -0.122 N  
HETATM   15  C   UNL     1      -8.197   7.477  66.296  1.00  0.00    -0.125 C  
HETATM   16  H   UNL     1      -8.026   6.369  68.032  1.00  0.00     0.000 HD 
HETATM   17  O   UNL     1      -8.834   8.313  65.661  1.00  0.00    -0.165 OA 
BRANCH  15  18
HETATM   18  C   UNL     1      -6.957   6.755  65.713  1.00  0.00    -0.064 C  
HETATM   19  C   UNL     1      -5.668   7.312  66.323  1.00  0.00    -0.031 C  
BRANCH  18  20
HETATM   20  O   UNL     1      -7.095   5.358  65.994  1.00  0.00    -0.065 OA 
BRANCH  20  21
HETATM   21  C   UNL     1      -7.878   4.612  65.152  1.00  0.00    -0.090 A  
HETATM   22  C   UNL     1      -9.086   3.998  65.492  1.00  0.00    -0.142 A  
HETATM   23  C   UNL     1      -9.829   3.308  64.530  1.00  0.00    -0.145 A  
HETATM   24  C   UNL     1      -9.366   3.212  63.221  1.00  0.00    -0.094 A  
HETATM   25  C   UNL     1      -8.159   3.814  62.872  1.00  0.00    -0.076 A  
HETATM   26  C   UNL     1      -7.425   4.519  63.833  1.00  0.00    -0.059 A  
ENDBRANCH  20  21
ENDBRANCH  18  20
ENDBRANCH  15  18
ENDBRANCH  12  14
TORSDOF 4
ENDMDL
MODEL      174
REMARK 921   NORMALIZED FREE ENERGY PREDICTED BY IDOCK:   -3.16 KCAL/MOL
REMARK 922        TOTAL FREE ENERGY PREDICTED BY IDOCK:   -4.67 KCAL/MOL
REMARK 923 INTER-LIGAND FREE ENERGY PREDICTED BY IDOCK:   -4.13 KCAL/MOL
REMARK 924 INTRA-LIGAND FREE ENERGY PREDICTED BY IDOCK:   -0.54 KCAL/MOL
REMARK 927      BINDING AFFINITY PREDICTED BY RF-SCORE:    0.00 PKD
ROOT
HETATM    1  C   UNL     1     -10.170   8.924  69.291  1.00  0.00    -0.209 C  
HETATM    2  S   UNL     1      -8.363   8.930  69.657  1.00  0.00    -0.129 SA 
HETATM    3  C   UNL     1      -7.911   7.843  68.225  1.00  0.00    -0.122 C  
HETATM    4  CA  UNL     1      -9.099   7.962  67.235  1.00  0.00    -0.135 C  
HETATM    5  C   UNL     1      -7.757   6.407  68.765  1.00  0.00    -0.101 C  
HETATM    6  C   UNL     1      -6.542   8.265  67.681  1.00  0.00    -0.058 C  
HETATM    7  N   UNL     1     -10.323   8.155  68.040  1.00  0.00    -0.215 N  
HETATM    8  C   UNL     1      -8.999   9.124  66.224  1.00  0.00    -0.158 C  
HETATM    9  C   UNL     1     -10.904   7.074  68.668  1.00  0.00    -0.147 C  
HETATM   10  OXT UNL     1      -8.054   9.331  65.487  1.00  0.00    -0.108 OA 
HETATM   11  O   UNL     1     -10.126   9.884  66.161  1.00  0.00    -0.250 OA 
HETATM   12  CA  UNL     1     -11.017   7.847  70.021  1.00  0.00    -0.207 C  
HETATM   13  O   UNL     1     -11.059   5.943  68.268  1.00  0.00    -0.258 OA 
ENDROOT
BRANCH  12  14
HETATM   14  N   UNL     1     -10.352   7.233  71.203  1.00  0.00    -0.199 N  
HETATM   15  C   UNL     1     -11.013   6.461  72.133  1.00  0.00    -0.251 C  
HETATM   16  H   UNL     1      -9.352   7.392  71.330  1.00  0.00     0.000 HD 
HETATM   17  O   UNL     1     -12.226   6.279  72.076  1.00  0.00    -0.338 OA 
BRANCH  15  18
HETATM   18  C   UNL     1     -10.135   5.870  73.263  1.00  0.00    -0.191 C  
HETATM   19  C   UNL     1     -10.761   4.589  73.822  1.00  0.00    -0.348 C  
BRANCH  18  20
HETATM   20  O   UNL     1      -8.838   5.610  72.717  1.00  0.00    -0.123 OA 
BRANCH  20  21
HETATM   21  C   UNL     1      -8.583   4.348  72.247  1.00  0.00    -0.113 A  
HETATM   22  C   UNL     1      -9.197   3.749  71.145  1.00  0.00    -0.201 A  
HETATM   23  C   UNL     1      -8.812   2.472  70.723  1.00  0.00    -0.137 A  
HETATM   24  C   UNL     1      -7.820   1.776  71.406  1.00  0.00    -0.040 A  
HETATM   25  C   UNL     1      -7.206   2.361  72.511  1.00  0.00    -0.032 A  
HETATM   26  C   UNL     1      -7.580   3.646  72.922  1.00  0.00    -0.061 A  
ENDBRANCH  20  21
ENDBRANCH  18  20
ENDBRANCH  15  18
ENDBRANCH  12  14
TORSDOF 4
ENDMDL
MODEL      175
REMARK 921   NORMALIZED FREE ENERGY PREDICTED BY IDOCK:   -3.13 KCAL/MOL
REMARK 922        TOTAL FREE ENERGY PREDICTED BY IDOCK:   -4.63 KCAL/MOL
REMARK 923 INTER-LIGAND FREE ENERGY PREDICTED BY IDOCK:   -4.59 KCAL/MOL
REMARK 924 INTRA-LIGAND FREE ENERGY PREDICTED BY IDOCK:   -0.04 KCAL/MOL
REMARK 927      BINDING AFFINITY PREDICTED BY RF-SCORE:    0.00 PKD
ROOT
HETATM    1  C   UNL     1      -9.569   8.192  66.325  1.00  0.00    -0.178 C  
HETATM    2  S   UNL     1     -10.900   9.249  67.042  1.00  0.00     0.143 SA 
HETATM    3  C   UNL     1     -10.024  10.848  66.706  1.00  0.00    -0.205 C  
HETATM    4  CA  UNL     1      -8.999  10.523  65.589  1.00  0.00    -0.180 C  
HETATM    5  C   UNL     1      -9.329  11.278  68.014  1.00  0.00    -0.166 C  
HETATM    6  C   UNL     1     -11.057  11.930  66.373  1.00  0.00    -0.359 C  
HETATM    7  N   UNL     1      -8.559   9.127  65.790  1.00  0.00    -0.144 N  
HETATM    8  C   UNL     1      -9.533  10.656  64.146  1.00  0.00    -0.281 C  
HETATM    9  C   UNL     1      -7.638   8.838  66.774  1.00  0.00    -0.090 C  
HETATM   10  OXT UNL     1     -10.078  11.644  63.690  1.00  0.00    -0.326 OA 
HETATM   11  O   UNL     1      -9.270   9.570  63.371  1.00  0.00    -0.200 OA 
HETATM   12  CA  UNL     1      -8.504   7.656  67.319  1.00  0.00    -0.121 C  
HETATM   13  O   UNL     1      -6.648   9.448  67.105  1.00  0.00    -0.069 OA 
ENDROOT
BRANCH  12  14
HETATM   14  N   UNL     1      -8.905   7.724  68.751  1.00  0.00    -0.135 N  
HETATM   15  C   UNL     1      -9.673   6.763  69.373  1.00  0.00    -0.152 C  
HETATM   16  H   UNL     1      -8.594   8.524  69.302  1.00  0.00     0.000 HD 
HETATM   17  O   UNL     1     -10.132   5.805  68.757  1.00  0.00    -0.150 OA 
BRANCH  15  18
HETATM   18  C   UNL     1      -9.940   6.988  70.881  1.00  0.00    -0.193 C  
HETATM   19  C   UNL     1     -11.417   6.752  71.212  1.00  0.00    -0.347 C  
BRANCH  18  20
HETATM   20  O   UNL     1      -9.101   6.088  71.612  1.00  0.00    -0.143 OA 
BRANCH  20  21
HETATM   21  C   UNL     1      -9.666   4.935  72.091  1.00  0.00    -0.163 A  
HETATM   22  C   UNL     1      -9.644   3.691  71.455  1.00  0.00    -0.237 A  
HETATM   23  C   UNL     1     -10.206   2.568  72.069  1.00  0.00    -0.125 A  
HETATM   24  C   UNL     1     -10.807   2.678  73.319  1.00  0.00    -0.278 A  
HETATM   25  C   UNL     1     -10.840   3.915  73.959  1.00  0.00    -0.276 A  
HETATM   26  C   UNL     1     -10.262   5.034  73.350  1.00  0.00    -0.218 A  
ENDBRANCH  20  21
ENDBRANCH  18  20
ENDBRANCH  15  18
ENDBRANCH  12  14
TORSDOF 4
ENDMDL
MODEL      176
REMARK 921   NORMALIZED FREE ENERGY PREDICTED BY IDOCK:   -3.11 KCAL/MOL
REMARK 922        TOTAL FREE ENERGY PREDICTED BY IDOCK:   -4.62 KCAL/MOL
REMARK 923 INTER-LIGAND FREE ENERGY PREDICTED BY IDOCK:   -4.50 KCAL/MOL
REMARK 924 INTRA-LIGAND FREE ENERGY PREDICTED BY IDOCK:   -0.12 KCAL/MOL
REMARK 927      BINDING AFFINITY PREDICTED BY RF-SCORE:    0.00 PKD
ROOT
HETATM    1  C   UNL     1     -10.231  13.230  67.349  1.00  0.00    -0.229 C  
HETATM    2  S   UNL     1     -10.159  14.197  68.918  1.00  0.00    -0.089 SA 
HETATM    3  C   UNL     1     -11.896  13.796  69.426  1.00  0.00    -0.341 C  
HETATM    4  CA  UNL     1     -12.266  12.515  68.634  1.00  0.00     0.088 C  
HETATM    5  C   UNL     1     -12.784  14.992  69.027  1.00  0.00     0.404 C  
HETATM    6  C   UNL     1     -11.963  13.681  70.953  1.00  0.00    -0.226 C  
HETATM    7  N   UNL     1     -11.558  12.582  67.339  1.00  0.00    -0.349 N  
HETATM    8  C   UNL     1     -11.890  11.184  69.321  1.00  0.00    -0.352 C  
HETATM    9  C   UNL     1     -12.047  13.390  66.336  1.00  0.00    -0.409 C  
HETATM   10  OXT UNL     1     -12.209  10.865  70.450  1.00  0.00    -0.306 OA 
HETATM   11  O   UNL     1     -11.214  10.329  68.507  1.00  0.00    -0.252 OA 
HETATM   12  CA  UNL     1     -10.638  14.015  66.074  1.00  0.00    -0.297 C  
HETATM   13  O   UNL     1     -13.190  13.585  65.991  1.00  0.00    -0.104 OA 
ENDROOT
BRANCH  12  14
HETATM   14  N   UNL     1     -10.527  15.495  66.196  1.00  0.00    -0.301 N  
HETATM   15  C   UNL     1      -9.333  16.155  66.391  1.00  0.00    -0.298 C  
HETATM   16  H   UNL     1     -11.381  16.049  66.133  1.00  0.00     0.000 HD 
HETATM   17  O   UNL     1      -8.276  15.548  66.536  1.00  0.00    -0.248 OA 
BRANCH  15  18
HETATM   18  C   UNL     1      -9.420  17.700  66.442  1.00  0.00    -0.259 C  
HETATM   19  C   UNL     1     -10.473  18.151  67.458  1.00  0.00    -0.425 C  
BRANCH  18  20
HETATM   20  O   UNL     1      -8.124  18.198  66.791  1.00  0.00    -0.230 OA 
BRANCH  20  21
HETATM   21  C   UNL     1      -7.439  18.916  65.845  1.00  0.00    -0.210 A  
HETATM   22  C   UNL     1      -6.344  18.458  65.109  1.00  0.00    -0.141 A  
HETATM   23  C   UNL     1      -5.760  19.262  64.126  1.00  0.00    -0.326 A  
HETATM   24  C   UNL     1      -6.257  20.538  63.877  1.00  0.00    -0.280 A  
HETATM   25  C   UNL     1      -7.344  21.008  64.609  1.00  0.00     0.701 A  
HETATM   26  C   UNL     1      -7.938  20.194  65.581  1.00  0.00    -0.021 A  
ENDBRANCH  20  21
ENDBRANCH  18  20
ENDBRANCH  15  18
ENDBRANCH  12  14
TORSDOF 4
ENDMDL
MODEL      177
REMARK 921   NORMALIZED FREE ENERGY PREDICTED BY IDOCK:   -3.10 KCAL/MOL
REMARK 922        TOTAL FREE ENERGY PREDICTED BY IDOCK:   -4.60 KCAL/MOL
REMARK 923 INTER-LIGAND FREE ENERGY PREDICTED BY IDOCK:   -4.10 KCAL/MOL
REMARK 924 INTRA-LIGAND FREE ENERGY PREDICTED BY IDOCK:   -0.50 KCAL/MOL
REMARK 927      BINDING AFFINITY PREDICTED BY RF-SCORE:    0.00 PKD
ROOT
HETATM    1  C   UNL     1      -9.872   7.143  66.309  1.00  0.00     0.050 C  
HETATM    2  S   UNL     1     -10.639   8.157  67.645  1.00  0.00    -0.139 SA 
HETATM    3  C   UNL     1      -9.183   9.289  67.835  1.00  0.00    -0.129 C  
HETATM    4  CA  UNL     1      -8.395   9.163  66.505  1.00  0.00    -0.118 C  
HETATM    5  C   UNL     1      -8.360   8.786  69.039  1.00  0.00    -0.129 C  
HETATM    6  C   UNL     1      -9.678  10.696  68.189  1.00  0.00    -0.167 C  
HETATM    7  N   UNL     1      -8.571   7.778  66.022  1.00  0.00    -0.145 N  
HETATM    8  C   UNL     1      -8.839  10.126  65.383  1.00  0.00    -0.173 C  
HETATM    9  C   UNL     1      -7.843   6.758  66.595  1.00  0.00    -0.107 C  
HETATM   10  OXT UNL     1      -8.929  11.334  65.493  1.00  0.00    -0.195 OA 
HETATM   11  O   UNL     1      -9.055   9.504  64.193  1.00  0.00    -0.232 OA 
HETATM   12  CA  UNL     1      -9.116   5.866  66.762  1.00  0.00    -0.128 C  
HETATM   13  O   UNL     1      -6.686   6.741  66.947  1.00  0.00    -0.052 OA 
ENDROOT
BRANCH  12  14
HETATM   14  N   UNL     1      -9.440   5.411  68.142  1.00  0.00    -0.114 N  
HETATM   15  C   UNL     1      -8.978   4.231  68.683  1.00  0.00    -0.114 C  
HETATM   16  H   UNL     1     -10.036   6.006  68.718  1.00  0.00     0.000 HD 
HETATM   17  O   UNL     1      -8.307   3.439  68.027  1.00  0.00    -0.081 OA 
BRANCH  15  18
HETATM   18  C   UNL     1      -9.385   3.960  70.153  1.00  0.00    -0.171 C  
HETATM   19  C   UNL     1      -8.185   4.134  71.088  1.00  0.00    -0.075 C  
BRANCH  18  20
HETATM   20  O   UNL     1     -10.435   4.873  70.490  1.00  0.00    -0.216 OA 
BRANCH  20  21
HETATM   21  C   UNL     1     -10.416   5.435  71.740  1.00  0.00    -0.226 A  
HETATM   22  C   UNL     1     -10.683   4.768  72.938  1.00  0.00    -0.297 A  
HETATM   23  C   UNL     1     -10.576   5.434  74.162  1.00  0.00    -0.278 A  
HETATM   24  C   UNL     1     -10.214   6.777  74.201  1.00  0.00    -0.370 A  
HETATM   25  C   UNL     1      -9.952   7.454  73.012  1.00  0.00    -0.299 A  
HETATM   26  C   UNL     1     -10.043   6.780  71.789  1.00  0.00    -0.195 A  
ENDBRANCH  20  21
ENDBRANCH  18  20
ENDBRANCH  15  18
ENDBRANCH  12  14
TORSDOF 4
ENDMDL
MODEL      178
REMARK 921   NORMALIZED FREE ENERGY PREDICTED BY IDOCK:   -3.09 KCAL/MOL
REMARK 922        TOTAL FREE ENERGY PREDICTED BY IDOCK:   -4.60 KCAL/MOL
REMARK 923 INTER-LIGAND FREE ENERGY PREDICTED BY IDOCK:   -4.75 KCAL/MOL
REMARK 924 INTRA-LIGAND FREE ENERGY PREDICTED BY IDOCK:    0.16 KCAL/MOL
REMARK 927      BINDING AFFINITY PREDICTED BY RF-SCORE:    0.00 PKD
ROOT
HETATM    1  C   UNL     1      -8.619  12.879  66.175  1.00  0.00     0.552 C  
HETATM    2  S   UNL     1      -7.932  11.984  67.634  1.00  0.00    -0.162 SA 
HETATM    3  C   UNL     1      -9.512  11.096  68.027  1.00  0.00    -0.174 C  
HETATM    4  CA  UNL     1     -10.332  11.124  66.711  1.00  0.00    -0.241 C  
HETATM    5  C   UNL     1     -10.213  11.877  69.157  1.00  0.00     0.089 C  
HETATM    6  C   UNL     1      -9.186   9.705  68.582  1.00  0.00    -0.136 C  
HETATM    7  N   UNL     1     -10.002  12.386  66.017  1.00  0.00    -0.252 N  
HETATM    8  C   UNL     1     -10.062   9.955  65.741  1.00  0.00    -0.247 C  
HETATM    9  C   UNL     1     -10.569  13.568  66.442  1.00  0.00    -0.283 C  
HETATM   10  OXT UNL     1     -10.122   8.775  66.033  1.00  0.00    -0.228 OA 
HETATM   11  O   UNL     1      -9.818  10.357  64.465  1.00  0.00    -0.308 OA 
HETATM   12  CA  UNL     1      -9.187  14.298  66.442  1.00  0.00    -0.199 C  
HETATM   13  O   UNL     1     -11.699  13.790  66.812  1.00  0.00    -0.349 OA 
ENDROOT
BRANCH  12  14
HETATM   14  N   UNL     1      -8.751  14.907  67.728  1.00  0.00    -0.161 N  
HETATM   15  C   UNL     1      -7.541  15.546  67.897  1.00  0.00    -0.133 C  
HETATM   16  H   UNL     1      -9.381  14.849  68.528  1.00  0.00     0.000 HD 
HETATM   17  O   UNL     1      -6.709  15.600  66.996  1.00  0.00    -0.267 OA 
BRANCH  15  18
HETATM   18  C   UNL     1      -7.293  16.158  69.297  1.00  0.00    -0.231 C  
HETATM   19  C   UNL     1      -5.804  16.453  69.504  1.00  0.00    -0.170 C  
BRANCH  18  20
HETATM   20  O   UNL     1      -8.071  17.356  69.394  1.00  0.00     0.065 OA 
BRANCH  20  21
HETATM   21  C   UNL     1      -7.698  18.424  68.620  1.00  0.00    -0.301 A  
HETATM   22  C   UNL     1      -6.793  19.421  68.989  1.00  0.00    -0.377 A  
HETATM   23  C   UNL     1      -6.445  20.435  68.091  1.00  0.00    -0.339 A  
HETATM   24  C   UNL     1      -7.008  20.469  66.819  1.00  0.00    -0.330 A  
HETATM   25  C   UNL     1      -7.917  19.483  66.442  1.00  0.00    -0.323 A  
HETATM   26  C   UNL     1      -8.251  18.460  67.337  1.00  0.00    -0.248 A  
ENDBRANCH  20  21
ENDBRANCH  18  20
ENDBRANCH  15  18
ENDBRANCH  12  14
TORSDOF 4
ENDMDL
MODEL      179
REMARK 921   NORMALIZED FREE ENERGY PREDICTED BY IDOCK:   -3.09 KCAL/MOL
REMARK 922        TOTAL FREE ENERGY PREDICTED BY IDOCK:   -4.59 KCAL/MOL
REMARK 923 INTER-LIGAND FREE ENERGY PREDICTED BY IDOCK:   -4.01 KCAL/MOL
REMARK 924 INTRA-LIGAND FREE ENERGY PREDICTED BY IDOCK:   -0.58 KCAL/MOL
REMARK 927      BINDING AFFINITY PREDICTED BY RF-SCORE:    0.00 PKD
ROOT
HETATM    1  C   UNL     1      -8.783   9.553  69.042  1.00  0.00    -0.142 C  
HETATM    2  S   UNL     1      -9.810  10.203  70.430  1.00  0.00     0.318 SA 
HETATM    3  C   UNL     1     -11.416   9.600  69.729  1.00  0.00    -0.052 C  
HETATM    4  CA  UNL     1     -11.029   8.474  68.735  1.00  0.00     0.164 C  
HETATM    5  C   UNL     1     -12.085  10.792  69.013  1.00  0.00    -0.170 C  
HETATM    6  C   UNL     1     -12.347   9.190  70.876  1.00  0.00    -0.197 C  
HETATM    7  N   UNL     1      -9.719   8.835  68.154  1.00  0.00    -0.153 N  
HETATM    8  C   UNL     1     -10.912   7.064  69.351  1.00  0.00    -0.201 C  
HETATM    9  C   UNL     1      -9.652   9.788  67.161  1.00  0.00    -0.169 C  
HETATM   10  OXT UNL     1     -11.775   6.514  70.009  1.00  0.00    -0.416 OA 
HETATM   11  O   UNL     1      -9.756   6.427  69.024  1.00  0.00    -0.134 OA 
HETATM   12  CA  UNL     1      -8.488  10.541  67.883  1.00  0.00    -0.119 C  
HETATM   13  O   UNL     1     -10.388   9.971  66.219  1.00  0.00    -0.223 OA 
ENDROOT
BRANCH  12  14
HETATM   14  N   UNL     1      -8.720  11.973  68.216  1.00  0.00    -0.179 N  
HETATM   15  C   UNL     1      -7.942  13.003  67.732  1.00  0.00    -0.164 C  
HETATM   16  H   UNL     1      -9.496  12.205  68.835  1.00  0.00     0.000 HD 
HETATM   17  O   UNL     1      -6.957  12.793  67.030  1.00  0.00    -0.052 OA 
BRANCH  15  18
HETATM   18  C   UNL     1      -8.376  14.429  68.153  1.00  0.00    -0.158 C  
HETATM   19  C   UNL     1      -7.716  14.827  69.477  1.00  0.00    -0.068 C  
BRANCH  18  20
HETATM   20  O   UNL     1      -8.002  15.327  67.104  1.00  0.00    -0.188 OA 
BRANCH  20  21
HETATM   21  C   UNL     1      -8.411  16.631  67.202  1.00  0.00    -0.177 A  
HETATM   22  C   UNL     1      -7.584  17.754  67.118  1.00  0.00    -0.223 A  
HETATM   23  C   UNL     1      -8.124  19.042  67.176  1.00  0.00    -0.280 A  
HETATM   24  C   UNL     1      -9.496  19.221  67.331  1.00  0.00    -0.376 A  
HETATM   25  C   UNL     1     -10.329  18.109  67.423  1.00  0.00    -0.402 A  
HETATM   26  C   UNL     1      -9.787  16.820  67.348  1.00  0.00    -0.252 A  
ENDBRANCH  20  21
ENDBRANCH  18  20
ENDBRANCH  15  18
ENDBRANCH  12  14
TORSDOF 4
ENDMDL
MODEL      180
REMARK 921   NORMALIZED FREE ENERGY PREDICTED BY IDOCK:   -3.09 KCAL/MOL
REMARK 922        TOTAL FREE ENERGY PREDICTED BY IDOCK:   -4.59 KCAL/MOL
REMARK 923 INTER-LIGAND FREE ENERGY PREDICTED BY IDOCK:   -3.52 KCAL/MOL
REMARK 924 INTRA-LIGAND FREE ENERGY PREDICTED BY IDOCK:   -1.07 KCAL/MOL
REMARK 927      BINDING AFFINITY PREDICTED BY RF-SCORE:    0.00 PKD
ROOT
HETATM    1  C   UNL     1      -9.426   6.849  70.339  1.00  0.00    -0.169 C  
HETATM    2  S   UNL     1      -8.204   8.196  70.029  1.00  0.00    -0.122 SA 
HETATM    3  C   UNL     1      -9.351   9.208  68.982  1.00  0.00    -0.151 C  
HETATM    4  CA  UNL     1     -10.776   8.724  69.357  1.00  0.00    -0.169 C  
HETATM    5  C   UNL     1      -9.015   8.910  67.507  1.00  0.00    -0.142 C  
HETATM    6  C   UNL     1      -9.067  10.696  69.213  1.00  0.00    -0.117 C  
HETATM    7  N   UNL     1     -10.678   7.288  69.690  1.00  0.00    -0.235 N  
HETATM    8  C   UNL     1     -11.426   9.453  70.553  1.00  0.00    -0.262 C  
HETATM    9  C   UNL     1     -10.586   6.357  68.678  1.00  0.00    -0.253 C  
HETATM   10  OXT UNL     1     -11.549  10.659  70.654  1.00  0.00    -0.326 OA 
HETATM   11  O   UNL     1     -11.938   8.607  71.487  1.00  0.00    -0.278 OA 
HETATM   12  CA  UNL     1      -9.380   5.641  69.367  1.00  0.00    -0.125 C  
HETATM   13  O   UNL     1     -11.164   6.315  67.616  1.00  0.00    -0.327 OA 
ENDROOT
BRANCH  12  14
HETATM   14  N   UNL     1      -8.124   5.530  68.576  1.00  0.00    -0.098 N  
HETATM   15  C   UNL     1      -7.927   4.589  67.588  1.00  0.00    -0.096 C  
HETATM   16  H   UNL     1      -7.369   6.186  68.775  1.00  0.00     0.000 HD 
HETATM   17  O   UNL     1      -8.768   3.731  67.337  1.00  0.00    -0.102 OA 
BRANCH  15  18
HETATM   18  C   UNL     1      -6.571   4.669  66.844  1.00  0.00    -0.050 C  
HETATM   19  C   UNL     1      -5.705   3.446  67.162  1.00  0.00    -0.022 C  
BRANCH  18  20
HETATM   20  O   UNL     1      -6.847   4.752  65.443  1.00  0.00    -0.057 OA 
BRANCH  20  21
HETATM   21  C   UNL     1      -6.898   5.998  64.874  1.00  0.00    -0.047 A  
HETATM   22  C   UNL     1      -8.034   6.598  64.326  1.00  0.00    -0.092 A  
HETATM   23  C   UNL     1      -7.979   7.902  63.825  1.00  0.00    -0.119 A  
HETATM   24  C   UNL     1      -6.784   8.615  63.854  1.00  0.00    -0.083 A  
HETATM   25  C   UNL     1      -5.644   8.024  64.392  1.00  0.00    -0.041 A  
HETATM   26  C   UNL     1      -5.705   6.725  64.909  1.00  0.00    -0.031 A  
ENDBRANCH  20  21
ENDBRANCH  18  20
ENDBRANCH  15  18
ENDBRANCH  12  14
TORSDOF 4
ENDMDL
MODEL      181
REMARK 921   NORMALIZED FREE ENERGY PREDICTED BY IDOCK:   -3.07 KCAL/MOL
REMARK 922        TOTAL FREE ENERGY PREDICTED BY IDOCK:   -4.56 KCAL/MOL
REMARK 923 INTER-LIGAND FREE ENERGY PREDICTED BY IDOCK:   -4.88 KCAL/MOL
REMARK 924 INTRA-LIGAND FREE ENERGY PREDICTED BY IDOCK:    0.32 KCAL/MOL
REMARK 927      BINDING AFFINITY PREDICTED BY RF-SCORE:    0.00 PKD
ROOT
HETATM    1  C   UNL     1      -9.854  10.368  65.785  1.00  0.00    -0.239 C  
HETATM    2  S   UNL     1     -11.292  10.830  66.843  1.00  0.00     0.296 SA 
HETATM    3  C   UNL     1     -10.764  12.594  67.059  1.00  0.00    -0.245 C  
HETATM    4  CA  UNL     1      -9.797  12.876  65.879  1.00  0.00    -0.235 C  
HETATM    5  C   UNL     1     -10.051  12.701  68.422  1.00  0.00    -0.222 C  
HETATM    6  C   UNL     1     -12.006  13.489  67.134  1.00  0.00    -0.426 C  
HETATM    7  N   UNL     1      -9.088  11.613  65.584  1.00  0.00    -0.140 N  
HETATM    8  C   UNL     1     -10.469  13.366  64.579  1.00  0.00    -0.413 C  
HETATM    9  C   UNL     1      -8.047  11.211  66.393  1.00  0.00    -0.159 C  
HETATM   10  OXT UNL     1     -11.226  14.315  64.498  1.00  0.00    -0.371 OA 
HETATM   11  O   UNL     1     -10.075  12.677  63.475  1.00  0.00    -0.392 OA 
HETATM   12  CA  UNL     1      -8.626   9.764  66.517  1.00  0.00    -0.127 C  
HETATM   13  O   UNL     1      -7.164  11.867  66.895  1.00  0.00    -0.138 OA 
ENDROOT
BRANCH  12  14
HETATM   14  N   UNL     1      -8.907   9.270  67.892  1.00  0.00    -0.124 N  
HETATM   15  C   UNL     1      -7.930   8.824  68.756  1.00  0.00    -0.106 C  
HETATM   16  H   UNL     1      -9.875   9.260  68.213  1.00  0.00     0.000 HD 
HETATM   17  O   UNL     1      -6.752   8.752  68.416  1.00  0.00    -0.062 OA 
BRANCH  15  18
HETATM   18  C   UNL     1      -8.418   8.398  70.162  1.00  0.00    -0.126 C  
HETATM   19  C   UNL     1      -9.678   9.174  70.557  1.00  0.00    -0.287 C  
BRANCH  18  20
HETATM   20  O   UNL     1      -8.673   6.990  70.127  1.00  0.00    -0.139 OA 
BRANCH  20  21
HETATM   21  C   UNL     1      -9.099   6.447  68.943  1.00  0.00    -0.129 A  
HETATM   22  C   UNL     1      -8.301   5.758  68.028  1.00  0.00    -0.103 A  
HETATM   23  C   UNL     1      -8.861   5.196  66.876  1.00  0.00    -0.110 A  
HETATM   24  C   UNL     1     -10.223   5.329  66.621  1.00  0.00    -0.291 A  
HETATM   25  C   UNL     1     -11.027   6.021  67.524  1.00  0.00    -0.335 A  
HETATM   26  C   UNL     1     -10.467   6.568  68.684  1.00  0.00    -0.252 A  
ENDBRANCH  20  21
ENDBRANCH  18  20
ENDBRANCH  15  18
ENDBRANCH  12  14
TORSDOF 4
ENDMDL
MODEL      182
REMARK 921   NORMALIZED FREE ENERGY PREDICTED BY IDOCK:   -3.06 KCAL/MOL
REMARK 922        TOTAL FREE ENERGY PREDICTED BY IDOCK:   -4.55 KCAL/MOL
REMARK 923 INTER-LIGAND FREE ENERGY PREDICTED BY IDOCK:   -4.15 KCAL/MOL
REMARK 924 INTRA-LIGAND FREE ENERGY PREDICTED BY IDOCK:   -0.40 KCAL/MOL
REMARK 927      BINDING AFFINITY PREDICTED BY RF-SCORE:    0.00 PKD
ROOT
HETATM    1  C   UNL     1     -10.173   9.827  66.231  1.00  0.00    -0.212 C  
HETATM    2  S   UNL     1     -11.253   9.545  67.699  1.00  0.00     0.536 SA 
HETATM    3  C   UNL     1     -10.565  10.966  68.671  1.00  0.00    -0.195 C  
HETATM    4  CA  UNL     1      -9.918  11.903  67.618  1.00  0.00    -0.189 C  
HETATM    5  C   UNL     1      -9.518  10.395  69.649  1.00  0.00    -0.118 C  
HETATM    6  C   UNL     1     -11.679  11.585  69.522  1.00  0.00    -0.413 C  
HETATM    7  N   UNL     1      -9.399  11.048  66.531  1.00  0.00    -0.176 N  
HETATM    8  C   UNL     1     -10.867  12.950  66.997  1.00  0.00    -0.260 C  
HETATM    9  C   UNL     1      -8.215  10.364  66.707  1.00  0.00    -0.126 C  
HETATM   10  OXT UNL     1     -11.550  13.735  67.626  1.00  0.00    -0.307 OA 
HETATM   11  O   UNL     1     -10.820  12.981  65.637  1.00  0.00    -0.270 OA 
HETATM   12  CA  UNL     1      -8.842   9.029  66.191  1.00  0.00    -0.164 C  
HETATM   13  O   UNL     1      -7.188  10.725  67.235  1.00  0.00    -0.089 OA 
ENDROOT
BRANCH  12  14
HETATM   14  N   UNL     1      -8.792   7.863  67.115  1.00  0.00    -0.130 N  
HETATM   15  C   UNL     1      -7.955   6.783  66.934  1.00  0.00    -0.109 C  
HETATM   16  H   UNL     1      -9.411   7.863  67.926  1.00  0.00     0.000 HD 
HETATM   17  O   UNL     1      -7.228   6.688  65.949  1.00  0.00    -0.064 OA 
BRANCH  15  18
HETATM   18  C   UNL     1      -8.015   5.694  68.033  1.00  0.00    -0.097 C  
HETATM   19  C   UNL     1      -7.520   6.247  69.373  1.00  0.00    -0.093 C  
BRANCH  18  20
HETATM   20  O   UNL     1      -9.372   5.249  68.132  1.00  0.00    -0.111 OA 
BRANCH  20  21
HETATM   21  C   UNL     1      -9.970   5.293  69.364  1.00  0.00    -0.218 A  
HETATM   22  C   UNL     1      -9.810   4.351  70.383  1.00  0.00    -0.286 A  
HETATM   23  C   UNL     1     -10.428   4.531  71.624  1.00  0.00    -0.084 A  
HETATM   24  C   UNL     1     -11.224   5.649  71.855  1.00  0.00    -0.246 A  
HETATM   25  C   UNL     1     -11.396   6.592  70.845  1.00  0.00    -0.393 A  
HETATM   26  C   UNL     1     -10.763   6.417  69.609  1.00  0.00    -0.339 A  
ENDBRANCH  20  21
ENDBRANCH  18  20
ENDBRANCH  15  18
ENDBRANCH  12  14
TORSDOF 4
ENDMDL
MODEL      183
REMARK 921   NORMALIZED FREE ENERGY PREDICTED BY IDOCK:   -3.05 KCAL/MOL
REMARK 922        TOTAL FREE ENERGY PREDICTED BY IDOCK:   -4.55 KCAL/MOL
REMARK 923 INTER-LIGAND FREE ENERGY PREDICTED BY IDOCK:   -4.93 KCAL/MOL
REMARK 924 INTRA-LIGAND FREE ENERGY PREDICTED BY IDOCK:    0.38 KCAL/MOL
REMARK 927      BINDING AFFINITY PREDICTED BY RF-SCORE:    0.00 PKD
ROOT
HETATM    1  C   UNL     1      -8.955  15.385  68.692  1.00  0.00    -0.191 C  
HETATM    2  S   UNL     1      -8.701  15.589  66.877  1.00  0.00    -0.272 SA 
HETATM    3  C   UNL     1     -10.303  16.477  66.595  1.00  0.00    -0.298 C  
HETATM    4  CA  UNL     1     -10.706  17.039  67.983  1.00  0.00    -0.365 C  
HETATM    5  C   UNL     1     -11.322  15.441  66.078  1.00  0.00    -0.089 C  
HETATM    6  C   UNL     1     -10.118  17.514  65.482  1.00  0.00     0.149 C  
HETATM    7  N   UNL     1     -10.220  16.083  69.000  1.00  0.00    -0.222 N  
HETATM    8  C   UNL     1     -10.137  18.433  68.321  1.00  0.00    -0.383 C  
HETATM    9  C   UNL     1     -10.915  14.915  69.227  1.00  0.00    -0.270 C  
HETATM   10  OXT UNL     1     -10.250  19.423  67.622  1.00  0.00    -0.363 OA 
HETATM   11  O   UNL     1      -9.542  18.492  69.543  1.00  0.00     0.090 OA 
HETATM   12  CA  UNL     1      -9.612  14.056  69.150  1.00  0.00     0.201 C  
HETATM   13  O   UNL     1     -12.109  14.727  69.277  1.00  0.00    -0.305 OA 
ENDROOT
BRANCH  12  14
HETATM   14  N   UNL     1      -9.584  12.969  68.134  1.00  0.00    -0.224 N  
HETATM   15  C   UNL     1      -8.624  11.980  68.103  1.00  0.00    -0.173 C  
HETATM   16  H   UNL     1     -10.313  12.955  67.422  1.00  0.00     0.000 HD 
HETATM   17  O   UNL     1      -7.683  11.969  68.892  1.00  0.00    -0.087 OA 
BRANCH  15  18
HETATM   18  C   UNL     1      -8.796  10.910  66.998  1.00  0.00    -0.140 C  
HETATM   19  C   UNL     1      -7.527  10.064  66.859  1.00  0.00    -0.095 C  
BRANCH  18  20
HETATM   20  O   UNL     1      -9.920  10.096  67.350  1.00  0.00    -0.179 OA 
BRANCH  20  21
HETATM   21  C   UNL     1     -10.173   9.899  68.682  1.00  0.00    -0.178 A  
HETATM   22  C   UNL     1     -11.162  10.544  69.428  1.00  0.00    -0.327 A  
HETATM   23  C   UNL     1     -11.367  10.218  70.772  1.00  0.00    -0.421 A  
HETATM   24  C   UNL     1     -10.576   9.253  71.388  1.00  0.00    -0.417 A  
HETATM   25  C   UNL     1      -9.583   8.607  70.656  1.00  0.00    -0.222 A  
HETATM   26  C   UNL     1      -9.391   8.923  69.306  1.00  0.00    -0.149 A  
ENDBRANCH  20  21
ENDBRANCH  18  20
ENDBRANCH  15  18
ENDBRANCH  12  14
TORSDOF 4
ENDMDL
MODEL      184
REMARK 921   NORMALIZED FREE ENERGY PREDICTED BY IDOCK:   -3.05 KCAL/MOL
REMARK 922        TOTAL FREE ENERGY PREDICTED BY IDOCK:   -4.54 KCAL/MOL
REMARK 923 INTER-LIGAND FREE ENERGY PREDICTED BY IDOCK:   -4.27 KCAL/MOL
REMARK 924 INTRA-LIGAND FREE ENERGY PREDICTED BY IDOCK:   -0.27 KCAL/MOL
REMARK 927      BINDING AFFINITY PREDICTED BY RF-SCORE:    0.00 PKD
ROOT
HETATM    1  C   UNL     1      -8.583  15.139  68.214  1.00  0.00    -0.164 C  
HETATM    2  S   UNL     1      -8.579  15.484  66.402  1.00  0.00    -0.171 SA 
HETATM    3  C   UNL     1     -10.394  15.850  66.310  1.00  0.00    -0.314 C  
HETATM    4  CA  UNL     1     -10.811  16.205  67.761  1.00  0.00    -0.318 C  
HETATM    5  C   UNL     1     -11.099  14.573  65.808  1.00  0.00    -0.324 C  
HETATM    6  C   UNL     1     -10.639  16.937  65.258  1.00  0.00    -0.137 C  
HETATM    7  N   UNL     1      -9.963  15.405  68.669  1.00  0.00    -0.205 N  
HETATM    8  C   UNL     1     -10.657  17.692  68.145  1.00  0.00    -0.356 C  
HETATM    9  C   UNL     1     -10.250  14.072  68.871  1.00  0.00    -0.152 C  
HETATM   10  OXT UNL     1     -11.130  18.627  67.526  1.00  0.00    -0.303 OA 
HETATM   11  O   UNL     1      -9.992  17.882  69.317  1.00  0.00    -0.248 OA 
HETATM   12  CA  UNL     1      -8.762  13.656  68.633  1.00  0.00    -0.027 C  
HETATM   13  O   UNL     1     -11.321  13.526  69.005  1.00  0.00    -0.259 OA 
ENDROOT
BRANCH  12  14
HETATM   14  N   UNL     1      -8.507  12.671  67.546  1.00  0.00    -0.165 N  
HETATM   15  C   UNL     1      -7.252  12.199  67.225  1.00  0.00    -0.144 C  
HETATM   16  H   UNL     1      -9.303  12.327  67.010  1.00  0.00     0.000 HD 
HETATM   17  O   UNL     1      -6.243  12.615  67.788  1.00  0.00    -0.098 OA 
BRANCH  15  18
HETATM   18  C   UNL     1      -7.200  11.141  66.097  1.00  0.00     0.000 C  
HETATM   19  C   UNL     1      -5.950  10.265  66.231  1.00  0.00    -0.072 C  
BRANCH  18  20
HETATM   20  O   UNL     1      -8.390  10.351  66.184  1.00  0.00    -0.138 OA 
BRANCH  20  21
HETATM   21  C   UNL     1      -8.313   9.035  65.808  1.00  0.00    -0.128 A  
HETATM   22  C   UNL     1      -8.389   7.936  66.667  1.00  0.00    -0.125 A  
HETATM   23  C   UNL     1      -8.356   6.634  66.160  1.00  0.00    -0.130 A  
HETATM   24  C   UNL     1      -8.234   6.416  64.791  1.00  0.00    -0.092 A  
HETATM   25  C   UNL     1      -8.151   7.504  63.926  1.00  0.00    -0.029 A  
HETATM   26  C   UNL     1      -8.201   8.807  64.434  1.00  0.00    -0.169 A  
ENDBRANCH  20  21
ENDBRANCH  18  20
ENDBRANCH  15  18
ENDBRANCH  12  14
TORSDOF 4
ENDMDL
MODEL      185
REMARK 921   NORMALIZED FREE ENERGY PREDICTED BY IDOCK:   -3.03 KCAL/MOL
REMARK 922        TOTAL FREE ENERGY PREDICTED BY IDOCK:   -4.52 KCAL/MOL
REMARK 923 INTER-LIGAND FREE ENERGY PREDICTED BY IDOCK:   -3.73 KCAL/MOL
REMARK 924 INTRA-LIGAND FREE ENERGY PREDICTED BY IDOCK:   -0.79 KCAL/MOL
REMARK 927      BINDING AFFINITY PREDICTED BY RF-SCORE:    0.00 PKD
ROOT
HETATM    1  C   UNL     1      -9.319   5.855  66.433  1.00  0.00    -0.157 C  
HETATM    2  S   UNL     1      -8.350   6.749  65.143  1.00  0.00    -0.027 SA 
HETATM    3  C   UNL     1      -6.791   5.786  65.426  1.00  0.00    -0.055 C  
HETATM    4  CA  UNL     1      -7.243   4.477  66.124  1.00  0.00    -0.076 C  
HETATM    5  C   UNL     1      -5.881   6.636  66.337  1.00  0.00    -0.021 C  
HETATM    6  C   UNL     1      -6.053   5.614  64.094  1.00  0.00    -0.025 C  
HETATM    7  N   UNL     1      -8.418   4.808  66.956  1.00  0.00    -0.106 N  
HETATM    8  C   UNL     1      -7.634   3.325  65.174  1.00  0.00    -0.080 C  
HETATM    9  C   UNL     1      -8.240   5.439  68.168  1.00  0.00    -0.099 C  
HETATM   10  OXT UNL     1      -6.935   2.889  64.279  1.00  0.00    -0.042 OA 
HETATM   11  O   UNL     1      -8.835   2.762  65.474  1.00  0.00    -0.122 OA 
HETATM   12  CA  UNL     1      -9.343   6.498  67.845  1.00  0.00    -0.111 C  
HETATM   13  O   UNL     1      -7.395   5.257  69.014  1.00  0.00    -0.063 OA 
ENDROOT
BRANCH  12  14
HETATM   14  N   UNL     1      -8.932   7.928  67.881  1.00  0.00    -0.130 N  
HETATM   15  C   UNL     1      -9.711   8.932  68.413  1.00  0.00    -0.161 C  
HETATM   16  H   UNL     1      -8.023   8.178  67.490  1.00  0.00     0.000 HD 
HETATM   17  O   UNL     1     -10.840   8.712  68.845  1.00  0.00    -0.133 OA 
BRANCH  15  18
HETATM   18  C   UNL     1      -9.085  10.348  68.403  1.00  0.00    -0.147 C  
HETATM   19  C   UNL     1      -8.054  10.493  69.526  1.00  0.00    -0.105 C  
BRANCH  18  20
HETATM   20  O   UNL     1      -8.478  10.547  67.122  1.00  0.00    -0.126 OA 
BRANCH  20  21
HETATM   21  C   UNL     1      -9.215  11.183  66.158  1.00  0.00    -0.198 A  
HETATM   22  C   UNL     1      -9.663  12.504  66.213  1.00  0.00    -0.259 A  
HETATM   23  C   UNL     1     -10.360  13.066  65.139  1.00  0.00    -0.321 A  
HETATM   24  C   UNL     1     -10.630  12.307  64.004  1.00  0.00    -0.434 A  
HETATM   25  C   UNL     1     -10.194  10.985  63.941  1.00  0.00    -0.425 A  
HETATM   26  C   UNL     1      -9.481  10.431  65.010  1.00  0.00    -0.308 A  
ENDBRANCH  20  21
ENDBRANCH  18  20
ENDBRANCH  15  18
ENDBRANCH  12  14
TORSDOF 4
ENDMDL
MODEL      186
REMARK 921   NORMALIZED FREE ENERGY PREDICTED BY IDOCK:   -3.03 KCAL/MOL
REMARK 922        TOTAL FREE ENERGY PREDICTED BY IDOCK:   -4.52 KCAL/MOL
REMARK 923 INTER-LIGAND FREE ENERGY PREDICTED BY IDOCK:   -3.76 KCAL/MOL
REMARK 924 INTRA-LIGAND FREE ENERGY PREDICTED BY IDOCK:   -0.75 KCAL/MOL
REMARK 927      BINDING AFFINITY PREDICTED BY RF-SCORE:    0.00 PKD
ROOT
HETATM    1  C   UNL     1      -9.220   5.709  66.371  1.00  0.00    -0.152 C  
HETATM    2  S   UNL     1      -7.766   6.842  66.336  1.00  0.00    -0.100 SA 
HETATM    3  C   UNL     1      -6.510   5.486  66.486  1.00  0.00    -0.047 C  
HETATM    4  CA  UNL     1      -7.244   4.200  66.025  1.00  0.00    -0.068 C  
HETATM    5  C   UNL     1      -6.091   5.406  67.968  1.00  0.00    -0.026 C  
HETATM    6  C   UNL     1      -5.258   5.865  65.688  1.00  0.00    -0.009 C  
HETATM    7  N   UNL     1      -8.662   4.342  66.413  1.00  0.00    -0.112 N  
HETATM    8  C   UNL     1      -7.185   3.916  64.509  1.00  0.00    -0.066 C  
HETATM    9  C   UNL     1      -9.036   4.132  67.723  1.00  0.00    -0.121 C  
HETATM   10  OXT UNL     1      -6.166   3.859  63.847  1.00  0.00    -0.021 OA 
HETATM   11  O   UNL     1      -8.401   3.648  63.962  1.00  0.00    -0.089 OA 
HETATM   12  CA  UNL     1      -9.864   5.457  67.761  1.00  0.00    -0.143 C  
HETATM   13  O   UNL     1      -8.659   3.290  68.506  1.00  0.00    -0.080 OA 
ENDROOT
BRANCH  12  14
HETATM   14  N   UNL     1      -9.492   6.452  68.804  1.00  0.00    -0.127 N  
HETATM   15  C   UNL     1     -10.406   7.058  69.638  1.00  0.00    -0.209 C  
HETATM   16  H   UNL     1      -8.508   6.698  68.907  1.00  0.00     0.000 HD 
HETATM   17  O   UNL     1     -11.612   6.854  69.531  1.00  0.00    -0.162 OA 
BRANCH  15  18
HETATM   18  C   UNL     1      -9.816   8.026  70.693  1.00  0.00    -0.184 C  
HETATM   19  C   UNL     1      -8.732   7.331  71.521  1.00  0.00    -0.120 C  
BRANCH  18  20
HETATM   20  O   UNL     1      -9.282   9.156  69.996  1.00  0.00    -0.165 OA 
BRANCH  20  21
HETATM   21  C   UNL     1     -10.168  10.019  69.404  1.00  0.00    -0.222 A  
HETATM   22  C   UNL     1     -11.195  10.707  70.055  1.00  0.00    -0.382 A  
HETATM   23  C   UNL     1     -12.002  11.609  69.355  1.00  0.00    -0.381 A  
HETATM   24  C   UNL     1     -11.801  11.822  67.995  1.00  0.00    -0.304 A  
HETATM   25  C   UNL     1     -10.785  11.136  67.334  1.00  0.00    -0.294 A  
HETATM   26  C   UNL     1      -9.966  10.247  68.040  1.00  0.00    -0.177 A  
ENDBRANCH  20  21
ENDBRANCH  18  20
ENDBRANCH  15  18
ENDBRANCH  12  14
TORSDOF 4
ENDMDL
MODEL      187
REMARK 921   NORMALIZED FREE ENERGY PREDICTED BY IDOCK:   -2.97 KCAL/MOL
REMARK 922        TOTAL FREE ENERGY PREDICTED BY IDOCK:   -4.44 KCAL/MOL
REMARK 923 INTER-LIGAND FREE ENERGY PREDICTED BY IDOCK:   -3.55 KCAL/MOL
REMARK 924 INTRA-LIGAND FREE ENERGY PREDICTED BY IDOCK:   -0.88 KCAL/MOL
REMARK 927      BINDING AFFINITY PREDICTED BY RF-SCORE:    0.00 PKD
ROOT
HETATM    1  C   UNL     1      -8.674  15.778  67.833  1.00  0.00    -0.170 C  
HETATM    2  S   UNL     1      -8.321  14.588  66.469  1.00  0.00     0.482 SA 
HETATM    3  C   UNL     1     -10.103  14.198  66.140  1.00  0.00    -0.313 C  
HETATM    4  CA  UNL     1     -10.896  15.392  66.732  1.00  0.00    -0.306 C  
HETATM    5  C   UNL     1     -10.430  12.877  66.866  1.00  0.00    -0.252 C  
HETATM    6  C   UNL     1     -10.297  13.942  64.642  1.00  0.00    -0.366 C  
HETATM    7  N   UNL     1     -10.145  15.876  67.908  1.00  0.00    -0.232 N  
HETATM    8  C   UNL     1     -11.109  16.581  65.772  1.00  0.00     0.139 C  
HETATM    9  C   UNL     1     -10.221  15.185  69.098  1.00  0.00    -0.249 C  
HETATM   10  OXT UNL     1     -11.591  16.504  64.658  1.00  0.00    -0.345 OA 
HETATM   11  O   UNL     1     -10.774  17.782  66.317  1.00  0.00    -0.253 OA 
HETATM   12  CA  UNL     1      -8.668  15.198  69.272  1.00  0.00    -0.207 C  
HETATM   13  O   UNL     1     -11.176  14.663  69.626  1.00  0.00    -0.260 OA 
ENDROOT
BRANCH  12  14
HETATM   14  N   UNL     1      -7.997  13.877  69.404  1.00  0.00    -0.271 N  
HETATM   15  C   UNL     1      -6.646  13.728  69.636  1.00  0.00    -0.061 C  
HETATM   16  H   UNL     1      -8.567  13.035  69.319  1.00  0.00     0.000 HD 
HETATM   17  O   UNL     1      -5.890  14.694  69.689  1.00  0.00    -0.095 OA 
BRANCH  15  18
HETATM   18  C   UNL     1      -6.147  12.271  69.792  1.00  0.00    -0.141 C  
HETATM   19  C   UNL     1      -5.559  12.046  71.189  1.00  0.00     0.044 C  
BRANCH  18  20
HETATM   20  O   UNL     1      -7.259  11.401  69.558  1.00  0.00    -0.084 OA 
BRANCH  20  21
HETATM   21  C   UNL     1      -7.303  10.727  68.366  1.00  0.00    -0.092 A  
HETATM   22  C   UNL     1      -6.797  11.188  67.149  1.00  0.00    -0.107 A  
HETATM   23  C   UNL     1      -6.847  10.384  66.006  1.00  0.00    -0.128 A  
HETATM   24  C   UNL     1      -7.416   9.115  66.065  1.00  0.00    -0.095 A  
HETATM   25  C   UNL     1      -7.930   8.648  67.272  1.00  0.00    -0.101 A  
HETATM   26  C   UNL     1      -7.863   9.447  68.419  1.00  0.00    -0.090 A  
ENDBRANCH  20  21
ENDBRANCH  18  20
ENDBRANCH  15  18
ENDBRANCH  12  14
TORSDOF 4
ENDMDL
MODEL      188
REMARK 921   NORMALIZED FREE ENERGY PREDICTED BY IDOCK:   -2.91 KCAL/MOL
REMARK 922        TOTAL FREE ENERGY PREDICTED BY IDOCK:   -4.37 KCAL/MOL
REMARK 923 INTER-LIGAND FREE ENERGY PREDICTED BY IDOCK:   -3.54 KCAL/MOL
REMARK 924 INTRA-LIGAND FREE ENERGY PREDICTED BY IDOCK:   -0.83 KCAL/MOL
REMARK 927      BINDING AFFINITY PREDICTED BY RF-SCORE:    0.00 PKD
ROOT
HETATM    1  C   UNL     1      -6.788  10.278  68.550  1.00  0.00    -0.061 C  
HETATM    2  S   UNL     1      -6.761   8.551  67.902  1.00  0.00    -0.067 SA 
HETATM    3  C   UNL     1      -7.605   8.972  66.306  1.00  0.00    -0.092 C  
HETATM    4  CA  UNL     1      -7.390  10.497  66.123  1.00  0.00    -0.136 C  
HETATM    5  C   UNL     1      -9.098   8.619  66.465  1.00  0.00    -0.206 C  
HETATM    6  C   UNL     1      -7.052   8.080  65.190  1.00  0.00    -0.063 C  
HETATM    7  N   UNL     1      -7.370  11.101  67.471  1.00  0.00    -0.098 N  
HETATM    8  C   UNL     1      -6.089  10.897  65.396  1.00  0.00     0.040 C  
HETATM    9  C   UNL     1      -8.554  11.309  68.144  1.00  0.00    -0.150 C  
HETATM   10  OXT UNL     1      -5.736  10.475  64.311  1.00  0.00    -0.146 OA 
HETATM   11  O   UNL     1      -5.376  11.852  66.051  1.00  0.00    -0.186 OA 
HETATM   12  CA  UNL     1      -7.995  10.657  69.450  1.00  0.00    -0.111 C  
HETATM   13  O   UNL     1      -9.619  11.701  67.725  1.00  0.00    -0.170 OA 
ENDROOT
BRANCH  12  14
HETATM   14  N   UNL     1      -8.749   9.495  69.996  1.00  0.00    -0.203 N  
HETATM   15  C   UNL     1      -8.602   9.031  71.285  1.00  0.00    -0.155 C  
HETATM   16  H   UNL     1      -9.409   9.018  69.383  1.00  0.00     0.000 HD 
HETATM   17  O   UNL     1      -7.783   9.519  72.058  1.00  0.00     0.133 OA 
BRANCH  15  18
HETATM   18  C   UNL     1      -9.513   7.842  71.679  1.00  0.00    -0.152 C  
HETATM   19  C   UNL     1     -10.746   8.334  72.443  1.00  0.00    -0.411 C  
BRANCH  18  20
HETATM   20  O   UNL     1      -9.892   7.166  70.476  1.00  0.00    -0.180 OA 
BRANCH  20  21
HETATM   21  C   UNL     1      -9.595   5.832  70.373  1.00  0.00    -0.168 A  
HETATM   22  C   UNL     1      -9.113   5.021  71.403  1.00  0.00    -0.174 A  
HETATM   23  C   UNL     1      -8.900   3.655  71.195  1.00  0.00    -0.134 A  
HETATM   24  C   UNL     1      -9.154   3.088  69.950  1.00  0.00    -0.196 A  
HETATM   25  C   UNL     1      -9.628   3.887  68.913  1.00  0.00    -0.200 A  
HETATM   26  C   UNL     1      -9.857   5.251  69.129  1.00  0.00    -0.257 A  
ENDBRANCH  20  21
ENDBRANCH  18  20
ENDBRANCH  15  18
ENDBRANCH  12  14
TORSDOF 4
ENDMDL
MODEL      189
REMARK 921   NORMALIZED FREE ENERGY PREDICTED BY IDOCK:   -2.65 KCAL/MOL
REMARK 922        TOTAL FREE ENERGY PREDICTED BY IDOCK:   -4.05 KCAL/MOL
REMARK 923 INTER-LIGAND FREE ENERGY PREDICTED BY IDOCK:   -3.54 KCAL/MOL
REMARK 924 INTRA-LIGAND FREE ENERGY PREDICTED BY IDOCK:   -0.51 KCAL/MOL
REMARK 927      BINDING AFFINITY PREDICTED BY RF-SCORE:    0.00 PKD
ROOT
HETATM    1  C   UNL     1     -10.349  10.043  66.212  1.00  0.00    -0.165 C  
HETATM    2  S   UNL     1     -10.934   9.488  67.871  1.00  0.00     0.004 SA 
HETATM    3  C   UNL     1     -10.313  10.990  68.764  1.00  0.00    -0.199 C  
HETATM    4  CA  UNL     1     -10.159  12.078  67.670  1.00  0.00    -0.197 C  
HETATM    5  C   UNL     1      -8.956  10.622  69.400  1.00  0.00    -0.049 C  
HETATM    6  C   UNL     1     -11.268  11.326  69.914  1.00  0.00    -0.264 C  
HETATM    7  N   UNL     1      -9.781  11.390  66.418  1.00  0.00    -0.199 N  
HETATM    8  C   UNL     1     -11.425  12.918  67.395  1.00  0.00    -0.336 C  
HETATM    9  C   UNL     1      -8.481  10.970  66.236  1.00  0.00    -0.165 C  
HETATM   10  OXT UNL     1     -12.064  13.518  68.239  1.00  0.00    -0.354 OA 
HETATM   11  O   UNL     1     -11.740  13.004  66.074  1.00  0.00    -0.352 OA 
HETATM   12  CA  UNL     1      -8.944   9.549  65.777  1.00  0.00    -0.179 C  
HETATM   13  O   UNL     1      -7.446  11.524  66.525  1.00  0.00    -0.115 OA 
ENDROOT
BRANCH  12  14
HETATM   14  N   UNL     1      -8.426   8.391  66.554  1.00  0.00    -0.109 N  
HETATM   15  C   UNL     1      -7.239   7.752  66.270  1.00  0.00    -0.074 C  
HETATM   16  H   UNL     1      -8.981   8.051  67.340  1.00  0.00     0.000 HD 
HETATM   17  O   UNL     1      -6.551   8.068  65.303  1.00  0.00    -0.051 OA 
BRANCH  15  18
HETATM   18  C   UNL     1      -6.849   6.599  67.227  1.00  0.00    -0.072 C  
HETATM   19  C   UNL     1      -7.132   6.983  68.682  1.00  0.00    -0.092 C  
BRANCH  18  20
HETATM   20  O   UNL     1      -7.602   5.443  66.847  1.00  0.00    -0.087 OA 
BRANCH  20  21
HETATM   21  C   UNL     1      -7.709   4.423  67.755  1.00  0.00    -0.080 A  
HETATM   22  C   UNL     1      -8.805   4.182  68.586  1.00  0.00    -0.141 A  
HETATM   23  C   UNL     1      -8.825   3.071  69.436  1.00  0.00    -0.151 A  
HETATM   24  C   UNL     1      -7.743   2.197  69.473  1.00  0.00    -0.046 A  
HETATM   25  C   UNL     1      -6.641   2.431  68.654  1.00  0.00    -0.029 A  
HETATM   26  C   UNL     1      -6.631   3.534  67.792  1.00  0.00    -0.042 A  
ENDBRANCH  20  21
ENDBRANCH  18  20
ENDBRANCH  15  18
ENDBRANCH  12  14
TORSDOF 4
ENDMDL
MODEL      190
REMARK 921   NORMALIZED FREE ENERGY PREDICTED BY IDOCK:   -2.49 KCAL/MOL
REMARK 922        TOTAL FREE ENERGY PREDICTED BY IDOCK:   -3.85 KCAL/MOL
REMARK 923 INTER-LIGAND FREE ENERGY PREDICTED BY IDOCK:   -3.18 KCAL/MOL
REMARK 924 INTRA-LIGAND FREE ENERGY PREDICTED BY IDOCK:   -0.66 KCAL/MOL
REMARK 927      BINDING AFFINITY PREDICTED BY RF-SCORE:    0.00 PKD
ROOT
HETATM    1  C   UNL     1     -11.253  10.912  65.641  1.00  0.00     0.259 C  
HETATM    2  S   UNL     1     -11.527  11.799  67.236  1.00  0.00    -0.273 SA 
HETATM    3  C   UNL     1     -10.364  13.188  66.842  1.00  0.00    -0.247 C  
HETATM    4  CA  UNL     1     -10.228  13.178  65.297  1.00  0.00    -0.286 C  
HETATM    5  C   UNL     1      -9.023  12.879  67.537  1.00  0.00    -0.193 C  
HETATM    6  C   UNL     1     -10.898  14.485  67.459  1.00  0.00    -0.289 C  
HETATM    7  N   UNL     1     -10.346  11.773  64.856  1.00  0.00    -0.276 N  
HETATM    8  C   UNL     1     -11.282  14.011  64.538  1.00  0.00    -0.350 C  
HETATM    9  C   UNL     1      -9.271  10.922  64.995  1.00  0.00    -0.207 C  
HETATM   10  OXT UNL     1     -11.531  15.184  64.747  1.00  0.00    -0.398 OA 
HETATM   11  O   UNL     1     -11.882  13.330  63.525  1.00  0.00    -0.479 OA 
HETATM   12  CA  UNL     1     -10.159   9.812  65.645  1.00  0.00    -0.212 C  
HETATM   13  O   UNL     1      -8.094  11.131  64.809  1.00  0.00     0.226 OA 
ENDROOT
BRANCH  12  14
HETATM   14  N   UNL     1      -9.760   9.340  66.999  1.00  0.00    -0.172 N  
HETATM   15  C   UNL     1      -8.647   8.563  67.237  1.00  0.00    -0.123 C  
HETATM   16  H   UNL     1     -10.342   9.606  67.793  1.00  0.00     0.000 HD 
HETATM   17  O   UNL     1      -7.936   8.156  66.323  1.00  0.00    -0.096 OA 
BRANCH  15  18
HETATM   18  C   UNL     1      -8.374   8.217  68.722  1.00  0.00    -0.126 C  
HETATM   19  C   UNL     1      -8.839   6.793  69.041  1.00  0.00    -0.129 C  
BRANCH  18  20
HETATM   20  O   UNL     1      -6.968   8.360  68.951  1.00  0.00    -0.060 OA 
BRANCH  20  21
HETATM   21  C   UNL     1      -6.568   8.928  70.133  1.00  0.00    -0.040 A  
HETATM   22  C   UNL     1      -6.524   8.286  71.372  1.00  0.00    -0.046 A  
HETATM   23  C   UNL     1      -6.041   8.952  72.502  1.00  0.00    -0.035 A  
HETATM   24  C   UNL     1      -5.611  10.272  72.408  1.00  0.00     0.433 A  
HETATM   25  C   UNL     1      -5.657  10.925  71.179  1.00  0.00     0.004 A  
HETATM   26  C   UNL     1      -6.125  10.250  70.045  1.00  0.00    -0.071 A  
ENDBRANCH  20  21
ENDBRANCH  18  20
ENDBRANCH  15  18
ENDBRANCH  12  14
TORSDOF 4
ENDMDL
MODEL      191
REMARK 921   NORMALIZED FREE ENERGY PREDICTED BY IDOCK:   -2.43 KCAL/MOL
REMARK 922        TOTAL FREE ENERGY PREDICTED BY IDOCK:   -3.78 KCAL/MOL
REMARK 923 INTER-LIGAND FREE ENERGY PREDICTED BY IDOCK:   -4.74 KCAL/MOL
REMARK 924 INTRA-LIGAND FREE ENERGY PREDICTED BY IDOCK:    0.97 KCAL/MOL
REMARK 927      BINDING AFFINITY PREDICTED BY RF-SCORE:    0.00 PKD
ROOT
HETATM    1  C   UNL     1      -9.236  13.142  65.404  1.00  0.00     0.608 C  
HETATM    2  S   UNL     1      -8.339  12.620  66.929  1.00  0.00    -0.006 SA 
HETATM    3  C   UNL     1      -9.772  11.680  67.636  1.00  0.00    -0.180 C  
HETATM    4  CA  UNL     1     -10.692  11.372  66.427  1.00  0.00    -0.275 C  
HETATM    5  C   UNL     1     -10.465  12.597  68.664  1.00  0.00    -0.224 C  
HETATM    6  C   UNL     1      -9.248  10.463  68.406  1.00  0.00    -0.147 C  
HETATM    7  N   UNL     1     -10.562  12.498  65.479  1.00  0.00    -0.268 N  
HETATM    8  C   UNL     1     -10.370  10.066  65.670  1.00  0.00    -0.101 C  
HETATM    9  C   UNL     1     -11.223  13.681  65.731  1.00  0.00    -0.295 C  
HETATM   10  OXT UNL     1     -10.273   8.966  66.182  1.00  0.00    -0.259 OA 
HETATM   11  O   UNL     1     -10.274  10.231  64.323  1.00  0.00    -0.269 OA 
HETATM   12  CA  UNL     1      -9.937  14.526  65.458  1.00  0.00    -0.342 C  
HETATM   13  O   UNL     1     -12.338  13.863  66.164  1.00  0.00    -0.452 OA 
ENDROOT
BRANCH  12  14
HETATM   14  N   UNL     1      -9.471  15.414  66.557  1.00  0.00    -0.252 N  
HETATM   15  C   UNL     1      -9.795  16.750  66.646  1.00  0.00    -0.277 C  
HETATM   16  H   UNL     1      -8.880  15.011  67.285  1.00  0.00     0.000 HD 
HETATM   17  O   UNL     1     -10.451  17.314  65.775  1.00  0.00    -0.502 OA 
BRANCH  15  18
HETATM   18  C   UNL     1      -9.254  17.492  67.893  1.00  0.00    -0.265 C  
HETATM   19  C   UNL     1     -10.250  18.556  68.365  1.00  0.00    -0.409 C  
BRANCH  18  20
HETATM   20  O   UNL     1      -9.023  16.517  68.914  1.00  0.00    -0.240 OA 
BRANCH  20  21
HETATM   21  C   UNL     1     -10.108  16.045  69.604  1.00  0.00    -0.244 A  
HETATM   22  C   UNL     1     -10.086  15.516  70.897  1.00  0.00     0.730 A  
HETATM   23  C   UNL     1     -11.270  15.118  71.524  1.00  0.00    -0.323 A  
HETATM   24  C   UNL     1     -12.488  15.232  70.860  1.00  0.00    -0.446 A  
HETATM   25  C   UNL     1     -12.522  15.751  69.569  1.00  0.00     0.046 A  
HETATM   26  C   UNL     1     -11.337  16.166  68.950  1.00  0.00    -0.350 A  
ENDBRANCH  20  21
ENDBRANCH  18  20
ENDBRANCH  15  18
ENDBRANCH  12  14
TORSDOF 4
ENDMDL
MODEL      192
REMARK 921   NORMALIZED FREE ENERGY PREDICTED BY IDOCK:   -1.97 KCAL/MOL
REMARK 922        TOTAL FREE ENERGY PREDICTED BY IDOCK:   -3.21 KCAL/MOL
REMARK 923 INTER-LIGAND FREE ENERGY PREDICTED BY IDOCK:   -2.44 KCAL/MOL
REMARK 924 INTRA-LIGAND FREE ENERGY PREDICTED BY IDOCK:   -0.77 KCAL/MOL
REMARK 927      BINDING AFFINITY PREDICTED BY RF-SCORE:    0.00 PKD
ROOT
HETATM    1  C   UNL     1      -9.066   5.296  66.216  1.00  0.00    -0.139 C  
HETATM    2  S   UNL     1      -7.592   6.398  66.102  1.00  0.00    -0.092 SA 
HETATM    3  C   UNL     1      -6.367   5.009  66.014  1.00  0.00    -0.039 C  
HETATM    4  CA  UNL     1      -7.184   3.776  65.545  1.00  0.00    -0.071 C  
HETATM    5  C   UNL     1      -5.791   4.808  67.430  1.00  0.00    -0.022 C  
HETATM    6  C   UNL     1      -5.199   5.420  65.111  1.00  0.00    -0.009 C  
HETATM    7  N   UNL     1      -8.547   3.919  66.097  1.00  0.00    -0.110 N  
HETATM    8  C   UNL     1      -7.299   3.606  64.015  1.00  0.00    -0.059 C  
HETATM    9  C   UNL     1      -8.781   3.619  67.422  1.00  0.00    -0.115 C  
HETATM   10  OXT UNL     1      -6.361   3.578  63.241  1.00  0.00    -0.020 OA 
HETATM   11  O   UNL     1      -8.575   3.405  63.588  1.00  0.00    -0.090 OA 
HETATM   12  CA  UNL     1      -9.561   4.954  67.647  1.00  0.00    -0.151 C  
HETATM   13  O   UNL     1      -8.347   2.712  68.094  1.00  0.00    -0.067 OA 
ENDROOT
BRANCH  12  14
HETATM   14  N   UNL     1      -9.049   5.859  68.711  1.00  0.00    -0.116 N  
HETATM   15  C   UNL     1      -9.840   6.764  69.387  1.00  0.00    -0.156 C  
HETATM   16  H   UNL     1      -8.060   5.807  68.954  1.00  0.00     0.000 HD 
HETATM   17  O   UNL     1     -11.024   6.922  69.106  1.00  0.00    -0.233 OA 
BRANCH  15  18
HETATM   18  C   UNL     1      -9.131   7.580  70.496  1.00  0.00    -0.156 C  
HETATM   19  C   UNL     1      -9.085   6.789  71.807  1.00  0.00    -0.140 C  
BRANCH  18  20
HETATM   20  O   UNL     1      -7.811   7.886  70.036  1.00  0.00    -0.101 OA 
BRANCH  20  21
HETATM   21  C   UNL     1      -7.605   9.109  69.453  1.00  0.00    -0.079 A  
HETATM   22  C   UNL     1      -8.582  10.082  69.231  1.00  0.00    -0.172 A  
HETATM   23  C   UNL     1      -8.242  11.320  68.679  1.00  0.00    -0.146 A  
HETATM   24  C   UNL     1      -6.923  11.594  68.329  1.00  0.00    -0.074 A  
HETATM   25  C   UNL     1      -5.941  10.629  68.539  1.00  0.00    -0.039 A  
HETATM   26  C   UNL     1      -6.281   9.396  69.109  1.00  0.00    -0.041 A  
ENDBRANCH  20  21
ENDBRANCH  18  20
ENDBRANCH  15  18
ENDBRANCH  12  14
TORSDOF 4
ENDMDL
MODEL      193
REMARK 921   NORMALIZED FREE ENERGY PREDICTED BY IDOCK:   -1.74 KCAL/MOL
REMARK 922        TOTAL FREE ENERGY PREDICTED BY IDOCK:   -2.92 KCAL/MOL
REMARK 923 INTER-LIGAND FREE ENERGY PREDICTED BY IDOCK:   -2.62 KCAL/MOL
REMARK 924 INTRA-LIGAND FREE ENERGY PREDICTED BY IDOCK:   -0.31 KCAL/MOL
REMARK 927      BINDING AFFINITY PREDICTED BY RF-SCORE:    0.00 PKD
ROOT
HETATM    1  C   UNL     1     -11.236   7.001  69.721  1.00  0.00    -0.217 C  
HETATM    2  S   UNL     1     -10.488   5.316  69.673  1.00  0.00    -0.173 SA 
HETATM    3  C   UNL     1      -9.761   5.421  71.374  1.00  0.00    -0.161 C  
HETATM    4  CA  UNL     1     -10.572   6.529  72.096  1.00  0.00    -0.214 C  
HETATM    5  C   UNL     1      -8.275   5.807  71.220  1.00  0.00    -0.122 C  
HETATM    6  C   UNL     1      -9.795   4.034  72.026  1.00  0.00    -0.242 C  
HETATM    7  N   UNL     1     -10.958   7.524  71.074  1.00  0.00    -0.247 N  
HETATM    8  C   UNL     1     -11.854   6.047  72.809  1.00  0.00    -0.034 C  
HETATM    9  C   UNL     1     -10.030   8.440  70.628  1.00  0.00    -0.185 C  
HETATM   10  OXT UNL     1     -11.904   5.146  73.624  1.00  0.00     0.153 OA 
HETATM   11  O   UNL     1     -12.953   6.788  72.501  1.00  0.00     0.200 OA 
HETATM   12  CA  UNL     1     -10.379   8.153  69.132  1.00  0.00    -0.220 C  
HETATM   13  O   UNL     1      -9.192   9.051  71.250  1.00  0.00    -0.238 OA 
ENDROOT
BRANCH  12  14
HETATM   14  N   UNL     1      -9.261   7.706  68.256  1.00  0.00    -0.139 N  
HETATM   15  C   UNL     1      -9.081   8.152  66.964  1.00  0.00    -0.143 C  
HETATM   16  H   UNL     1      -8.592   7.034  68.632  1.00  0.00     0.000 HD 
HETATM   17  O   UNL     1      -9.881   8.913  66.427  1.00  0.00    -0.244 OA 
BRANCH  15  18
HETATM   18  C   UNL     1      -7.830   7.608  66.233  1.00  0.00    -0.091 C  
HETATM   19  C   UNL     1      -7.713   8.215  64.832  1.00  0.00    -0.116 C  
BRANCH  18  20
HETATM   20  O   UNL     1      -6.685   7.931  67.029  1.00  0.00    -0.064 OA 
BRANCH  20  21
HETATM   21  C   UNL     1      -6.214   6.974  67.889  1.00  0.00    -0.038 A  
HETATM   22  C   UNL     1      -5.966   5.638  67.566  1.00  0.00    -0.021 A  
HETATM   23  C   UNL     1      -5.428   4.764  68.516  1.00  0.00    -0.015 A  
HETATM   24  C   UNL     1      -5.146   5.213  69.802  1.00  0.00     0.000 A  
HETATM   25  C   UNL     1      -5.396   6.541  70.138  1.00  0.00    -0.014 A  
HETATM   26  C   UNL     1      -5.918   7.419  69.180  1.00  0.00    -0.030 A  
ENDBRANCH  20  21
ENDBRANCH  18  20
ENDBRANCH  15  18
ENDBRANCH  12  14
TORSDOF 4
ENDMDL
MODEL      194
REMARK 921   NORMALIZED FREE ENERGY PREDICTED BY IDOCK:   -1.73 KCAL/MOL
REMARK 922        TOTAL FREE ENERGY PREDICTED BY IDOCK:   -2.92 KCAL/MOL
REMARK 923 INTER-LIGAND FREE ENERGY PREDICTED BY IDOCK:   -4.10 KCAL/MOL
REMARK 924 INTRA-LIGAND FREE ENERGY PREDICTED BY IDOCK:    1.18 KCAL/MOL
REMARK 927      BINDING AFFINITY PREDICTED BY RF-SCORE:    0.00 PKD
ROOT
HETATM    1  C   UNL     1      -9.964   8.973  66.073  1.00  0.00    -0.176 C  
HETATM    2  S   UNL     1     -11.032  10.470  66.221  1.00  0.00     0.214 SA 
HETATM    3  C   UNL     1      -9.696  11.661  65.740  1.00  0.00    -0.236 C  
HETATM    4  CA  UNL     1      -8.646  10.809  64.981  1.00  0.00    -0.110 C  
HETATM    5  C   UNL     1      -9.118  12.258  67.040  1.00  0.00    -0.201 C  
HETATM    6  C   UNL     1     -10.313  12.822  64.952  1.00  0.00    -0.330 C  
HETATM    7  N   UNL     1      -8.659   9.460  65.582  1.00  0.00    -0.135 N  
HETATM    8  C   UNL     1      -8.890  10.663  63.463  1.00  0.00    -0.184 C  
HETATM    9  C   UNL     1      -8.023   9.243  66.785  1.00  0.00    -0.108 C  
HETATM   10  OXT UNL     1      -9.052  11.587  62.689  1.00  0.00    -0.322 OA 
HETATM   11  O   UNL     1      -8.830   9.376  63.028  1.00  0.00    -0.228 OA 
HETATM   12  CA  UNL     1      -9.264   8.496  67.374  1.00  0.00    -0.140 C  
HETATM   13  O   UNL     1      -6.964   9.669  67.184  1.00  0.00    -0.083 OA 
ENDROOT
BRANCH  12  14
HETATM   14  N   UNL     1      -9.846   9.047  68.628  1.00  0.00    -0.161 N  
HETATM   15  C   UNL     1      -9.320   8.810  69.879  1.00  0.00    -0.162 C  
HETATM   16  H   UNL     1     -10.678   9.631  68.557  1.00  0.00     0.000 HD 
HETATM   17  O   UNL     1      -8.356   8.067  70.044  1.00  0.00    -0.120 OA 
BRANCH  15  18
HETATM   18  C   UNL     1     -10.040   9.514  71.056  1.00  0.00    -0.229 C  
HETATM   19  C   UNL     1     -10.963  10.622  70.542  1.00  0.00    -0.059 C  
BRANCH  18  20
HETATM   20  O   UNL     1     -10.780   8.520  71.771  1.00  0.00    -0.254 OA 
BRANCH  20  21
HETATM   21  C   UNL     1     -10.696   7.223  71.336  1.00  0.00    -0.227 A  
HETATM   22  C   UNL     1     -11.210   6.732  70.133  1.00  0.00    -0.387 A  
HETATM   23  C   UNL     1     -11.012   5.398  69.767  1.00  0.00    -0.005 A  
HETATM   24  C   UNL     1     -10.310   4.537  70.604  1.00  0.00    -0.041 A  
HETATM   25  C   UNL     1      -9.798   5.014  71.809  1.00  0.00    -0.234 A  
HETATM   26  C   UNL     1      -9.983   6.355  72.166  1.00  0.00    -0.180 A  
ENDBRANCH  20  21
ENDBRANCH  18  20
ENDBRANCH  15  18
ENDBRANCH  12  14
TORSDOF 4
ENDMDL
MODEL      195
REMARK 921   NORMALIZED FREE ENERGY PREDICTED BY IDOCK:   -1.40 KCAL/MOL
REMARK 922        TOTAL FREE ENERGY PREDICTED BY IDOCK:   -2.50 KCAL/MOL
REMARK 923 INTER-LIGAND FREE ENERGY PREDICTED BY IDOCK:   -3.53 KCAL/MOL
REMARK 924 INTRA-LIGAND FREE ENERGY PREDICTED BY IDOCK:    1.02 KCAL/MOL
REMARK 927      BINDING AFFINITY PREDICTED BY RF-SCORE:    0.00 PKD
ROOT
HETATM    1  C   UNL     1     -10.272   7.808  68.550  1.00  0.00    -0.204 C  
HETATM    2  S   UNL     1     -10.247   6.070  67.934  1.00  0.00    -0.201 SA 
HETATM    3  C   UNL     1      -9.202   5.429  69.324  1.00  0.00    -0.116 C  
HETATM    4  CA  UNL     1      -9.366   6.465  70.467  1.00  0.00    -0.162 C  
HETATM    5  C   UNL     1      -7.746   5.362  68.817  1.00  0.00    -0.083 C  
HETATM    6  C   UNL     1      -9.625   3.994  69.656  1.00  0.00    -0.270 C  
HETATM    7  N   UNL     1      -9.546   7.788  69.835  1.00  0.00    -0.164 N  
HETATM    8  C   UNL     1     -10.559   6.216  71.414  1.00  0.00    -0.243 C  
HETATM    9  C   UNL     1      -8.452   8.459  69.332  1.00  0.00    -0.125 C  
HETATM   10  OXT UNL     1     -10.779   5.175  72.004  1.00  0.00    -0.218 OA 
HETATM   11  O   UNL     1     -11.333   7.318  71.608  1.00  0.00    -0.245 OA 
HETATM   12  CA  UNL     1      -9.182   8.756  67.982  1.00  0.00    -0.139 C  
HETATM   13  O   UNL     1      -7.337   8.564  69.788  1.00  0.00    -0.054 OA 
ENDROOT
BRANCH  12  14
HETATM   14  N   UNL     1      -8.523   8.268  66.741  1.00  0.00    -0.119 N  
HETATM   15  C   UNL     1      -7.168   8.035  66.639  1.00  0.00    -0.081 C  
HETATM   16  H   UNL     1      -9.105   8.097  65.921  1.00  0.00     0.000 HD 
HETATM   17  O   UNL     1      -6.400   8.276  67.566  1.00  0.00    -0.054 OA 
BRANCH  15  18
HETATM   18  C   UNL     1      -6.682   7.480  65.278  1.00  0.00    -0.044 C  
HETATM   19  C   UNL     1      -6.236   6.021  65.415  1.00  0.00    -0.037 C  
BRANCH  18  20
HETATM   20  O   UNL     1      -7.761   7.601  64.346  1.00  0.00    -0.113 OA 
BRANCH  20  21
HETATM   21  C   UNL     1      -7.903   8.793  63.685  1.00  0.00    -0.145 A  
HETATM   22  C   UNL     1      -9.092   9.513  63.548  1.00  0.00    -0.145 A  
HETATM   23  C   UNL     1      -9.105  10.751  62.898  1.00  0.00    -0.308 A  
HETATM   24  C   UNL     1      -7.931  11.276  62.366  1.00  0.00    -0.032 A  
HETATM   25  C   UNL     1      -6.740  10.563  62.491  1.00  0.00    -0.132 A  
HETATM   26  C   UNL     1      -6.727   9.332  63.157  1.00  0.00    -0.090 A  
ENDBRANCH  20  21
ENDBRANCH  18  20
ENDBRANCH  15  18
ENDBRANCH  12  14
TORSDOF 4
ENDMDL
MODEL      196
REMARK 921   NORMALIZED FREE ENERGY PREDICTED BY IDOCK:   -0.88 KCAL/MOL
REMARK 922        TOTAL FREE ENERGY PREDICTED BY IDOCK:   -1.87 KCAL/MOL
REMARK 923 INTER-LIGAND FREE ENERGY PREDICTED BY IDOCK:   -4.28 KCAL/MOL
REMARK 924 INTRA-LIGAND FREE ENERGY PREDICTED BY IDOCK:    2.41 KCAL/MOL
REMARK 927      BINDING AFFINITY PREDICTED BY RF-SCORE:    0.00 PKD
ROOT
HETATM    1  C   UNL     1      -8.850  14.232  65.898  1.00  0.00     0.675 C  
HETATM    2  S   UNL     1      -9.013  13.006  67.267  1.00  0.00    -0.220 SA 
HETATM    3  C   UNL     1     -10.754  12.531  66.841  1.00  0.00    -0.243 C  
HETATM    4  CA  UNL     1     -10.938  12.947  65.359  1.00  0.00    -0.278 C  
HETATM    5  C   UNL     1     -11.691  13.321  67.778  1.00  0.00    -0.398 C  
HETATM    6  C   UNL     1     -10.963  11.045  67.151  1.00  0.00    -0.344 C  
HETATM    7  N   UNL     1     -10.112  14.152  65.136  1.00  0.00    -0.357 N  
HETATM    8  C   UNL     1     -10.526  11.882  64.320  1.00  0.00    -0.326 C  
HETATM    9  C   UNL     1     -10.562  15.378  65.577  1.00  0.00    -0.383 C  
HETATM   10  OXT UNL     1     -10.929  10.734  64.297  1.00  0.00    -0.115 OA 
HETATM   11  O   UNL     1      -9.705  12.364  63.349  1.00  0.00    -0.312 OA 
HETATM   12  CA  UNL     1      -9.190  15.705  66.249  1.00  0.00    -0.330 C  
HETATM   13  O   UNL     1     -11.677  15.846  65.545  1.00  0.00     0.244 OA 
ENDROOT
BRANCH  12  14
HETATM   14  N   UNL     1      -9.211  16.005  67.707  1.00  0.00    -0.204 N  
HETATM   15  C   UNL     1     -10.358  16.320  68.403  1.00  0.00    -0.271 C  
HETATM   16  H   UNL     1      -8.329  15.976  68.218  1.00  0.00     0.000 HD 
HETATM   17  O   UNL     1     -11.444  16.433  67.840  1.00  0.00    -0.177 OA 
BRANCH  15  18
HETATM   18  C   UNL     1     -10.181  16.549  69.924  1.00  0.00     0.016 C  
HETATM   19  C   UNL     1     -11.284  17.462  70.467  1.00  0.00     1.501 C  
BRANCH  18  20
HETATM   20  O   UNL     1     -10.213  15.270  70.564  1.00  0.00    -0.144 OA 
BRANCH  20  21
HETATM   21  C   UNL     1     -11.349  14.926  71.249  1.00  0.00    -0.205 A  
HETATM   22  C   UNL     1     -12.169  13.831  70.969  1.00  0.00    -0.401 A  
HETATM   23  C   UNL     1     -13.275  13.545  71.776  1.00  0.00    -0.490 A  
HETATM   24  C   UNL     1     -13.581  14.360  72.862  1.00  0.00    -0.420 A  
HETATM   25  C   UNL     1     -12.773  15.459  73.146  1.00  0.00    -0.593 A  
HETATM   26  C   UNL     1     -11.657  15.733  72.348  1.00  0.00    -0.510 A  
ENDBRANCH  20  21
ENDBRANCH  18  20
ENDBRANCH  15  18
ENDBRANCH  12  14
TORSDOF 4
ENDMDL
MODEL      197
REMARK 921   NORMALIZED FREE ENERGY PREDICTED BY IDOCK:   -0.52 KCAL/MOL
REMARK 922        TOTAL FREE ENERGY PREDICTED BY IDOCK:   -1.43 KCAL/MOL
REMARK 923 INTER-LIGAND FREE ENERGY PREDICTED BY IDOCK:   -1.66 KCAL/MOL
REMARK 924 INTRA-LIGAND FREE ENERGY PREDICTED BY IDOCK:    0.23 KCAL/MOL
REMARK 927      BINDING AFFINITY PREDICTED BY RF-SCORE:    0.00 PKD
ROOT
HETATM    1  C   UNL     1     -11.559  10.284  66.251  1.00  0.00     1.719 C  
HETATM    2  S   UNL     1     -11.375  11.968  66.981  1.00  0.00    -0.335 SA 
HETATM    3  C   UNL     1      -9.971  12.462  65.878  1.00  0.00    -0.255 C  
HETATM    4  CA  UNL     1     -10.061  11.513  64.655  1.00  0.00    -0.271 C  
HETATM    5  C   UNL     1      -8.664  12.253  66.670  1.00  0.00    -0.132 C  
HETATM    6  C   UNL     1     -10.071  13.960  65.570  1.00  0.00    -0.319 C  
HETATM    7  N   UNL     1     -10.586  10.220  65.142  1.00  0.00    -0.013 N  
HETATM    8  C   UNL     1     -10.971  12.001  63.507  1.00  0.00    -0.444 C  
HETATM    9  C   UNL     1      -9.749   9.350  65.805  1.00  0.00    -0.284 C  
HETATM   10  OXT UNL     1     -10.887  13.085  62.961  1.00  0.00     0.312 OA 
HETATM   11  O   UNL     1     -11.858  11.061  63.084  1.00  0.00     0.450 OA 
HETATM   12  CA  UNL     1     -10.784   9.139  66.957  1.00  0.00    -0.118 C  
HETATM   13  O   UNL     1      -8.596   9.065  65.576  1.00  0.00    -0.147 OA 
ENDROOT
BRANCH  12  14
HETATM   14  N   UNL     1     -10.328   9.459  68.337  1.00  0.00    -0.198 N  
HETATM   15  C   UNL     1     -10.595   8.664  69.431  1.00  0.00    -0.199 C  
HETATM   16  H   UNL     1      -9.789  10.312  68.481  1.00  0.00     0.000 HD 
HETATM   17  O   UNL     1     -11.290   7.656  69.341  1.00  0.00     0.050 OA 
BRANCH  15  18
HETATM   18  C   UNL     1      -9.991   9.143  70.773  1.00  0.00    -0.269 C  
HETATM   19  C   UNL     1     -10.753   8.541  71.957  1.00  0.00    -0.410 C  
BRANCH  18  20
HETATM   20  O   UNL     1      -8.615   8.749  70.797  1.00  0.00    -0.150 OA 
BRANCH  20  21
HETATM   21  C   UNL     1      -8.283   7.551  70.220  1.00  0.00    -0.128 A  
HETATM   22  C   UNL     1      -8.445   6.293  70.803  1.00  0.00    -0.135 A  
HETATM   23  C   UNL     1      -8.124   5.132  70.093  1.00  0.00    -0.083 A  
HETATM   24  C   UNL     1      -7.624   5.218  68.797  1.00  0.00    -0.082 A  
HETATM   25  C   UNL     1      -7.451   6.468  68.208  1.00  0.00    -0.095 A  
HETATM   26  C   UNL     1      -7.790   7.628  68.914  1.00  0.00    -0.123 A  
ENDBRANCH  20  21
ENDBRANCH  18  20
ENDBRANCH  15  18
ENDBRANCH  12  14
TORSDOF 4
ENDMDL
MODEL      198
REMARK 921   NORMALIZED FREE ENERGY PREDICTED BY IDOCK:   -0.44 KCAL/MOL
REMARK 922        TOTAL FREE ENERGY PREDICTED BY IDOCK:   -1.32 KCAL/MOL
REMARK 923 INTER-LIGAND FREE ENERGY PREDICTED BY IDOCK:   -0.82 KCAL/MOL
REMARK 924 INTRA-LIGAND FREE ENERGY PREDICTED BY IDOCK:   -0.50 KCAL/MOL
REMARK 927      BINDING AFFINITY PREDICTED BY RF-SCORE:    0.00 PKD
ROOT
HETATM    1  C   UNL     1     -11.085  15.457  67.933  1.00  0.00    -0.323 C  
HETATM    2  S   UNL     1     -11.152  16.660  66.536  1.00  0.00     0.405 SA 
HETATM    3  C   UNL     1     -10.745  15.406  65.233  1.00  0.00    -0.421 C  
HETATM    4  CA  UNL     1     -11.099  14.034  65.865  1.00  0.00    -0.301 C  
HETATM    5  C   UNL     1      -9.238  15.526  64.930  1.00  0.00     1.925 C  
HETATM    6  C   UNL     1     -11.489  15.759  63.941  1.00  0.00     0.395 C  
HETATM    7  N   UNL     1     -10.836  14.140  67.315  1.00  0.00    -0.282 N  
HETATM    8  C   UNL     1     -12.560  13.577  65.672  1.00  0.00    -0.459 C  
HETATM    9  C   UNL     1      -9.541  14.065  67.781  1.00  0.00    -0.216 C  
HETATM   10  OXT UNL     1     -13.134  13.501  64.602  1.00  0.00    -0.592 OA 
HETATM   11  O   UNL     1     -13.158  13.177  66.826  1.00  0.00     0.599 OA 
HETATM   12  CA  UNL     1      -9.726  15.335  68.673  1.00  0.00    -0.212 C  
HETATM   13  O   UNL     1      -8.636  13.344  67.428  1.00  0.00    -0.183 OA 
ENDROOT
BRANCH  12  14
HETATM   14  N   UNL     1      -8.788  16.465  68.434  1.00  0.00    -0.206 N  
HETATM   15  C   UNL     1      -8.965  17.727  68.960  1.00  0.00    -0.007 C  
HETATM   16  H   UNL     1      -7.970  16.297  67.849  1.00  0.00     0.000 HD 
HETATM   17  O   UNL     1      -9.958  18.016  69.622  1.00  0.00     0.082 OA 
BRANCH  15  18
HETATM   18  C   UNL     1      -7.852  18.753  68.637  1.00  0.00    -0.328 C  
HETATM   19  C   UNL     1      -6.944  18.968  69.852  1.00  0.00     0.148 C  
BRANCH  18  20
HETATM   20  O   UNL     1      -7.106  18.252  67.523  1.00  0.00    -0.198 OA 
BRANCH  20  21
HETATM   21  C   UNL     1      -6.792  19.129  66.518  1.00  0.00    -0.200 A  
HETATM   22  C   UNL     1      -6.445  20.471  66.686  1.00  0.00    -0.283 A  
HETATM   23  C   UNL     1      -6.086  21.257  65.586  1.00  0.00    -0.152 A  
HETATM   24  C   UNL     1      -6.084  20.713  64.306  1.00  0.00    -0.351 A  
HETATM   25  C   UNL     1      -6.436  19.377  64.126  1.00  0.00     0.462 A  
HETATM   26  C   UNL     1      -6.777  18.587  65.230  1.00  0.00    -0.119 A  
ENDBRANCH  20  21
ENDBRANCH  18  20
ENDBRANCH  15  18
ENDBRANCH  12  14
TORSDOF 4
ENDMDL
MODEL      199
REMARK 921   NORMALIZED FREE ENERGY PREDICTED BY IDOCK:    0.04 KCAL/MOL
REMARK 922        TOTAL FREE ENERGY PREDICTED BY IDOCK:   -0.72 KCAL/MOL
REMARK 923 INTER-LIGAND FREE ENERGY PREDICTED BY IDOCK:   -0.84 KCAL/MOL
REMARK 924 INTRA-LIGAND FREE ENERGY PREDICTED BY IDOCK:    0.12 KCAL/MOL
REMARK 927      BINDING AFFINITY PREDICTED BY RF-SCORE:    0.00 PKD
ROOT
HETATM    1  C   UNL     1      -7.757  12.521  67.004  1.00  0.00    -0.040 C  
HETATM    2  S   UNL     1      -6.585  13.518  68.020  1.00  0.00    -0.155 SA 
HETATM    3  C   UNL     1      -6.879  12.559  69.579  1.00  0.00     0.089 C  
HETATM    4  CA  UNL     1      -7.459  11.197  69.116  1.00  0.00    -0.109 C  
HETATM    5  C   UNL     1      -7.893  13.354  70.428  1.00  0.00     3.105 C  
HETATM    6  C   UNL     1      -5.578  12.493  70.386  1.00  0.00    -0.161 C  
HETATM    7  N   UNL     1      -8.251  11.452  67.894  1.00  0.00    -0.126 N  
HETATM    8  C   UNL     1      -6.411  10.111  68.793  1.00  0.00    -0.048 C  
HETATM    9  C   UNL     1      -9.512  11.997  68.000  1.00  0.00    -0.199 C  
HETATM   10  OXT UNL     1      -5.524   9.749  69.543  1.00  0.00    -0.034 OA 
HETATM   11  O   UNL     1      -6.608   9.511  67.588  1.00  0.00    -0.062 OA 
HETATM   12  CA  UNL     1      -9.208  13.062  66.897  1.00  0.00    -0.236 C  
HETATM   13  O   UNL     1     -10.385  11.767  68.805  1.00  0.00    -0.213 OA 
ENDROOT
BRANCH  12  14
HETATM   14  N   UNL     1      -9.366  14.491  67.282  1.00  0.00    -0.203 N  
HETATM   15  C   UNL     1     -10.179  15.376  66.607  1.00  0.00    -0.277 C  
HETATM   16  H   UNL     1      -8.844  14.834  68.088  1.00  0.00     0.000 HD 
HETATM   17  O   UNL     1     -10.789  15.047  65.593  1.00  0.00    -0.317 OA 
BRANCH  15  18
HETATM   18  C   UNL     1     -10.248  16.807  67.193  1.00  0.00    -0.295 C  
HETATM   19  C   UNL     1     -10.266  16.766  68.724  1.00  0.00    -0.299 C  
BRANCH  18  20
HETATM   20  O   UNL     1      -9.110  17.530  66.713  1.00  0.00    -0.246 OA 
BRANCH  20  21
HETATM   21  C   UNL     1      -8.085  17.766  67.593  1.00  0.00    -0.222 A  
HETATM   22  C   UNL     1      -6.786  17.267  67.483  1.00  0.00    -0.168 A  
HETATM   23  C   UNL     1      -5.805  17.624  68.414  1.00  0.00    -0.169 A  
HETATM   24  C   UNL     1      -6.117  18.473  69.471  1.00  0.00    -0.277 A  
HETATM   25  C   UNL     1      -7.412  18.971  69.594  1.00  0.00     0.166 A  
HETATM   26  C   UNL     1      -8.388  18.626  68.651  1.00  0.00    -0.344 A  
ENDBRANCH  20  21
ENDBRANCH  18  20
ENDBRANCH  15  18
ENDBRANCH  12  14
TORSDOF 4
ENDMDL
MODEL      200
REMARK 921   NORMALIZED FREE ENERGY PREDICTED BY IDOCK:    6.25 KCAL/MOL
REMARK 922        TOTAL FREE ENERGY PREDICTED BY IDOCK:    6.93 KCAL/MOL
REMARK 923 INTER-LIGAND FREE ENERGY PREDICTED BY IDOCK:    6.47 KCAL/MOL
REMARK 924 INTRA-LIGAND FREE ENERGY PREDICTED BY IDOCK:    0.47 KCAL/MOL
REMARK 927      BINDING AFFINITY PREDICTED BY RF-SCORE:    0.00 PKD
ROOT
HETATM    1  C   UNL     1     -11.216  12.702  66.766  1.00  0.00    -0.300 C  
HETATM    2  S   UNL     1      -9.552  13.295  66.236  1.00  0.00    -0.190 SA 
HETATM    3  C   UNL     1     -10.083  13.727  64.514  1.00  0.00    -0.022 C  
HETATM    4  CA  UNL     1     -11.624  13.889  64.592  1.00  0.00    -0.385 C  
HETATM    5  C   UNL     1      -9.677  12.555  63.596  1.00  0.00     0.238 C  
HETATM    6  C   UNL     1      -9.304  14.957  64.037  1.00  0.00     6.214 C  
HETATM    7  N   UNL     1     -12.112  12.944  65.617  1.00  0.00    -0.438 N  
HETATM    8  C   UNL     1     -12.119  15.303  64.965  1.00  0.00     0.050 C  
HETATM    9  C   UNL     1     -12.230  11.605  65.310  1.00  0.00     0.690 C  
HETATM   10  OXT UNL     1     -11.800  16.329  64.395  1.00  0.00    -0.451 OA 
HETATM   11  O   UNL     1     -13.034  15.306  65.971  1.00  0.00     1.024 OA 
HETATM   12  CA  UNL     1     -11.485  11.180  66.617  1.00  0.00     0.142 C  
HETATM   13  O   UNL     1     -12.627  11.080  64.296  1.00  0.00     1.089 OA 
ENDROOT
BRANCH  12  14
HETATM   14  N   UNL     1     -10.261  10.349  66.452  1.00  0.00    -0.232 N  
HETATM   15  C   UNL     1      -9.856   9.400  67.365  1.00  0.00    -0.172 C  
HETATM   16  H   UNL     1      -9.692  10.490  65.618  1.00  0.00     0.000 HD 
HETATM   17  O   UNL     1     -10.460   9.220  68.419  1.00  0.00    -0.204 OA 
BRANCH  15  18
HETATM   18  C   UNL     1      -8.583   8.603  66.988  1.00  0.00    -0.117 C  
HETATM   19  C   UNL     1      -7.480   9.545  66.497  1.00  0.00    -0.093 C  
BRANCH  18  20
HETATM   20  O   UNL     1      -8.161   7.881  68.149  1.00  0.00    -0.121 OA 
BRANCH  20  21
HETATM   21  C   UNL     1      -7.293   8.502  69.008  1.00  0.00    -0.081 A  
HETATM   22  C   UNL     1      -5.975   8.114  69.257  1.00  0.00    -0.037 A  
HETATM   23  C   UNL     1      -5.162   8.863  70.114  1.00  0.00    -0.028 A  
HETATM   24  C   UNL     1      -5.662  10.000  70.740  1.00  0.00    -0.084 A  
HETATM   25  C   UNL     1      -6.977  10.393  70.504  1.00  0.00     0.098 A  
HETATM   26  C   UNL     1      -7.784   9.651  69.633  1.00  0.00    -0.124 A  
ENDBRANCH  20  21
ENDBRANCH  18  20
ENDBRANCH  15  18
ENDBRANCH  12  14
TORSDOF 4
ENDMDL
MODEL      201
REMARK 921   NORMALIZED FREE ENERGY PREDICTED BY IDOCK:    8.65 KCAL/MOL
REMARK 922        TOTAL FREE ENERGY PREDICTED BY IDOCK:    9.89 KCAL/MOL
REMARK 923 INTER-LIGAND FREE ENERGY PREDICTED BY IDOCK:    3.63 KCAL/MOL
REMARK 924 INTRA-LIGAND FREE ENERGY PREDICTED BY IDOCK:    6.26 KCAL/MOL
REMARK 927      BINDING AFFINITY PREDICTED BY RF-SCORE:    0.00 PKD
ROOT
HETATM    1  C   UNL     1     -10.749   9.003  66.127  1.00  0.00     0.769 C  
HETATM    2  S   UNL     1     -10.658   9.482  67.905  1.00  0.00    -0.226 SA 
HETATM    3  C   UNL     1      -8.891  10.038  67.825  1.00  0.00    -0.125 C  
HETATM    4  CA  UNL     1      -8.623  10.323  66.324  1.00  0.00    -0.137 C  
HETATM    5  C   UNL     1      -8.017   8.882  68.354  1.00  0.00    -0.105 C  
HETATM    6  C   UNL     1      -8.689  11.222  68.777  1.00  0.00    -0.105 C  
HETATM    7  N   UNL     1      -9.443   9.372  65.545  1.00  0.00    -0.261 N  
HETATM    8  C   UNL     1      -8.964  11.753  65.854  1.00  0.00    -0.059 C  
HETATM    9  C   UNL     1      -9.030   8.065  65.411  1.00  0.00     0.063 C  
HETATM   10  OXT UNL     1      -8.551  12.775  66.367  1.00  0.00     0.005 OA 
HETATM   11  O   UNL     1      -9.730  11.783  64.730  1.00  0.00    -0.233 OA 
HETATM   12  CA  UNL     1     -10.442   7.518  65.797  1.00  0.00     2.058 C  
HETATM   13  O   UNL     1      -7.919   7.623  65.229  1.00  0.00    -0.114 OA 
ENDROOT
BRANCH  12  14
HETATM   14  N   UNL     1     -10.510   6.598  66.965  1.00  0.00    -0.264 N  
HETATM   15  C   UNL     1      -9.473   5.773  67.346  1.00  0.00    -0.112 C  
HETATM   16  H   UNL     1     -11.370   6.576  67.513  1.00  0.00     0.000 HD 
HETATM   17  O   UNL     1      -8.433   5.703  66.697  1.00  0.00    -0.112 OA 
BRANCH  15  18
HETATM   18  C   UNL     1      -9.719   4.927  68.619  1.00  0.00    -0.160 C  
HETATM   19  C   UNL     1     -10.877   3.947  68.404  1.00  0.00     3.045 C  
BRANCH  18  20
HETATM   20  O   UNL     1      -8.507   4.230  68.920  1.00  0.00    -0.081 OA 
BRANCH  20  21
HETATM   21  C   UNL     1      -7.395   4.529  68.177  1.00  0.00    -0.065 A  
HETATM   22  C   UNL     1      -6.296   5.271  68.615  1.00  0.00    -0.035 A  
HETATM   23  C   UNL     1      -5.189   5.465  67.783  1.00  0.00    -0.004 A  
HETATM   24  C   UNL     1      -5.176   4.929  66.498  1.00  0.00    -0.009 A  
HETATM   25  C   UNL     1      -6.269   4.193  66.048  1.00  0.00    -0.032 A  
HETATM   26  C   UNL     1      -7.368   3.987  66.889  1.00  0.00    -0.072 A  
ENDBRANCH  20  21
ENDBRANCH  18  20
ENDBRANCH  15  18
ENDBRANCH  12  14
TORSDOF 4
ENDMDL
MODEL      202
REMARK 921   NORMALIZED FREE ENERGY PREDICTED BY IDOCK:   14.97 KCAL/MOL
REMARK 922        TOTAL FREE ENERGY PREDICTED BY IDOCK:   17.69 KCAL/MOL
REMARK 923 INTER-LIGAND FREE ENERGY PREDICTED BY IDOCK:   15.68 KCAL/MOL
REMARK 924 INTRA-LIGAND FREE ENERGY PREDICTED BY IDOCK:    2.02 KCAL/MOL
REMARK 927      BINDING AFFINITY PREDICTED BY RF-SCORE:    0.00 PKD
ROOT
HETATM    1  C   UNL     1      -8.857  18.375  69.500  1.00  0.00     0.644 C  
HETATM    2  S   UNL     1      -9.215  18.635  67.709  1.00  0.00    -0.289 SA 
HETATM    3  C   UNL     1     -11.056  18.674  67.924  1.00  0.00     0.147 C  
HETATM    4  CA  UNL     1     -11.283  19.014  69.420  1.00  0.00     2.889 C  
HETATM    5  C   UNL     1     -11.593  17.273  67.567  1.00  0.00     0.907 C  
HETATM    6  C   UNL     1     -11.663  19.655  66.915  1.00  0.00     1.250 C  
HETATM    7  N   UNL     1     -10.167  18.414  70.180  1.00  0.00     0.991 N  
HETATM    8  C   UNL     1     -11.338  20.520  69.752  1.00  0.00     2.856 C  
HETATM    9  C   UNL     1     -10.172  17.062  70.446  1.00  0.00     1.086 C  
HETATM   10  OXT UNL     1     -12.067  21.330  69.211  1.00  0.00     3.024 OA 
HETATM   11  O   UNL     1     -10.533  20.874  70.790  1.00  0.00     1.606 OA 
HETATM   12  CA  UNL     1      -8.694  16.902  69.962  1.00  0.00     1.743 C  
HETATM   13  O   UNL     1     -11.091  16.344  70.768  1.00  0.00    -0.296 OA 
ENDROOT
BRANCH  12  14
HETATM   14  N   UNL     1      -8.450  15.931  68.861  1.00  0.00    -0.205 N  
HETATM   15  C   UNL     1      -7.307  15.926  68.090  1.00  0.00    -0.127 C  
HETATM   16  H   UNL     1      -9.166  15.232  68.667  1.00  0.00     0.000 HD 
HETATM   17  O   UNL     1      -6.431  16.775  68.228  1.00  0.00    -0.135 OA 
BRANCH  15  18
HETATM   18  C   UNL     1      -7.219  14.803  67.027  1.00  0.00     0.296 C  
HETATM   19  C   UNL     1      -6.351  13.646  67.531  1.00  0.00    -0.076 C  
BRANCH  18  20
HETATM   20  O   UNL     1      -8.551  14.361  66.747  1.00  0.00    -0.201 OA 
BRANCH  20  21
HETATM   21  C   UNL     1      -9.178  13.588  67.689  1.00  0.00    -0.214 A  
HETATM   22  C   UNL     1     -10.301  13.958  68.432  1.00  0.00    -0.249 A  
HETATM   23  C   UNL     1     -10.892  13.060  69.326  1.00  0.00    -0.048 A  
HETATM   24  C   UNL     1     -10.358  11.786  69.496  1.00  0.00     0.354 A  
HETATM   25  C   UNL     1      -9.234  11.408  68.765  1.00  0.00    -0.108 A  
HETATM   26  C   UNL     1      -8.655  12.303  67.858  1.00  0.00    -0.169 A  
ENDBRANCH  20  21
ENDBRANCH  18  20
ENDBRANCH  15  18
ENDBRANCH  12  14
TORSDOF 4
ENDMDL
MODEL      203
REMARK 921   NORMALIZED FREE ENERGY PREDICTED BY IDOCK:   34.13 KCAL/MOL
REMARK 922        TOTAL FREE ENERGY PREDICTED BY IDOCK:   41.34 KCAL/MOL
REMARK 923 INTER-LIGAND FREE ENERGY PREDICTED BY IDOCK:   31.83 KCAL/MOL
REMARK 924 INTRA-LIGAND FREE ENERGY PREDICTED BY IDOCK:    9.50 KCAL/MOL
REMARK 927      BINDING AFFINITY PREDICTED BY RF-SCORE:    0.00 PKD
ROOT
HETATM    1  C   UNL     1      -9.386   8.730  66.233  1.00  0.00    -0.222 C  
HETATM    2  S   UNL     1      -9.980   7.809  64.749  1.00  0.00     4.043 SA 
HETATM    3  C   UNL     1     -10.751   6.432  65.722  1.00  0.00     1.593 C  
HETATM    4  CA  UNL     1     -10.976   7.013  67.142  1.00  0.00    -0.323 C  
HETATM    5  C   UNL     1      -9.750   5.258  65.735  1.00  0.00    -0.081 C  
HETATM    6  C   UNL     1     -12.006   5.939  64.994  1.00  0.00     5.360 C  
HETATM    7  N   UNL     1      -9.883   7.974  67.399  1.00  0.00    -0.171 N  
HETATM    8  C   UNL     1     -12.319   7.744  67.349  1.00  0.00     6.536 C  
HETATM    9  C   UNL     1      -8.633   7.509  67.745  1.00  0.00    -0.120 C  
HETATM   10  OXT UNL     1     -13.415   7.275  67.108  1.00  0.00    13.001 OA 
HETATM   11  O   UNL     1     -12.183   8.973  67.917  1.00  0.00     3.184 OA 
HETATM   12  CA  UNL     1      -7.935   8.431  66.693  1.00  0.00    -0.097 C  
HETATM   13  O   UNL     1      -8.326   6.599  68.480  1.00  0.00    -0.121 OA 
ENDROOT
BRANCH  12  14
HETATM   14  N   UNL     1      -7.086   7.760  65.671  1.00  0.00    -0.059 N  
HETATM   15  C   UNL     1      -6.257   6.695  65.949  1.00  0.00    -0.041 C  
HETATM   16  H   UNL     1      -7.121   8.107  64.712  1.00  0.00     0.000 HD 
HETATM   17  O   UNL     1      -6.120   6.265  67.090  1.00  0.00    -0.023 OA 
BRANCH  15  18
HETATM   18  C   UNL     1      -5.494   6.103  64.739  1.00  0.00    -0.017 C  
HETATM   19  C   UNL     1      -5.269   4.600  64.922  1.00  0.00    -0.013 C  
BRANCH  18  20
HETATM   20  O   UNL     1      -6.268   6.366  63.564  1.00  0.00    -0.026 OA 
BRANCH  20  21
HETATM   21  C   UNL     1      -6.831   7.609  63.435  1.00  0.00    -0.059 A  
HETATM   22  C   UNL     1      -8.200   7.881  63.371  1.00  0.00    -0.017 A  
HETATM   23  C   UNL     1      -8.661   9.199  63.298  1.00  0.00    -0.148 A  
HETATM   24  C   UNL     1      -7.759  10.258  63.274  1.00  0.00    -0.133 A  
HETATM   25  C   UNL     1      -6.392   9.998  63.330  1.00  0.00    -0.136 A  
HETATM   26  C   UNL     1      -5.933   8.679  63.421  1.00  0.00    -0.077 A  
ENDBRANCH  20  21
ENDBRANCH  18  20
ENDBRANCH  15  18
ENDBRANCH  12  14
TORSDOF 4
ENDMDL
MODEL      204
REMARK 921   NORMALIZED FREE ENERGY PREDICTED BY IDOCK:   46.44 KCAL/MOL
REMARK 922        TOTAL FREE ENERGY PREDICTED BY IDOCK:   56.52 KCAL/MOL
REMARK 923 INTER-LIGAND FREE ENERGY PREDICTED BY IDOCK:   51.92 KCAL/MOL
REMARK 924 INTRA-LIGAND FREE ENERGY PREDICTED BY IDOCK:    4.60 KCAL/MOL
REMARK 927      BINDING AFFINITY PREDICTED BY RF-SCORE:    0.00 PKD
ROOT
HETATM    1  C   UNL     1      -9.091  18.432  69.675  1.00  0.00     0.816 C  
HETATM    2  S   UNL     1     -10.154  18.473  68.168  1.00  0.00    -0.388 SA 
HETATM    3  C   UNL     1     -11.722  18.079  69.075  1.00  0.00     3.258 C  
HETATM    4  CA  UNL     1     -11.443  18.457  70.553  1.00  0.00     5.122 C  
HETATM    5  C   UNL     1     -11.986  16.568  68.911  1.00  0.00     0.420 C  
HETATM    6  C   UNL     1     -12.891  18.810  68.407  1.00  0.00     8.536 C  
HETATM    7  N   UNL     1     -10.010  18.200  70.807  1.00  0.00     2.573 N  
HETATM    8  C   UNL     1     -11.743  19.924  70.926  1.00  0.00     9.139 C  
HETATM    9  C   UNL     1      -9.575  16.909  71.015  1.00  0.00     4.321 C  
HETATM   10  OXT UNL     1     -12.801  20.493  70.730  1.00  0.00    10.924 OA 
HETATM   11  O   UNL     1     -10.722  20.534  71.585  1.00  0.00     3.495 OA 
HETATM   12  CA  UNL     1      -8.402  17.079  69.995  1.00  0.00     1.876 C  
HETATM   13  O   UNL     1     -10.091  16.014  71.643  1.00  0.00     1.871 OA 
ENDROOT
BRANCH  12  14
HETATM   14  N   UNL     1      -8.358  16.122  68.857  1.00  0.00    -0.221 N  
HETATM   15  C   UNL     1      -8.222  14.760  69.012  1.00  0.00    -0.141 C  
HETATM   16  H   UNL     1      -8.433  16.495  67.910  1.00  0.00     0.000 HD 
HETATM   17  O   UNL     1      -8.066  14.248  70.117  1.00  0.00     0.765 OA 
BRANCH  15  18
HETATM   18  C   UNL     1      -8.249  13.928  67.706  1.00  0.00    -0.173 C  
HETATM   19  C   UNL     1      -9.672  13.459  67.391  1.00  0.00    -0.221 C  
BRANCH  18  20
HETATM   20  O   UNL     1      -7.736  14.751  66.654  1.00  0.00     0.182 OA 
BRANCH  20  21
HETATM   21  C   UNL     1      -8.493  15.821  66.253  1.00  0.00    -0.210 A  
HETATM   22  C   UNL     1      -8.150  17.166  66.408  1.00  0.00    -0.337 A  
HETATM   23  C   UNL     1      -8.978  18.174  65.906  1.00  0.00     0.190 A  
HETATM   24  C   UNL     1     -10.164  17.849  65.253  1.00  0.00     0.651 A  
HETATM   25  C   UNL     1     -10.518  16.511  65.098  1.00  0.00    -0.169 A  
HETATM   26  C   UNL     1      -9.679  15.503  65.587  1.00  0.00    -0.355 A  
ENDBRANCH  20  21
ENDBRANCH  18  20
ENDBRANCH  15  18
ENDBRANCH  12  14
TORSDOF 4
ENDMDL
