MODEL        1
REMARK 921   NORMALIZED FREE ENERGY PREDICTED BY IDOCK:   -5.85 KCAL/MOL
REMARK 922        TOTAL FREE ENERGY PREDICTED BY IDOCK:   -6.49 KCAL/MOL
REMARK 923 INTER-LIGAND FREE ENERGY PREDICTED BY IDOCK:   -6.19 KCAL/MOL
REMARK 924 INTRA-LIGAND FREE ENERGY PREDICTED BY IDOCK:   -0.30 KCAL/MOL
REMARK 927      BINDING AFFINITY PREDICTED BY RF-SCORE:    0.00 PKD
ROOT
HETATM    1  C   UNL     1     -12.394  14.199  66.131  1.00  0.00    -0.436 C  
HETATM    2  N   UNL     1     -11.999  13.890  67.484  1.00  0.00    -0.394 N  
HETATM    3  C   UNL     1     -11.891  12.629  67.984  1.00  0.00    -0.323 C  
HETATM    4  O   UNL     1     -12.031  11.582  67.367  1.00  0.00    -0.623 OA 
HETATM    5  C   UNL     1     -11.565  12.704  69.446  1.00  0.00    -0.369 C  
HETATM    6  C   UNL     1     -11.299  14.190  69.697  1.00  0.00    -0.289 C  
HETATM    7  O   UNL     1     -11.480  16.041  68.129  1.00  0.00    -0.338 OA 
HETATM    8  C   UNL     1     -11.598  14.849  68.369  1.00  0.00    -0.325 C  
ENDROOT
BRANCH   6   9
HETATM    9  C   UNL     1     -12.128  14.753  70.831  1.00  0.00    -0.387 A  
HETATM   10  C   UNL     1     -13.518  14.571  70.846  1.00  0.00    -0.266 A  
HETATM   11  C   UNL     1     -14.292  15.114  71.873  1.00  0.00    -0.693 A  
HETATM   12  C   UNL     1     -13.688  15.840  72.899  1.00  0.00    -0.631 A  
HETATM   13  C   UNL     1     -12.307  16.013  72.905  1.00  0.00    -0.609 A  
HETATM   14  C   UNL     1     -11.531  15.470  71.882  1.00  0.00    -0.506 A  
ENDBRANCH   6   9
TORSDOF 1
ENDMDL
MODEL        2
REMARK 921   NORMALIZED FREE ENERGY PREDICTED BY IDOCK:   -5.83 KCAL/MOL
REMARK 922        TOTAL FREE ENERGY PREDICTED BY IDOCK:   -6.47 KCAL/MOL
REMARK 923 INTER-LIGAND FREE ENERGY PREDICTED BY IDOCK:   -6.17 KCAL/MOL
REMARK 924 INTRA-LIGAND FREE ENERGY PREDICTED BY IDOCK:   -0.30 KCAL/MOL
REMARK 927      BINDING AFFINITY PREDICTED BY RF-SCORE:    0.00 PKD
ROOT
HETATM    1  C   UNL     1     -12.409  14.023  66.252  1.00  0.00    -0.448 C  
HETATM    2  N   UNL     1     -12.010  13.782  67.617  1.00  0.00    -0.368 N  
HETATM    3  C   UNL     1     -11.893  12.547  68.177  1.00  0.00    -0.317 C  
HETATM    4  O   UNL     1     -12.028  11.471  67.611  1.00  0.00    -0.630 OA 
HETATM    5  C   UNL     1     -11.565  12.694  69.633  1.00  0.00    -0.321 C  
HETATM    6  C   UNL     1     -11.309  14.192  69.812  1.00  0.00    -0.260 C  
HETATM    7  O   UNL     1     -11.504  15.965  68.158  1.00  0.00    -0.350 OA 
HETATM    8  C   UNL     1     -11.614  14.784  68.455  1.00  0.00    -0.324 C  
ENDROOT
BRANCH   6   9
HETATM    9  C   UNL     1     -12.139  14.803  70.920  1.00  0.00    -0.387 A  
HETATM   10  C   UNL     1     -11.541  15.644  71.867  1.00  0.00    -0.547 A  
HETATM   11  C   UNL     1     -12.295  16.188  72.909  1.00  0.00    -0.607 A  
HETATM   12  C   UNL     1     -13.655  15.901  73.014  1.00  0.00    -0.616 A  
HETATM   13  C   UNL     1     -14.265  15.081  72.070  1.00  0.00    -0.649 A  
HETATM   14  C   UNL     1     -13.515  14.538  71.027  1.00  0.00    -0.345 A  
ENDBRANCH   6   9
TORSDOF 1
ENDMDL
MODEL        3
REMARK 921   NORMALIZED FREE ENERGY PREDICTED BY IDOCK:   -5.55 KCAL/MOL
REMARK 922        TOTAL FREE ENERGY PREDICTED BY IDOCK:   -6.18 KCAL/MOL
REMARK 923 INTER-LIGAND FREE ENERGY PREDICTED BY IDOCK:   -6.07 KCAL/MOL
REMARK 924 INTRA-LIGAND FREE ENERGY PREDICTED BY IDOCK:   -0.10 KCAL/MOL
REMARK 927      BINDING AFFINITY PREDICTED BY RF-SCORE:    0.00 PKD
ROOT
HETATM    1  C   UNL     1     -12.234  14.026  64.869  1.00  0.00    -0.437 C  
HETATM    2  N   UNL     1     -11.089  14.724  65.399  1.00  0.00    -0.340 N  
HETATM    3  C   UNL     1     -10.129  14.150  66.175  1.00  0.00    -0.313 C  
HETATM    4  O   UNL     1     -10.042  12.969  66.476  1.00  0.00    -0.258 OA 
HETATM    5  C   UNL     1      -9.160  15.204  66.623  1.00  0.00    -0.310 C  
HETATM    6  C   UNL     1      -9.572  16.452  65.838  1.00  0.00    -0.309 C  
HETATM    7  O   UNL     1     -11.441  16.723  64.304  1.00  0.00    -1.125 OA 
HETATM    8  C   UNL     1     -10.810  16.023  65.083  1.00  0.00    -0.395 C  
ENDROOT
BRANCH   6   9
HETATM    9  C   UNL     1      -9.814  17.653  66.727  1.00  0.00    -0.304 A  
HETATM   10  C   UNL     1     -10.072  18.909  66.160  1.00  0.00    -0.438 A  
HETATM   11  C   UNL     1     -10.266  20.026  66.973  1.00  0.00    -0.587 A  
HETATM   12  C   UNL     1     -10.209  19.903  68.360  1.00  0.00    -0.557 A  
HETATM   13  C   UNL     1      -9.971  18.660  68.936  1.00  0.00    -0.399 A  
HETATM   14  C   UNL     1      -9.778  17.540  68.127  1.00  0.00    -0.302 A  
ENDBRANCH   6   9
TORSDOF 1
ENDMDL
MODEL        4
REMARK 921   NORMALIZED FREE ENERGY PREDICTED BY IDOCK:   -5.23 KCAL/MOL
REMARK 922        TOTAL FREE ENERGY PREDICTED BY IDOCK:   -5.84 KCAL/MOL
REMARK 923 INTER-LIGAND FREE ENERGY PREDICTED BY IDOCK:   -5.61 KCAL/MOL
REMARK 924 INTRA-LIGAND FREE ENERGY PREDICTED BY IDOCK:   -0.23 KCAL/MOL
REMARK 927      BINDING AFFINITY PREDICTED BY RF-SCORE:    0.00 PKD
ROOT
HETATM    1  C   UNL     1     -10.437  16.135  65.214  1.00  0.00    -0.331 C  
HETATM    2  N   UNL     1     -10.925  14.799  65.456  1.00  0.00    -0.329 N  
HETATM    3  C   UNL     1     -12.030  14.266  64.867  1.00  0.00    -0.425 C  
HETATM    4  O   UNL     1     -12.724  14.788  64.007  1.00  0.00    -0.786 OA 
HETATM    5  C   UNL     1     -12.287  12.904  65.441  1.00  0.00    -0.538 C  
HETATM    6  C   UNL     1     -11.060  12.624  66.311  1.00  0.00    -0.330 C  
HETATM    7  O   UNL     1      -9.172  14.088  66.774  1.00  0.00    -0.258 OA 
HETATM    8  C   UNL     1     -10.254  13.902  66.237  1.00  0.00    -0.297 C  
ENDROOT
BRANCH   6   9
HETATM    9  C   UNL     1     -11.420  12.239  67.730  1.00  0.00    -0.392 A  
HETATM   10  C   UNL     1     -11.833  13.219  68.643  1.00  0.00    -0.380 A  
HETATM   11  C   UNL     1     -12.138  12.875  69.961  1.00  0.00    -0.357 A  
HETATM   12  C   UNL     1     -12.037  11.550  70.381  1.00  0.00    -0.471 A  
HETATM   13  C   UNL     1     -11.645  10.565  69.481  1.00  0.00    -0.332 A  
HETATM   14  C   UNL     1     -11.342  10.905  68.162  1.00  0.00    -0.383 A  
ENDBRANCH   6   9
TORSDOF 1
ENDMDL
MODEL        5
REMARK 921   NORMALIZED FREE ENERGY PREDICTED BY IDOCK:   -5.21 KCAL/MOL
REMARK 922        TOTAL FREE ENERGY PREDICTED BY IDOCK:   -5.82 KCAL/MOL
REMARK 923 INTER-LIGAND FREE ENERGY PREDICTED BY IDOCK:   -5.52 KCAL/MOL
REMARK 924 INTRA-LIGAND FREE ENERGY PREDICTED BY IDOCK:   -0.30 KCAL/MOL
REMARK 927      BINDING AFFINITY PREDICTED BY RF-SCORE:    0.00 PKD
ROOT
HETATM    1  C   UNL     1     -12.755  12.085  63.406  1.00  0.00    -0.398 C  
HETATM    2  N   UNL     1     -11.910  12.604  64.453  1.00  0.00    -0.362 N  
HETATM    3  C   UNL     1     -10.566  12.404  64.527  1.00  0.00    -0.322 C  
HETATM    4  O   UNL     1      -9.864  11.835  63.702  1.00  0.00    -0.327 OA 
HETATM    5  C   UNL     1     -10.047  12.999  65.802  1.00  0.00    -0.294 C  
HETATM    6  C   UNL     1     -11.245  13.755  66.380  1.00  0.00    -0.321 C  
HETATM    7  O   UNL     1     -13.515  13.875  65.512  1.00  0.00    -0.657 OA 
HETATM    8  C   UNL     1     -12.377  13.438  65.428  1.00  0.00    -0.477 C  
ENDROOT
BRANCH   6   9
HETATM    9  C   UNL     1     -11.555  13.364  67.809  1.00  0.00    -0.375 A  
HETATM   10  C   UNL     1     -11.546  12.015  68.189  1.00  0.00    -0.403 A  
HETATM   11  C   UNL     1     -11.860  11.645  69.498  1.00  0.00    -0.414 A  
HETATM   12  C   UNL     1     -12.181  12.618  70.443  1.00  0.00    -0.368 A  
HETATM   13  C   UNL     1     -12.177  13.961  70.084  1.00  0.00    -0.425 A  
HETATM   14  C   UNL     1     -11.861  14.334  68.778  1.00  0.00    -0.377 A  
ENDBRANCH   6   9
TORSDOF 1
ENDMDL
MODEL        6
REMARK 921   NORMALIZED FREE ENERGY PREDICTED BY IDOCK:   -5.20 KCAL/MOL
REMARK 922        TOTAL FREE ENERGY PREDICTED BY IDOCK:   -5.81 KCAL/MOL
REMARK 923 INTER-LIGAND FREE ENERGY PREDICTED BY IDOCK:   -5.52 KCAL/MOL
REMARK 924 INTRA-LIGAND FREE ENERGY PREDICTED BY IDOCK:   -0.29 KCAL/MOL
REMARK 927      BINDING AFFINITY PREDICTED BY RF-SCORE:    0.00 PKD
ROOT
HETATM    1  C   UNL     1      -9.600  12.793  68.284  1.00  0.00    -0.211 C  
HETATM    2  N   UNL     1     -10.509  13.881  68.548  1.00  0.00    -0.246 N  
HETATM    3  C   UNL     1     -10.332  15.156  68.104  1.00  0.00    -0.239 C  
HETATM    4  O   UNL     1      -9.443  15.558  67.368  1.00  0.00    -0.209 OA 
HETATM    5  C   UNL     1     -11.417  16.029  68.663  1.00  0.00    -0.377 C  
HETATM    6  C   UNL     1     -12.377  15.048  69.341  1.00  0.00    -0.161 C  
HETATM    7  O   UNL     1     -12.153  12.638  69.581  1.00  0.00    -0.283 OA 
HETATM    8  C   UNL     1     -11.698  13.705  69.196  1.00  0.00    -0.329 C  
ENDROOT
BRANCH   6   9
HETATM    9  C   UNL     1     -12.664  15.408  70.783  1.00  0.00    -0.516 A  
HETATM   10  C   UNL     1     -11.675  16.016  71.568  1.00  0.00    -0.554 A  
HETATM   11  C   UNL     1     -11.923  16.323  72.907  1.00  0.00    -0.615 A  
HETATM   12  C   UNL     1     -13.161  16.030  73.476  1.00  0.00    -0.665 A  
HETATM   13  C   UNL     1     -14.157  15.441  72.704  1.00  0.00    -0.519 A  
HETATM   14  C   UNL     1     -13.913  15.136  71.365  1.00  0.00    -0.595 A  
ENDBRANCH   6   9
TORSDOF 1
ENDMDL
MODEL        7
REMARK 921   NORMALIZED FREE ENERGY PREDICTED BY IDOCK:   -5.18 KCAL/MOL
REMARK 922        TOTAL FREE ENERGY PREDICTED BY IDOCK:   -5.78 KCAL/MOL
REMARK 923 INTER-LIGAND FREE ENERGY PREDICTED BY IDOCK:   -5.49 KCAL/MOL
REMARK 924 INTRA-LIGAND FREE ENERGY PREDICTED BY IDOCK:   -0.29 KCAL/MOL
REMARK 927      BINDING AFFINITY PREDICTED BY RF-SCORE:    0.00 PKD
ROOT
HETATM    1  C   UNL     1      -9.283  12.925  68.127  1.00  0.00    -0.212 C  
HETATM    2  N   UNL     1     -10.190  14.010  68.412  1.00  0.00    -0.234 N  
HETATM    3  C   UNL     1      -9.960  15.311  68.084  1.00  0.00    -0.221 C  
HETATM    4  O   UNL     1      -9.013  15.749  67.448  1.00  0.00    -0.187 OA 
HETATM    5  C   UNL     1     -11.068  16.161  68.632  1.00  0.00    -0.356 C  
HETATM    6  C   UNL     1     -12.091  15.153  69.160  1.00  0.00    -0.258 C  
HETATM    7  O   UNL     1     -11.926  12.727  69.222  1.00  0.00    -0.289 OA 
HETATM    8  C   UNL     1     -11.426  13.810  68.957  1.00  0.00    -0.305 C  
ENDROOT
BRANCH   6   9
HETATM    9  C   UNL     1     -12.476  15.405  70.601  1.00  0.00    -0.478 A  
HETATM   10  C   UNL     1     -13.770  15.106  71.048  1.00  0.00    -0.450 A  
HETATM   11  C   UNL     1     -14.141  15.364  72.369  1.00  0.00    -0.645 A  
HETATM   12  C   UNL     1     -13.224  15.920  73.259  1.00  0.00    -0.698 A  
HETATM   13  C   UNL     1     -11.931  16.206  72.834  1.00  0.00    -0.623 A  
HETATM   14  C   UNL     1     -11.556  15.947  71.515  1.00  0.00    -0.537 A  
ENDBRANCH   6   9
TORSDOF 1
ENDMDL
MODEL        8
REMARK 921   NORMALIZED FREE ENERGY PREDICTED BY IDOCK:   -5.14 KCAL/MOL
REMARK 922        TOTAL FREE ENERGY PREDICTED BY IDOCK:   -5.75 KCAL/MOL
REMARK 923 INTER-LIGAND FREE ENERGY PREDICTED BY IDOCK:   -5.54 KCAL/MOL
REMARK 924 INTRA-LIGAND FREE ENERGY PREDICTED BY IDOCK:   -0.21 KCAL/MOL
REMARK 927      BINDING AFFINITY PREDICTED BY RF-SCORE:    0.00 PKD
ROOT
HETATM    1  C   UNL     1     -10.455  16.173  65.174  1.00  0.00    -0.268 C  
HETATM    2  N   UNL     1     -10.948  14.855  65.490  1.00  0.00    -0.334 N  
HETATM    3  C   UNL     1     -12.040  14.283  64.913  1.00  0.00    -0.435 C  
HETATM    4  O   UNL     1     -12.715  14.748  64.005  1.00  0.00    -0.786 OA 
HETATM    5  C   UNL     1     -12.309  12.960  65.567  1.00  0.00    -0.517 C  
HETATM    6  C   UNL     1     -11.101  12.739  66.480  1.00  0.00    -0.321 C  
HETATM    7  O   UNL     1      -9.224  14.232  66.889  1.00  0.00    -0.233 OA 
HETATM    8  C   UNL     1     -10.294  14.011  66.341  1.00  0.00    -0.289 C  
ENDROOT
BRANCH   6   9
HETATM    9  C   UNL     1     -11.491  12.445  67.912  1.00  0.00    -0.385 A  
HETATM   10  C   UNL     1     -11.522  11.124  68.377  1.00  0.00    -0.377 A  
HETATM   11  C   UNL     1     -11.910  10.843  69.688  1.00  0.00    -0.416 A  
HETATM   12  C   UNL     1     -12.269  11.878  70.550  1.00  0.00    -0.426 A  
HETATM   13  C   UNL     1     -12.227  13.196  70.107  1.00  0.00    -0.360 A  
HETATM   14  C   UNL     1     -11.837  13.480  68.798  1.00  0.00    -0.390 A  
ENDBRANCH   6   9
TORSDOF 1
ENDMDL
MODEL        9
REMARK 921   NORMALIZED FREE ENERGY PREDICTED BY IDOCK:   -5.13 KCAL/MOL
REMARK 922        TOTAL FREE ENERGY PREDICTED BY IDOCK:   -5.73 KCAL/MOL
REMARK 923 INTER-LIGAND FREE ENERGY PREDICTED BY IDOCK:   -5.58 KCAL/MOL
REMARK 924 INTRA-LIGAND FREE ENERGY PREDICTED BY IDOCK:   -0.15 KCAL/MOL
REMARK 927      BINDING AFFINITY PREDICTED BY RF-SCORE:    0.00 PKD
ROOT
HETATM    1  C   UNL     1     -10.351  16.654  66.801  1.00  0.00    -0.295 C  
HETATM    2  N   UNL     1     -10.861  15.467  67.441  1.00  0.00    -0.304 N  
HETATM    3  C   UNL     1     -11.566  14.492  66.804  1.00  0.00    -0.376 C  
HETATM    4  O   UNL     1     -11.809  14.427  65.608  1.00  0.00    -0.353 OA 
HETATM    5  C   UNL     1     -12.020  13.474  67.809  1.00  0.00    -0.369 C  
HETATM    6  C   UNL     1     -11.313  13.881  69.103  1.00  0.00    -0.331 C  
HETATM    7  O   UNL     1      -9.878  15.806  69.499  1.00  0.00    -0.259 OA 
HETATM    8  C   UNL     1     -10.594  15.163  68.746  1.00  0.00    -0.236 C  
ENDROOT
BRANCH   6   9
HETATM    9  C   UNL     1     -12.267  14.049  70.267  1.00  0.00    -0.430 A  
HETATM   10  C   UNL     1     -12.536  12.969  71.118  1.00  0.00    -0.388 A  
HETATM   11  C   UNL     1     -13.437  13.108  72.175  1.00  0.00    -0.653 A  
HETATM   12  C   UNL     1     -14.076  14.327  72.396  1.00  0.00    -0.561 A  
HETATM   13  C   UNL     1     -13.805  15.412  71.569  1.00  0.00    -0.599 A  
HETATM   14  C   UNL     1     -12.903  15.277  70.514  1.00  0.00    -0.421 A  
ENDBRANCH   6   9
TORSDOF 1
ENDMDL
MODEL       10
REMARK 921   NORMALIZED FREE ENERGY PREDICTED BY IDOCK:   -5.09 KCAL/MOL
REMARK 922        TOTAL FREE ENERGY PREDICTED BY IDOCK:   -5.69 KCAL/MOL
REMARK 923 INTER-LIGAND FREE ENERGY PREDICTED BY IDOCK:   -5.41 KCAL/MOL
REMARK 924 INTRA-LIGAND FREE ENERGY PREDICTED BY IDOCK:   -0.28 KCAL/MOL
REMARK 927      BINDING AFFINITY PREDICTED BY RF-SCORE:    0.00 PKD
ROOT
HETATM    1  C   UNL     1     -10.128  11.361  63.481  1.00  0.00    -0.395 C  
HETATM    2  N   UNL     1     -10.960  12.089  64.408  1.00  0.00    -0.314 N  
HETATM    3  C   UNL     1     -12.270  12.390  64.192  1.00  0.00    -0.468 C  
HETATM    4  O   UNL     1     -12.955  12.038  63.243  1.00  0.00    -0.736 OA 
HETATM    5  C   UNL     1     -12.772  13.243  65.319  1.00  0.00    -0.474 C  
HETATM    6  C   UNL     1     -11.627  13.239  66.334  1.00  0.00    -0.387 C  
HETATM    7  O   UNL     1      -9.436  12.200  66.134  1.00  0.00    -0.234 OA 
HETATM    8  C   UNL     1     -10.526  12.463  65.647  1.00  0.00    -0.261 C  
ENDROOT
BRANCH   6   9
HETATM    9  C   UNL     1     -11.196  14.632  66.741  1.00  0.00    -0.344 A  
HETATM   10  C   UNL     1     -11.430  15.089  68.045  1.00  0.00    -0.357 A  
HETATM   11  C   UNL     1     -11.063  16.383  68.418  1.00  0.00    -0.351 A  
HETATM   12  C   UNL     1     -10.454  17.233  67.496  1.00  0.00    -0.356 A  
HETATM   13  C   UNL     1     -10.201  16.786  66.204  1.00  0.00    -0.363 A  
HETATM   14  C   UNL     1     -10.564  15.493  65.828  1.00  0.00    -0.370 A  
ENDBRANCH   6   9
TORSDOF 1
ENDMDL
MODEL       11
REMARK 921   NORMALIZED FREE ENERGY PREDICTED BY IDOCK:   -5.08 KCAL/MOL
REMARK 922        TOTAL FREE ENERGY PREDICTED BY IDOCK:   -5.68 KCAL/MOL
REMARK 923 INTER-LIGAND FREE ENERGY PREDICTED BY IDOCK:   -5.39 KCAL/MOL
REMARK 924 INTRA-LIGAND FREE ENERGY PREDICTED BY IDOCK:   -0.30 KCAL/MOL
REMARK 927      BINDING AFFINITY PREDICTED BY RF-SCORE:    0.00 PKD
ROOT
HETATM    1  C   UNL     1     -10.113  11.262  63.620  1.00  0.00    -0.382 C  
HETATM    2  N   UNL     1     -10.964  12.054  64.474  1.00  0.00    -0.303 N  
HETATM    3  C   UNL     1     -12.257  12.371  64.190  1.00  0.00    -0.468 C  
HETATM    4  O   UNL     1     -12.912  11.984  63.233  1.00  0.00    -0.736 OA 
HETATM    5  C   UNL     1     -12.784  13.292  65.250  1.00  0.00    -0.474 C  
HETATM    6  C   UNL     1     -11.681  13.317  66.310  1.00  0.00    -0.412 C  
HETATM    7  O   UNL     1      -9.508  12.223  66.253  1.00  0.00    -0.234 OA 
HETATM    8  C   UNL     1     -10.572  12.483  65.709  1.00  0.00    -0.270 C  
ENDROOT
BRANCH   6   9
HETATM    9  C   UNL     1     -11.235  14.720  66.663  1.00  0.00    -0.346 A  
HETATM   10  C   UNL     1     -10.672  15.548  65.682  1.00  0.00    -0.378 A  
HETATM   11  C   UNL     1     -10.231  16.832  66.007  1.00  0.00    -0.361 A  
HETATM   12  C   UNL     1     -10.351  17.305  67.313  1.00  0.00    -0.331 A  
HETATM   13  C   UNL     1     -10.923  16.500  68.292  1.00  0.00    -0.346 A  
HETATM   14  C   UNL     1     -11.367  15.217  67.970  1.00  0.00    -0.345 A  
ENDBRANCH   6   9
TORSDOF 1
ENDMDL
MODEL       12
REMARK 921   NORMALIZED FREE ENERGY PREDICTED BY IDOCK:   -4.98 KCAL/MOL
REMARK 922        TOTAL FREE ENERGY PREDICTED BY IDOCK:   -5.58 KCAL/MOL
REMARK 923 INTER-LIGAND FREE ENERGY PREDICTED BY IDOCK:   -5.44 KCAL/MOL
REMARK 924 INTRA-LIGAND FREE ENERGY PREDICTED BY IDOCK:   -0.14 KCAL/MOL
REMARK 927      BINDING AFFINITY PREDICTED BY RF-SCORE:    0.00 PKD
ROOT
HETATM    1  C   UNL     1     -13.659  13.339  72.206  1.00  0.00    -0.605 C  
HETATM    2  N   UNL     1     -12.706  13.735  71.197  1.00  0.00    -0.354 N  
HETATM    3  C   UNL     1     -12.258  15.008  71.021  1.00  0.00    -0.326 C  
HETATM    4  O   UNL     1     -12.522  15.980  71.715  1.00  0.00    -0.459 OA 
HETATM    5  C   UNL     1     -11.366  15.055  69.816  1.00  0.00    -0.310 C  
HETATM    6  C   UNL     1     -11.191  13.588  69.420  1.00  0.00    -0.244 C  
HETATM    7  O   UNL     1     -12.214  11.621  70.421  1.00  0.00    -0.350 OA 
HETATM    8  C   UNL     1     -12.086  12.836  70.379  1.00  0.00    -0.302 C  
ENDROOT
BRANCH   6   9
HETATM    9  C   UNL     1     -11.533  13.325  67.969  1.00  0.00    -0.344 A  
HETATM   10  C   UNL     1     -11.230  12.087  67.387  1.00  0.00    -0.368 A  
HETATM   11  C   UNL     1     -11.516  11.848  66.041  1.00  0.00    -0.344 A  
HETATM   12  C   UNL     1     -12.109  12.840  65.264  1.00  0.00    -0.505 A  
HETATM   13  C   UNL     1     -12.430  14.068  65.833  1.00  0.00    -0.513 A  
HETATM   14  C   UNL     1     -12.149  14.309  67.178  1.00  0.00    -0.412 A  
ENDBRANCH   6   9
TORSDOF 1
ENDMDL
MODEL       13
REMARK 921   NORMALIZED FREE ENERGY PREDICTED BY IDOCK:   -4.97 KCAL/MOL
REMARK 922        TOTAL FREE ENERGY PREDICTED BY IDOCK:   -5.56 KCAL/MOL
REMARK 923 INTER-LIGAND FREE ENERGY PREDICTED BY IDOCK:   -5.31 KCAL/MOL
REMARK 924 INTRA-LIGAND FREE ENERGY PREDICTED BY IDOCK:   -0.25 KCAL/MOL
REMARK 927      BINDING AFFINITY PREDICTED BY RF-SCORE:    0.00 PKD
ROOT
HETATM    1  C   UNL     1      -9.385  17.414  66.217  1.00  0.00    -0.217 C  
HETATM    2  N   UNL     1      -9.889  16.111  65.857  1.00  0.00    -0.340 N  
HETATM    3  C   UNL     1     -10.840  15.889  64.910  1.00  0.00    -0.400 C  
HETATM    4  O   UNL     1     -11.352  16.724  64.177  1.00  0.00    -1.194 OA 
HETATM    5  C   UNL     1     -11.186  14.429  64.889  1.00  0.00    -0.392 C  
HETATM    6  C   UNL     1     -10.159  13.786  65.823  1.00  0.00    -0.322 C  
HETATM    7  O   UNL     1      -8.432  14.874  67.147  1.00  0.00    -0.193 OA 
HETATM    8  C   UNL     1      -9.377  14.956  66.377  1.00  0.00    -0.297 C  
ENDROOT
BRANCH   6   9
HETATM    9  C   UNL     1     -10.795  12.941  66.905  1.00  0.00    -0.278 A  
HETATM   10  C   UNL     1     -11.464  13.552  67.974  1.00  0.00    -0.342 A  
HETATM   11  C   UNL     1     -12.028  12.780  68.991  1.00  0.00    -0.288 A  
HETATM   12  C   UNL     1     -11.933  11.390  68.951  1.00  0.00    -0.371 A  
HETATM   13  C   UNL     1     -11.286  10.770  67.887  1.00  0.00    -0.372 A  
HETATM   14  C   UNL     1     -10.725  11.538  66.868  1.00  0.00    -0.304 A  
ENDBRANCH   6   9
TORSDOF 1
ENDMDL
MODEL       14
REMARK 921   NORMALIZED FREE ENERGY PREDICTED BY IDOCK:   -4.95 KCAL/MOL
REMARK 922        TOTAL FREE ENERGY PREDICTED BY IDOCK:   -5.54 KCAL/MOL
REMARK 923 INTER-LIGAND FREE ENERGY PREDICTED BY IDOCK:   -5.24 KCAL/MOL
REMARK 924 INTRA-LIGAND FREE ENERGY PREDICTED BY IDOCK:   -0.30 KCAL/MOL
REMARK 927      BINDING AFFINITY PREDICTED BY RF-SCORE:    0.00 PKD
ROOT
HETATM    1  C   UNL     1     -10.592  19.089  67.502  1.00  0.00    -0.461 C  
HETATM    2  N   UNL     1     -10.025  17.815  67.135  1.00  0.00    -0.309 N  
HETATM    3  C   UNL     1      -8.916  17.661  66.360  1.00  0.00    -0.231 C  
HETATM    4  O   UNL     1      -8.198  18.550  65.926  1.00  0.00    -0.497 OA 
HETATM    5  C   UNL     1      -8.691  16.200  66.103  1.00  0.00    -0.358 C  
HETATM    6  C   UNL     1      -9.711  15.499  67.003  1.00  0.00    -0.230 C  
HETATM    7  O   UNL     1     -11.404  16.502  68.434  1.00  0.00    -0.348 OA 
HETATM    8  C   UNL     1     -10.501  16.631  67.620  1.00  0.00    -0.320 C  
ENDROOT
BRANCH   6   9
HETATM    9  C   UNL     1     -10.583  14.517  66.250  1.00  0.00    -0.304 A  
HETATM   10  C   UNL     1     -11.161  14.882  65.026  1.00  0.00    -0.422 A  
HETATM   11  C   UNL     1     -11.990  13.992  64.341  1.00  0.00    -0.480 A  
HETATM   12  C   UNL     1     -12.249  12.728  64.868  1.00  0.00    -0.519 A  
HETATM   13  C   UNL     1     -11.669  12.347  66.073  1.00  0.00    -0.469 A  
HETATM   14  C   UNL     1     -10.838  13.232  66.759  1.00  0.00    -0.289 A  
ENDBRANCH   6   9
TORSDOF 1
ENDMDL
MODEL       15
REMARK 921   NORMALIZED FREE ENERGY PREDICTED BY IDOCK:   -4.93 KCAL/MOL
REMARK 922        TOTAL FREE ENERGY PREDICTED BY IDOCK:   -5.52 KCAL/MOL
REMARK 923 INTER-LIGAND FREE ENERGY PREDICTED BY IDOCK:   -5.34 KCAL/MOL
REMARK 924 INTRA-LIGAND FREE ENERGY PREDICTED BY IDOCK:   -0.18 KCAL/MOL
REMARK 927      BINDING AFFINITY PREDICTED BY RF-SCORE:    0.00 PKD
ROOT
HETATM    1  C   UNL     1     -11.985  15.277  64.333  1.00  0.00    -0.277 C  
HETATM    2  N   UNL     1     -11.709  14.453  65.484  1.00  0.00    -0.347 N  
HETATM    3  C   UNL     1     -10.937  14.836  66.537  1.00  0.00    -0.325 C  
HETATM    4  O   UNL     1     -10.430  15.935  66.712  1.00  0.00    -0.301 OA 
HETATM    5  C   UNL     1     -10.790  13.684  67.487  1.00  0.00    -0.275 C  
HETATM    6  C   UNL     1     -11.750  12.623  66.943  1.00  0.00    -0.453 C  
HETATM    7  O   UNL     1     -13.117  12.713  64.933  1.00  0.00    -0.850 OA 
HETATM    8  C   UNL     1     -12.287  13.229  65.667  1.00  0.00    -0.465 C  
ENDROOT
BRANCH   6   9
HETATM    9  C   UNL     1     -11.082  11.283  66.721  1.00  0.00    -0.314 A  
HETATM   10  C   UNL     1     -11.143  10.292  67.710  1.00  0.00    -0.335 A  
HETATM   11  C   UNL     1     -10.504   9.065  67.523  1.00  0.00    -0.338 A  
HETATM   12  C   UNL     1      -9.800   8.813  66.347  1.00  0.00    -0.352 A  
HETATM   13  C   UNL     1      -9.746   9.781  65.350  1.00  0.00    -0.383 A  
HETATM   14  C   UNL     1     -10.385  11.007  65.532  1.00  0.00    -0.321 A  
ENDBRANCH   6   9
TORSDOF 1
ENDMDL
MODEL       16
REMARK 921   NORMALIZED FREE ENERGY PREDICTED BY IDOCK:   -4.92 KCAL/MOL
REMARK 922        TOTAL FREE ENERGY PREDICTED BY IDOCK:   -5.51 KCAL/MOL
REMARK 923 INTER-LIGAND FREE ENERGY PREDICTED BY IDOCK:   -5.33 KCAL/MOL
REMARK 924 INTRA-LIGAND FREE ENERGY PREDICTED BY IDOCK:   -0.18 KCAL/MOL
REMARK 927      BINDING AFFINITY PREDICTED BY RF-SCORE:    0.00 PKD
ROOT
HETATM    1  C   UNL     1     -12.155  15.250  64.227  1.00  0.00    -0.208 C  
HETATM    2  N   UNL     1     -11.833  14.472  65.398  1.00  0.00    -0.356 N  
HETATM    3  C   UNL     1     -11.088  14.926  66.443  1.00  0.00    -0.342 C  
HETATM    4  O   UNL     1     -10.649  16.057  66.591  1.00  0.00    -0.317 OA 
HETATM    5  C   UNL     1     -10.873  13.808  67.420  1.00  0.00    -0.285 C  
HETATM    6  C   UNL     1     -11.766  12.678  66.901  1.00  0.00    -0.453 C  
HETATM    7  O   UNL     1     -13.132  12.636  64.888  1.00  0.00    -0.850 OA 
HETATM    8  C   UNL     1     -12.336  13.220  65.610  1.00  0.00    -0.465 C  
ENDROOT
BRANCH   6   9
HETATM    9  C   UNL     1     -11.017  11.377  66.711  1.00  0.00    -0.347 A  
HETATM   10  C   UNL     1     -10.293  11.145  65.534  1.00  0.00    -0.326 A  
HETATM   11  C   UNL     1      -9.625   9.935  65.339  1.00  0.00    -0.350 A  
HETATM   12  C   UNL     1      -9.669   8.944  66.319  1.00  0.00    -0.345 A  
HETATM   13  C   UNL     1     -10.371   9.167  67.499  1.00  0.00    -0.324 A  
HETATM   14  C   UNL     1     -11.037  10.376  67.698  1.00  0.00    -0.361 A  
ENDBRANCH   6   9
TORSDOF 1
ENDMDL
MODEL       17
REMARK 921   NORMALIZED FREE ENERGY PREDICTED BY IDOCK:   -4.91 KCAL/MOL
REMARK 922        TOTAL FREE ENERGY PREDICTED BY IDOCK:   -5.50 KCAL/MOL
REMARK 923 INTER-LIGAND FREE ENERGY PREDICTED BY IDOCK:   -5.50 KCAL/MOL
REMARK 924 INTRA-LIGAND FREE ENERGY PREDICTED BY IDOCK:   -0.00 KCAL/MOL
REMARK 927      BINDING AFFINITY PREDICTED BY RF-SCORE:    0.00 PKD
ROOT
HETATM    1  C   UNL     1     -11.322   9.101  71.718  1.00  0.00    -0.381 C  
HETATM    2  N   UNL     1     -11.672  10.310  71.012  1.00  0.00    -0.369 N  
HETATM    3  C   UNL     1     -11.059  10.742  69.877  1.00  0.00    -0.271 C  
HETATM    4  O   UNL     1     -10.191  10.156  69.245  1.00  0.00    -0.196 OA 
HETATM    5  C   UNL     1     -11.614  12.083  69.495  1.00  0.00    -0.389 C  
HETATM    6  C   UNL     1     -12.785  12.293  70.457  1.00  0.00    -0.058 C  
HETATM    7  O   UNL     1     -13.520  10.855  72.277  1.00  0.00    -0.324 OA 
HETATM    8  C   UNL     1     -12.731  11.092  71.374  1.00  0.00    -0.429 C  
ENDROOT
BRANCH   6   9
HETATM    9  C   UNL     1     -12.705  13.606  71.204  1.00  0.00    -0.432 A  
HETATM   10  C   UNL     1     -11.714  14.542  70.880  1.00  0.00    -0.308 A  
HETATM   11  C   UNL     1     -11.616  15.743  71.585  1.00  0.00    -0.537 A  
HETATM   12  C   UNL     1     -12.507  16.024  72.619  1.00  0.00    -0.572 A  
HETATM   13  C   UNL     1     -13.507  15.111  72.940  1.00  0.00    -0.589 A  
HETATM   14  C   UNL     1     -13.609  13.912  72.235  1.00  0.00    -0.642 A  
ENDBRANCH   6   9
TORSDOF 1
ENDMDL
MODEL       18
REMARK 921   NORMALIZED FREE ENERGY PREDICTED BY IDOCK:   -4.89 KCAL/MOL
REMARK 922        TOTAL FREE ENERGY PREDICTED BY IDOCK:   -5.47 KCAL/MOL
REMARK 923 INTER-LIGAND FREE ENERGY PREDICTED BY IDOCK:   -5.65 KCAL/MOL
REMARK 924 INTRA-LIGAND FREE ENERGY PREDICTED BY IDOCK:    0.17 KCAL/MOL
REMARK 927      BINDING AFFINITY PREDICTED BY RF-SCORE:    0.00 PKD
ROOT
HETATM    1  C   UNL     1     -11.161   8.162  72.694  1.00  0.00    -0.380 C  
HETATM    2  N   UNL     1     -11.424   9.169  71.696  1.00  0.00    -0.358 N  
HETATM    3  C   UNL     1     -10.596   9.454  70.653  1.00  0.00    -0.290 C  
HETATM    4  O   UNL     1      -9.564   8.869  70.357  1.00  0.00    -0.171 OA 
HETATM    5  C   UNL     1     -11.145  10.625  69.892  1.00  0.00    -0.364 C  
HETATM    6  C   UNL     1     -12.521  10.868  70.516  1.00  0.00    -0.438 C  
HETATM    7  O   UNL     1     -13.552   9.715  72.394  1.00  0.00    -0.433 OA 
HETATM    8  C   UNL     1     -12.594   9.873  71.652  1.00  0.00    -0.424 C  
ENDROOT
BRANCH   6   9
HETATM    9  C   UNL     1     -12.715  12.297  70.975  1.00  0.00    -0.319 A  
HETATM   10  C   UNL     1     -12.141  13.353  70.254  1.00  0.00    -0.419 A  
HETATM   11  C   UNL     1     -12.291  14.671  70.688  1.00  0.00    -0.398 A  
HETATM   12  C   UNL     1     -13.017  14.950  71.844  1.00  0.00    -0.414 A  
HETATM   13  C   UNL     1     -13.607  13.914  72.560  1.00  0.00    -0.680 A  
HETATM   14  C   UNL     1     -13.461  12.595  72.127  1.00  0.00    -0.561 A  
ENDBRANCH   6   9
TORSDOF 1
ENDMDL
MODEL       19
REMARK 921   NORMALIZED FREE ENERGY PREDICTED BY IDOCK:   -4.87 KCAL/MOL
REMARK 922        TOTAL FREE ENERGY PREDICTED BY IDOCK:   -5.45 KCAL/MOL
REMARK 923 INTER-LIGAND FREE ENERGY PREDICTED BY IDOCK:   -5.17 KCAL/MOL
REMARK 924 INTRA-LIGAND FREE ENERGY PREDICTED BY IDOCK:   -0.28 KCAL/MOL
REMARK 927      BINDING AFFINITY PREDICTED BY RF-SCORE:    0.00 PKD
ROOT
HETATM    1  C   UNL     1      -9.700  17.306  67.053  1.00  0.00    -0.267 C  
HETATM    2  N   UNL     1     -10.562  16.159  66.896  1.00  0.00    -0.306 N  
HETATM    3  C   UNL     1     -11.187  15.521  67.924  1.00  0.00    -0.325 C  
HETATM    4  O   UNL     1     -11.182  15.851  69.101  1.00  0.00    -0.287 OA 
HETATM    5  C   UNL     1     -11.906  14.316  67.392  1.00  0.00    -0.441 C  
HETATM    6  C   UNL     1     -11.782  14.443  65.872  1.00  0.00    -0.371 C  
HETATM    7  O   UNL     1     -10.590  16.134  64.591  1.00  0.00    -0.597 OA 
HETATM    8  C   UNL     1     -10.910  15.663  65.673  1.00  0.00    -0.327 C  
ENDROOT
BRANCH   6   9
HETATM    9  C   UNL     1     -11.210  13.202  65.223  1.00  0.00    -0.315 A  
HETATM   10  C   UNL     1     -11.602  12.841  63.927  1.00  0.00    -0.518 A  
HETATM   11  C   UNL     1     -11.102  11.681  63.333  1.00  0.00    -0.422 A  
HETATM   12  C   UNL     1     -10.203  10.871  64.024  1.00  0.00    -0.422 A  
HETATM   13  C   UNL     1      -9.792  11.226  65.304  1.00  0.00    -0.291 A  
HETATM   14  C   UNL     1     -10.288  12.386  65.900  1.00  0.00    -0.282 A  
ENDBRANCH   6   9
TORSDOF 1
ENDMDL
MODEL       20
REMARK 921   NORMALIZED FREE ENERGY PREDICTED BY IDOCK:   -4.85 KCAL/MOL
REMARK 922        TOTAL FREE ENERGY PREDICTED BY IDOCK:   -5.43 KCAL/MOL
REMARK 923 INTER-LIGAND FREE ENERGY PREDICTED BY IDOCK:   -5.20 KCAL/MOL
REMARK 924 INTRA-LIGAND FREE ENERGY PREDICTED BY IDOCK:   -0.23 KCAL/MOL
REMARK 927      BINDING AFFINITY PREDICTED BY RF-SCORE:    0.00 PKD
ROOT
HETATM    1  C   UNL     1     -11.475   6.660  71.342  1.00  0.00    -0.301 C  
HETATM    2  N   UNL     1     -12.132   7.939  71.463  1.00  0.00    -0.297 N  
HETATM    3  C   UNL     1     -13.480   8.108  71.530  1.00  0.00    -0.286 C  
HETATM    4  O   UNL     1     -14.327   7.226  71.575  1.00  0.00    -0.437 OA 
HETATM    5  C   UNL     1     -13.795   9.574  71.541  1.00  0.00    -0.262 C  
HETATM    6  C   UNL     1     -12.429  10.252  71.671  1.00  0.00    -0.491 C  
HETATM    7  O   UNL     1     -10.229   9.214  71.724  1.00  0.00    -0.338 OA 
HETATM    8  C   UNL     1     -11.442   9.107  71.621  1.00  0.00    -0.381 C  
ENDROOT
BRANCH   6   9
HETATM    9  C   UNL     1     -12.181  11.288  70.596  1.00  0.00    -0.489 A  
HETATM   10  C   UNL     1     -12.325  12.652  70.885  1.00  0.00    -0.352 A  
HETATM   11  C   UNL     1     -12.127  13.611  69.891  1.00  0.00    -0.406 A  
HETATM   12  C   UNL     1     -11.779  13.221  68.599  1.00  0.00    -0.376 A  
HETATM   13  C   UNL     1     -11.616  11.872  68.302  1.00  0.00    -0.390 A  
HETATM   14  C   UNL     1     -11.811  10.910  69.294  1.00  0.00    -0.395 A  
ENDBRANCH   6   9
TORSDOF 1
ENDMDL
MODEL       21
REMARK 921   NORMALIZED FREE ENERGY PREDICTED BY IDOCK:   -4.85 KCAL/MOL
REMARK 922        TOTAL FREE ENERGY PREDICTED BY IDOCK:   -5.43 KCAL/MOL
REMARK 923 INTER-LIGAND FREE ENERGY PREDICTED BY IDOCK:   -5.33 KCAL/MOL
REMARK 924 INTRA-LIGAND FREE ENERGY PREDICTED BY IDOCK:   -0.10 KCAL/MOL
REMARK 927      BINDING AFFINITY PREDICTED BY RF-SCORE:    0.00 PKD
ROOT
HETATM    1  C   UNL     1     -12.412  12.893  65.176  1.00  0.00    -0.501 C  
HETATM    2  N   UNL     1     -11.748  12.628  66.429  1.00  0.00    -0.389 N  
HETATM    3  C   UNL     1     -11.026  11.505  66.693  1.00  0.00    -0.296 C  
HETATM    4  O   UNL     1     -10.766  10.601  65.912  1.00  0.00    -0.152 OA 
HETATM    5  C   UNL     1     -10.579  11.531  68.125  1.00  0.00    -0.226 C  
HETATM    6  C   UNL     1     -10.971  12.926  68.617  1.00  0.00    -0.295 C  
HETATM    7  O   UNL     1     -12.159  14.673  67.410  1.00  0.00    -0.352 OA 
HETATM    8  C   UNL     1     -11.702  13.539  67.444  1.00  0.00    -0.380 C  
ENDROOT
BRANCH   6   9
HETATM    9  C   UNL     1     -11.807  12.892  69.878  1.00  0.00    -0.373 A  
HETATM   10  C   UNL     1     -12.144  14.085  70.532  1.00  0.00    -0.424 A  
HETATM   11  C   UNL     1     -12.890  14.060  71.712  1.00  0.00    -0.424 A  
HETATM   12  C   UNL     1     -13.311  12.844  72.249  1.00  0.00    -0.597 A  
HETATM   13  C   UNL     1     -12.998  11.654  71.601  1.00  0.00    -0.483 A  
HETATM   14  C   UNL     1     -12.255  11.676  70.420  1.00  0.00    -0.434 A  
ENDBRANCH   6   9
TORSDOF 1
ENDMDL
MODEL       22
REMARK 921   NORMALIZED FREE ENERGY PREDICTED BY IDOCK:   -4.76 KCAL/MOL
REMARK 922        TOTAL FREE ENERGY PREDICTED BY IDOCK:   -5.34 KCAL/MOL
REMARK 923 INTER-LIGAND FREE ENERGY PREDICTED BY IDOCK:   -5.04 KCAL/MOL
REMARK 924 INTRA-LIGAND FREE ENERGY PREDICTED BY IDOCK:   -0.30 KCAL/MOL
REMARK 927      BINDING AFFINITY PREDICTED BY RF-SCORE:    0.00 PKD
ROOT
HETATM    1  C   UNL     1     -10.127  11.320  64.356  1.00  0.00    -0.303 C  
HETATM    2  N   UNL     1     -11.044  12.131  65.118  1.00  0.00    -0.314 N  
HETATM    3  C   UNL     1     -12.131  12.762  64.594  1.00  0.00    -0.423 C  
HETATM    4  O   UNL     1     -12.538  12.684  63.444  1.00  0.00    -0.695 OA 
HETATM    5  C   UNL     1     -12.780  13.594  65.660  1.00  0.00    -0.505 C  
HETATM    6  C   UNL     1     -12.038  13.210  66.942  1.00  0.00    -0.377 C  
HETATM    7  O   UNL     1     -10.152  11.694  67.198  1.00  0.00    -0.201 OA 
HETATM    8  C   UNL     1     -10.957  12.262  66.474  1.00  0.00    -0.279 C  
ENDROOT
BRANCH   6   9
HETATM    9  C   UNL     1     -11.487  14.408  67.685  1.00  0.00    -0.369 A  
HETATM   10  C   UNL     1     -11.867  14.651  69.012  1.00  0.00    -0.346 A  
HETATM   11  C   UNL     1     -11.386  15.770  69.693  1.00  0.00    -0.334 A  
HETATM   12  C   UNL     1     -10.517  16.657  69.059  1.00  0.00    -0.328 A  
HETATM   13  C   UNL     1     -10.118  16.418  67.748  1.00  0.00    -0.262 A  
HETATM   14  C   UNL     1     -10.595  15.299  67.066  1.00  0.00    -0.306 A  
ENDBRANCH   6   9
TORSDOF 1
ENDMDL
MODEL       23
REMARK 921   NORMALIZED FREE ENERGY PREDICTED BY IDOCK:   -4.73 KCAL/MOL
REMARK 922        TOTAL FREE ENERGY PREDICTED BY IDOCK:   -5.31 KCAL/MOL
REMARK 923 INTER-LIGAND FREE ENERGY PREDICTED BY IDOCK:   -5.48 KCAL/MOL
REMARK 924 INTRA-LIGAND FREE ENERGY PREDICTED BY IDOCK:    0.17 KCAL/MOL
REMARK 927      BINDING AFFINITY PREDICTED BY RF-SCORE:    0.00 PKD
ROOT
HETATM    1  C   UNL     1     -11.430  15.622  71.409  1.00  0.00    -0.421 C  
HETATM    2  N   UNL     1     -12.247  14.438  71.508  1.00  0.00    -0.347 N  
HETATM    3  C   UNL     1     -13.186  14.230  72.471  1.00  0.00    -0.490 C  
HETATM    4  O   UNL     1     -13.534  15.020  73.337  1.00  0.00    -0.487 OA 
HETATM    5  C   UNL     1     -13.753  12.849  72.318  1.00  0.00    -0.553 C  
HETATM    6  C   UNL     1     -13.157  12.341  71.004  1.00  0.00    -0.019 C  
HETATM    7  O   UNL     1     -11.558  13.449  69.543  1.00  0.00    -0.281 OA 
HETATM    8  C   UNL     1     -12.218  13.444  70.572  1.00  0.00    -0.352 C  
ENDROOT
BRANCH   6   9
HETATM    9  C   UNL     1     -12.464  11.004  71.149  1.00  0.00    -0.502 A  
HETATM   10  C   UNL     1     -12.947  10.055  72.061  1.00  0.00    -0.514 A  
HETATM   11  C   UNL     1     -12.294   8.831  72.222  1.00  0.00    -0.448 A  
HETATM   12  C   UNL     1     -11.156   8.540  71.473  1.00  0.00    -0.343 A  
HETATM   13  C   UNL     1     -10.675   9.465  70.553  1.00  0.00    -0.335 A  
HETATM   14  C   UNL     1     -11.326  10.688  70.387  1.00  0.00    -0.389 A  
ENDBRANCH   6   9
TORSDOF 1
ENDMDL
MODEL       24
REMARK 921   NORMALIZED FREE ENERGY PREDICTED BY IDOCK:   -4.71 KCAL/MOL
REMARK 922        TOTAL FREE ENERGY PREDICTED BY IDOCK:   -5.29 KCAL/MOL
REMARK 923 INTER-LIGAND FREE ENERGY PREDICTED BY IDOCK:   -5.02 KCAL/MOL
REMARK 924 INTRA-LIGAND FREE ENERGY PREDICTED BY IDOCK:   -0.26 KCAL/MOL
REMARK 927      BINDING AFFINITY PREDICTED BY RF-SCORE:    0.00 PKD
ROOT
HETATM    1  C   UNL     1     -12.436  13.652  70.344  1.00  0.00    -0.294 C  
HETATM    2  N   UNL     1     -11.507  13.437  69.261  1.00  0.00    -0.281 N  
HETATM    3  C   UNL     1     -10.494  14.286  68.938  1.00  0.00    -0.238 C  
HETATM    4  O   UNL     1     -10.167  15.299  69.540  1.00  0.00    -0.239 OA 
HETATM    5  C   UNL     1      -9.810  13.789  67.698  1.00  0.00    -0.234 C  
HETATM    6  C   UNL     1     -10.438  12.417  67.446  1.00  0.00    -0.229 C  
HETATM    7  O   UNL     1     -12.224  11.323  68.685  1.00  0.00    -0.562 OA 
HETATM    8  C   UNL     1     -11.502  12.295  68.513  1.00  0.00    -0.303 C  
ENDROOT
BRANCH   6   9
HETATM    9  C   UNL     1     -10.992  12.271  66.045  1.00  0.00    -0.327 A  
HETATM   10  C   UNL     1     -10.330  11.469  65.105  1.00  0.00    -0.329 A  
HETATM   11  C   UNL     1     -10.820  11.354  63.803  1.00  0.00    -0.468 A  
HETATM   12  C   UNL     1     -11.976  12.034  63.426  1.00  0.00    -0.571 A  
HETATM   13  C   UNL     1     -12.652  12.820  64.353  1.00  0.00    -0.431 A  
HETATM   14  C   UNL     1     -12.168  12.935  65.656  1.00  0.00    -0.519 A  
ENDBRANCH   6   9
TORSDOF 1
ENDMDL
MODEL       25
REMARK 921   NORMALIZED FREE ENERGY PREDICTED BY IDOCK:   -4.70 KCAL/MOL
REMARK 922        TOTAL FREE ENERGY PREDICTED BY IDOCK:   -5.28 KCAL/MOL
REMARK 923 INTER-LIGAND FREE ENERGY PREDICTED BY IDOCK:   -5.11 KCAL/MOL
REMARK 924 INTRA-LIGAND FREE ENERGY PREDICTED BY IDOCK:   -0.17 KCAL/MOL
REMARK 927      BINDING AFFINITY PREDICTED BY RF-SCORE:    0.00 PKD
ROOT
HETATM    1  C   UNL     1     -10.194  16.290  66.772  1.00  0.00    -0.280 C  
HETATM    2  N   UNL     1     -10.707  14.980  67.090  1.00  0.00    -0.296 N  
HETATM    3  C   UNL     1     -11.570  14.281  66.303  1.00  0.00    -0.372 C  
HETATM    4  O   UNL     1     -11.978  14.604  65.197  1.00  0.00    -0.368 OA 
HETATM    5  C   UNL     1     -11.963  13.015  67.006  1.00  0.00    -0.409 C  
HETATM    6  C   UNL     1     -11.055  12.969  68.237  1.00  0.00    -0.293 C  
HETATM    7  O   UNL     1      -9.427  14.620  68.973  1.00  0.00    -0.196 OA 
HETATM    8  C   UNL     1     -10.290  14.272  68.180  1.00  0.00    -0.233 C  
ENDROOT
BRANCH   6   9
HETATM    9  C   UNL     1     -11.823  12.795  69.529  1.00  0.00    -0.379 A  
HETATM   10  C   UNL     1     -12.363  13.910  70.184  1.00  0.00    -0.400 A  
HETATM   11  C   UNL     1     -13.047  13.760  71.391  1.00  0.00    -0.413 A  
HETATM   12  C   UNL     1     -13.202  12.496  71.957  1.00  0.00    -0.524 A  
HETATM   13  C   UNL     1     -12.685  11.379  71.310  1.00  0.00    -0.498 A  
HETATM   14  C   UNL     1     -12.004  11.525  70.101  1.00  0.00    -0.452 A  
ENDBRANCH   6   9
TORSDOF 1
ENDMDL
MODEL       26
REMARK 921   NORMALIZED FREE ENERGY PREDICTED BY IDOCK:   -4.70 KCAL/MOL
REMARK 922        TOTAL FREE ENERGY PREDICTED BY IDOCK:   -5.28 KCAL/MOL
REMARK 923 INTER-LIGAND FREE ENERGY PREDICTED BY IDOCK:   -5.43 KCAL/MOL
REMARK 924 INTRA-LIGAND FREE ENERGY PREDICTED BY IDOCK:    0.16 KCAL/MOL
REMARK 927      BINDING AFFINITY PREDICTED BY RF-SCORE:    0.00 PKD
ROOT
HETATM    1  C   UNL     1     -12.104  14.480  70.771  1.00  0.00    -0.329 C  
HETATM    2  N   UNL     1     -12.458  13.098  70.984  1.00  0.00    -0.364 N  
HETATM    3  C   UNL     1     -13.377  12.671  71.893  1.00  0.00    -0.387 C  
HETATM    4  O   UNL     1     -14.086  13.371  72.602  1.00  0.00    -0.767 OA 
HETATM    5  C   UNL     1     -13.399  11.171  71.905  1.00  0.00    -0.409 C  
HETATM    6  C   UNL     1     -12.504  10.771  70.730  1.00  0.00    -0.481 C  
HETATM    7  O   UNL     1     -11.226  12.216  69.247  1.00  0.00    -0.250 OA 
HETATM    8  C   UNL     1     -11.965  12.086  70.211  1.00  0.00    -0.314 C  
ENDROOT
BRANCH   6   9
HETATM    9  C   UNL     1     -11.409   9.804  71.127  1.00  0.00    -0.459 A  
HETATM   10  C   UNL     1     -11.603   8.921  72.197  1.00  0.00    -0.400 A  
HETATM   11  C   UNL     1     -10.586   8.047  72.587  1.00  0.00    -0.419 A  
HETATM   12  C   UNL     1      -9.367   8.043  71.911  1.00  0.00    -0.225 A  
HETATM   13  C   UNL     1      -9.168   8.903  70.836  1.00  0.00    -0.286 A  
HETATM   14  C   UNL     1     -10.182   9.776  70.442  1.00  0.00    -0.343 A  
ENDBRANCH   6   9
TORSDOF 1
ENDMDL
MODEL       27
REMARK 921   NORMALIZED FREE ENERGY PREDICTED BY IDOCK:   -4.70 KCAL/MOL
REMARK 922        TOTAL FREE ENERGY PREDICTED BY IDOCK:   -5.27 KCAL/MOL
REMARK 923 INTER-LIGAND FREE ENERGY PREDICTED BY IDOCK:   -4.98 KCAL/MOL
REMARK 924 INTRA-LIGAND FREE ENERGY PREDICTED BY IDOCK:   -0.29 KCAL/MOL
REMARK 927      BINDING AFFINITY PREDICTED BY RF-SCORE:    0.00 PKD
ROOT
HETATM    1  C   UNL     1     -12.564  10.629  70.478  1.00  0.00    -0.348 C  
HETATM    2  N   UNL     1     -11.833  11.463  69.555  1.00  0.00    -0.328 N  
HETATM    3  C   UNL     1     -11.713  12.814  69.670  1.00  0.00    -0.302 C  
HETATM    4  O   UNL     1     -12.126  13.511  70.586  1.00  0.00    -0.344 OA 
HETATM    5  C   UNL     1     -10.978  13.347  68.475  1.00  0.00    -0.292 C  
HETATM    6  C   UNL     1     -10.506  12.095  67.734  1.00  0.00    -0.222 C  
HETATM    7  O   UNL     1     -10.942   9.764  68.278  1.00  0.00    -0.229 OA 
HETATM    8  C   UNL     1     -11.104  10.951  68.521  1.00  0.00    -0.256 C  
ENDROOT
BRANCH   6   9
HETATM    9  C   UNL     1     -10.918  12.083  66.277  1.00  0.00    -0.340 A  
HETATM   10  C   UNL     1     -12.126  12.673  65.882  1.00  0.00    -0.459 A  
HETATM   11  C   UNL     1     -12.526  12.640  64.545  1.00  0.00    -0.525 A  
HETATM   12  C   UNL     1     -11.724  12.020  63.588  1.00  0.00    -0.587 A  
HETATM   13  C   UNL     1     -10.514  11.445  63.964  1.00  0.00    -0.435 A  
HETATM   14  C   UNL     1     -10.110  11.479  65.299  1.00  0.00    -0.314 A  
ENDBRANCH   6   9
TORSDOF 1
ENDMDL
MODEL       28
REMARK 921   NORMALIZED FREE ENERGY PREDICTED BY IDOCK:   -4.68 KCAL/MOL
REMARK 922        TOTAL FREE ENERGY PREDICTED BY IDOCK:   -5.26 KCAL/MOL
REMARK 923 INTER-LIGAND FREE ENERGY PREDICTED BY IDOCK:   -5.12 KCAL/MOL
REMARK 924 INTRA-LIGAND FREE ENERGY PREDICTED BY IDOCK:   -0.14 KCAL/MOL
REMARK 927      BINDING AFFINITY PREDICTED BY RF-SCORE:    0.00 PKD
ROOT
HETATM    1  C   UNL     1     -10.127  14.882  66.016  1.00  0.00    -0.311 C  
HETATM    2  N   UNL     1     -10.221  16.306  66.227  1.00  0.00    -0.312 N  
HETATM    3  C   UNL     1     -10.766  17.181  65.339  1.00  0.00    -0.088 C  
HETATM    4  O   UNL     1     -11.319  16.904  64.284  1.00  0.00    -1.202 OA 
HETATM    5  C   UNL     1     -10.590  18.580  65.852  1.00  0.00    -0.336 C  
HETATM    6  C   UNL     1     -10.037  18.395  67.267  1.00  0.00    -0.369 C  
HETATM    7  O   UNL     1      -9.453  16.323  68.401  1.00  0.00    -0.206 OA 
HETATM    8  C   UNL     1      -9.851  16.900  67.400  1.00  0.00    -0.261 C  
ENDROOT
BRANCH   6   9
HETATM    9  C   UNL     1      -8.758  19.169  67.505  1.00  0.00    -0.322 A  
HETATM   10  C   UNL     1      -8.106  19.798  66.437  1.00  0.00    -0.350 A  
HETATM   11  C   UNL     1      -6.910  20.488  66.645  1.00  0.00    -0.316 A  
HETATM   12  C   UNL     1      -6.355  20.561  67.921  1.00  0.00    -0.327 A  
HETATM   13  C   UNL     1      -7.001  19.955  68.994  1.00  0.00    -0.327 A  
HETATM   14  C   UNL     1      -8.198  19.267  68.790  1.00  0.00    -0.390 A  
ENDBRANCH   6   9
TORSDOF 1
ENDMDL
MODEL       29
REMARK 921   NORMALIZED FREE ENERGY PREDICTED BY IDOCK:   -4.68 KCAL/MOL
REMARK 922        TOTAL FREE ENERGY PREDICTED BY IDOCK:   -5.25 KCAL/MOL
REMARK 923 INTER-LIGAND FREE ENERGY PREDICTED BY IDOCK:   -4.96 KCAL/MOL
REMARK 924 INTRA-LIGAND FREE ENERGY PREDICTED BY IDOCK:   -0.30 KCAL/MOL
REMARK 927      BINDING AFFINITY PREDICTED BY RF-SCORE:    0.00 PKD
ROOT
HETATM    1  C   UNL     1     -12.002  13.931  67.252  1.00  0.00    -0.411 C  
HETATM    2  N   UNL     1     -11.333  14.919  68.063  1.00  0.00    -0.311 N  
HETATM    3  C   UNL     1     -11.729  15.284  69.313  1.00  0.00    -0.338 C  
HETATM    4  O   UNL     1     -12.642  14.795  69.963  1.00  0.00    -0.301 OA 
HETATM    5  C   UNL     1     -10.861  16.407  69.798  1.00  0.00    -0.343 C  
HETATM    6  C   UNL     1      -9.765  16.522  68.736  1.00  0.00    -0.251 C  
HETATM    7  O   UNL     1      -9.534  15.267  66.664  1.00  0.00    -0.229 OA 
HETATM    8  C   UNL     1     -10.166  15.515  67.681  1.00  0.00    -0.255 C  
ENDROOT
BRANCH   6   9
HETATM    9  C   UNL     1      -9.624  17.924  68.185  1.00  0.00    -0.306 A  
HETATM   10  C   UNL     1     -10.704  18.538  67.536  1.00  0.00    -0.419 A  
HETATM   11  C   UNL     1     -10.571  19.820  66.999  1.00  0.00    -0.586 A  
HETATM   12  C   UNL     1      -9.362  20.504  67.108  1.00  0.00    -0.513 A  
HETATM   13  C   UNL     1      -8.287  19.913  67.764  1.00  0.00    -0.343 A  
HETATM   14  C   UNL     1      -8.417  18.634  68.304  1.00  0.00    -0.350 A  
ENDBRANCH   6   9
TORSDOF 1
ENDMDL
MODEL       30
REMARK 921   NORMALIZED FREE ENERGY PREDICTED BY IDOCK:   -4.66 KCAL/MOL
REMARK 922        TOTAL FREE ENERGY PREDICTED BY IDOCK:   -5.24 KCAL/MOL
REMARK 923 INTER-LIGAND FREE ENERGY PREDICTED BY IDOCK:   -5.04 KCAL/MOL
REMARK 924 INTRA-LIGAND FREE ENERGY PREDICTED BY IDOCK:   -0.19 KCAL/MOL
REMARK 927      BINDING AFFINITY PREDICTED BY RF-SCORE:    0.00 PKD
ROOT
HETATM    1  C   UNL     1      -9.611  18.640  66.386  1.00  0.00    -0.325 C  
HETATM    2  N   UNL     1      -9.976  17.252  66.531  1.00  0.00    -0.292 N  
HETATM    3  C   UNL     1     -10.679  16.541  65.608  1.00  0.00    -0.248 C  
HETATM    4  O   UNL     1     -11.039  16.928  64.505  1.00  0.00    -1.054 OA 
HETATM    5  C   UNL     1     -10.962  15.171  66.149  1.00  0.00    -0.331 C  
HETATM    6  C   UNL     1     -10.153  15.105  67.447  1.00  0.00    -0.229 C  
HETATM    7  O   UNL     1      -8.810  16.851  68.479  1.00  0.00    -0.234 OA 
HETATM    8  C   UNL     1      -9.558  16.488  67.583  1.00  0.00    -0.235 C  
ENDROOT
BRANCH   6   9
HETATM    9  C   UNL     1     -10.990  14.706  68.643  1.00  0.00    -0.266 A  
HETATM   10  C   UNL     1     -11.023  13.371  69.067  1.00  0.00    -0.265 A  
HETATM   11  C   UNL     1     -11.816  12.991  70.151  1.00  0.00    -0.324 A  
HETATM   12  C   UNL     1     -12.583  13.940  70.825  1.00  0.00    -0.424 A  
HETATM   13  C   UNL     1     -12.547  15.271  70.425  1.00  0.00    -0.421 A  
HETATM   14  C   UNL     1     -11.753  15.655  69.344  1.00  0.00    -0.395 A  
ENDBRANCH   6   9
TORSDOF 1
ENDMDL
MODEL       31
REMARK 921   NORMALIZED FREE ENERGY PREDICTED BY IDOCK:   -4.64 KCAL/MOL
REMARK 922        TOTAL FREE ENERGY PREDICTED BY IDOCK:   -5.21 KCAL/MOL
REMARK 923 INTER-LIGAND FREE ENERGY PREDICTED BY IDOCK:   -5.00 KCAL/MOL
REMARK 924 INTRA-LIGAND FREE ENERGY PREDICTED BY IDOCK:   -0.21 KCAL/MOL
REMARK 927      BINDING AFFINITY PREDICTED BY RF-SCORE:    0.00 PKD
ROOT
HETATM    1  C   UNL     1      -8.200  17.774  68.637  1.00  0.00    -0.271 C  
HETATM    2  N   UNL     1      -9.373  16.936  68.658  1.00  0.00    -0.261 N  
HETATM    3  C   UNL     1     -10.485  17.150  67.902  1.00  0.00    -0.369 C  
HETATM    4  O   UNL     1     -10.636  18.016  67.052  1.00  0.00    -0.366 OA 
HETATM    5  C   UNL     1     -11.534  16.143  68.269  1.00  0.00    -0.259 C  
HETATM    6  C   UNL     1     -10.814  15.176  69.212  1.00  0.00    -0.255 C  
HETATM    7  O   UNL     1      -8.528  15.294  70.038  1.00  0.00    -0.003 OA 
HETATM    8  C   UNL     1      -9.437  15.778  69.379  1.00  0.00    -0.275 C  
ENDROOT
BRANCH   6   9
HETATM    9  C   UNL     1     -11.536  14.988  70.528  1.00  0.00    -0.343 A  
HETATM   10  C   UNL     1     -12.351  13.866  70.732  1.00  0.00    -0.449 A  
HETATM   11  C   UNL     1     -13.044  13.703  71.932  1.00  0.00    -0.476 A  
HETATM   12  C   UNL     1     -12.929  14.655  72.944  1.00  0.00    -0.592 A  
HETATM   13  C   UNL     1     -12.111  15.765  72.761  1.00  0.00    -0.596 A  
HETATM   14  C   UNL     1     -11.415  15.930  71.564  1.00  0.00    -0.484 A  
ENDBRANCH   6   9
TORSDOF 1
ENDMDL
MODEL       32
REMARK 921   NORMALIZED FREE ENERGY PREDICTED BY IDOCK:   -4.62 KCAL/MOL
REMARK 922        TOTAL FREE ENERGY PREDICTED BY IDOCK:   -5.19 KCAL/MOL
REMARK 923 INTER-LIGAND FREE ENERGY PREDICTED BY IDOCK:   -5.10 KCAL/MOL
REMARK 924 INTRA-LIGAND FREE ENERGY PREDICTED BY IDOCK:   -0.09 KCAL/MOL
REMARK 927      BINDING AFFINITY PREDICTED BY RF-SCORE:    0.00 PKD
ROOT
HETATM    1  C   UNL     1     -12.058   7.270  71.972  1.00  0.00    -0.290 C  
HETATM    2  N   UNL     1     -12.294   8.684  71.813  1.00  0.00    -0.325 N  
HETATM    3  C   UNL     1     -13.442   9.318  72.179  1.00  0.00    -0.473 C  
HETATM    4  O   UNL     1     -14.400   8.822  72.755  1.00  0.00    -0.569 OA 
HETATM    5  C   UNL     1     -13.366  10.757  71.764  1.00  0.00    -0.429 C  
HETATM    6  C   UNL     1     -11.926  10.933  71.276  1.00  0.00    -0.226 C  
HETATM    7  O   UNL     1     -10.179   9.249  71.090  1.00  0.00    -0.287 OA 
HETATM    8  C   UNL     1     -11.334   9.544  71.362  1.00  0.00    -0.392 C  
ENDROOT
BRANCH   6   9
HETATM    9  C   UNL     1     -11.843  11.520  69.884  1.00  0.00    -0.430 A  
HETATM   10  C   UNL     1     -11.756  10.678  68.767  1.00  0.00    -0.259 A  
HETATM   11  C   UNL     1     -11.650  11.214  67.483  1.00  0.00    -0.220 A  
HETATM   12  C   UNL     1     -11.633  12.595  67.298  1.00  0.00    -0.428 A  
HETATM   13  C   UNL     1     -11.736  13.443  68.396  1.00  0.00    -0.390 A  
HETATM   14  C   UNL     1     -11.845  12.911  69.681  1.00  0.00    -0.387 A  
ENDBRANCH   6   9
TORSDOF 1
ENDMDL
MODEL       33
REMARK 921   NORMALIZED FREE ENERGY PREDICTED BY IDOCK:   -4.62 KCAL/MOL
REMARK 922        TOTAL FREE ENERGY PREDICTED BY IDOCK:   -5.19 KCAL/MOL
REMARK 923 INTER-LIGAND FREE ENERGY PREDICTED BY IDOCK:   -5.16 KCAL/MOL
REMARK 924 INTRA-LIGAND FREE ENERGY PREDICTED BY IDOCK:   -0.04 KCAL/MOL
REMARK 927      BINDING AFFINITY PREDICTED BY RF-SCORE:    0.00 PKD
ROOT
HETATM    1  C   UNL     1     -12.904  12.891  71.209  1.00  0.00    -0.270 C  
HETATM    2  N   UNL     1     -12.292  13.857  70.329  1.00  0.00    -0.343 N  
HETATM    3  C   UNL     1     -12.421  15.205  70.458  1.00  0.00    -0.379 C  
HETATM    4  O   UNL     1     -12.996  15.803  71.357  1.00  0.00    -0.478 OA 
HETATM    5  C   UNL     1     -11.739  15.880  69.305  1.00  0.00    -0.360 C  
HETATM    6  C   UNL     1     -11.015  14.744  68.579  1.00  0.00    -0.265 C  
HETATM    7  O   UNL     1     -11.050  12.364  69.086  1.00  0.00    -0.244 OA 
HETATM    8  C   UNL     1     -11.434  13.499  69.329  1.00  0.00    -0.291 C  
ENDROOT
BRANCH   6   9
HETATM    9  C   UNL     1     -11.348  14.680  67.104  1.00  0.00    -0.365 A  
HETATM   10  C   UNL     1     -10.738  15.565  66.205  1.00  0.00    -0.315 A  
HETATM   11  C   UNL     1     -11.063  15.532  64.848  1.00  0.00    -0.428 A  
HETATM   12  C   UNL     1     -11.998  14.614  64.373  1.00  0.00    -0.454 A  
HETATM   13  C   UNL     1     -12.599  13.718  65.252  1.00  0.00    -0.510 A  
HETATM   14  C   UNL     1     -12.274  13.747  66.608  1.00  0.00    -0.454 A  
ENDBRANCH   6   9
TORSDOF 1
ENDMDL
MODEL       34
REMARK 921   NORMALIZED FREE ENERGY PREDICTED BY IDOCK:   -4.60 KCAL/MOL
REMARK 922        TOTAL FREE ENERGY PREDICTED BY IDOCK:   -5.17 KCAL/MOL
REMARK 923 INTER-LIGAND FREE ENERGY PREDICTED BY IDOCK:   -4.97 KCAL/MOL
REMARK 924 INTRA-LIGAND FREE ENERGY PREDICTED BY IDOCK:   -0.20 KCAL/MOL
REMARK 927      BINDING AFFINITY PREDICTED BY RF-SCORE:    0.00 PKD
ROOT
HETATM    1  C   UNL     1     -11.170  15.973  69.621  1.00  0.00    -0.336 C  
HETATM    2  N   UNL     1     -10.703  15.826  68.264  1.00  0.00    -0.270 N  
HETATM    3  C   UNL     1     -10.584  16.852  67.376  1.00  0.00    -0.294 C  
HETATM    4  O   UNL     1     -10.774  18.039  67.600  1.00  0.00    -0.415 OA 
HETATM    5  C   UNL     1     -10.175  16.304  66.041  1.00  0.00    -0.376 C  
HETATM    6  C   UNL     1      -9.874  14.829  66.315  1.00  0.00    -0.316 C  
HETATM    7  O   UNL     1     -10.118  13.601  68.401  1.00  0.00    -0.234 OA 
HETATM    8  C   UNL     1     -10.239  14.641  67.770  1.00  0.00    -0.229 C  
ENDROOT
BRANCH   6   9
HETATM    9  C   UNL     1     -10.629  13.894  65.395  1.00  0.00    -0.344 A  
HETATM   10  C   UNL     1     -10.227  12.558  65.263  1.00  0.00    -0.302 A  
HETATM   11  C   UNL     1     -10.900  11.698  64.394  1.00  0.00    -0.399 A  
HETATM   12  C   UNL     1     -11.984  12.160  63.650  1.00  0.00    -0.628 A  
HETATM   13  C   UNL     1     -12.405  13.479  63.784  1.00  0.00    -0.392 A  
HETATM   14  C   UNL     1     -11.736  14.341  64.654  1.00  0.00    -0.439 A  
ENDBRANCH   6   9
TORSDOF 1
ENDMDL
MODEL       35
REMARK 921   NORMALIZED FREE ENERGY PREDICTED BY IDOCK:   -4.59 KCAL/MOL
REMARK 922        TOTAL FREE ENERGY PREDICTED BY IDOCK:   -5.17 KCAL/MOL
REMARK 923 INTER-LIGAND FREE ENERGY PREDICTED BY IDOCK:   -4.87 KCAL/MOL
REMARK 924 INTRA-LIGAND FREE ENERGY PREDICTED BY IDOCK:   -0.30 KCAL/MOL
REMARK 927      BINDING AFFINITY PREDICTED BY RF-SCORE:    0.00 PKD
ROOT
HETATM    1  C   UNL     1      -8.849   5.707  72.436  1.00  0.00    -0.135 C  
HETATM    2  N   UNL     1     -10.076   6.206  71.865  1.00  0.00    -0.188 N  
HETATM    3  C   UNL     1     -10.603   5.780  70.684  1.00  0.00    -0.277 C  
HETATM    4  O   UNL     1     -10.178   4.880  69.975  1.00  0.00    -0.264 OA 
HETATM    5  C   UNL     1     -11.820   6.597  70.364  1.00  0.00    -0.407 C  
HETATM    6  C   UNL     1     -12.052   7.436  71.623  1.00  0.00    -0.349 C  
HETATM    7  O   UNL     1     -10.701   7.532  73.644  1.00  0.00    -0.343 OA 
HETATM    8  C   UNL     1     -10.881   7.095  72.517  1.00  0.00    -0.264 C  
ENDROOT
BRANCH   6   9
HETATM    9  C   UNL     1     -12.156   8.918  71.332  1.00  0.00    -0.381 A  
HETATM   10  C   UNL     1     -11.345   9.502  70.351  1.00  0.00    -0.318 A  
HETATM   11  C   UNL     1     -11.414  10.873  70.099  1.00  0.00    -0.405 A  
HETATM   12  C   UNL     1     -12.297  11.675  70.820  1.00  0.00    -0.454 A  
HETATM   13  C   UNL     1     -13.120  11.105  71.785  1.00  0.00    -0.536 A  
HETATM   14  C   UNL     1     -13.055   9.735  72.038  1.00  0.00    -0.546 A  
ENDBRANCH   6   9
TORSDOF 1
ENDMDL
MODEL       36
REMARK 921   NORMALIZED FREE ENERGY PREDICTED BY IDOCK:   -4.59 KCAL/MOL
REMARK 922        TOTAL FREE ENERGY PREDICTED BY IDOCK:   -5.16 KCAL/MOL
REMARK 923 INTER-LIGAND FREE ENERGY PREDICTED BY IDOCK:   -5.00 KCAL/MOL
REMARK 924 INTRA-LIGAND FREE ENERGY PREDICTED BY IDOCK:   -0.16 KCAL/MOL
REMARK 927      BINDING AFFINITY PREDICTED BY RF-SCORE:    0.00 PKD
ROOT
HETATM    1  C   UNL     1     -10.537  13.619  67.202  1.00  0.00    -0.272 C  
HETATM    2  N   UNL     1     -11.264  13.204  68.376  1.00  0.00    -0.254 N  
HETATM    3  C   UNL     1     -11.509  14.002  69.452  1.00  0.00    -0.290 C  
HETATM    4  O   UNL     1     -11.228  15.187  69.563  1.00  0.00    -0.242 OA 
HETATM    5  C   UNL     1     -12.194  13.198  70.518  1.00  0.00    -0.405 C  
HETATM    6  C   UNL     1     -12.498  11.859  69.842  1.00  0.00    -0.046 C  
HETATM    7  O   UNL     1     -11.907  11.132  67.597  1.00  0.00    -0.612 OA 
HETATM    8  C   UNL     1     -11.866  11.982  68.474  1.00  0.00    -0.311 C  
ENDROOT
BRANCH   6   9
HETATM    9  C   UNL     1     -11.977  10.673  70.625  1.00  0.00    -0.466 A  
HETATM   10  C   UNL     1     -12.801  10.026  71.555  1.00  0.00    -0.537 A  
HETATM   11  C   UNL     1     -12.318   8.950  72.302  1.00  0.00    -0.430 A  
HETATM   12  C   UNL     1     -11.008   8.506  72.125  1.00  0.00    -0.427 A  
HETATM   13  C   UNL     1     -10.185   9.129  71.193  1.00  0.00    -0.384 A  
HETATM   14  C   UNL     1     -10.666  10.202  70.443  1.00  0.00    -0.329 A  
ENDBRANCH   6   9
TORSDOF 1
ENDMDL
MODEL       37
REMARK 921   NORMALIZED FREE ENERGY PREDICTED BY IDOCK:   -4.57 KCAL/MOL
REMARK 922        TOTAL FREE ENERGY PREDICTED BY IDOCK:   -5.14 KCAL/MOL
REMARK 923 INTER-LIGAND FREE ENERGY PREDICTED BY IDOCK:   -5.09 KCAL/MOL
REMARK 924 INTRA-LIGAND FREE ENERGY PREDICTED BY IDOCK:   -0.05 KCAL/MOL
REMARK 927      BINDING AFFINITY PREDICTED BY RF-SCORE:    0.00 PKD
ROOT
HETATM    1  C   UNL     1     -12.983  10.444  71.242  1.00  0.00    -0.419 C  
HETATM    2  N   UNL     1     -12.362  11.535  70.531  1.00  0.00    -0.354 N  
HETATM    3  C   UNL     1     -12.485  12.846  70.875  1.00  0.00    -0.296 C  
HETATM    4  O   UNL     1     -13.061  13.294  71.856  1.00  0.00    -0.386 OA 
HETATM    5  C   UNL     1     -11.794  13.693  69.847  1.00  0.00    -0.389 C  
HETATM    6  C   UNL     1     -11.072  12.684  68.951  1.00  0.00    -0.307 C  
HETATM    7  O   UNL     1     -11.121  10.254  69.069  1.00  0.00    -0.225 OA 
HETATM    8  C   UNL     1     -11.501  11.337  69.490  1.00  0.00    -0.307 C  
ENDROOT
BRANCH   6   9
HETATM    9  C   UNL     1     -11.399  12.860  67.484  1.00  0.00    -0.354 A  
HETATM   10  C   UNL     1     -10.815  12.020  66.526  1.00  0.00    -0.314 A  
HETATM   11  C   UNL     1     -11.089  12.196  65.169  1.00  0.00    -0.369 A  
HETATM   12  C   UNL     1     -11.950  13.210  64.753  1.00  0.00    -0.435 A  
HETATM   13  C   UNL     1     -12.549  14.041  65.694  1.00  0.00    -0.542 A  
HETATM   14  C   UNL     1     -12.280  13.865  67.052  1.00  0.00    -0.392 A  
ENDBRANCH   6   9
TORSDOF 1
ENDMDL
MODEL       38
REMARK 921   NORMALIZED FREE ENERGY PREDICTED BY IDOCK:   -4.55 KCAL/MOL
REMARK 922        TOTAL FREE ENERGY PREDICTED BY IDOCK:   -5.12 KCAL/MOL
REMARK 923 INTER-LIGAND FREE ENERGY PREDICTED BY IDOCK:   -4.83 KCAL/MOL
REMARK 924 INTRA-LIGAND FREE ENERGY PREDICTED BY IDOCK:   -0.30 KCAL/MOL
REMARK 927      BINDING AFFINITY PREDICTED BY RF-SCORE:    0.00 PKD
ROOT
HETATM    1  C   UNL     1     -13.118  12.101  63.927  1.00  0.00    -0.068 C  
HETATM    2  N   UNL     1     -11.923  12.758  64.398  1.00  0.00    -0.374 N  
HETATM    3  C   UNL     1     -10.808  12.108  64.829  1.00  0.00    -0.307 C  
HETATM    4  O   UNL     1     -10.612  10.901  64.815  1.00  0.00    -0.315 OA 
HETATM    5  C   UNL     1      -9.818  13.113  65.341  1.00  0.00    -0.123 C  
HETATM    6  C   UNL     1     -10.427  14.466  64.968  1.00  0.00    -0.454 C  
HETATM    7  O   UNL     1     -12.568  14.915  63.902  1.00  0.00    -0.831 OA 
HETATM    8  C   UNL     1     -11.768  14.114  64.363  1.00  0.00    -0.392 C  
ENDROOT
BRANCH   6   9
HETATM    9  C   UNL     1     -10.545  15.404  66.150  1.00  0.00    -0.321 A  
HETATM   10  C   UNL     1     -10.315  16.777  65.986  1.00  0.00    -0.346 A  
HETATM   11  C   UNL     1     -10.393  17.643  67.077  1.00  0.00    -0.330 A  
HETATM   12  C   UNL     1     -10.704  17.150  68.343  1.00  0.00    -0.347 A  
HETATM   13  C   UNL     1     -10.951  15.793  68.517  1.00  0.00    -0.312 A  
HETATM   14  C   UNL     1     -10.877  14.924  67.428  1.00  0.00    -0.304 A  
ENDBRANCH   6   9
TORSDOF 1
ENDMDL
MODEL       39
REMARK 921   NORMALIZED FREE ENERGY PREDICTED BY IDOCK:   -4.55 KCAL/MOL
REMARK 922        TOTAL FREE ENERGY PREDICTED BY IDOCK:   -5.11 KCAL/MOL
REMARK 923 INTER-LIGAND FREE ENERGY PREDICTED BY IDOCK:   -4.81 KCAL/MOL
REMARK 924 INTRA-LIGAND FREE ENERGY PREDICTED BY IDOCK:   -0.30 KCAL/MOL
REMARK 927      BINDING AFFINITY PREDICTED BY RF-SCORE:    0.00 PKD
ROOT
HETATM    1  C   UNL     1     -11.423  15.652  64.662  1.00  0.00    -0.303 C  
HETATM    2  N   UNL     1     -11.224  14.250  64.937  1.00  0.00    -0.360 N  
HETATM    3  C   UNL     1     -11.874  13.241  64.296  1.00  0.00    -0.417 C  
HETATM    4  O   UNL     1     -12.653  13.350  63.360  1.00  0.00    -0.738 OA 
HETATM    5  C   UNL     1     -11.490  11.932  64.920  1.00  0.00    -0.315 C  
HETATM    6  C   UNL     1     -10.366  12.293  65.893  1.00  0.00    -0.280 C  
HETATM    7  O   UNL     1      -9.473  14.495  66.417  1.00  0.00    -0.276 OA 
HETATM    8  C   UNL     1     -10.276  13.801  65.811  1.00  0.00    -0.311 C  
ENDROOT
BRANCH   6   9
HETATM    9  C   UNL     1     -10.621  11.796  67.299  1.00  0.00    -0.259 A  
HETATM   10  C   UNL     1      -9.704  10.938  67.921  1.00  0.00    -0.178 A  
HETATM   11  C   UNL     1      -9.948  10.452  69.206  1.00  0.00    -0.246 A  
HETATM   12  C   UNL     1     -11.107  10.819  69.887  1.00  0.00    -0.339 A  
HETATM   13  C   UNL     1     -12.018  11.684  69.288  1.00  0.00    -0.382 A  
HETATM   14  C   UNL     1     -11.776  12.174  68.005  1.00  0.00    -0.409 A  
ENDBRANCH   6   9
TORSDOF 1
ENDMDL
MODEL       40
REMARK 921   NORMALIZED FREE ENERGY PREDICTED BY IDOCK:   -4.52 KCAL/MOL
REMARK 922        TOTAL FREE ENERGY PREDICTED BY IDOCK:   -5.08 KCAL/MOL
REMARK 923 INTER-LIGAND FREE ENERGY PREDICTED BY IDOCK:   -4.79 KCAL/MOL
REMARK 924 INTRA-LIGAND FREE ENERGY PREDICTED BY IDOCK:   -0.29 KCAL/MOL
REMARK 927      BINDING AFFINITY PREDICTED BY RF-SCORE:    0.00 PKD
ROOT
HETATM    1  C   UNL     1      -8.987  13.111  67.039  1.00  0.00    -0.228 C  
HETATM    2  N   UNL     1      -9.679  14.309  66.631  1.00  0.00    -0.276 N  
HETATM    3  C   UNL     1     -10.195  14.514  65.389  1.00  0.00    -0.389 C  
HETATM    4  O   UNL     1     -10.225  13.711  64.467  1.00  0.00    -0.402 OA 
HETATM    5  C   UNL     1     -10.742  15.908  65.304  1.00  0.00    -0.442 C  
HETATM    6  C   UNL     1     -10.654  16.435  66.738  1.00  0.00    -0.238 C  
HETATM    7  O   UNL     1      -9.729  15.329  68.698  1.00  0.00    -0.199 OA 
HETATM    8  C   UNL     1      -9.967  15.323  67.499  1.00  0.00    -0.226 C  
ENDROOT
BRANCH   6   9
HETATM    9  C   UNL     1      -9.919  17.754  66.837  1.00  0.00    -0.332 A  
HETATM   10  C   UNL     1     -10.591  18.903  67.276  1.00  0.00    -0.529 A  
HETATM   11  C   UNL     1      -9.927  20.130  67.341  1.00  0.00    -0.570 A  
HETATM   12  C   UNL     1      -8.586  20.222  66.972  1.00  0.00    -0.398 A  
HETATM   13  C   UNL     1      -7.904  19.086  66.550  1.00  0.00    -0.279 A  
HETATM   14  C   UNL     1      -8.563  17.859  66.487  1.00  0.00    -0.279 A  
ENDBRANCH   6   9
TORSDOF 1
ENDMDL
MODEL       41
REMARK 921   NORMALIZED FREE ENERGY PREDICTED BY IDOCK:   -4.51 KCAL/MOL
REMARK 922        TOTAL FREE ENERGY PREDICTED BY IDOCK:   -5.08 KCAL/MOL
REMARK 923 INTER-LIGAND FREE ENERGY PREDICTED BY IDOCK:   -5.03 KCAL/MOL
REMARK 924 INTRA-LIGAND FREE ENERGY PREDICTED BY IDOCK:   -0.05 KCAL/MOL
REMARK 927      BINDING AFFINITY PREDICTED BY RF-SCORE:    0.00 PKD
ROOT
HETATM    1  C   UNL     1      -9.653  14.820  66.456  1.00  0.00    -0.284 C  
HETATM    2  N   UNL     1     -10.273  14.894  67.756  1.00  0.00    -0.235 N  
HETATM    3  C   UNL     1      -9.731  15.528  68.831  1.00  0.00    -0.223 C  
HETATM    4  O   UNL     1      -8.700  16.185  68.850  1.00  0.00    -0.223 OA 
HETATM    5  C   UNL     1     -10.604  15.303  70.030  1.00  0.00    -0.288 C  
HETATM    6  C   UNL     1     -11.846  14.609  69.466  1.00  0.00    -0.374 C  
HETATM    7  O   UNL     1     -12.275  13.909  67.176  1.00  0.00    -0.406 OA 
HETATM    8  C   UNL     1     -11.525  14.408  68.002  1.00  0.00    -0.310 C  
ENDROOT
BRANCH   6   9
HETATM    9  C   UNL     1     -12.172  13.314  70.178  1.00  0.00    -0.376 A  
HETATM   10  C   UNL     1     -11.770  12.088  69.631  1.00  0.00    -0.405 A  
HETATM   11  C   UNL     1     -12.093  10.889  70.268  1.00  0.00    -0.440 A  
HETATM   12  C   UNL     1     -12.817  10.899  71.458  1.00  0.00    -0.560 A  
HETATM   13  C   UNL     1     -13.208  12.110  72.021  1.00  0.00    -0.496 A  
HETATM   14  C   UNL     1     -12.884  13.310  71.389  1.00  0.00    -0.411 A  
ENDBRANCH   6   9
TORSDOF 1
ENDMDL
MODEL       42
REMARK 921   NORMALIZED FREE ENERGY PREDICTED BY IDOCK:   -4.51 KCAL/MOL
REMARK 922        TOTAL FREE ENERGY PREDICTED BY IDOCK:   -5.07 KCAL/MOL
REMARK 923 INTER-LIGAND FREE ENERGY PREDICTED BY IDOCK:   -4.77 KCAL/MOL
REMARK 924 INTRA-LIGAND FREE ENERGY PREDICTED BY IDOCK:   -0.30 KCAL/MOL
REMARK 927      BINDING AFFINITY PREDICTED BY RF-SCORE:    0.00 PKD
ROOT
HETATM    1  C   UNL     1      -7.293  17.672  68.733  1.00  0.00    -0.261 C  
HETATM    2  N   UNL     1      -8.482  17.730  67.919  1.00  0.00    -0.240 N  
HETATM    3  C   UNL     1      -9.517  18.588  68.130  1.00  0.00    -0.317 C  
HETATM    4  O   UNL     1      -9.573  19.475  68.970  1.00  0.00    -0.403 OA 
HETATM    5  C   UNL     1     -10.617  18.285  67.155  1.00  0.00    -0.392 C  
HETATM    6  C   UNL     1     -10.004  17.253  66.206  1.00  0.00    -0.311 C  
HETATM    7  O   UNL     1      -7.799  16.230  66.307  1.00  0.00    -0.269 OA 
HETATM    8  C   UNL     1      -8.634  16.982  66.787  1.00  0.00    -0.237 C  
ENDROOT
BRANCH   6   9
HETATM    9  C   UNL     1     -10.844  16.001  66.075  1.00  0.00    -0.190 A  
HETATM   10  C   UNL     1     -11.258  15.307  67.221  1.00  0.00    -0.306 A  
HETATM   11  C   UNL     1     -12.008  14.135  67.107  1.00  0.00    -0.460 A  
HETATM   12  C   UNL     1     -12.356  13.645  65.849  1.00  0.00    -0.516 A  
HETATM   13  C   UNL     1     -11.966  14.333  64.705  1.00  0.00    -0.468 A  
HETATM   14  C   UNL     1     -11.219  15.505  64.815  1.00  0.00    -0.399 A  
ENDBRANCH   6   9
TORSDOF 1
ENDMDL
MODEL       43
REMARK 921   NORMALIZED FREE ENERGY PREDICTED BY IDOCK:   -4.50 KCAL/MOL
REMARK 922        TOTAL FREE ENERGY PREDICTED BY IDOCK:   -5.07 KCAL/MOL
REMARK 923 INTER-LIGAND FREE ENERGY PREDICTED BY IDOCK:   -4.81 KCAL/MOL
REMARK 924 INTRA-LIGAND FREE ENERGY PREDICTED BY IDOCK:   -0.26 KCAL/MOL
REMARK 927      BINDING AFFINITY PREDICTED BY RF-SCORE:    0.00 PKD
ROOT
HETATM    1  C   UNL     1     -12.400  14.968  74.160  1.00  0.00    -0.482 C  
HETATM    2  N   UNL     1     -12.728  14.883  72.758  1.00  0.00    -0.379 N  
HETATM    3  C   UNL     1     -13.554  13.945  72.217  1.00  0.00    -0.544 C  
HETATM    4  O   UNL     1     -14.192  13.095  72.822  1.00  0.00    -0.608 OA 
HETATM    5  C   UNL     1     -13.571  14.103  70.726  1.00  0.00     0.072 C  
HETATM    6  C   UNL     1     -12.793  15.397  70.475  1.00  0.00    -0.425 C  
HETATM    7  O   UNL     1     -11.668  16.820  72.097  1.00  0.00    -0.346 OA 
HETATM    8  C   UNL     1     -12.310  15.810  71.848  1.00  0.00    -0.459 C  
ENDROOT
BRANCH   6   9
HETATM    9  C   UNL     1     -11.662  15.222  69.485  1.00  0.00    -0.359 A  
HETATM   10  C   UNL     1     -11.063  13.967  69.314  1.00  0.00    -0.261 A  
HETATM   11  C   UNL     1     -10.000  13.804  68.423  1.00  0.00    -0.229 A  
HETATM   12  C   UNL     1      -9.526  14.892  67.692  1.00  0.00    -0.199 A  
HETATM   13  C   UNL     1     -10.123  16.139  67.839  1.00  0.00    -0.244 A  
HETATM   14  C   UNL     1     -11.187  16.304  68.726  1.00  0.00    -0.343 A  
ENDBRANCH   6   9
TORSDOF 1
ENDMDL
MODEL       44
REMARK 921   NORMALIZED FREE ENERGY PREDICTED BY IDOCK:   -4.50 KCAL/MOL
REMARK 922        TOTAL FREE ENERGY PREDICTED BY IDOCK:   -5.06 KCAL/MOL
REMARK 923 INTER-LIGAND FREE ENERGY PREDICTED BY IDOCK:   -4.80 KCAL/MOL
REMARK 924 INTRA-LIGAND FREE ENERGY PREDICTED BY IDOCK:   -0.27 KCAL/MOL
REMARK 927      BINDING AFFINITY PREDICTED BY RF-SCORE:    0.00 PKD
ROOT
HETATM    1  C   UNL     1     -11.452  15.133  67.201  1.00  0.00    -0.250 C  
HETATM    2  N   UNL     1     -11.337  14.040  66.267  1.00  0.00    -0.324 N  
HETATM    3  C   UNL     1     -12.322  13.654  65.410  1.00  0.00    -0.476 C  
HETATM    4  O   UNL     1     -13.402  14.202  65.242  1.00  0.00    -0.715 OA 
HETATM    5  C   UNL     1     -11.883  12.422  64.676  1.00  0.00    -0.445 C  
HETATM    6  C   UNL     1     -10.416  12.247  65.076  1.00  0.00    -0.322 C  
HETATM    7  O   UNL     1      -9.110  13.576  66.641  1.00  0.00    -0.234 OA 
HETATM    8  C   UNL     1     -10.176  13.344  66.090  1.00  0.00    -0.301 C  
ENDROOT
BRANCH   6   9
HETATM    9  C   UNL     1     -10.115  10.868  65.622  1.00  0.00    -0.318 A  
HETATM   10  C   UNL     1     -10.611  10.482  66.875  1.00  0.00    -0.303 A  
HETATM   11  C   UNL     1     -10.312   9.223  67.398  1.00  0.00    -0.327 A  
HETATM   12  C   UNL     1      -9.519   8.334  66.675  1.00  0.00    -0.271 A  
HETATM   13  C   UNL     1      -9.034   8.697  65.423  1.00  0.00    -0.181 A  
HETATM   14  C   UNL     1      -9.333   9.954  64.896  1.00  0.00    -0.329 A  
ENDBRANCH   6   9
TORSDOF 1
ENDMDL
MODEL       45
REMARK 921   NORMALIZED FREE ENERGY PREDICTED BY IDOCK:   -4.47 KCAL/MOL
REMARK 922        TOTAL FREE ENERGY PREDICTED BY IDOCK:   -5.03 KCAL/MOL
REMARK 923 INTER-LIGAND FREE ENERGY PREDICTED BY IDOCK:   -4.73 KCAL/MOL
REMARK 924 INTRA-LIGAND FREE ENERGY PREDICTED BY IDOCK:   -0.30 KCAL/MOL
REMARK 927      BINDING AFFINITY PREDICTED BY RF-SCORE:    0.00 PKD
ROOT
HETATM    1  C   UNL     1     -12.349  12.888  70.654  1.00  0.00    -0.302 C  
HETATM    2  N   UNL     1     -12.034  13.753  69.543  1.00  0.00    -0.328 N  
HETATM    3  C   UNL     1     -11.822  13.323  68.270  1.00  0.00    -0.354 C  
HETATM    4  O   UNL     1     -11.934  12.178  67.855  1.00  0.00    -0.489 OA 
HETATM    5  C   UNL     1     -11.416  14.488  67.416  1.00  0.00    -0.385 C  
HETATM    6  C   UNL     1     -11.611  15.705  68.322  1.00  0.00    -0.326 C  
HETATM    7  O   UNL     1     -12.301  15.755  70.655  1.00  0.00    -0.408 OA 
HETATM    8  C   UNL     1     -12.018  15.114  69.654  1.00  0.00    -0.329 C  
ENDROOT
BRANCH   6   9
HETATM    9  C   UNL     1     -10.375  16.573  68.418  1.00  0.00    -0.294 A  
HETATM   10  C   UNL     1     -10.474  17.961  68.257  1.00  0.00    -0.362 A  
HETATM   11  C   UNL     1      -9.333  18.764  68.314  1.00  0.00    -0.374 A  
HETATM   12  C   UNL     1      -8.083  18.190  68.537  1.00  0.00    -0.314 A  
HETATM   13  C   UNL     1      -7.972  16.816  68.716  1.00  0.00    -0.250 A  
HETATM   14  C   UNL     1      -9.110  16.011  68.662  1.00  0.00    -0.213 A  
ENDBRANCH   6   9
TORSDOF 1
ENDMDL
MODEL       46
REMARK 921   NORMALIZED FREE ENERGY PREDICTED BY IDOCK:   -4.44 KCAL/MOL
REMARK 922        TOTAL FREE ENERGY PREDICTED BY IDOCK:   -5.00 KCAL/MOL
REMARK 923 INTER-LIGAND FREE ENERGY PREDICTED BY IDOCK:   -4.71 KCAL/MOL
REMARK 924 INTRA-LIGAND FREE ENERGY PREDICTED BY IDOCK:   -0.28 KCAL/MOL
REMARK 927      BINDING AFFINITY PREDICTED BY RF-SCORE:    0.00 PKD
ROOT
HETATM    1  C   UNL     1      -7.866  12.793  67.425  1.00  0.00    -0.172 C  
HETATM    2  N   UNL     1      -9.284  12.561  67.548  1.00  0.00    -0.181 N  
HETATM    3  C   UNL     1     -10.233  13.187  66.800  1.00  0.00    -0.252 C  
HETATM    4  O   UNL     1     -10.042  13.967  65.878  1.00  0.00    -0.300 OA 
HETATM    5  C   UNL     1     -11.593  12.774  67.281  1.00  0.00    -0.420 C  
HETATM    6  C   UNL     1     -11.312  11.659  68.291  1.00  0.00    -0.348 C  
HETATM    7  O   UNL     1      -9.160  10.818  69.052  1.00  0.00    -0.179 OA 
HETATM    8  C   UNL     1      -9.803  11.604  68.372  1.00  0.00    -0.202 C  
ENDROOT
BRANCH   6   9
HETATM    9  C   UNL     1     -11.964  11.904  69.634  1.00  0.00    -0.365 A  
HETATM   10  C   UNL     1     -12.404  10.824  70.412  1.00  0.00    -0.438 A  
HETATM   11  C   UNL     1     -13.032  11.044  71.639  1.00  0.00    -0.561 A  
HETATM   12  C   UNL     1     -13.226  12.343  72.104  1.00  0.00    -0.491 A  
HETATM   13  C   UNL     1     -12.779  13.424  71.351  1.00  0.00    -0.411 A  
HETATM   14  C   UNL     1     -12.148  13.207  70.126  1.00  0.00    -0.392 A  
ENDBRANCH   6   9
TORSDOF 1
ENDMDL
MODEL       47
REMARK 921   NORMALIZED FREE ENERGY PREDICTED BY IDOCK:   -4.43 KCAL/MOL
REMARK 922        TOTAL FREE ENERGY PREDICTED BY IDOCK:   -4.99 KCAL/MOL
REMARK 923 INTER-LIGAND FREE ENERGY PREDICTED BY IDOCK:   -4.93 KCAL/MOL
REMARK 924 INTRA-LIGAND FREE ENERGY PREDICTED BY IDOCK:   -0.06 KCAL/MOL
REMARK 927      BINDING AFFINITY PREDICTED BY RF-SCORE:    0.00 PKD
ROOT
HETATM    1  C   UNL     1      -8.748   8.987  70.852  1.00  0.00    -0.229 C  
HETATM    2  N   UNL     1      -9.802   9.768  70.252  1.00  0.00    -0.260 N  
HETATM    3  C   UNL     1      -9.738  10.320  69.010  1.00  0.00    -0.205 C  
HETATM    4  O   UNL     1      -8.836  10.185  68.194  1.00  0.00    -0.124 OA 
HETATM    5  C   UNL     1     -10.968  11.145  68.771  1.00  0.00    -0.268 C  
HETATM    6  C   UNL     1     -11.864  10.842  69.974  1.00  0.00    -0.424 C  
HETATM    7  O   UNL     1     -11.376   9.444  71.905  1.00  0.00    -0.370 OA 
HETATM    8  C   UNL     1     -11.018   9.943  70.848  1.00  0.00    -0.322 C  
ENDROOT
BRANCH   6   9
HETATM    9  C   UNL     1     -12.328  12.090  70.692  1.00  0.00    -0.394 A  
HETATM   10  C   UNL     1     -13.184  11.991  71.797  1.00  0.00    -0.421 A  
HETATM   11  C   UNL     1     -13.640  13.140  72.445  1.00  0.00    -0.667 A  
HETATM   12  C   UNL     1     -13.244  14.400  72.001  1.00  0.00    -0.453 A  
HETATM   13  C   UNL     1     -12.381  14.513  70.916  1.00  0.00    -0.415 A  
HETATM   14  C   UNL     1     -11.921  13.367  70.268  1.00  0.00    -0.378 A  
ENDBRANCH   6   9
TORSDOF 1
ENDMDL
MODEL       48
REMARK 921   NORMALIZED FREE ENERGY PREDICTED BY IDOCK:   -4.42 KCAL/MOL
REMARK 922        TOTAL FREE ENERGY PREDICTED BY IDOCK:   -4.98 KCAL/MOL
REMARK 923 INTER-LIGAND FREE ENERGY PREDICTED BY IDOCK:   -4.71 KCAL/MOL
REMARK 924 INTRA-LIGAND FREE ENERGY PREDICTED BY IDOCK:   -0.27 KCAL/MOL
REMARK 927      BINDING AFFINITY PREDICTED BY RF-SCORE:    0.00 PKD
ROOT
HETATM    1  C   UNL     1     -10.903  15.461  65.024  1.00  0.00    -0.444 C  
HETATM    2  N   UNL     1     -11.154  15.117  66.402  1.00  0.00    -0.335 N  
HETATM    3  C   UNL     1     -10.812  15.898  67.463  1.00  0.00    -0.305 C  
HETATM    4  O   UNL     1     -10.323  17.018  67.421  1.00  0.00    -0.304 OA 
HETATM    5  C   UNL     1     -11.130  15.169  68.735  1.00  0.00    -0.272 C  
HETATM    6  C   UNL     1     -11.893  13.925  68.276  1.00  0.00    -0.412 C  
HETATM    7  O   UNL     1     -12.382  13.208  66.003  1.00  0.00    -0.422 OA 
HETATM    8  C   UNL     1     -11.854  14.004  66.766  1.00  0.00    -0.424 C  
ENDROOT
BRANCH   6   9
HETATM    9  C   UNL     1     -11.301  12.640  68.812  1.00  0.00    -0.333 A  
HETATM   10  C   UNL     1     -10.063  12.183  68.340  1.00  0.00    -0.210 A  
HETATM   11  C   UNL     1      -9.525  10.983  68.808  1.00  0.00    -0.190 A  
HETATM   12  C   UNL     1     -10.215  10.228  69.755  1.00  0.00    -0.262 A  
HETATM   13  C   UNL     1     -11.437  10.677  70.244  1.00  0.00    -0.422 A  
HETATM   14  C   UNL     1     -11.976  11.877  69.780  1.00  0.00    -0.377 A  
ENDBRANCH   6   9
TORSDOF 1
ENDMDL
MODEL       49
REMARK 921   NORMALIZED FREE ENERGY PREDICTED BY IDOCK:   -4.39 KCAL/MOL
REMARK 922        TOTAL FREE ENERGY PREDICTED BY IDOCK:   -4.95 KCAL/MOL
REMARK 923 INTER-LIGAND FREE ENERGY PREDICTED BY IDOCK:   -4.65 KCAL/MOL
REMARK 924 INTRA-LIGAND FREE ENERGY PREDICTED BY IDOCK:   -0.30 KCAL/MOL
REMARK 927      BINDING AFFINITY PREDICTED BY RF-SCORE:    0.00 PKD
ROOT
HETATM    1  C   UNL     1     -10.990  10.877  69.806  1.00  0.00    -0.226 C  
HETATM    2  N   UNL     1     -11.717   9.929  70.615  1.00  0.00    -0.303 N  
HETATM    3  C   UNL     1     -12.696  10.263  71.499  1.00  0.00    -0.452 C  
HETATM    4  O   UNL     1     -13.159  11.379  71.690  1.00  0.00    -0.455 OA 
HETATM    5  C   UNL     1     -13.144   9.032  72.230  1.00  0.00    -0.508 C  
HETATM    6  C   UNL     1     -12.428   7.886  71.511  1.00  0.00    -0.341 C  
HETATM    7  O   UNL     1     -10.830   8.016  69.681  1.00  0.00    -0.240 OA 
HETATM    8  C   UNL     1     -11.551   8.579  70.492  1.00  0.00    -0.132 C  
ENDROOT
BRANCH   6   9
HETATM    9  C   UNL     1     -11.643   6.999  72.453  1.00  0.00    -0.284 A  
HETATM   10  C   UNL     1     -11.898   5.622  72.501  1.00  0.00    -0.194 A  
HETATM   11  C   UNL     1     -11.199   4.803  73.389  1.00  0.00    -0.425 A  
HETATM   12  C   UNL     1     -10.236   5.348  74.236  1.00  0.00    -0.293 A  
HETATM   13  C   UNL     1      -9.961   6.710  74.188  1.00  0.00    -0.361 A  
HETATM   14  C   UNL     1     -10.656   7.531  73.300  1.00  0.00    -0.438 A  
ENDBRANCH   6   9
TORSDOF 1
ENDMDL
MODEL       50
REMARK 921   NORMALIZED FREE ENERGY PREDICTED BY IDOCK:   -4.39 KCAL/MOL
REMARK 922        TOTAL FREE ENERGY PREDICTED BY IDOCK:   -4.95 KCAL/MOL
REMARK 923 INTER-LIGAND FREE ENERGY PREDICTED BY IDOCK:   -4.66 KCAL/MOL
REMARK 924 INTRA-LIGAND FREE ENERGY PREDICTED BY IDOCK:   -0.29 KCAL/MOL
REMARK 927      BINDING AFFINITY PREDICTED BY RF-SCORE:    0.00 PKD
ROOT
HETATM    1  C   UNL     1     -11.886  11.953  69.849  1.00  0.00    -0.343 C  
HETATM    2  N   UNL     1     -11.839  13.104  68.982  1.00  0.00    -0.311 N  
HETATM    3  C   UNL     1     -11.910  13.048  67.624  1.00  0.00    -0.351 C  
HETATM    4  O   UNL     1     -12.097  12.050  66.942  1.00  0.00    -0.608 OA 
HETATM    5  C   UNL     1     -11.721  14.425  67.061  1.00  0.00    -0.420 C  
HETATM    6  C   UNL     1     -11.725  15.338  68.290  1.00  0.00    -0.320 C  
HETATM    7  O   UNL     1     -11.877  14.710  70.636  1.00  0.00    -0.277 OA 
HETATM    8  C   UNL     1     -11.816  14.383  69.459  1.00  0.00    -0.329 C  
ENDROOT
BRANCH   6   9
HETATM    9  C   UNL     1     -10.510  16.237  68.359  1.00  0.00    -0.282 A  
HETATM   10  C   UNL     1      -9.234  15.686  68.536  1.00  0.00    -0.197 A  
HETATM   11  C   UNL     1      -8.113  16.512  68.631  1.00  0.00    -0.233 A  
HETATM   12  C   UNL     1      -8.252  17.896  68.547  1.00  0.00    -0.300 A  
HETATM   13  C   UNL     1      -9.510  18.456  68.355  1.00  0.00    -0.352 A  
HETATM   14  C   UNL     1     -10.633  17.633  68.257  1.00  0.00    -0.342 A  
ENDBRANCH   6   9
TORSDOF 1
ENDMDL
MODEL       51
REMARK 921   NORMALIZED FREE ENERGY PREDICTED BY IDOCK:   -4.38 KCAL/MOL
REMARK 922        TOTAL FREE ENERGY PREDICTED BY IDOCK:   -4.94 KCAL/MOL
REMARK 923 INTER-LIGAND FREE ENERGY PREDICTED BY IDOCK:   -4.64 KCAL/MOL
REMARK 924 INTRA-LIGAND FREE ENERGY PREDICTED BY IDOCK:   -0.30 KCAL/MOL
REMARK 927      BINDING AFFINITY PREDICTED BY RF-SCORE:    0.00 PKD
ROOT
HETATM    1  C   UNL     1     -10.174  10.749  64.936  1.00  0.00    -0.320 C  
HETATM    2  N   UNL     1     -10.031  11.456  66.185  1.00  0.00    -0.219 N  
HETATM    3  C   UNL     1      -8.854  11.605  66.854  1.00  0.00    -0.190 C  
HETATM    4  O   UNL     1      -7.749  11.242  66.479  1.00  0.00    -0.152 OA 
HETATM    5  C   UNL     1      -9.112  12.299  68.158  1.00  0.00    -0.196 C  
HETATM    6  C   UNL     1     -10.582  12.719  68.078  1.00  0.00    -0.238 C  
HETATM    7  O   UNL     1     -12.186  12.266  66.306  1.00  0.00    -0.628 OA 
HETATM    8  C   UNL     1     -11.062  12.134  66.769  1.00  0.00    -0.300 C  
ENDROOT
BRANCH   6   9
HETATM    9  C   UNL     1     -11.394  12.248  69.264  1.00  0.00    -0.317 A  
HETATM   10  C   UNL     1     -12.017  13.179  70.106  1.00  0.00    -0.381 A  
HETATM   11  C   UNL     1     -12.743  12.753  71.220  1.00  0.00    -0.364 A  
HETATM   12  C   UNL     1     -12.859  11.393  71.503  1.00  0.00    -0.508 A  
HETATM   13  C   UNL     1     -12.261  10.457  70.666  1.00  0.00    -0.441 A  
HETATM   14  C   UNL     1     -11.536  10.880  69.551  1.00  0.00    -0.384 A  
ENDBRANCH   6   9
TORSDOF 1
ENDMDL
MODEL       52
REMARK 921   NORMALIZED FREE ENERGY PREDICTED BY IDOCK:   -4.38 KCAL/MOL
REMARK 922        TOTAL FREE ENERGY PREDICTED BY IDOCK:   -4.93 KCAL/MOL
REMARK 923 INTER-LIGAND FREE ENERGY PREDICTED BY IDOCK:   -4.63 KCAL/MOL
REMARK 924 INTRA-LIGAND FREE ENERGY PREDICTED BY IDOCK:   -0.30 KCAL/MOL
REMARK 927      BINDING AFFINITY PREDICTED BY RF-SCORE:    0.00 PKD
ROOT
HETATM    1  C   UNL     1     -11.360  11.827  67.617  1.00  0.00    -0.302 C  
HETATM    2  N   UNL     1     -11.203  12.907  66.673  1.00  0.00    -0.292 N  
HETATM    3  C   UNL     1     -10.918  12.739  65.353  1.00  0.00    -0.283 C  
HETATM    4  O   UNL     1     -10.827  11.678  64.753  1.00  0.00    -0.297 OA 
HETATM    5  C   UNL     1     -10.724  14.083  64.715  1.00  0.00    -0.442 C  
HETATM    6  C   UNL     1     -11.131  15.079  65.803  1.00  0.00    -0.346 C  
HETATM    7  O   UNL     1     -11.818  14.618  68.091  1.00  0.00    -0.325 OA 
HETATM    8  C   UNL     1     -11.426  14.212  67.007  1.00  0.00    -0.352 C  
ENDROOT
BRANCH   6   9
HETATM    9  C   UNL     1     -10.067  16.120  66.076  1.00  0.00    -0.372 A  
HETATM   10  C   UNL     1      -8.730  15.734  66.241  1.00  0.00    -0.358 A  
HETATM   11  C   UNL     1      -7.748  16.685  66.523  1.00  0.00    -0.337 A  
HETATM   12  C   UNL     1      -8.088  18.031  66.640  1.00  0.00    -0.285 A  
HETATM   13  C   UNL     1      -9.409  18.430  66.462  1.00  0.00    -0.311 A  
HETATM   14  C   UNL     1     -10.392  17.483  66.177  1.00  0.00    -0.330 A  
ENDBRANCH   6   9
TORSDOF 1
ENDMDL
MODEL       53
REMARK 921   NORMALIZED FREE ENERGY PREDICTED BY IDOCK:   -4.37 KCAL/MOL
REMARK 922        TOTAL FREE ENERGY PREDICTED BY IDOCK:   -4.92 KCAL/MOL
REMARK 923 INTER-LIGAND FREE ENERGY PREDICTED BY IDOCK:   -4.62 KCAL/MOL
REMARK 924 INTRA-LIGAND FREE ENERGY PREDICTED BY IDOCK:   -0.30 KCAL/MOL
REMARK 927      BINDING AFFINITY PREDICTED BY RF-SCORE:    0.00 PKD
ROOT
HETATM    1  C   UNL     1      -8.079  18.515  66.300  1.00  0.00    -0.233 C  
HETATM    2  N   UNL     1      -8.944  17.543  66.923  1.00  0.00    -0.244 N  
HETATM    3  C   UNL     1      -8.744  17.022  68.165  1.00  0.00    -0.233 C  
HETATM    4  O   UNL     1      -7.871  17.338  68.960  1.00  0.00    -0.236 OA 
HETATM    5  C   UNL     1      -9.780  15.969  68.430  1.00  0.00    -0.213 C  
HETATM    6  C   UNL     1     -10.743  16.082  67.247  1.00  0.00    -0.295 C  
HETATM    7  O   UNL     1     -10.585  17.538  65.304  1.00  0.00    -0.664 OA 
HETATM    8  C   UNL     1     -10.112  17.126  66.353  1.00  0.00    -0.320 C  
ENDROOT
BRANCH   6   9
HETATM    9  C   UNL     1     -10.964  14.762  66.540  1.00  0.00    -0.325 A  
HETATM   10  C   UNL     1     -12.254  14.382  66.144  1.00  0.00    -0.358 A  
HETATM   11  C   UNL     1     -12.469  13.152  65.518  1.00  0.00    -0.516 A  
HETATM   12  C   UNL     1     -11.400  12.291  65.279  1.00  0.00    -0.384 A  
HETATM   13  C   UNL     1     -10.113  12.663  65.652  1.00  0.00    -0.285 A  
HETATM   14  C   UNL     1      -9.894  13.891  66.274  1.00  0.00    -0.318 A  
ENDBRANCH   6   9
TORSDOF 1
ENDMDL
MODEL       54
REMARK 921   NORMALIZED FREE ENERGY PREDICTED BY IDOCK:   -4.35 KCAL/MOL
REMARK 922        TOTAL FREE ENERGY PREDICTED BY IDOCK:   -4.91 KCAL/MOL
REMARK 923 INTER-LIGAND FREE ENERGY PREDICTED BY IDOCK:   -4.61 KCAL/MOL
REMARK 924 INTRA-LIGAND FREE ENERGY PREDICTED BY IDOCK:   -0.30 KCAL/MOL
REMARK 927      BINDING AFFINITY PREDICTED BY RF-SCORE:    0.00 PKD
ROOT
HETATM    1  C   UNL     1     -12.108  12.691  63.368  1.00  0.00    -0.525 C  
HETATM    2  N   UNL     1     -11.722  13.107  64.694  1.00  0.00    -0.344 N  
HETATM    3  C   UNL     1     -12.532  13.780  65.555  1.00  0.00    -0.512 C  
HETATM    4  O   UNL     1     -13.709  14.065  65.382  1.00  0.00    -0.376 OA 
HETATM    5  C   UNL     1     -11.756  14.136  66.789  1.00  0.00    -0.432 C  
HETATM    6  C   UNL     1     -10.423  13.404  66.619  1.00  0.00    -0.280 C  
HETATM    7  O   UNL     1      -9.666  12.065  64.734  1.00  0.00    -0.196 OA 
HETATM    8  C   UNL     1     -10.519  12.773  65.248  1.00  0.00    -0.292 C  
ENDROOT
BRANCH   6   9
HETATM    9  C   UNL     1      -9.226  14.319  66.762  1.00  0.00    -0.282 A  
HETATM   10  C   UNL     1      -8.108  13.906  67.498  1.00  0.00    -0.191 A  
HETATM   11  C   UNL     1      -7.013  14.757  67.659  1.00  0.00    -0.204 A  
HETATM   12  C   UNL     1      -7.020  16.026  67.083  1.00  0.00    -0.242 A  
HETATM   13  C   UNL     1      -8.116  16.441  66.335  1.00  0.00    -0.357 A  
HETATM   14  C   UNL     1      -9.211  15.593  66.170  1.00  0.00    -0.378 A  
ENDBRANCH   6   9
TORSDOF 1
ENDMDL
MODEL       55
REMARK 921   NORMALIZED FREE ENERGY PREDICTED BY IDOCK:   -4.35 KCAL/MOL
REMARK 922        TOTAL FREE ENERGY PREDICTED BY IDOCK:   -4.91 KCAL/MOL
REMARK 923 INTER-LIGAND FREE ENERGY PREDICTED BY IDOCK:   -4.71 KCAL/MOL
REMARK 924 INTRA-LIGAND FREE ENERGY PREDICTED BY IDOCK:   -0.20 KCAL/MOL
REMARK 927      BINDING AFFINITY PREDICTED BY RF-SCORE:    0.00 PKD
ROOT
HETATM    1  C   UNL     1      -8.760   9.384  64.955  1.00  0.00    -0.190 C  
HETATM    2  N   UNL     1      -9.705  10.434  64.664  1.00  0.00    -0.305 N  
HETATM    3  C   UNL     1      -9.952  10.923  63.418  1.00  0.00    -0.361 C  
HETATM    4  O   UNL     1      -9.485  10.513  62.365  1.00  0.00    -0.262 OA 
HETATM    5  C   UNL     1     -10.909  12.074  63.520  1.00  0.00    -0.509 C  
HETATM    6  C   UNL     1     -11.348  12.071  64.986  1.00  0.00    -0.365 C  
HETATM    7  O   UNL     1     -10.588  10.621  66.786  1.00  0.00    -0.248 OA 
HETATM    8  C   UNL     1     -10.520  10.974  65.617  1.00  0.00    -0.230 C  
ENDROOT
BRANCH   6   9
HETATM    9  C   UNL     1     -11.157  13.412  65.661  1.00  0.00    -0.298 A  
HETATM   10  C   UNL     1     -10.333  14.384  65.078  1.00  0.00    -0.449 A  
HETATM   11  C   UNL     1     -10.129  15.611  65.710  1.00  0.00    -0.394 A  
HETATM   12  C   UNL     1     -10.749  15.884  66.928  1.00  0.00    -0.289 A  
HETATM   13  C   UNL     1     -11.583  14.935  67.510  1.00  0.00    -0.355 A  
HETATM   14  C   UNL     1     -11.791  13.709  66.879  1.00  0.00    -0.451 A  
ENDBRANCH   6   9
TORSDOF 1
ENDMDL
MODEL       56
REMARK 921   NORMALIZED FREE ENERGY PREDICTED BY IDOCK:   -4.33 KCAL/MOL
REMARK 922        TOTAL FREE ENERGY PREDICTED BY IDOCK:   -4.89 KCAL/MOL
REMARK 923 INTER-LIGAND FREE ENERGY PREDICTED BY IDOCK:   -4.71 KCAL/MOL
REMARK 924 INTRA-LIGAND FREE ENERGY PREDICTED BY IDOCK:   -0.18 KCAL/MOL
REMARK 927      BINDING AFFINITY PREDICTED BY RF-SCORE:    0.00 PKD
ROOT
HETATM    1  C   UNL     1     -10.168  13.704  65.105  1.00  0.00    -0.328 C  
HETATM    2  N   UNL     1     -10.437  14.449  66.311  1.00  0.00    -0.284 N  
HETATM    3  C   UNL     1      -9.528  15.238  66.946  1.00  0.00    -0.234 C  
HETATM    4  O   UNL     1      -8.394  15.497  66.568  1.00  0.00    -0.269 OA 
HETATM    5  C   UNL     1     -10.130  15.763  68.215  1.00  0.00    -0.222 C  
HETATM    6  C   UNL     1     -11.597  15.332  68.142  1.00  0.00    -0.344 C  
HETATM    7  O   UNL     1     -12.694  13.995  66.431  1.00  0.00    -0.369 OA 
HETATM    8  C   UNL     1     -11.678  14.507  66.878  1.00  0.00    -0.382 C  
ENDROOT
BRANCH   6   9
HETATM    9  C   UNL     1     -12.048  14.571  69.370  1.00  0.00    -0.328 A  
HETATM   10  C   UNL     1     -12.672  15.245  70.428  1.00  0.00    -0.400 A  
HETATM   11  C   UNL     1     -13.064  14.554  71.575  1.00  0.00    -0.413 A  
HETATM   12  C   UNL     1     -12.841  13.182  71.678  1.00  0.00    -0.388 A  
HETATM   13  C   UNL     1     -12.238  12.497  70.628  1.00  0.00    -0.365 A  
HETATM   14  C   UNL     1     -11.848  13.184  69.479  1.00  0.00    -0.383 A  
ENDBRANCH   6   9
TORSDOF 1
ENDMDL
MODEL       57
REMARK 921   NORMALIZED FREE ENERGY PREDICTED BY IDOCK:   -4.29 KCAL/MOL
REMARK 922        TOTAL FREE ENERGY PREDICTED BY IDOCK:   -4.84 KCAL/MOL
REMARK 923 INTER-LIGAND FREE ENERGY PREDICTED BY IDOCK:   -4.57 KCAL/MOL
REMARK 924 INTRA-LIGAND FREE ENERGY PREDICTED BY IDOCK:   -0.28 KCAL/MOL
REMARK 927      BINDING AFFINITY PREDICTED BY RF-SCORE:    0.00 PKD
ROOT
HETATM    1  C   UNL     1     -11.347  15.942  68.245  1.00  0.00    -0.342 C  
HETATM    2  N   UNL     1     -10.277  16.553  67.496  1.00  0.00    -0.276 N  
HETATM    3  C   UNL     1      -9.330  15.862  66.804  1.00  0.00    -0.240 C  
HETATM    4  O   UNL     1      -9.278  14.651  66.646  1.00  0.00    -0.246 OA 
HETATM    5  C   UNL     1      -8.326  16.826  66.244  1.00  0.00    -0.353 C  
HETATM    6  C   UNL     1      -8.924  18.204  66.535  1.00  0.00    -0.288 C  
HETATM    7  O   UNL     1     -10.969  18.739  67.740  1.00  0.00    -0.341 OA 
HETATM    8  C   UNL     1     -10.174  17.905  67.331  1.00  0.00    -0.360 C  
ENDROOT
BRANCH   6   9
HETATM    9  C   UNL     1      -7.966  19.118  67.270  1.00  0.00    -0.277 A  
HETATM   10  C   UNL     1      -7.421  20.235  66.622  1.00  0.00    -0.319 A  
HETATM   11  C   UNL     1      -6.514  21.064  67.284  1.00  0.00    -0.418 A  
HETATM   12  C   UNL     1      -6.144  20.791  68.599  1.00  0.00    -0.351 A  
HETATM   13  C   UNL     1      -6.691  19.696  69.260  1.00  0.00    -0.391 A  
HETATM   14  C   UNL     1      -7.599  18.866  68.603  1.00  0.00    -0.366 A  
ENDBRANCH   6   9
TORSDOF 1
ENDMDL
MODEL       58
REMARK 921   NORMALIZED FREE ENERGY PREDICTED BY IDOCK:   -4.28 KCAL/MOL
REMARK 922        TOTAL FREE ENERGY PREDICTED BY IDOCK:   -4.83 KCAL/MOL
REMARK 923 INTER-LIGAND FREE ENERGY PREDICTED BY IDOCK:   -4.56 KCAL/MOL
REMARK 924 INTRA-LIGAND FREE ENERGY PREDICTED BY IDOCK:   -0.27 KCAL/MOL
REMARK 927      BINDING AFFINITY PREDICTED BY RF-SCORE:    0.00 PKD
ROOT
HETATM    1  C   UNL     1      -9.917   9.230  66.066  1.00  0.00    -0.255 C  
HETATM    2  N   UNL     1      -9.794   9.630  67.446  1.00  0.00    -0.163 N  
HETATM    3  C   UNL     1      -8.705   9.382  68.224  1.00  0.00    -0.124 C  
HETATM    4  O   UNL     1      -7.655   8.864  67.870  1.00  0.00    -0.092 OA 
HETATM    5  C   UNL     1      -8.980   9.848  69.623  1.00  0.00    -0.232 C  
HETATM    6  C   UNL     1     -10.315  10.589  69.517  1.00  0.00    -0.251 C  
HETATM    7  O   UNL     1     -11.742  10.856  67.565  1.00  0.00    -0.543 OA 
HETATM    8  C   UNL     1     -10.735  10.392  68.078  1.00  0.00    -0.249 C  
ENDROOT
BRANCH   6   9
HETATM    9  C   UNL     1     -11.347  10.087  70.503  1.00  0.00    -0.409 A  
HETATM   10  C   UNL     1     -12.334  10.953  70.993  1.00  0.00    -0.498 A  
HETATM   11  C   UNL     1     -13.271  10.504  71.925  1.00  0.00    -0.526 A  
HETATM   12  C   UNL     1     -13.236   9.186  72.376  1.00  0.00    -0.512 A  
HETATM   13  C   UNL     1     -12.272   8.311  71.886  1.00  0.00    -0.383 A  
HETATM   14  C   UNL     1     -11.336   8.755  70.952  1.00  0.00    -0.322 A  
ENDBRANCH   6   9
TORSDOF 1
ENDMDL
MODEL       59
REMARK 921   NORMALIZED FREE ENERGY PREDICTED BY IDOCK:   -4.28 KCAL/MOL
REMARK 922        TOTAL FREE ENERGY PREDICTED BY IDOCK:   -4.83 KCAL/MOL
REMARK 923 INTER-LIGAND FREE ENERGY PREDICTED BY IDOCK:   -4.90 KCAL/MOL
REMARK 924 INTRA-LIGAND FREE ENERGY PREDICTED BY IDOCK:    0.07 KCAL/MOL
REMARK 927      BINDING AFFINITY PREDICTED BY RF-SCORE:    0.00 PKD
ROOT
HETATM    1  C   UNL     1     -12.073  14.183  66.519  1.00  0.00    -0.454 C  
HETATM    2  N   UNL     1     -11.456  13.022  67.111  1.00  0.00    -0.312 N  
HETATM    3  C   UNL     1     -11.126  11.893  66.427  1.00  0.00    -0.309 C  
HETATM    4  O   UNL     1     -11.225  11.712  65.222  1.00  0.00    -0.279 OA 
HETATM    5  C   UNL     1     -10.607  10.866  67.390  1.00  0.00    -0.285 C  
HETATM    6  C   UNL     1     -10.489  11.619  68.717  1.00  0.00    -0.226 C  
HETATM    7  O   UNL     1     -11.114  13.918  69.208  1.00  0.00    -0.249 OA 
HETATM    8  C   UNL     1     -11.052  12.990  68.415  1.00  0.00    -0.262 C  
ENDROOT
BRANCH   6   9
HETATM    9  C   UNL     1     -11.211  10.926  69.853  1.00  0.00    -0.355 A  
HETATM   10  C   UNL     1     -12.378  11.484  70.391  1.00  0.00    -0.390 A  
HETATM   11  C   UNL     1     -13.031  10.866  71.459  1.00  0.00    -0.556 A  
HETATM   12  C   UNL     1     -12.529   9.682  71.997  1.00  0.00    -0.412 A  
HETATM   13  C   UNL     1     -11.381   9.108  71.461  1.00  0.00    -0.439 A  
HETATM   14  C   UNL     1     -10.727   9.722  70.393  1.00  0.00    -0.368 A  
ENDBRANCH   6   9
TORSDOF 1
ENDMDL
MODEL       60
REMARK 921   NORMALIZED FREE ENERGY PREDICTED BY IDOCK:   -4.26 KCAL/MOL
REMARK 922        TOTAL FREE ENERGY PREDICTED BY IDOCK:   -4.82 KCAL/MOL
REMARK 923 INTER-LIGAND FREE ENERGY PREDICTED BY IDOCK:   -4.52 KCAL/MOL
REMARK 924 INTRA-LIGAND FREE ENERGY PREDICTED BY IDOCK:   -0.30 KCAL/MOL
REMARK 927      BINDING AFFINITY PREDICTED BY RF-SCORE:    0.00 PKD
ROOT
HETATM    1  C   UNL     1      -8.186  10.583  68.955  1.00  0.00    -0.145 C  
HETATM    2  N   UNL     1      -9.462  11.150  68.595  1.00  0.00    -0.196 N  
HETATM    3  C   UNL     1     -10.665  10.634  68.966  1.00  0.00    -0.221 C  
HETATM    4  O   UNL     1     -10.855   9.680  69.707  1.00  0.00    -0.230 OA 
HETATM    5  C   UNL     1     -11.763  11.425  68.319  1.00  0.00    -0.359 C  
HETATM    6  C   UNL     1     -11.042  12.607  67.668  1.00  0.00    -0.303 C  
HETATM    7  O   UNL     1      -8.652  13.057  67.583  1.00  0.00    -0.165 OA 
HETATM    8  C   UNL     1      -9.577  12.330  67.918  1.00  0.00    -0.203 C  
ENDROOT
BRANCH   6   9
HETATM    9  C   UNL     1     -11.368  12.760  66.198  1.00  0.00    -0.371 A  
HETATM   10  C   UNL     1     -11.085  11.721  65.302  1.00  0.00    -0.333 A  
HETATM   11  C   UNL     1     -11.355  11.866  63.940  1.00  0.00    -0.509 A  
HETATM   12  C   UNL     1     -11.914  13.048  63.459  1.00  0.00    -0.615 A  
HETATM   13  C   UNL     1     -12.217  14.081  64.340  1.00  0.00    -0.457 A  
HETATM   14  C   UNL     1     -11.950  13.938  65.701  1.00  0.00    -0.409 A  
ENDBRANCH   6   9
TORSDOF 1
ENDMDL
MODEL       61
REMARK 921   NORMALIZED FREE ENERGY PREDICTED BY IDOCK:   -4.26 KCAL/MOL
REMARK 922        TOTAL FREE ENERGY PREDICTED BY IDOCK:   -4.81 KCAL/MOL
REMARK 923 INTER-LIGAND FREE ENERGY PREDICTED BY IDOCK:   -4.54 KCAL/MOL
REMARK 924 INTRA-LIGAND FREE ENERGY PREDICTED BY IDOCK:   -0.27 KCAL/MOL
REMARK 927      BINDING AFFINITY PREDICTED BY RF-SCORE:    0.00 PKD
ROOT
HETATM    1  C   UNL     1     -13.259  13.243  72.315  1.00  0.00    -0.467 C  
HETATM    2  N   UNL     1     -12.694  13.431  71.001  1.00  0.00    -0.333 N  
HETATM    3  C   UNL     1     -12.124  12.442  70.261  1.00  0.00    -0.297 C  
HETATM    4  O   UNL     1     -12.067  11.254  70.546  1.00  0.00    -0.341 OA 
HETATM    5  C   UNL     1     -11.554  13.031  69.004  1.00  0.00    -0.367 C  
HETATM    6  C   UNL     1     -12.045  14.480  69.011  1.00  0.00    -0.286 C  
HETATM    7  O   UNL     1     -13.345  15.625  70.720  1.00  0.00    -0.535 OA 
HETATM    8  C   UNL     1     -12.770  14.618  70.331  1.00  0.00    -0.316 C  
ENDROOT
BRANCH   6   9
HETATM    9  C   UNL     1     -10.922  15.482  68.851  1.00  0.00    -0.266 A  
HETATM   10  C   UNL     1      -9.625  15.160  69.271  1.00  0.00    -0.218 A  
HETATM   11  C   UNL     1      -8.591  16.091  69.154  1.00  0.00    -0.247 A  
HETATM   12  C   UNL     1      -8.840  17.351  68.613  1.00  0.00    -0.258 A  
HETATM   13  C   UNL     1     -10.119  17.678  68.177  1.00  0.00    -0.347 A  
HETATM   14  C   UNL     1     -11.154  16.749  68.290  1.00  0.00    -0.259 A  
ENDBRANCH   6   9
TORSDOF 1
ENDMDL
MODEL       62
REMARK 921   NORMALIZED FREE ENERGY PREDICTED BY IDOCK:   -4.24 KCAL/MOL
REMARK 922        TOTAL FREE ENERGY PREDICTED BY IDOCK:   -4.79 KCAL/MOL
REMARK 923 INTER-LIGAND FREE ENERGY PREDICTED BY IDOCK:   -4.49 KCAL/MOL
REMARK 924 INTRA-LIGAND FREE ENERGY PREDICTED BY IDOCK:   -0.30 KCAL/MOL
REMARK 927      BINDING AFFINITY PREDICTED BY RF-SCORE:    0.00 PKD
ROOT
HETATM    1  C   UNL     1      -7.341  19.002  68.730  1.00  0.00    -0.331 C  
HETATM    2  N   UNL     1      -8.631  18.448  68.399  1.00  0.00    -0.319 N  
HETATM    3  C   UNL     1      -9.720  19.188  68.054  1.00  0.00    -0.344 C  
HETATM    4  O   UNL     1      -9.762  20.400  67.897  1.00  0.00    -0.358 OA 
HETATM    5  C   UNL     1     -10.901  18.279  67.886  1.00  0.00    -0.232 C  
HETATM    6  C   UNL     1     -10.310  16.871  67.987  1.00  0.00    -0.334 C  
HETATM    7  O   UNL     1      -8.008  16.229  68.440  1.00  0.00    -0.160 OA 
HETATM    8  C   UNL     1      -8.851  17.104  68.306  1.00  0.00    -0.245 C  
ENDROOT
BRANCH   6   9
HETATM    9  C   UNL     1     -11.007  16.012  69.020  1.00  0.00    -0.296 A  
HETATM   10  C   UNL     1     -11.097  16.443  70.350  1.00  0.00    -0.246 A  
HETATM   11  C   UNL     1     -11.712  15.643  71.315  1.00  0.00    -0.478 A  
HETATM   12  C   UNL     1     -12.248  14.406  70.961  1.00  0.00    -0.422 A  
HETATM   13  C   UNL     1     -12.181  13.973  69.641  1.00  0.00    -0.383 A  
HETATM   14  C   UNL     1     -11.570  14.772  68.674  1.00  0.00    -0.345 A  
ENDBRANCH   6   9
TORSDOF 1
ENDMDL
MODEL       63
REMARK 921   NORMALIZED FREE ENERGY PREDICTED BY IDOCK:   -4.23 KCAL/MOL
REMARK 922        TOTAL FREE ENERGY PREDICTED BY IDOCK:   -4.78 KCAL/MOL
REMARK 923 INTER-LIGAND FREE ENERGY PREDICTED BY IDOCK:   -4.49 KCAL/MOL
REMARK 924 INTRA-LIGAND FREE ENERGY PREDICTED BY IDOCK:   -0.29 KCAL/MOL
REMARK 927      BINDING AFFINITY PREDICTED BY RF-SCORE:    0.00 PKD
ROOT
HETATM    1  C   UNL     1     -12.654  12.901  65.082  1.00  0.00    -0.471 C  
HETATM    2  N   UNL     1     -11.552  13.169  65.973  1.00  0.00    -0.337 N  
HETATM    3  C   UNL     1     -11.388  12.582  67.190  1.00  0.00    -0.324 C  
HETATM    4  O   UNL     1     -12.083  11.704  67.679  1.00  0.00    -0.615 OA 
HETATM    5  C   UNL     1     -10.194  13.185  67.872  1.00  0.00    -0.233 C  
HETATM    6  C   UNL     1      -9.557  14.073  66.801  1.00  0.00    -0.293 C  
HETATM    7  O   UNL     1     -10.349  14.519  64.544  1.00  0.00    -0.273 OA 
HETATM    8  C   UNL     1     -10.507  13.976  65.627  1.00  0.00    -0.318 C  
ENDROOT
BRANCH   6   9
HETATM    9  C   UNL     1      -9.344  15.496  67.267  1.00  0.00    -0.220 A  
HETATM   10  C   UNL     1     -10.237  16.083  68.173  1.00  0.00    -0.243 A  
HETATM   11  C   UNL     1     -10.062  17.405  68.585  1.00  0.00    -0.355 A  
HETATM   12  C   UNL     1      -8.993  18.156  68.098  1.00  0.00    -0.298 A  
HETATM   13  C   UNL     1      -8.089  17.581  67.211  1.00  0.00    -0.219 A  
HETATM   14  C   UNL     1      -8.259  16.259  66.800  1.00  0.00    -0.294 A  
ENDBRANCH   6   9
TORSDOF 1
ENDMDL
MODEL       64
REMARK 921   NORMALIZED FREE ENERGY PREDICTED BY IDOCK:   -4.23 KCAL/MOL
REMARK 922        TOTAL FREE ENERGY PREDICTED BY IDOCK:   -4.78 KCAL/MOL
REMARK 923 INTER-LIGAND FREE ENERGY PREDICTED BY IDOCK:   -4.55 KCAL/MOL
REMARK 924 INTRA-LIGAND FREE ENERGY PREDICTED BY IDOCK:   -0.23 KCAL/MOL
REMARK 927      BINDING AFFINITY PREDICTED BY RF-SCORE:    0.00 PKD
ROOT
HETATM    1  C   UNL     1     -10.022   4.134  71.567  1.00  0.00    -0.160 C  
HETATM    2  N   UNL     1     -10.105   5.440  72.175  1.00  0.00    -0.184 N  
HETATM    3  C   UNL     1     -10.345   5.659  73.497  1.00  0.00    -0.233 C  
HETATM    4  O   UNL     1     -10.448   4.811  74.372  1.00  0.00    -0.260 OA 
HETATM    5  C   UNL     1     -10.469   7.134  73.739  1.00  0.00    -0.371 C  
HETATM    6  C   UNL     1     -10.071   7.769  72.404  1.00  0.00    -0.284 C  
HETATM    7  O   UNL     1      -9.488   6.660  70.319  1.00  0.00    -0.162 OA 
HETATM    8  C   UNL     1      -9.852   6.589  71.484  1.00  0.00    -0.168 C  
ENDROOT
BRANCH   6   9
HETATM    9  C   UNL     1     -11.109   8.737  71.880  1.00  0.00    -0.434 A  
HETATM   10  C   UNL     1     -10.752   9.712  70.939  1.00  0.00    -0.402 A  
HETATM   11  C   UNL     1     -11.698  10.628  70.474  1.00  0.00    -0.451 A  
HETATM   12  C   UNL     1     -13.011  10.577  70.940  1.00  0.00    -0.455 A  
HETATM   13  C   UNL     1     -13.383   9.604  71.861  1.00  0.00    -0.526 A  
HETATM   14  C   UNL     1     -12.441   8.686  72.326  1.00  0.00    -0.460 A  
ENDBRANCH   6   9
TORSDOF 1
ENDMDL
MODEL       65
REMARK 921   NORMALIZED FREE ENERGY PREDICTED BY IDOCK:   -4.19 KCAL/MOL
REMARK 922        TOTAL FREE ENERGY PREDICTED BY IDOCK:   -4.73 KCAL/MOL
REMARK 923 INTER-LIGAND FREE ENERGY PREDICTED BY IDOCK:   -4.46 KCAL/MOL
REMARK 924 INTRA-LIGAND FREE ENERGY PREDICTED BY IDOCK:   -0.28 KCAL/MOL
REMARK 927      BINDING AFFINITY PREDICTED BY RF-SCORE:    0.00 PKD
ROOT
HETATM    1  C   UNL     1     -10.157   6.001  67.292  1.00  0.00    -0.169 C  
HETATM    2  N   UNL     1     -10.308   6.211  68.711  1.00  0.00    -0.187 N  
HETATM    3  C   UNL     1     -10.201   5.230  69.649  1.00  0.00    -0.278 C  
HETATM    4  O   UNL     1      -9.893   4.063  69.455  1.00  0.00    -0.195 OA 
HETATM    5  C   UNL     1     -10.525   5.799  70.999  1.00  0.00    -0.307 C  
HETATM    6  C   UNL     1     -10.646   7.305  70.753  1.00  0.00    -0.237 C  
HETATM    7  O   UNL     1     -10.480   8.509  68.645  1.00  0.00    -0.208 OA 
HETATM    8  C   UNL     1     -10.479   7.451  69.257  1.00  0.00    -0.220 C  
ENDROOT
BRANCH   6   9
HETATM    9  C   UNL     1     -11.952   7.881  71.257  1.00  0.00    -0.321 A  
HETATM   10  C   UNL     1     -12.012   9.208  71.701  1.00  0.00    -0.437 A  
HETATM   11  C   UNL     1     -13.206   9.737  72.195  1.00  0.00    -0.530 A  
HETATM   12  C   UNL     1     -14.353   8.947  72.247  1.00  0.00    -0.418 A  
HETATM   13  C   UNL     1     -14.312   7.633  71.794  1.00  0.00    -0.586 A  
HETATM   14  C   UNL     1     -13.121   7.103  71.297  1.00  0.00    -0.361 A  
ENDBRANCH   6   9
TORSDOF 1
ENDMDL
MODEL       66
REMARK 921   NORMALIZED FREE ENERGY PREDICTED BY IDOCK:   -4.17 KCAL/MOL
REMARK 922        TOTAL FREE ENERGY PREDICTED BY IDOCK:   -4.72 KCAL/MOL
REMARK 923 INTER-LIGAND FREE ENERGY PREDICTED BY IDOCK:   -4.42 KCAL/MOL
REMARK 924 INTRA-LIGAND FREE ENERGY PREDICTED BY IDOCK:   -0.30 KCAL/MOL
REMARK 927      BINDING AFFINITY PREDICTED BY RF-SCORE:    0.00 PKD
ROOT
HETATM    1  C   UNL     1      -7.763  17.237  68.857  1.00  0.00    -0.221 C  
HETATM    2  N   UNL     1      -8.612  17.041  67.708  1.00  0.00    -0.211 N  
HETATM    3  C   UNL     1      -9.528  17.946  67.266  1.00  0.00    -0.263 C  
HETATM    4  O   UNL     1      -9.720  19.069  67.709  1.00  0.00    -0.306 OA 
HETATM    5  C   UNL     1     -10.294  17.353  66.120  1.00  0.00    -0.329 C  
HETATM    6  C   UNL     1      -9.566  16.041  65.819  1.00  0.00    -0.311 C  
HETATM    7  O   UNL     1      -7.675  15.060  66.994  1.00  0.00    -0.198 OA 
HETATM    8  C   UNL     1      -8.504  15.953  66.891  1.00  0.00    -0.240 C  
ENDROOT
BRANCH   6   9
HETATM    9  C   UNL     1     -10.491  14.844  65.809  1.00  0.00    -0.345 A  
HETATM   10  C   UNL     1     -10.467  13.944  64.735  1.00  0.00    -0.451 A  
HETATM   11  C   UNL     1     -11.339  12.854  64.705  1.00  0.00    -0.361 A  
HETATM   12  C   UNL     1     -12.240  12.647  65.747  1.00  0.00    -0.427 A  
HETATM   13  C   UNL     1     -12.263  13.523  66.828  1.00  0.00    -0.392 A  
HETATM   14  C   UNL     1     -11.392  14.612  66.862  1.00  0.00    -0.361 A  
ENDBRANCH   6   9
TORSDOF 1
ENDMDL
MODEL       67
REMARK 921   NORMALIZED FREE ENERGY PREDICTED BY IDOCK:   -4.09 KCAL/MOL
REMARK 922        TOTAL FREE ENERGY PREDICTED BY IDOCK:   -4.63 KCAL/MOL
REMARK 923 INTER-LIGAND FREE ENERGY PREDICTED BY IDOCK:   -4.35 KCAL/MOL
REMARK 924 INTRA-LIGAND FREE ENERGY PREDICTED BY IDOCK:   -0.28 KCAL/MOL
REMARK 927      BINDING AFFINITY PREDICTED BY RF-SCORE:    0.00 PKD
ROOT
HETATM    1  C   UNL     1      -8.282  16.549  68.608  1.00  0.00    -0.234 C  
HETATM    2  N   UNL     1      -9.484  15.806  68.317  1.00  0.00    -0.198 N  
HETATM    3  C   UNL     1     -10.656  16.367  67.911  1.00  0.00    -0.320 C  
HETATM    4  O   UNL     1     -10.853  17.548  67.659  1.00  0.00    -0.343 OA 
HETATM    5  C   UNL     1     -11.706  15.301  67.811  1.00  0.00    -0.206 C  
HETATM    6  C   UNL     1     -10.938  13.995  68.025  1.00  0.00    -0.266 C  
HETATM    7  O   UNL     1      -8.577  13.698  68.536  1.00  0.00    -0.165 OA 
HETATM    8  C   UNL     1      -9.525  14.442  68.330  1.00  0.00    -0.207 C  
ENDROOT
BRANCH   6   9
HETATM    9  C   UNL     1     -11.531  13.135  69.120  1.00  0.00    -0.358 A  
HETATM   10  C   UNL     1     -12.193  13.731  70.202  1.00  0.00    -0.425 A  
HETATM   11  C   UNL     1     -12.717  12.946  71.231  1.00  0.00    -0.371 A  
HETATM   12  C   UNL     1     -12.588  11.559  71.190  1.00  0.00    -0.463 A  
HETATM   13  C   UNL     1     -11.948  10.954  70.113  1.00  0.00    -0.435 A  
HETATM   14  C   UNL     1     -11.426  11.735  69.082  1.00  0.00    -0.358 A  
ENDBRANCH   6   9
TORSDOF 1
ENDMDL
MODEL       68
REMARK 921   NORMALIZED FREE ENERGY PREDICTED BY IDOCK:   -4.06 KCAL/MOL
REMARK 922        TOTAL FREE ENERGY PREDICTED BY IDOCK:   -4.60 KCAL/MOL
REMARK 923 INTER-LIGAND FREE ENERGY PREDICTED BY IDOCK:   -4.37 KCAL/MOL
REMARK 924 INTRA-LIGAND FREE ENERGY PREDICTED BY IDOCK:   -0.23 KCAL/MOL
REMARK 927      BINDING AFFINITY PREDICTED BY RF-SCORE:    0.00 PKD
ROOT
HETATM    1  C   UNL     1      -8.780   6.208  72.911  1.00  0.00    -0.122 C  
HETATM    2  N   UNL     1      -9.931   7.004  72.562  1.00  0.00    -0.167 N  
HETATM    3  C   UNL     1     -11.209   6.535  72.528  1.00  0.00    -0.262 C  
HETATM    4  O   UNL     1     -11.587   5.419  72.851  1.00  0.00    -0.312 OA 
HETATM    5  C   UNL     1     -12.118   7.616  72.021  1.00  0.00    -0.336 C  
HETATM    6  C   UNL     1     -11.224   8.856  71.948  1.00  0.00    -0.447 C  
HETATM    7  O   UNL     1      -8.844   9.032  72.420  1.00  0.00    -0.337 OA 
HETATM    8  C   UNL     1      -9.852   8.346  72.326  1.00  0.00    -0.313 C  
ENDROOT
BRANCH   6   9
HETATM    9  C   UNL     1     -11.250   9.521  70.589  1.00  0.00    -0.364 A  
HETATM   10  C   UNL     1     -10.542   8.961  69.517  1.00  0.00    -0.233 A  
HETATM   11  C   UNL     1     -10.537   9.585  68.268  1.00  0.00    -0.260 A  
HETATM   12  C   UNL     1     -11.241  10.773  68.075  1.00  0.00    -0.372 A  
HETATM   13  C   UNL     1     -11.962  11.330  69.126  1.00  0.00    -0.405 A  
HETATM   14  C   UNL     1     -11.971  10.708  70.374  1.00  0.00    -0.436 A  
ENDBRANCH   6   9
TORSDOF 1
ENDMDL
MODEL       69
REMARK 921   NORMALIZED FREE ENERGY PREDICTED BY IDOCK:   -4.04 KCAL/MOL
REMARK 922        TOTAL FREE ENERGY PREDICTED BY IDOCK:   -4.58 KCAL/MOL
REMARK 923 INTER-LIGAND FREE ENERGY PREDICTED BY IDOCK:   -4.75 KCAL/MOL
REMARK 924 INTRA-LIGAND FREE ENERGY PREDICTED BY IDOCK:    0.17 KCAL/MOL
REMARK 927      BINDING AFFINITY PREDICTED BY RF-SCORE:    0.00 PKD
ROOT
HETATM    1  C   UNL     1     -10.237  16.658  66.470  1.00  0.00    -0.310 C  
HETATM    2  N   UNL     1     -10.925  15.769  67.374  1.00  0.00    -0.308 N  
HETATM    3  C   UNL     1     -11.069  15.990  68.709  1.00  0.00    -0.338 C  
HETATM    4  O   UNL     1     -10.717  16.983  69.329  1.00  0.00    -0.323 OA 
HETATM    5  C   UNL     1     -11.741  14.804  69.336  1.00  0.00    -0.358 C  
HETATM    6  C   UNL     1     -12.155  13.934  68.148  1.00  0.00    -0.317 C  
HETATM    7  O   UNL     1     -11.723  14.304  65.782  1.00  0.00    -0.344 OA 
HETATM    8  C   UNL     1     -11.589  14.655  66.945  1.00  0.00    -0.362 C  
ENDROOT
BRANCH   6   9
HETATM    9  C   UNL     1     -11.662  12.508  68.262  1.00  0.00    -0.390 A  
HETATM   10  C   UNL     1     -11.570  11.893  69.518  1.00  0.00    -0.394 A  
HETATM   11  C   UNL     1     -11.088  10.588  69.634  1.00  0.00    -0.338 A  
HETATM   12  C   UNL     1     -10.696   9.882  68.498  1.00  0.00    -0.260 A  
HETATM   13  C   UNL     1     -10.798  10.474  67.244  1.00  0.00    -0.338 A  
HETATM   14  C   UNL     1     -11.282  11.777  67.124  1.00  0.00    -0.375 A  
ENDBRANCH   6   9
TORSDOF 1
ENDMDL
MODEL       70
REMARK 921   NORMALIZED FREE ENERGY PREDICTED BY IDOCK:   -4.03 KCAL/MOL
REMARK 922        TOTAL FREE ENERGY PREDICTED BY IDOCK:   -4.57 KCAL/MOL
REMARK 923 INTER-LIGAND FREE ENERGY PREDICTED BY IDOCK:   -4.38 KCAL/MOL
REMARK 924 INTRA-LIGAND FREE ENERGY PREDICTED BY IDOCK:   -0.19 KCAL/MOL
REMARK 927      BINDING AFFINITY PREDICTED BY RF-SCORE:    0.00 PKD
ROOT
HETATM    1  C   UNL     1     -10.064  13.235  65.276  1.00  0.00    -0.239 C  
HETATM    2  N   UNL     1     -10.602  13.466  66.595  1.00  0.00    -0.280 N  
HETATM    3  C   UNL     1     -10.201  14.467  67.425  1.00  0.00    -0.240 C  
HETATM    4  O   UNL     1      -9.400  15.354  67.167  1.00  0.00    -0.205 OA 
HETATM    5  C   UNL     1     -10.903  14.327  68.743  1.00  0.00    -0.265 C  
HETATM    6  C   UNL     1     -11.926  13.214  68.509  1.00  0.00    -0.324 C  
HETATM    7  O   UNL     1     -12.272  11.878  66.504  1.00  0.00    -0.483 OA 
HETATM    8  C   UNL     1     -11.648  12.746  67.098  1.00  0.00    -0.364 C  
ENDROOT
BRANCH   6   9
HETATM    9  C   UNL     1     -11.828  12.099  69.527  1.00  0.00    -0.386 A  
HETATM   10  C   UNL     1     -12.664  12.095  70.651  1.00  0.00    -0.150 A  
HETATM   11  C   UNL     1     -12.558  11.086  71.610  1.00  0.00    -0.402 A  
HETATM   12  C   UNL     1     -11.619  10.067  71.455  1.00  0.00    -0.383 A  
HETATM   13  C   UNL     1     -10.794  10.049  70.335  1.00  0.00    -0.380 A  
HETATM   14  C   UNL     1     -10.900  11.055  69.374  1.00  0.00    -0.278 A  
ENDBRANCH   6   9
TORSDOF 1
ENDMDL
MODEL       71
REMARK 921   NORMALIZED FREE ENERGY PREDICTED BY IDOCK:   -4.01 KCAL/MOL
REMARK 922        TOTAL FREE ENERGY PREDICTED BY IDOCK:   -4.55 KCAL/MOL
REMARK 923 INTER-LIGAND FREE ENERGY PREDICTED BY IDOCK:   -4.25 KCAL/MOL
REMARK 924 INTRA-LIGAND FREE ENERGY PREDICTED BY IDOCK:   -0.30 KCAL/MOL
REMARK 927      BINDING AFFINITY PREDICTED BY RF-SCORE:    0.00 PKD
ROOT
HETATM    1  C   UNL     1      -9.903  10.477  68.905  1.00  0.00    -0.201 C  
HETATM    2  N   UNL     1     -10.840   9.871  69.820  1.00  0.00    -0.252 N  
HETATM    3  C   UNL     1     -11.689  10.568  70.624  1.00  0.00    -0.357 C  
HETATM    4  O   UNL     1     -11.845  11.781  70.647  1.00  0.00    -0.298 OA 
HETATM    5  C   UNL     1     -12.430   9.610  71.509  1.00  0.00    -0.476 C  
HETATM    6  C   UNL     1     -12.043   8.229  70.974  1.00  0.00    -0.225 C  
HETATM    7  O   UNL     1     -10.489   7.683  69.184  1.00  0.00    -0.215 OA 
HETATM    8  C   UNL     1     -11.031   8.521  69.890  1.00  0.00    -0.165 C  
ENDROOT
BRANCH   6   9
HETATM    9  C   UNL     1     -11.503   7.311  72.050  1.00  0.00    -0.305 A  
HETATM   10  C   UNL     1     -10.582   7.793  72.990  1.00  0.00    -0.441 A  
HETATM   11  C   UNL     1     -10.057   6.945  73.966  1.00  0.00    -0.383 A  
HETATM   12  C   UNL     1     -10.448   5.608  74.018  1.00  0.00    -0.297 A  
HETATM   13  C   UNL     1     -11.374   5.121  73.102  1.00  0.00    -0.385 A  
HETATM   14  C   UNL     1     -11.903   5.967  72.126  1.00  0.00    -0.247 A  
ENDBRANCH   6   9
TORSDOF 1
ENDMDL
MODEL       72
REMARK 921   NORMALIZED FREE ENERGY PREDICTED BY IDOCK:   -4.01 KCAL/MOL
REMARK 922        TOTAL FREE ENERGY PREDICTED BY IDOCK:   -4.55 KCAL/MOL
REMARK 923 INTER-LIGAND FREE ENERGY PREDICTED BY IDOCK:   -4.44 KCAL/MOL
REMARK 924 INTRA-LIGAND FREE ENERGY PREDICTED BY IDOCK:   -0.10 KCAL/MOL
REMARK 927      BINDING AFFINITY PREDICTED BY RF-SCORE:    0.00 PKD
ROOT
HETATM    1  C   UNL     1     -10.909   5.969  67.276  1.00  0.00    -0.315 C  
HETATM    2  N   UNL     1     -10.644   6.575  68.558  1.00  0.00    -0.219 N  
HETATM    3  C   UNL     1     -10.395   5.879  69.700  1.00  0.00    -0.247 C  
HETATM    4  O   UNL     1     -10.282   4.667  69.809  1.00  0.00    -0.234 OA 
HETATM    5  C   UNL     1     -10.274   6.839  70.847  1.00  0.00    -0.215 C  
HETATM    6  C   UNL     1     -10.290   8.219  70.186  1.00  0.00    -0.212 C  
HETATM    7  O   UNL     1     -10.572   8.762  67.831  1.00  0.00    -0.229 OA 
HETATM    8  C   UNL     1     -10.522   7.925  68.721  1.00  0.00    -0.176 C  
ENDROOT
BRANCH   6   9
HETATM    9  C   UNL     1     -11.337   9.141  70.772  1.00  0.00    -0.337 A  
HETATM   10  C   UNL     1     -12.229   8.667  71.744  1.00  0.00    -0.403 A  
HETATM   11  C   UNL     1     -13.216   9.503  72.267  1.00  0.00    -0.507 A  
HETATM   12  C   UNL     1     -13.322  10.822  71.830  1.00  0.00    -0.429 A  
HETATM   13  C   UNL     1     -12.433  11.311  70.879  1.00  0.00    -0.493 A  
HETATM   14  C   UNL     1     -11.443  10.479  70.355  1.00  0.00    -0.427 A  
ENDBRANCH   6   9
TORSDOF 1
ENDMDL
MODEL       73
REMARK 921   NORMALIZED FREE ENERGY PREDICTED BY IDOCK:   -3.99 KCAL/MOL
REMARK 922        TOTAL FREE ENERGY PREDICTED BY IDOCK:   -4.53 KCAL/MOL
REMARK 923 INTER-LIGAND FREE ENERGY PREDICTED BY IDOCK:   -4.31 KCAL/MOL
REMARK 924 INTRA-LIGAND FREE ENERGY PREDICTED BY IDOCK:   -0.22 KCAL/MOL
REMARK 927      BINDING AFFINITY PREDICTED BY RF-SCORE:    0.00 PKD
ROOT
HETATM    1  C   UNL     1     -11.740  12.506  67.087  1.00  0.00    -0.355 C  
HETATM    2  N   UNL     1     -10.700  13.505  67.096  1.00  0.00    -0.277 N  
HETATM    3  C   UNL     1      -9.506  13.368  67.736  1.00  0.00    -0.210 C  
HETATM    4  O   UNL     1      -9.102  12.375  68.324  1.00  0.00    -0.195 OA 
HETATM    5  C   UNL     1      -8.730  14.646  67.614  1.00  0.00    -0.181 C  
HETATM    6  C   UNL     1      -9.552  15.494  66.641  1.00  0.00    -0.273 C  
HETATM    7  O   UNL     1     -11.691  14.964  65.611  1.00  0.00    -0.305 OA 
HETATM    8  C   UNL     1     -10.783  14.659  66.370  1.00  0.00    -0.309 C  
ENDROOT
BRANCH   6   9
HETATM    9  C   UNL     1      -9.882  16.866  67.189  1.00  0.00    -0.270 A  
HETATM   10  C   UNL     1     -10.253  17.901  66.321  1.00  0.00    -0.363 A  
HETATM   11  C   UNL     1     -10.529  19.176  66.816  1.00  0.00    -0.524 A  
HETATM   12  C   UNL     1     -10.442  19.431  68.184  1.00  0.00    -0.476 A  
HETATM   13  C   UNL     1     -10.092  18.408  69.059  1.00  0.00    -0.274 A  
HETATM   14  C   UNL     1      -9.817  17.132  68.567  1.00  0.00    -0.297 A  
ENDBRANCH   6   9
TORSDOF 1
ENDMDL
MODEL       74
REMARK 921   NORMALIZED FREE ENERGY PREDICTED BY IDOCK:   -3.99 KCAL/MOL
REMARK 922        TOTAL FREE ENERGY PREDICTED BY IDOCK:   -4.53 KCAL/MOL
REMARK 923 INTER-LIGAND FREE ENERGY PREDICTED BY IDOCK:   -4.24 KCAL/MOL
REMARK 924 INTRA-LIGAND FREE ENERGY PREDICTED BY IDOCK:   -0.28 KCAL/MOL
REMARK 927      BINDING AFFINITY PREDICTED BY RF-SCORE:    0.00 PKD
ROOT
HETATM    1  C   UNL     1      -8.051  13.052  67.810  1.00  0.00    -0.168 C  
HETATM    2  N   UNL     1      -9.220  12.209  67.842  1.00  0.00    -0.182 N  
HETATM    3  C   UNL     1     -10.320  12.389  67.061  1.00  0.00    -0.220 C  
HETATM    4  O   UNL     1     -10.462  13.223  66.178  1.00  0.00    -0.283 OA 
HETATM    5  C   UNL     1     -11.370  11.390  67.447  1.00  0.00    -0.359 C  
HETATM    6  C   UNL     1     -10.660  10.461  68.435  1.00  0.00    -0.238 C  
HETATM    7  O   UNL     1      -8.390  10.622  69.294  1.00  0.00    -0.152 OA 
HETATM    8  C   UNL     1      -9.290  11.078  68.603  1.00  0.00    -0.194 C  
ENDROOT
BRANCH   6   9
HETATM    9  C   UNL     1     -11.404  10.317  69.746  1.00  0.00    -0.334 A  
HETATM   10  C   UNL     1     -11.333   9.118  70.468  1.00  0.00    -0.300 A  
HETATM   11  C   UNL     1     -12.040   8.968  71.662  1.00  0.00    -0.422 A  
HETATM   12  C   UNL     1     -12.822  10.014  72.151  1.00  0.00    -0.414 A  
HETATM   13  C   UNL     1     -12.887  11.215  71.453  1.00  0.00    -0.544 A  
HETATM   14  C   UNL     1     -12.180  11.370  70.260  1.00  0.00    -0.433 A  
ENDBRANCH   6   9
TORSDOF 1
ENDMDL
MODEL       75
REMARK 921   NORMALIZED FREE ENERGY PREDICTED BY IDOCK:   -3.98 KCAL/MOL
REMARK 922        TOTAL FREE ENERGY PREDICTED BY IDOCK:   -4.52 KCAL/MOL
REMARK 923 INTER-LIGAND FREE ENERGY PREDICTED BY IDOCK:   -4.27 KCAL/MOL
REMARK 924 INTRA-LIGAND FREE ENERGY PREDICTED BY IDOCK:   -0.25 KCAL/MOL
REMARK 927      BINDING AFFINITY PREDICTED BY RF-SCORE:    0.00 PKD
ROOT
HETATM    1  C   UNL     1     -11.037  10.307  70.155  1.00  0.00    -0.319 C  
HETATM    2  N   UNL     1     -11.179  10.915  68.855  1.00  0.00    -0.244 N  
HETATM    3  C   UNL     1     -11.042  10.250  67.676  1.00  0.00    -0.251 C  
HETATM    4  O   UNL     1     -10.858   9.050  67.529  1.00  0.00    -0.232 OA 
HETATM    5  C   UNL     1     -11.151  11.226  66.542  1.00  0.00    -0.280 C  
HETATM    6  C   UNL     1     -11.570  12.536  67.212  1.00  0.00    -0.434 C  
HETATM    7  O   UNL     1     -11.875  12.989  69.583  1.00  0.00    -0.305 OA 
HETATM    8  C   UNL     1     -11.565  12.214  68.690  1.00  0.00    -0.321 C  
ENDROOT
BRANCH   6   9
HETATM    9  C   UNL     1     -10.662  13.695  66.861  1.00  0.00    -0.275 A  
HETATM   10  C   UNL     1     -11.085  14.670  65.948  1.00  0.00    -0.338 A  
HETATM   11  C   UNL     1     -10.240  15.725  65.597  1.00  0.00    -0.407 A  
HETATM   12  C   UNL     1      -8.967  15.820  66.156  1.00  0.00    -0.372 A  
HETATM   13  C   UNL     1      -8.542  14.869  67.077  1.00  0.00    -0.265 A  
HETATM   14  C   UNL     1      -9.384  13.815  67.432  1.00  0.00    -0.226 A  
ENDBRANCH   6   9
TORSDOF 1
ENDMDL
MODEL       76
REMARK 921   NORMALIZED FREE ENERGY PREDICTED BY IDOCK:   -3.97 KCAL/MOL
REMARK 922        TOTAL FREE ENERGY PREDICTED BY IDOCK:   -4.51 KCAL/MOL
REMARK 923 INTER-LIGAND FREE ENERGY PREDICTED BY IDOCK:   -4.21 KCAL/MOL
REMARK 924 INTRA-LIGAND FREE ENERGY PREDICTED BY IDOCK:   -0.29 KCAL/MOL
REMARK 927      BINDING AFFINITY PREDICTED BY RF-SCORE:    0.00 PKD
ROOT
HETATM    1  C   UNL     1      -7.641   9.599  67.662  1.00  0.00    -0.091 C  
HETATM    2  N   UNL     1      -8.924  10.256  67.621  1.00  0.00    -0.134 N  
HETATM    3  C   UNL     1     -10.092   9.689  68.029  1.00  0.00    -0.178 C  
HETATM    4  O   UNL     1     -10.230   8.593  68.553  1.00  0.00    -0.187 OA 
HETATM    5  C   UNL     1     -11.226  10.628  67.738  1.00  0.00    -0.383 C  
HETATM    6  C   UNL     1     -10.539  11.917  67.280  1.00  0.00    -0.261 C  
HETATM    7  O   UNL     1      -8.162  12.332  66.967  1.00  0.00    -0.177 OA 
HETATM    8  C   UNL     1      -9.069  11.563  67.253  1.00  0.00    -0.164 C  
ENDROOT
BRANCH   6   9
HETATM    9  C   UNL     1     -11.048  12.412  65.943  1.00  0.00    -0.349 A  
HETATM   10  C   UNL     1     -11.724  13.636  65.856  1.00  0.00    -0.378 A  
HETATM   11  C   UNL     1     -12.222  14.084  64.632  1.00  0.00    -0.460 A  
HETATM   12  C   UNL     1     -12.047  13.318  63.480  1.00  0.00    -0.550 A  
HETATM   13  C   UNL     1     -11.363  12.109  63.550  1.00  0.00    -0.535 A  
HETATM   14  C   UNL     1     -10.862  11.659  64.771  1.00  0.00    -0.367 A  
ENDBRANCH   6   9
TORSDOF 1
ENDMDL
MODEL       77
REMARK 921   NORMALIZED FREE ENERGY PREDICTED BY IDOCK:   -3.95 KCAL/MOL
REMARK 922        TOTAL FREE ENERGY PREDICTED BY IDOCK:   -4.48 KCAL/MOL
REMARK 923 INTER-LIGAND FREE ENERGY PREDICTED BY IDOCK:   -4.19 KCAL/MOL
REMARK 924 INTRA-LIGAND FREE ENERGY PREDICTED BY IDOCK:   -0.30 KCAL/MOL
REMARK 927      BINDING AFFINITY PREDICTED BY RF-SCORE:    0.00 PKD
ROOT
HETATM    1  C   UNL     1     -10.146  18.284  68.766  1.00  0.00    -0.370 C  
HETATM    2  N   UNL     1      -9.807  16.885  68.681  1.00  0.00    -0.258 N  
HETATM    3  C   UNL     1      -8.537  16.397  68.719  1.00  0.00    -0.250 C  
HETATM    4  O   UNL     1      -7.512  17.038  68.903  1.00  0.00    -0.230 OA 
HETATM    5  C   UNL     1      -8.571  14.914  68.496  1.00  0.00    -0.162 C  
HETATM    6  C   UNL     1     -10.060  14.563  68.518  1.00  0.00    -0.242 C  
HETATM    7  O   UNL     1     -11.961  16.065  68.738  1.00  0.00    -0.340 OA 
HETATM    8  C   UNL     1     -10.753  15.901  68.652  1.00  0.00    -0.274 C  
ENDROOT
BRANCH   6   9
HETATM    9  C   UNL     1     -10.502  13.793  67.293  1.00  0.00    -0.264 A  
HETATM   10  C   UNL     1     -11.377  12.706  67.421  1.00  0.00    -0.367 A  
HETATM   11  C   UNL     1     -11.766  11.973  66.299  1.00  0.00    -0.319 A  
HETATM   12  C   UNL     1     -11.287  12.318  65.036  1.00  0.00    -0.376 A  
HETATM   13  C   UNL     1     -10.431  13.405  64.892  1.00  0.00    -0.404 A  
HETATM   14  C   UNL     1     -10.043  14.141  66.011  1.00  0.00    -0.330 A  
ENDBRANCH   6   9
TORSDOF 1
ENDMDL
MODEL       78
REMARK 921   NORMALIZED FREE ENERGY PREDICTED BY IDOCK:   -3.93 KCAL/MOL
REMARK 922        TOTAL FREE ENERGY PREDICTED BY IDOCK:   -4.47 KCAL/MOL
REMARK 923 INTER-LIGAND FREE ENERGY PREDICTED BY IDOCK:   -4.17 KCAL/MOL
REMARK 924 INTRA-LIGAND FREE ENERGY PREDICTED BY IDOCK:   -0.30 KCAL/MOL
REMARK 927      BINDING AFFINITY PREDICTED BY RF-SCORE:    0.00 PKD
ROOT
HETATM    1  C   UNL     1      -8.422   9.455  68.273  1.00  0.00    -0.120 C  
HETATM    2  N   UNL     1      -8.970   9.238  69.590  1.00  0.00    -0.149 N  
HETATM    3  C   UNL     1      -8.384   8.473  70.550  1.00  0.00    -0.135 C  
HETATM    4  O   UNL     1      -7.293   7.923  70.484  1.00  0.00    -0.065 OA 
HETATM    5  C   UNL     1      -9.292   8.394  71.742  1.00  0.00    -0.293 C  
HETATM    6  C   UNL     1     -10.414   9.386  71.426  1.00  0.00    -0.358 C  
HETATM    7  O   UNL     1     -10.738  10.707  69.409  1.00  0.00    -0.216 OA 
HETATM    8  C   UNL     1     -10.097   9.871  70.029  1.00  0.00    -0.260 C  
ENDROOT
BRANCH   6   9
HETATM    9  C   UNL     1     -11.792   8.771  71.535  1.00  0.00    -0.377 A  
HETATM   10  C   UNL     1     -12.004   7.443  71.141  1.00  0.00    -0.351 A  
HETATM   11  C   UNL     1     -13.279   6.879  71.211  1.00  0.00    -0.237 A  
HETATM   12  C   UNL     1     -14.355   7.632  71.678  1.00  0.00    -0.613 A  
HETATM   13  C   UNL     1     -14.155   8.946  72.088  1.00  0.00    -0.497 A  
HETATM   14  C   UNL     1     -12.882   9.512  72.023  1.00  0.00    -0.499 A  
ENDBRANCH   6   9
TORSDOF 1
ENDMDL
MODEL       79
REMARK 921   NORMALIZED FREE ENERGY PREDICTED BY IDOCK:   -3.88 KCAL/MOL
REMARK 922        TOTAL FREE ENERGY PREDICTED BY IDOCK:   -4.41 KCAL/MOL
REMARK 923 INTER-LIGAND FREE ENERGY PREDICTED BY IDOCK:   -4.22 KCAL/MOL
REMARK 924 INTRA-LIGAND FREE ENERGY PREDICTED BY IDOCK:   -0.19 KCAL/MOL
REMARK 927      BINDING AFFINITY PREDICTED BY RF-SCORE:    0.00 PKD
ROOT
HETATM    1  C   UNL     1      -7.784   7.893  73.513  1.00  0.00    -0.157 C  
HETATM    2  N   UNL     1      -9.031   7.989  72.796  1.00  0.00    -0.203 N  
HETATM    3  C   UNL     1     -10.202   7.433  73.212  1.00  0.00    -0.335 C  
HETATM    4  O   UNL     1     -10.400   6.846  74.267  1.00  0.00    -0.346 OA 
HETATM    5  C   UNL     1     -11.252   7.649  72.163  1.00  0.00    -0.331 C  
HETATM    6  C   UNL     1     -10.587   8.585  71.151  1.00  0.00    -0.277 C  
HETATM    7  O   UNL     1      -8.310   9.442  71.158  1.00  0.00    -0.310 OA 
HETATM    8  C   UNL     1      -9.173   8.741  71.665  1.00  0.00    -0.263 C  
ENDROOT
BRANCH   6   9
HETATM    9  C   UNL     1     -10.641   8.056  69.735  1.00  0.00    -0.238 A  
HETATM   10  C   UNL     1     -10.386   8.910  68.653  1.00  0.00    -0.228 A  
HETATM   11  C   UNL     1     -10.464   8.435  67.343  1.00  0.00    -0.354 A  
HETATM   12  C   UNL     1     -10.793   7.104  67.097  1.00  0.00    -0.403 A  
HETATM   13  C   UNL     1     -11.032   6.241  68.162  1.00  0.00    -0.412 A  
HETATM   14  C   UNL     1     -10.953   6.711  69.473  1.00  0.00    -0.367 A  
ENDBRANCH   6   9
TORSDOF 1
ENDMDL
MODEL       80
REMARK 921   NORMALIZED FREE ENERGY PREDICTED BY IDOCK:   -3.88 KCAL/MOL
REMARK 922        TOTAL FREE ENERGY PREDICTED BY IDOCK:   -4.41 KCAL/MOL
REMARK 923 INTER-LIGAND FREE ENERGY PREDICTED BY IDOCK:   -4.12 KCAL/MOL
REMARK 924 INTRA-LIGAND FREE ENERGY PREDICTED BY IDOCK:   -0.29 KCAL/MOL
REMARK 927      BINDING AFFINITY PREDICTED BY RF-SCORE:    0.00 PKD
ROOT
HETATM    1  C   UNL     1     -11.731  16.054  68.965  1.00  0.00    -0.318 C  
HETATM    2  N   UNL     1     -11.757  14.618  68.837  1.00  0.00    -0.297 N  
HETATM    3  C   UNL     1     -11.868  13.754  69.883  1.00  0.00    -0.327 C  
HETATM    4  O   UNL     1     -12.036  14.046  71.058  1.00  0.00    -0.327 OA 
HETATM    5  C   UNL     1     -11.752  12.347  69.377  1.00  0.00    -0.384 C  
HETATM    6  C   UNL     1     -11.756  12.493  67.853  1.00  0.00    -0.416 C  
HETATM    7  O   UNL     1     -11.810  14.536  66.533  1.00  0.00    -0.383 OA 
HETATM    8  C   UNL     1     -11.771  13.988  67.625  1.00  0.00    -0.377 C  
ENDROOT
BRANCH   6   9
HETATM    9  C   UNL     1     -10.576  11.812  67.194  1.00  0.00    -0.267 A  
HETATM   10  C   UNL     1     -10.780  10.711  66.350  1.00  0.00    -0.198 A  
HETATM   11  C   UNL     1      -9.695  10.059  65.762  1.00  0.00    -0.321 A  
HETATM   12  C   UNL     1      -8.395  10.500  66.007  1.00  0.00    -0.158 A  
HETATM   13  C   UNL     1      -8.180  11.601  66.829  1.00  0.00    -0.161 A  
HETATM   14  C   UNL     1      -9.262  12.257  67.415  1.00  0.00    -0.182 A  
ENDBRANCH   6   9
TORSDOF 1
ENDMDL
MODEL       81
REMARK 921   NORMALIZED FREE ENERGY PREDICTED BY IDOCK:   -3.87 KCAL/MOL
REMARK 922        TOTAL FREE ENERGY PREDICTED BY IDOCK:   -4.40 KCAL/MOL
REMARK 923 INTER-LIGAND FREE ENERGY PREDICTED BY IDOCK:   -4.22 KCAL/MOL
REMARK 924 INTRA-LIGAND FREE ENERGY PREDICTED BY IDOCK:   -0.18 KCAL/MOL
REMARK 927      BINDING AFFINITY PREDICTED BY RF-SCORE:    0.00 PKD
ROOT
HETATM    1  C   UNL     1     -11.998  12.321  65.374  1.00  0.00    -0.332 C  
HETATM    2  N   UNL     1     -11.023  11.307  65.691  1.00  0.00    -0.189 N  
HETATM    3  C   UNL     1     -10.207  10.711  64.778  1.00  0.00    -0.331 C  
HETATM    4  O   UNL     1     -10.117  10.985  63.590  1.00  0.00    -0.312 OA 
HETATM    5  C   UNL     1      -9.408   9.638  65.456  1.00  0.00    -0.309 C  
HETATM    6  C   UNL     1      -9.723   9.815  66.943  1.00  0.00    -0.243 C  
HETATM    7  O   UNL     1     -11.259  11.389  67.983  1.00  0.00    -0.236 OA 
HETATM    8  C   UNL     1     -10.759  10.917  66.973  1.00  0.00    -0.271 C  
ENDROOT
BRANCH   6   9
HETATM    9  C   UNL     1     -10.204   8.539  67.599  1.00  0.00    -0.297 A  
HETATM   10  C   UNL     1     -10.242   8.437  68.996  1.00  0.00    -0.217 A  
HETATM   11  C   UNL     1     -10.656   7.252  69.608  1.00  0.00    -0.246 A  
HETATM   12  C   UNL     1     -11.040   6.160  68.833  1.00  0.00    -0.417 A  
HETATM   13  C   UNL     1     -11.024   6.254  67.446  1.00  0.00    -0.447 A  
HETATM   14  C   UNL     1     -10.613   7.437  66.831  1.00  0.00    -0.375 A  
ENDBRANCH   6   9
TORSDOF 1
ENDMDL
MODEL       82
REMARK 921   NORMALIZED FREE ENERGY PREDICTED BY IDOCK:   -3.87 KCAL/MOL
REMARK 922        TOTAL FREE ENERGY PREDICTED BY IDOCK:   -4.40 KCAL/MOL
REMARK 923 INTER-LIGAND FREE ENERGY PREDICTED BY IDOCK:   -4.17 KCAL/MOL
REMARK 924 INTRA-LIGAND FREE ENERGY PREDICTED BY IDOCK:   -0.23 KCAL/MOL
REMARK 927      BINDING AFFINITY PREDICTED BY RF-SCORE:    0.00 PKD
ROOT
HETATM    1  C   UNL     1      -6.612  14.030  67.777  1.00  0.00    -0.176 C  
HETATM    2  N   UNL     1      -7.951  14.552  67.892  1.00  0.00    -0.134 N  
HETATM    3  C   UNL     1      -9.063  13.930  67.412  1.00  0.00    -0.217 C  
HETATM    4  O   UNL     1      -9.116  12.826  66.889  1.00  0.00    -0.213 OA 
HETATM    5  C   UNL     1     -10.254  14.818  67.620  1.00  0.00    -0.232 C  
HETATM    6  C   UNL     1      -9.721  15.971  68.472  1.00  0.00    -0.214 C  
HETATM    7  O   UNL     1      -7.440  16.362  69.225  1.00  0.00    -0.236 OA 
HETATM    8  C   UNL     1      -8.240  15.689  68.591  1.00  0.00    -0.168 C  
ENDROOT
BRANCH   6   9
HETATM    9  C   UNL     1     -10.013  17.330  67.874  1.00  0.00    -0.297 A  
HETATM   10  C   UNL     1     -10.023  18.471  68.688  1.00  0.00    -0.419 A  
HETATM   11  C   UNL     1     -10.321  19.723  68.148  1.00  0.00    -0.561 A  
HETATM   12  C   UNL     1     -10.610  19.851  66.791  1.00  0.00    -0.536 A  
HETATM   13  C   UNL     1     -10.587  18.729  65.968  1.00  0.00    -0.442 A  
HETATM   14  C   UNL     1     -10.287  17.477  66.504  1.00  0.00    -0.325 A  
ENDBRANCH   6   9
TORSDOF 1
ENDMDL
MODEL       83
REMARK 921   NORMALIZED FREE ENERGY PREDICTED BY IDOCK:   -3.86 KCAL/MOL
REMARK 922        TOTAL FREE ENERGY PREDICTED BY IDOCK:   -4.39 KCAL/MOL
REMARK 923 INTER-LIGAND FREE ENERGY PREDICTED BY IDOCK:   -4.26 KCAL/MOL
REMARK 924 INTRA-LIGAND FREE ENERGY PREDICTED BY IDOCK:   -0.13 KCAL/MOL
REMARK 927      BINDING AFFINITY PREDICTED BY RF-SCORE:    0.00 PKD
ROOT
HETATM    1  C   UNL     1     -10.623  17.036  68.535  1.00  0.00    -0.370 C  
HETATM    2  N   UNL     1     -11.181  15.804  69.038  1.00  0.00    -0.296 N  
HETATM    3  C   UNL     1     -11.507  15.584  70.341  1.00  0.00    -0.345 C  
HETATM    4  O   UNL     1     -11.454  16.394  71.256  1.00  0.00    -0.396 OA 
HETATM    5  C   UNL     1     -11.954  14.161  70.505  1.00  0.00    -0.393 C  
HETATM    6  C   UNL     1     -12.036  13.626  69.074  1.00  0.00    -0.392 C  
HETATM    7  O   UNL     1     -11.458  14.761  67.001  1.00  0.00    -0.350 OA 
HETATM    8  C   UNL     1     -11.527  14.766  68.222  1.00  0.00    -0.317 C  
ENDROOT
BRANCH   6   9
HETATM    9  C   UNL     1     -11.247  12.349  68.877  1.00  0.00    -0.330 A  
HETATM   10  C   UNL     1      -9.895  12.405  68.512  1.00  0.00    -0.156 A  
HETATM   11  C   UNL     1      -9.169  11.232  68.300  1.00  0.00    -0.176 A  
HETATM   12  C   UNL     1      -9.783   9.990  68.453  1.00  0.00    -0.157 A  
HETATM   13  C   UNL     1     -11.120   9.920  68.831  1.00  0.00    -0.181 A  
HETATM   14  C   UNL     1     -11.847  11.090  69.047  1.00  0.00    -0.399 A  
ENDBRANCH   6   9
TORSDOF 1
ENDMDL
MODEL       84
REMARK 921   NORMALIZED FREE ENERGY PREDICTED BY IDOCK:   -3.86 KCAL/MOL
REMARK 922        TOTAL FREE ENERGY PREDICTED BY IDOCK:   -4.39 KCAL/MOL
REMARK 923 INTER-LIGAND FREE ENERGY PREDICTED BY IDOCK:   -4.09 KCAL/MOL
REMARK 924 INTRA-LIGAND FREE ENERGY PREDICTED BY IDOCK:   -0.30 KCAL/MOL
REMARK 927      BINDING AFFINITY PREDICTED BY RF-SCORE:    0.00 PKD
ROOT
HETATM    1  C   UNL     1     -13.358  10.195  71.862  1.00  0.00    -0.402 C  
HETATM    2  N   UNL     1     -12.067   9.803  71.353  1.00  0.00    -0.373 N  
HETATM    3  C   UNL     1     -11.382  10.479  70.391  1.00  0.00    -0.328 C  
HETATM    4  O   UNL     1     -11.703  11.538  69.872  1.00  0.00    -0.302 OA 
HETATM    5  C   UNL     1     -10.136   9.718  70.045  1.00  0.00    -0.301 C  
HETATM    6  C   UNL     1     -10.081   8.594  71.082  1.00  0.00    -0.290 C  
HETATM    7  O   UNL     1     -11.695   8.066  72.823  1.00  0.00    -0.396 OA 
HETATM    8  C   UNL     1     -11.361   8.754  71.870  1.00  0.00    -0.361 C  
ENDROOT
BRANCH   6   9
HETATM    9  C   UNL     1      -9.944   7.223  70.457  1.00  0.00    -0.191 A  
HETATM   10  C   UNL     1     -10.708   6.881  69.333  1.00  0.00    -0.275 A  
HETATM   11  C   UNL     1     -10.608   5.608  68.770  1.00  0.00    -0.286 A  
HETATM   12  C   UNL     1      -9.743   4.663  69.319  1.00  0.00    -0.266 A  
HETATM   13  C   UNL     1      -8.966   4.995  70.424  1.00  0.00    -0.159 A  
HETATM   14  C   UNL     1      -9.061   6.267  70.988  1.00  0.00    -0.156 A  
ENDBRANCH   6   9
TORSDOF 1
ENDMDL
MODEL       85
REMARK 921   NORMALIZED FREE ENERGY PREDICTED BY IDOCK:   -3.85 KCAL/MOL
REMARK 922        TOTAL FREE ENERGY PREDICTED BY IDOCK:   -4.38 KCAL/MOL
REMARK 923 INTER-LIGAND FREE ENERGY PREDICTED BY IDOCK:   -4.19 KCAL/MOL
REMARK 924 INTRA-LIGAND FREE ENERGY PREDICTED BY IDOCK:   -0.20 KCAL/MOL
REMARK 927      BINDING AFFINITY PREDICTED BY RF-SCORE:    0.00 PKD
ROOT
HETATM    1  C   UNL     1      -9.638  11.721  65.616  1.00  0.00    -0.220 C  
HETATM    2  N   UNL     1     -10.333  11.625  66.877  1.00  0.00    -0.214 N  
HETATM    3  C   UNL     1     -10.763  12.694  67.602  1.00  0.00    -0.218 C  
HETATM    4  O   UNL     1     -10.701  13.871  67.276  1.00  0.00    -0.280 OA 
HETATM    5  C   UNL     1     -11.342  12.211  68.898  1.00  0.00    -0.335 C  
HETATM    6  C   UNL     1     -11.375  10.688  68.752  1.00  0.00    -0.339 C  
HETATM    7  O   UNL     1     -10.564   9.331  66.902  1.00  0.00    -0.236 OA 
HETATM    8  C   UNL     1     -10.713  10.430  67.417  1.00  0.00    -0.283 C  
ENDROOT
BRANCH   6   9
HETATM    9  C   UNL     1     -10.688   9.972  69.895  1.00  0.00    -0.328 A  
HETATM   10  C   UNL     1     -11.440   9.475  70.969  1.00  0.00    -0.420 A  
HETATM   11  C   UNL     1     -10.810   8.840  72.040  1.00  0.00    -0.428 A  
HETATM   12  C   UNL     1      -9.424   8.691  72.051  1.00  0.00    -0.370 A  
HETATM   13  C   UNL     1      -8.668   9.163  70.983  1.00  0.00    -0.251 A  
HETATM   14  C   UNL     1      -9.294   9.796  69.910  1.00  0.00    -0.262 A  
ENDBRANCH   6   9
TORSDOF 1
ENDMDL
MODEL       86
REMARK 921   NORMALIZED FREE ENERGY PREDICTED BY IDOCK:   -3.83 KCAL/MOL
REMARK 922        TOTAL FREE ENERGY PREDICTED BY IDOCK:   -4.36 KCAL/MOL
REMARK 923 INTER-LIGAND FREE ENERGY PREDICTED BY IDOCK:   -4.13 KCAL/MOL
REMARK 924 INTRA-LIGAND FREE ENERGY PREDICTED BY IDOCK:   -0.23 KCAL/MOL
REMARK 927      BINDING AFFINITY PREDICTED BY RF-SCORE:    0.00 PKD
ROOT
HETATM    1  C   UNL     1      -9.103  13.842  67.860  1.00  0.00    -0.193 C  
HETATM    2  N   UNL     1      -9.481  15.222  68.037  1.00  0.00    -0.197 N  
HETATM    3  C   UNL     1     -10.664  15.755  67.624  1.00  0.00    -0.310 C  
HETATM    4  O   UNL     1     -11.601  15.152  67.120  1.00  0.00    -0.311 OA 
HETATM    5  C   UNL     1     -10.657  17.233  67.881  1.00  0.00    -0.384 C  
HETATM    6  C   UNL     1      -9.379  17.469  68.689  1.00  0.00    -0.277 C  
HETATM    7  O   UNL     1      -7.670  15.854  69.316  1.00  0.00    -0.208 OA 
HETATM    8  C   UNL     1      -8.714  16.111  68.734  1.00  0.00    -0.240 C  
ENDROOT
BRANCH   6   9
HETATM    9  C   UNL     1      -8.492  18.537  68.087  1.00  0.00    -0.317 A  
HETATM   10  C   UNL     1      -7.542  19.193  68.882  1.00  0.00    -0.371 A  
HETATM   11  C   UNL     1      -6.741  20.201  68.341  1.00  0.00    -0.337 A  
HETATM   12  C   UNL     1      -6.877  20.561  67.001  1.00  0.00    -0.336 A  
HETATM   13  C   UNL     1      -7.804  19.906  66.198  1.00  0.00    -0.340 A  
HETATM   14  C   UNL     1      -8.604  18.898  66.734  1.00  0.00    -0.305 A  
ENDBRANCH   6   9
TORSDOF 1
ENDMDL
MODEL       87
REMARK 921   NORMALIZED FREE ENERGY PREDICTED BY IDOCK:   -3.82 KCAL/MOL
REMARK 922        TOTAL FREE ENERGY PREDICTED BY IDOCK:   -4.35 KCAL/MOL
REMARK 923 INTER-LIGAND FREE ENERGY PREDICTED BY IDOCK:   -4.21 KCAL/MOL
REMARK 924 INTRA-LIGAND FREE ENERGY PREDICTED BY IDOCK:   -0.14 KCAL/MOL
REMARK 927      BINDING AFFINITY PREDICTED BY RF-SCORE:    0.00 PKD
ROOT
HETATM    1  C   UNL     1      -7.340   9.924  70.241  1.00  0.00    -0.157 C  
HETATM    2  N   UNL     1      -8.484   9.058  70.098  1.00  0.00    -0.141 N  
HETATM    3  C   UNL     1      -8.945   8.583  68.908  1.00  0.00    -0.146 C  
HETATM    4  O   UNL     1      -8.435   8.744  67.809  1.00  0.00    -0.124 OA 
HETATM    5  C   UNL     1     -10.208   7.808  69.142  1.00  0.00    -0.210 C  
HETATM    6  C   UNL     1     -10.322   7.724  70.666  1.00  0.00    -0.202 C  
HETATM    7  O   UNL     1      -8.869   8.719  72.345  1.00  0.00    -0.391 OA 
HETATM    8  C   UNL     1      -9.161   8.551  71.170  1.00  0.00    -0.190 C  
ENDROOT
BRANCH   6   9
HETATM    9  C   UNL     1     -11.658   8.212  71.184  1.00  0.00    -0.306 A  
HETATM   10  C   UNL     1     -12.724   7.315  71.336  1.00  0.00    -0.427 A  
HETATM   11  C   UNL     1     -13.968   7.764  71.785  1.00  0.00    -0.477 A  
HETATM   12  C   UNL     1     -14.159   9.110  72.091  1.00  0.00    -0.416 A  
HETATM   13  C   UNL     1     -13.104  10.007  71.961  1.00  0.00    -0.541 A  
HETATM   14  C   UNL     1     -11.860   9.562  71.515  1.00  0.00    -0.478 A  
ENDBRANCH   6   9
TORSDOF 1
ENDMDL
MODEL       88
REMARK 921   NORMALIZED FREE ENERGY PREDICTED BY IDOCK:   -3.81 KCAL/MOL
REMARK 922        TOTAL FREE ENERGY PREDICTED BY IDOCK:   -4.34 KCAL/MOL
REMARK 923 INTER-LIGAND FREE ENERGY PREDICTED BY IDOCK:   -4.51 KCAL/MOL
REMARK 924 INTRA-LIGAND FREE ENERGY PREDICTED BY IDOCK:    0.17 KCAL/MOL
REMARK 927      BINDING AFFINITY PREDICTED BY RF-SCORE:    0.00 PKD
ROOT
HETATM    1  C   UNL     1     -11.739  16.659  72.247  1.00  0.00    -0.106 C  
HETATM    2  N   UNL     1     -12.287  15.352  71.983  1.00  0.00    -0.340 N  
HETATM    3  C   UNL     1     -12.760  14.508  72.940  1.00  0.00    -0.381 C  
HETATM    4  O   UNL     1     -12.866  14.743  74.136  1.00  0.00    -0.369 OA 
HETATM    5  C   UNL     1     -13.146  13.205  72.304  1.00  0.00    -0.458 C  
HETATM    6  C   UNL     1     -13.019  13.468  70.802  1.00  0.00    -0.168 C  
HETATM    7  O   UNL     1     -12.250  15.486  69.682  1.00  0.00    -0.343 OA 
HETATM    8  C   UNL     1     -12.471  14.875  70.717  1.00  0.00    -0.339 C  
ENDROOT
BRANCH   6   9
HETATM    9  C   UNL     1     -12.143  12.453  70.099  1.00  0.00    -0.366 A  
HETATM   10  C   UNL     1     -11.469  12.801  68.920  1.00  0.00    -0.352 A  
HETATM   11  C   UNL     1     -10.684  11.861  68.251  1.00  0.00    -0.253 A  
HETATM   12  C   UNL     1     -10.559  10.567  68.751  1.00  0.00    -0.233 A  
HETATM   13  C   UNL     1     -11.209  10.213  69.929  1.00  0.00    -0.343 A  
HETATM   14  C   UNL     1     -11.993  11.150  70.602  1.00  0.00    -0.459 A  
ENDBRANCH   6   9
TORSDOF 1
ENDMDL
MODEL       89
REMARK 921   NORMALIZED FREE ENERGY PREDICTED BY IDOCK:   -3.79 KCAL/MOL
REMARK 922        TOTAL FREE ENERGY PREDICTED BY IDOCK:   -4.31 KCAL/MOL
REMARK 923 INTER-LIGAND FREE ENERGY PREDICTED BY IDOCK:   -4.01 KCAL/MOL
REMARK 924 INTRA-LIGAND FREE ENERGY PREDICTED BY IDOCK:   -0.30 KCAL/MOL
REMARK 927      BINDING AFFINITY PREDICTED BY RF-SCORE:    0.00 PKD
ROOT
HETATM    1  C   UNL     1     -12.627  14.317  72.519  1.00  0.00    -0.228 C  
HETATM    2  N   UNL     1     -12.409  13.936  71.145  1.00  0.00    -0.361 N  
HETATM    3  C   UNL     1     -12.318  12.651  70.708  1.00  0.00    -0.283 C  
HETATM    4  O   UNL     1     -12.478  11.638  71.374  1.00  0.00    -0.304 OA 
HETATM    5  C   UNL     1     -11.982  12.648  69.245  1.00  0.00    -0.301 C  
HETATM    6  C   UNL     1     -12.084  14.118  68.833  1.00  0.00    -0.339 C  
HETATM    7  O   UNL     1     -12.555  16.050  70.236  1.00  0.00    -0.286 OA 
HETATM    8  C   UNL     1     -12.370  14.847  70.127  1.00  0.00    -0.327 C  
ENDROOT
BRANCH   6   9
HETATM    9  C   UNL     1     -10.836  14.623  68.140  1.00  0.00    -0.256 A  
HETATM   10  C   UNL     1     -10.915  15.151  66.845  1.00  0.00    -0.323 A  
HETATM   11  C   UNL     1      -9.764  15.591  66.189  1.00  0.00    -0.348 A  
HETATM   12  C   UNL     1      -8.523  15.511  66.819  1.00  0.00    -0.314 A  
HETATM   13  C   UNL     1      -8.433  15.004  68.111  1.00  0.00    -0.151 A  
HETATM   14  C   UNL     1      -9.582  14.567  68.771  1.00  0.00    -0.193 A  
ENDBRANCH   6   9
TORSDOF 1
ENDMDL
MODEL       90
REMARK 921   NORMALIZED FREE ENERGY PREDICTED BY IDOCK:   -3.78 KCAL/MOL
REMARK 922        TOTAL FREE ENERGY PREDICTED BY IDOCK:   -4.30 KCAL/MOL
REMARK 923 INTER-LIGAND FREE ENERGY PREDICTED BY IDOCK:   -4.06 KCAL/MOL
REMARK 924 INTRA-LIGAND FREE ENERGY PREDICTED BY IDOCK:   -0.24 KCAL/MOL
REMARK 927      BINDING AFFINITY PREDICTED BY RF-SCORE:    0.00 PKD
ROOT
HETATM    1  C   UNL     1     -10.951   6.932  72.870  1.00  0.00    -0.281 C  
HETATM    2  N   UNL     1     -11.074   8.088  72.015  1.00  0.00    -0.273 N  
HETATM    3  C   UNL     1     -12.195   8.853  71.913  1.00  0.00    -0.374 C  
HETATM    4  O   UNL     1     -13.223   8.737  72.565  1.00  0.00    -0.400 OA 
HETATM    5  C   UNL     1     -11.987   9.895  70.853  1.00  0.00    -0.434 C  
HETATM    6  C   UNL     1     -10.508   9.763  70.481  1.00  0.00    -0.366 C  
HETATM    7  O   UNL     1      -8.880   8.157  71.311  1.00  0.00    -0.130 OA 
HETATM    8  C   UNL     1     -10.026   8.582  71.293  1.00  0.00    -0.221 C  
ENDROOT
BRANCH   6   9
HETATM    9  C   UNL     1     -10.290   9.580  68.994  1.00  0.00    -0.219 A  
HETATM   10  C   UNL     1      -9.842  10.652  68.211  1.00  0.00    -0.174 A  
HETATM   11  C   UNL     1      -9.668  10.499  66.834  1.00  0.00    -0.218 A  
HETATM   12  C   UNL     1      -9.934   9.274  66.225  1.00  0.00    -0.357 A  
HETATM   13  C   UNL     1     -10.363   8.197  66.994  1.00  0.00    -0.403 A  
HETATM   14  C   UNL     1     -10.536   8.346  68.370  1.00  0.00    -0.208 A  
ENDBRANCH   6   9
TORSDOF 1
ENDMDL
MODEL       91
REMARK 921   NORMALIZED FREE ENERGY PREDICTED BY IDOCK:   -3.75 KCAL/MOL
REMARK 922        TOTAL FREE ENERGY PREDICTED BY IDOCK:   -4.27 KCAL/MOL
REMARK 923 INTER-LIGAND FREE ENERGY PREDICTED BY IDOCK:   -4.01 KCAL/MOL
REMARK 924 INTRA-LIGAND FREE ENERGY PREDICTED BY IDOCK:   -0.26 KCAL/MOL
REMARK 927      BINDING AFFINITY PREDICTED BY RF-SCORE:    0.00 PKD
ROOT
HETATM    1  C   UNL     1     -11.262   6.294  69.872  1.00  0.00    -0.429 C  
HETATM    2  N   UNL     1     -11.046   7.676  70.225  1.00  0.00    -0.260 N  
HETATM    3  C   UNL     1     -11.742   8.342  71.187  1.00  0.00    -0.280 C  
HETATM    4  O   UNL     1     -12.584   7.872  71.938  1.00  0.00    -0.309 OA 
HETATM    5  C   UNL     1     -11.318   9.781  71.197  1.00  0.00    -0.459 C  
HETATM    6  C   UNL     1     -10.127   9.829  70.237  1.00  0.00    -0.323 C  
HETATM    7  O   UNL     1      -9.196   8.026  68.895  1.00  0.00    -0.147 OA 
HETATM    8  C   UNL     1     -10.041   8.425  69.683  1.00  0.00    -0.199 C  
ENDROOT
BRANCH   6   9
HETATM    9  C   UNL     1     -10.284  10.877  69.157  1.00  0.00    -0.215 A  
HETATM   10  C   UNL     1     -11.562  11.299  68.764  1.00  0.00    -0.383 A  
HETATM   11  C   UNL     1     -11.715  12.243  67.747  1.00  0.00    -0.403 A  
HETATM   12  C   UNL     1     -10.595  12.780  67.115  1.00  0.00    -0.249 A  
HETATM   13  C   UNL     1      -9.321  12.383  67.506  1.00  0.00    -0.181 A  
HETATM   14  C   UNL     1      -9.164  11.441  68.523  1.00  0.00    -0.174 A  
ENDBRANCH   6   9
TORSDOF 1
ENDMDL
MODEL       92
REMARK 921   NORMALIZED FREE ENERGY PREDICTED BY IDOCK:   -3.75 KCAL/MOL
REMARK 922        TOTAL FREE ENERGY PREDICTED BY IDOCK:   -4.27 KCAL/MOL
REMARK 923 INTER-LIGAND FREE ENERGY PREDICTED BY IDOCK:   -3.97 KCAL/MOL
REMARK 924 INTRA-LIGAND FREE ENERGY PREDICTED BY IDOCK:   -0.29 KCAL/MOL
REMARK 927      BINDING AFFINITY PREDICTED BY RF-SCORE:    0.00 PKD
ROOT
HETATM    1  C   UNL     1      -9.118  10.168  68.910  1.00  0.00    -0.165 C  
HETATM    2  N   UNL     1      -9.276  10.362  67.489  1.00  0.00    -0.144 N  
HETATM    3  C   UNL     1      -8.265  10.265  66.583  1.00  0.00    -0.125 C  
HETATM    4  O   UNL     1      -7.110   9.932  66.807  1.00  0.00    -0.087 OA 
HETATM    5  C   UNL     1      -8.782  10.634  65.224  1.00  0.00    -0.198 C  
HETATM    6  C   UNL     1     -10.294  10.773  65.421  1.00  0.00    -0.315 C  
HETATM    7  O   UNL     1     -11.572  10.568  67.481  1.00  0.00    -0.421 OA 
HETATM    8  C   UNL     1     -10.493  10.567  66.906  1.00  0.00    -0.246 C  
ENDROOT
BRANCH   6   9
HETATM    9  C   UNL     1     -10.832  12.101  64.935  1.00  0.00    -0.352 A  
HETATM   10  C   UNL     1     -10.398  13.296  65.525  1.00  0.00    -0.298 A  
HETATM   11  C   UNL     1     -10.913  14.522  65.102  1.00  0.00    -0.387 A  
HETATM   12  C   UNL     1     -11.863  14.570  64.083  1.00  0.00    -0.290 A  
HETATM   13  C   UNL     1     -12.289  13.393  63.477  1.00  0.00    -0.398 A  
HETATM   14  C   UNL     1     -11.775  12.166  63.896  1.00  0.00    -0.546 A  
ENDBRANCH   6   9
TORSDOF 1
ENDMDL
MODEL       93
REMARK 921   NORMALIZED FREE ENERGY PREDICTED BY IDOCK:   -3.74 KCAL/MOL
REMARK 922        TOTAL FREE ENERGY PREDICTED BY IDOCK:   -4.26 KCAL/MOL
REMARK 923 INTER-LIGAND FREE ENERGY PREDICTED BY IDOCK:   -3.99 KCAL/MOL
REMARK 924 INTRA-LIGAND FREE ENERGY PREDICTED BY IDOCK:   -0.28 KCAL/MOL
REMARK 927      BINDING AFFINITY PREDICTED BY RF-SCORE:    0.00 PKD
ROOT
HETATM    1  C   UNL     1      -8.192   5.609  69.659  1.00  0.00    -0.107 C  
HETATM    2  N   UNL     1      -8.476   6.758  70.482  1.00  0.00    -0.136 N  
HETATM    3  C   UNL     1      -8.066   6.901  71.772  1.00  0.00    -0.101 C  
HETATM    4  O   UNL     1      -7.347   6.137  72.400  1.00  0.00    -0.090 OA 
HETATM    5  C   UNL     1      -8.638   8.168  72.336  1.00  0.00    -0.245 C  
HETATM    6  C   UNL     1      -9.285   8.857  71.132  1.00  0.00    -0.324 C  
HETATM    7  O   UNL     1      -9.466   8.046  68.846  1.00  0.00    -0.150 OA 
HETATM    8  C   UNL     1      -9.111   7.868  70.002  1.00  0.00    -0.152 C  
ENDROOT
BRANCH   6   9
HETATM    9  C   UNL     1     -10.733   9.225  71.372  1.00  0.00    -0.432 A  
HETATM   10  C   UNL     1     -11.518   8.464  72.249  1.00  0.00    -0.454 A  
HETATM   11  C   UNL     1     -12.862   8.780  72.452  1.00  0.00    -0.434 A  
HETATM   12  C   UNL     1     -13.437   9.860  71.786  1.00  0.00    -0.444 A  
HETATM   13  C   UNL     1     -12.665  10.635  70.926  1.00  0.00    -0.498 A  
HETATM   14  C   UNL     1     -11.321  10.323  70.723  1.00  0.00    -0.421 A  
ENDBRANCH   6   9
TORSDOF 1
ENDMDL
MODEL       94
REMARK 921   NORMALIZED FREE ENERGY PREDICTED BY IDOCK:   -3.71 KCAL/MOL
REMARK 922        TOTAL FREE ENERGY PREDICTED BY IDOCK:   -4.23 KCAL/MOL
REMARK 923 INTER-LIGAND FREE ENERGY PREDICTED BY IDOCK:   -3.99 KCAL/MOL
REMARK 924 INTRA-LIGAND FREE ENERGY PREDICTED BY IDOCK:   -0.24 KCAL/MOL
REMARK 927      BINDING AFFINITY PREDICTED BY RF-SCORE:    0.00 PKD
ROOT
HETATM    1  C   UNL     1     -11.174  10.303  70.495  1.00  0.00    -0.330 C  
HETATM    2  N   UNL     1     -11.669   8.973  70.753  1.00  0.00    -0.270 N  
HETATM    3  C   UNL     1     -12.871   8.699  71.330  1.00  0.00    -0.264 C  
HETATM    4  O   UNL     1     -13.733   9.507  71.645  1.00  0.00    -0.357 OA 
HETATM    5  C   UNL     1     -12.994   7.218  71.535  1.00  0.00    -0.434 C  
HETATM    6  C   UNL     1     -11.777   6.636  70.814  1.00  0.00    -0.445 C  
HETATM    7  O   UNL     1      -9.974   7.825  69.693  1.00  0.00    -0.184 OA 
HETATM    8  C   UNL     1     -11.008   7.851  70.346  1.00  0.00    -0.249 C  
ENDROOT
BRANCH   6   9
HETATM    9  C   UNL     1     -10.951   5.723  71.695  1.00  0.00    -0.308 A  
HETATM   10  C   UNL     1     -10.122   4.750  71.121  1.00  0.00    -0.261 A  
HETATM   11  C   UNL     1      -9.381   3.885  71.928  1.00  0.00    -0.191 A  
HETATM   12  C   UNL     1      -9.457   3.984  73.316  1.00  0.00    -0.131 A  
HETATM   13  C   UNL     1     -10.264   4.956  73.899  1.00  0.00    -0.257 A  
HETATM   14  C   UNL     1     -11.003   5.823  73.096  1.00  0.00    -0.309 A  
ENDBRANCH   6   9
TORSDOF 1
ENDMDL
MODEL       95
REMARK 921   NORMALIZED FREE ENERGY PREDICTED BY IDOCK:   -3.71 KCAL/MOL
REMARK 922        TOTAL FREE ENERGY PREDICTED BY IDOCK:   -4.23 KCAL/MOL
REMARK 923 INTER-LIGAND FREE ENERGY PREDICTED BY IDOCK:   -3.95 KCAL/MOL
REMARK 924 INTRA-LIGAND FREE ENERGY PREDICTED BY IDOCK:   -0.28 KCAL/MOL
REMARK 927      BINDING AFFINITY PREDICTED BY RF-SCORE:    0.00 PKD
ROOT
HETATM    1  C   UNL     1     -10.889  14.022  66.200  1.00  0.00    -0.291 C  
HETATM    2  N   UNL     1     -10.514  12.840  65.463  1.00  0.00    -0.282 N  
HETATM    3  C   UNL     1     -11.099  12.441  64.300  1.00  0.00    -0.349 C  
HETATM    4  O   UNL     1     -11.957  13.041  63.669  1.00  0.00    -0.481 OA 
HETATM    5  C   UNL     1     -10.524  11.118  63.886  1.00  0.00    -0.445 C  
HETATM    6  C   UNL     1      -9.372  10.885  64.867  1.00  0.00    -0.258 C  
HETATM    7  O   UNL     1      -8.689  12.266  66.750  1.00  0.00    -0.199 OA 
HETATM    8  C   UNL     1      -9.457  12.054  65.822  1.00  0.00    -0.175 C  
ENDROOT
BRANCH   6   9
HETATM    9  C   UNL     1      -9.458   9.547  65.568  1.00  0.00    -0.334 A  
HETATM   10  C   UNL     1     -10.498   9.290  66.472  1.00  0.00    -0.204 A  
HETATM   11  C   UNL     1     -10.566   8.069  67.145  1.00  0.00    -0.367 A  
HETATM   12  C   UNL     1      -9.600   7.090  66.921  1.00  0.00    -0.214 A  
HETATM   13  C   UNL     1      -8.572   7.325  66.014  1.00  0.00    -0.160 A  
HETATM   14  C   UNL     1      -8.502   8.543  65.337  1.00  0.00    -0.190 A  
ENDBRANCH   6   9
TORSDOF 1
ENDMDL
MODEL       96
REMARK 921   NORMALIZED FREE ENERGY PREDICTED BY IDOCK:   -3.69 KCAL/MOL
REMARK 922        TOTAL FREE ENERGY PREDICTED BY IDOCK:   -4.21 KCAL/MOL
REMARK 923 INTER-LIGAND FREE ENERGY PREDICTED BY IDOCK:   -4.33 KCAL/MOL
REMARK 924 INTRA-LIGAND FREE ENERGY PREDICTED BY IDOCK:    0.12 KCAL/MOL
REMARK 927      BINDING AFFINITY PREDICTED BY RF-SCORE:    0.00 PKD
ROOT
HETATM    1  C   UNL     1     -12.186  15.574  73.545  1.00  0.00    -0.537 C  
HETATM    2  N   UNL     1     -12.420  15.027  72.231  1.00  0.00    -0.333 N  
HETATM    3  C   UNL     1     -13.195  13.937  71.978  1.00  0.00    -0.416 C  
HETATM    4  O   UNL     1     -13.861  13.309  72.789  1.00  0.00    -0.690 OA 
HETATM    5  C   UNL     1     -13.117  13.602  70.518  1.00  0.00     0.036 C  
HETATM    6  C   UNL     1     -12.340  14.770  69.905  1.00  0.00    -0.328 C  
HETATM    7  O   UNL     1     -11.344  16.680  71.037  1.00  0.00    -0.226 OA 
HETATM    8  C   UNL     1     -11.955  15.623  71.094  1.00  0.00    -0.409 C  
ENDROOT
BRANCH   6   9
HETATM    9  C   UNL     1     -11.145  14.321  69.093  1.00  0.00    -0.291 A  
HETATM   10  C   UNL     1     -10.121  15.227  68.786  1.00  0.00    -0.219 A  
HETATM   11  C   UNL     1      -9.030  14.827  68.012  1.00  0.00    -0.174 A  
HETATM   12  C   UNL     1      -8.948  13.518  67.540  1.00  0.00    -0.210 A  
HETATM   13  C   UNL     1      -9.949  12.604  67.851  1.00  0.00    -0.228 A  
HETATM   14  C   UNL     1     -11.039  13.000  68.627  1.00  0.00    -0.305 A  
ENDBRANCH   6   9
TORSDOF 1
ENDMDL
MODEL       97
REMARK 921   NORMALIZED FREE ENERGY PREDICTED BY IDOCK:   -3.69 KCAL/MOL
REMARK 922        TOTAL FREE ENERGY PREDICTED BY IDOCK:   -4.20 KCAL/MOL
REMARK 923 INTER-LIGAND FREE ENERGY PREDICTED BY IDOCK:   -3.93 KCAL/MOL
REMARK 924 INTRA-LIGAND FREE ENERGY PREDICTED BY IDOCK:   -0.27 KCAL/MOL
REMARK 927      BINDING AFFINITY PREDICTED BY RF-SCORE:    0.00 PKD
ROOT
HETATM    1  C   UNL     1      -9.809   8.107  66.567  1.00  0.00    -0.239 C  
HETATM    2  N   UNL     1      -9.600   9.519  66.774  1.00  0.00    -0.165 N  
HETATM    3  C   UNL     1      -9.395  10.096  67.990  1.00  0.00    -0.141 C  
HETATM    4  O   UNL     1      -9.282   9.522  69.063  1.00  0.00    -0.146 OA 
HETATM    5  C   UNL     1      -9.326  11.586  67.824  1.00  0.00    -0.168 C  
HETATM    6  C   UNL     1      -9.319  11.796  66.308  1.00  0.00    -0.235 C  
HETATM    7  O   UNL     1      -9.506  10.124  64.551  1.00  0.00    -0.261 OA 
HETATM    8  C   UNL     1      -9.490  10.405  65.741  1.00  0.00    -0.198 C  
ENDROOT
BRANCH   6   9
HETATM    9  C   UNL     1     -10.394  12.755  65.843  1.00  0.00    -0.298 A  
HETATM   10  C   UNL     1     -11.743  12.382  65.897  1.00  0.00    -0.476 A  
HETATM   11  C   UNL     1     -12.737  13.250  65.442  1.00  0.00    -0.460 A  
HETATM   12  C   UNL     1     -12.395  14.501  64.931  1.00  0.00    -0.378 A  
HETATM   13  C   UNL     1     -11.061  14.891  64.886  1.00  0.00    -0.424 A  
HETATM   14  C   UNL     1     -10.066  14.027  65.343  1.00  0.00    -0.343 A  
ENDBRANCH   6   9
TORSDOF 1
ENDMDL
MODEL       98
REMARK 921   NORMALIZED FREE ENERGY PREDICTED BY IDOCK:   -3.67 KCAL/MOL
REMARK 922        TOTAL FREE ENERGY PREDICTED BY IDOCK:   -4.19 KCAL/MOL
REMARK 923 INTER-LIGAND FREE ENERGY PREDICTED BY IDOCK:   -3.90 KCAL/MOL
REMARK 924 INTRA-LIGAND FREE ENERGY PREDICTED BY IDOCK:   -0.29 KCAL/MOL
REMARK 927      BINDING AFFINITY PREDICTED BY RF-SCORE:    0.00 PKD
ROOT
HETATM    1  C   UNL     1      -8.793  12.202  67.609  1.00  0.00    -0.172 C  
HETATM    2  N   UNL     1      -9.613  13.288  68.088  1.00  0.00    -0.223 N  
HETATM    3  C   UNL     1     -10.973  13.260  68.136  1.00  0.00    -0.255 C  
HETATM    4  O   UNL     1     -11.697  12.313  67.863  1.00  0.00    -0.333 OA 
HETATM    5  C   UNL     1     -11.479  14.599  68.586  1.00  0.00    -0.326 C  
HETATM    6  C   UNL     1     -10.215  15.363  68.989  1.00  0.00    -0.233 C  
HETATM    7  O   UNL     1      -7.898  14.639  68.827  1.00  0.00    -0.134 OA 
HETATM    8  C   UNL     1      -9.086  14.422  68.635  1.00  0.00    -0.178 C  
ENDROOT
BRANCH   6   9
HETATM    9  C   UNL     1     -10.096  16.707  68.303  1.00  0.00    -0.268 A  
HETATM   10  C   UNL     1      -9.943  16.777  66.912  1.00  0.00    -0.274 A  
HETATM   11  C   UNL     1      -9.802  18.012  66.276  1.00  0.00    -0.310 A  
HETATM   12  C   UNL     1      -9.817  19.190  67.021  1.00  0.00    -0.407 A  
HETATM   13  C   UNL     1      -9.985  19.136  68.401  1.00  0.00    -0.493 A  
HETATM   14  C   UNL     1     -10.128  17.903  69.039  1.00  0.00    -0.292 A  
ENDBRANCH   6   9
TORSDOF 1
ENDMDL
MODEL       99
REMARK 921   NORMALIZED FREE ENERGY PREDICTED BY IDOCK:   -3.66 KCAL/MOL
REMARK 922        TOTAL FREE ENERGY PREDICTED BY IDOCK:   -4.18 KCAL/MOL
REMARK 923 INTER-LIGAND FREE ENERGY PREDICTED BY IDOCK:   -4.02 KCAL/MOL
REMARK 924 INTRA-LIGAND FREE ENERGY PREDICTED BY IDOCK:   -0.16 KCAL/MOL
REMARK 927      BINDING AFFINITY PREDICTED BY RF-SCORE:    0.00 PKD
ROOT
HETATM    1  C   UNL     1     -10.651  18.005  65.892  1.00  0.00    -0.219 C  
HETATM    2  N   UNL     1      -9.804  17.435  66.911  1.00  0.00    -0.277 N  
HETATM    3  C   UNL     1     -10.255  16.699  67.963  1.00  0.00    -0.280 C  
HETATM    4  O   UNL     1     -11.408  16.347  68.169  1.00  0.00    -0.324 OA 
HETATM    5  C   UNL     1      -9.103  16.370  68.866  1.00  0.00    -0.256 C  
HETATM    6  C   UNL     1      -7.871  16.848  68.094  1.00  0.00    -0.189 C  
HETATM    7  O   UNL     1      -7.784  17.994  65.949  1.00  0.00    -0.497 OA 
HETATM    8  C   UNL     1      -8.441  17.503  66.856  1.00  0.00    -0.239 C  
ENDROOT
BRANCH   6   9
HETATM    9  C   UNL     1      -6.996  17.782  68.901  1.00  0.00    -0.250 A  
HETATM   10  C   UNL     1      -5.926  17.273  69.651  1.00  0.00    -0.244 A  
HETATM   11  C   UNL     1      -5.133  18.125  70.421  1.00  0.00    -0.245 A  
HETATM   12  C   UNL     1      -5.396  19.494  70.449  1.00  0.00    -0.248 A  
HETATM   13  C   UNL     1      -6.443  20.014  69.697  1.00  0.00    -0.374 A  
HETATM   14  C   UNL     1      -7.236  19.166  68.923  1.00  0.00    -0.376 A  
ENDBRANCH   6   9
TORSDOF 1
ENDMDL
MODEL      100
REMARK 921   NORMALIZED FREE ENERGY PREDICTED BY IDOCK:   -3.62 KCAL/MOL
REMARK 922        TOTAL FREE ENERGY PREDICTED BY IDOCK:   -4.14 KCAL/MOL
REMARK 923 INTER-LIGAND FREE ENERGY PREDICTED BY IDOCK:   -3.84 KCAL/MOL
REMARK 924 INTRA-LIGAND FREE ENERGY PREDICTED BY IDOCK:   -0.29 KCAL/MOL
REMARK 927      BINDING AFFINITY PREDICTED BY RF-SCORE:    0.00 PKD
ROOT
HETATM    1  C   UNL     1      -7.085   6.967  70.281  1.00  0.00    -0.067 C  
HETATM    2  N   UNL     1      -8.486   6.864  69.954  1.00  0.00    -0.139 N  
HETATM    3  C   UNL     1      -8.988   6.936  68.691  1.00  0.00    -0.129 C  
HETATM    4  O   UNL     1      -8.348   7.021  67.653  1.00  0.00    -0.116 OA 
HETATM    5  C   UNL     1     -10.487   6.898  68.752  1.00  0.00    -0.223 C  
HETATM    6  C   UNL     1     -10.796   6.591  70.220  1.00  0.00    -0.333 C  
HETATM    7  O   UNL     1      -9.236   6.344  72.071  1.00  0.00    -0.148 OA 
HETATM    8  C   UNL     1      -9.440   6.583  70.889  1.00  0.00    -0.172 C  
ENDROOT
BRANCH   6   9
HETATM    9  C   UNL     1     -11.751   7.587  70.841  1.00  0.00    -0.307 A  
HETATM   10  C   UNL     1     -11.395   8.939  70.936  1.00  0.00    -0.336 A  
HETATM   11  C   UNL     1     -12.259   9.858  71.535  1.00  0.00    -0.505 A  
HETATM   12  C   UNL     1     -13.487   9.439  72.041  1.00  0.00    -0.522 A  
HETATM   13  C   UNL     1     -13.860   8.103  71.938  1.00  0.00    -0.424 A  
HETATM   14  C   UNL     1     -13.001   7.183  71.338  1.00  0.00    -0.419 A  
ENDBRANCH   6   9
TORSDOF 1
ENDMDL
MODEL      101
REMARK 921   NORMALIZED FREE ENERGY PREDICTED BY IDOCK:   -3.62 KCAL/MOL
REMARK 922        TOTAL FREE ENERGY PREDICTED BY IDOCK:   -4.13 KCAL/MOL
REMARK 923 INTER-LIGAND FREE ENERGY PREDICTED BY IDOCK:   -3.84 KCAL/MOL
REMARK 924 INTRA-LIGAND FREE ENERGY PREDICTED BY IDOCK:   -0.29 KCAL/MOL
REMARK 927      BINDING AFFINITY PREDICTED BY RF-SCORE:    0.00 PKD
ROOT
HETATM    1  C   UNL     1     -10.642   4.947  66.172  1.00  0.00    -0.271 C  
HETATM    2  N   UNL     1     -10.251   5.445  67.468  1.00  0.00    -0.192 N  
HETATM    3  C   UNL     1      -9.678   4.687  68.442  1.00  0.00    -0.134 C  
HETATM    4  O   UNL     1      -9.342   3.514  68.354  1.00  0.00    -0.155 OA 
HETATM    5  C   UNL     1      -9.512   5.517  69.681  1.00  0.00    -0.183 C  
HETATM    6  C   UNL     1      -9.886   6.933  69.238  1.00  0.00    -0.159 C  
HETATM    7  O   UNL     1     -10.690   7.672  67.063  1.00  0.00    -0.348 OA 
HETATM    8  C   UNL     1     -10.333   6.766  67.803  1.00  0.00    -0.198 C  
ENDROOT
BRANCH   6   9
HETATM    9  C   UNL     1     -10.948   7.562  70.113  1.00  0.00    -0.267 A  
HETATM   10  C   UNL     1     -11.943   6.766  70.698  1.00  0.00    -0.418 A  
HETATM   11  C   UNL     1     -12.942   7.344  71.482  1.00  0.00    -0.421 A  
HETATM   12  C   UNL     1     -12.959   8.722  71.695  1.00  0.00    -0.390 A  
HETATM   13  C   UNL     1     -11.968   9.521  71.135  1.00  0.00    -0.429 A  
HETATM   14  C   UNL     1     -10.966   8.947  70.353  1.00  0.00    -0.275 A  
ENDBRANCH   6   9
TORSDOF 1
ENDMDL
MODEL      102
REMARK 921   NORMALIZED FREE ENERGY PREDICTED BY IDOCK:   -3.60 KCAL/MOL
REMARK 922        TOTAL FREE ENERGY PREDICTED BY IDOCK:   -4.12 KCAL/MOL
REMARK 923 INTER-LIGAND FREE ENERGY PREDICTED BY IDOCK:   -4.25 KCAL/MOL
REMARK 924 INTRA-LIGAND FREE ENERGY PREDICTED BY IDOCK:    0.13 KCAL/MOL
REMARK 927      BINDING AFFINITY PREDICTED BY RF-SCORE:    0.00 PKD
ROOT
HETATM    1  C   UNL     1     -12.825  11.487  71.371  1.00  0.00    -0.384 C  
HETATM    2  N   UNL     1     -11.903  11.022  70.364  1.00  0.00    -0.344 N  
HETATM    3  C   UNL     1     -11.712  11.625  69.159  1.00  0.00    -0.326 C  
HETATM    4  O   UNL     1     -12.217  12.670  68.775  1.00  0.00    -0.178 OA 
HETATM    5  C   UNL     1     -10.764  10.801  68.339  1.00  0.00    -0.255 C  
HETATM    6  C   UNL     1     -10.266   9.726  69.307  1.00  0.00    -0.216 C  
HETATM    7  O   UNL     1     -10.936   9.344  71.614  1.00  0.00    -0.369 OA 
HETATM    8  C   UNL     1     -11.055   9.972  70.573  1.00  0.00    -0.331 C  
ENDROOT
BRANCH   6   9
HETATM    9  C   UNL     1     -10.442   8.322  68.769  1.00  0.00    -0.200 A  
HETATM   10  C   UNL     1     -10.535   8.103  67.388  1.00  0.00    -0.356 A  
HETATM   11  C   UNL     1     -10.728   6.814  66.887  1.00  0.00    -0.394 A  
HETATM   12  C   UNL     1     -10.825   5.731  67.758  1.00  0.00    -0.259 A  
HETATM   13  C   UNL     1     -10.717   5.932  69.130  1.00  0.00    -0.394 A  
HETATM   14  C   UNL     1     -10.522   7.218  69.634  1.00  0.00    -0.239 A  
ENDBRANCH   6   9
TORSDOF 1
ENDMDL
MODEL      103
REMARK 921   NORMALIZED FREE ENERGY PREDICTED BY IDOCK:   -3.54 KCAL/MOL
REMARK 922        TOTAL FREE ENERGY PREDICTED BY IDOCK:   -4.05 KCAL/MOL
REMARK 923 INTER-LIGAND FREE ENERGY PREDICTED BY IDOCK:   -4.03 KCAL/MOL
REMARK 924 INTRA-LIGAND FREE ENERGY PREDICTED BY IDOCK:   -0.02 KCAL/MOL
REMARK 927      BINDING AFFINITY PREDICTED BY RF-SCORE:    0.00 PKD
ROOT
HETATM    1  C   UNL     1     -11.561  15.845  68.904  1.00  0.00    -0.388 C  
HETATM    2  N   UNL     1     -10.785  16.226  67.749  1.00  0.00    -0.323 N  
HETATM    3  C   UNL     1     -10.234  15.346  66.869  1.00  0.00    -0.273 C  
HETATM    4  O   UNL     1     -10.366  14.130  66.870  1.00  0.00    -0.265 OA 
HETATM    5  C   UNL     1      -9.414  16.100  65.864  1.00  0.00    -0.337 C  
HETATM    6  C   UNL     1      -9.720  17.571  66.157  1.00  0.00    -0.225 C  
HETATM    7  O   UNL     1     -11.114  18.501  67.921  1.00  0.00    -0.184 OA 
HETATM    8  C   UNL     1     -10.614  17.528  67.375  1.00  0.00    -0.311 C  
ENDROOT
BRANCH   6   9
HETATM    9  C   UNL     1      -8.473  18.400  66.373  1.00  0.00    -0.264 A  
HETATM   10  C   UNL     1      -7.206  17.824  66.208  1.00  0.00    -0.331 A  
HETATM   11  C   UNL     1      -6.051  18.575  66.435  1.00  0.00    -0.194 A  
HETATM   12  C   UNL     1      -6.148  19.909  66.826  1.00  0.00    -0.183 A  
HETATM   13  C   UNL     1      -7.399  20.498  66.978  1.00  0.00    -0.372 A  
HETATM   14  C   UNL     1      -8.555  19.752  66.749  1.00  0.00    -0.375 A  
ENDBRANCH   6   9
TORSDOF 1
ENDMDL
MODEL      104
REMARK 921   NORMALIZED FREE ENERGY PREDICTED BY IDOCK:   -3.54 KCAL/MOL
REMARK 922        TOTAL FREE ENERGY PREDICTED BY IDOCK:   -4.05 KCAL/MOL
REMARK 923 INTER-LIGAND FREE ENERGY PREDICTED BY IDOCK:   -3.75 KCAL/MOL
REMARK 924 INTRA-LIGAND FREE ENERGY PREDICTED BY IDOCK:   -0.30 KCAL/MOL
REMARK 927      BINDING AFFINITY PREDICTED BY RF-SCORE:    0.00 PKD
ROOT
HETATM    1  C   UNL     1     -11.678  15.326  67.400  1.00  0.00    -0.109 C  
HETATM    2  N   UNL     1     -10.287  15.692  67.507  1.00  0.00    -0.271 N  
HETATM    3  C   UNL     1      -9.582  15.705  68.671  1.00  0.00    -0.202 C  
HETATM    4  O   UNL     1      -9.978  15.345  69.771  1.00  0.00    -0.266 OA 
HETATM    5  C   UNL     1      -8.205  16.239  68.409  1.00  0.00    -0.185 C  
HETATM    6  C   UNL     1      -8.130  16.355  66.885  1.00  0.00    -0.262 C  
HETATM    7  O   UNL     1      -9.872  15.902  65.249  1.00  0.00    -0.408 OA 
HETATM    8  C   UNL     1      -9.515  15.970  66.416  1.00  0.00    -0.293 C  
ENDROOT
BRANCH   6   9
HETATM    9  C   UNL     1      -7.715  17.734  66.420  1.00  0.00    -0.318 A  
HETATM   10  C   UNL     1      -6.522  17.908  65.705  1.00  0.00    -0.263 A  
HETATM   11  C   UNL     1      -6.118  19.181  65.299  1.00  0.00    -0.297 A  
HETATM   12  C   UNL     1      -6.902  20.294  65.598  1.00  0.00    -0.302 A  
HETATM   13  C   UNL     1      -8.097  20.134  66.291  1.00  0.00    -0.268 A  
HETATM   14  C   UNL     1      -8.505  18.863  66.696  1.00  0.00    -0.308 A  
ENDBRANCH   6   9
TORSDOF 1
ENDMDL
MODEL      105
REMARK 921   NORMALIZED FREE ENERGY PREDICTED BY IDOCK:   -3.52 KCAL/MOL
REMARK 922        TOTAL FREE ENERGY PREDICTED BY IDOCK:   -4.02 KCAL/MOL
REMARK 923 INTER-LIGAND FREE ENERGY PREDICTED BY IDOCK:   -3.73 KCAL/MOL
REMARK 924 INTRA-LIGAND FREE ENERGY PREDICTED BY IDOCK:   -0.29 KCAL/MOL
REMARK 927      BINDING AFFINITY PREDICTED BY RF-SCORE:    0.00 PKD
ROOT
HETATM    1  C   UNL     1     -13.028  10.387  71.690  1.00  0.00    -0.475 C  
HETATM    2  N   UNL     1     -12.372   9.116  71.504  1.00  0.00    -0.328 N  
HETATM    3  C   UNL     1     -12.995   7.909  71.592  1.00  0.00    -0.334 C  
HETATM    4  O   UNL     1     -14.190   7.713  71.761  1.00  0.00    -0.401 OA 
HETATM    5  C   UNL     1     -11.977   6.816  71.448  1.00  0.00    -0.403 C  
HETATM    6  C   UNL     1     -10.690   7.549  71.064  1.00  0.00    -0.243 C  
HETATM    7  O   UNL     1     -10.322   9.945  70.851  1.00  0.00    -0.253 OA 
HETATM    8  C   UNL     1     -11.065   9.013  71.122  1.00  0.00    -0.301 C  
ENDROOT
BRANCH   6   9
HETATM    9  C   UNL     1      -9.525   7.206  71.967  1.00  0.00    -0.151 A  
HETATM   10  C   UNL     1      -9.574   7.522  73.331  1.00  0.00    -0.323 A  
HETATM   11  C   UNL     1      -8.491   7.235  74.164  1.00  0.00    -0.223 A  
HETATM   12  C   UNL     1      -7.349   6.627  73.645  1.00  0.00    -0.083 A  
HETATM   13  C   UNL     1      -7.294   6.293  72.296  1.00  0.00    -0.092 A  
HETATM   14  C   UNL     1      -8.375   6.575  71.462  1.00  0.00    -0.121 A  
ENDBRANCH   6   9
TORSDOF 1
ENDMDL
MODEL      106
REMARK 921   NORMALIZED FREE ENERGY PREDICTED BY IDOCK:   -3.50 KCAL/MOL
REMARK 922        TOTAL FREE ENERGY PREDICTED BY IDOCK:   -4.01 KCAL/MOL
REMARK 923 INTER-LIGAND FREE ENERGY PREDICTED BY IDOCK:   -3.71 KCAL/MOL
REMARK 924 INTRA-LIGAND FREE ENERGY PREDICTED BY IDOCK:   -0.30 KCAL/MOL
REMARK 927      BINDING AFFINITY PREDICTED BY RF-SCORE:    0.00 PKD
ROOT
HETATM    1  C   UNL     1     -11.458   6.909  70.658  1.00  0.00    -0.336 C  
HETATM    2  N   UNL     1     -10.562   7.806  69.971  1.00  0.00    -0.235 N  
HETATM    3  C   UNL     1      -9.698   8.655  70.592  1.00  0.00    -0.184 C  
HETATM    4  O   UNL     1      -9.491   8.739  71.794  1.00  0.00    -0.260 OA 
HETATM    5  C   UNL     1      -9.012   9.503  69.562  1.00  0.00    -0.187 C  
HETATM    6  C   UNL     1      -9.447   8.897  68.226  1.00  0.00    -0.150 C  
HETATM    7  O   UNL     1     -10.995   7.061  67.833  1.00  0.00    -0.196 OA 
HETATM    8  C   UNL     1     -10.430   7.814  68.612  1.00  0.00    -0.172 C  
ENDROOT
BRANCH   6   9
HETATM    9  C   UNL     1     -10.043   9.919  67.282  1.00  0.00    -0.264 A  
HETATM   10  C   UNL     1      -9.655   9.945  65.935  1.00  0.00    -0.300 A  
HETATM   11  C   UNL     1     -10.178  10.905  65.066  1.00  0.00    -0.367 A  
HETATM   12  C   UNL     1     -11.095  11.846  65.531  1.00  0.00    -0.356 A  
HETATM   13  C   UNL     1     -11.501  11.821  66.861  1.00  0.00    -0.364 A  
HETATM   14  C   UNL     1     -10.983  10.862  67.731  1.00  0.00    -0.339 A  
ENDBRANCH   6   9
TORSDOF 1
ENDMDL
MODEL      107
REMARK 921   NORMALIZED FREE ENERGY PREDICTED BY IDOCK:   -3.48 KCAL/MOL
REMARK 922        TOTAL FREE ENERGY PREDICTED BY IDOCK:   -3.98 KCAL/MOL
REMARK 923 INTER-LIGAND FREE ENERGY PREDICTED BY IDOCK:   -3.69 KCAL/MOL
REMARK 924 INTRA-LIGAND FREE ENERGY PREDICTED BY IDOCK:   -0.30 KCAL/MOL
REMARK 927      BINDING AFFINITY PREDICTED BY RF-SCORE:    0.00 PKD
ROOT
HETATM    1  C   UNL     1      -5.714  18.858  69.410  1.00  0.00    -0.225 C  
HETATM    2  N   UNL     1      -6.658  18.688  68.333  1.00  0.00    -0.226 N  
HETATM    3  C   UNL     1      -7.288  19.712  67.695  1.00  0.00    -0.254 C  
HETATM    4  O   UNL     1      -7.106  20.908  67.871  1.00  0.00    -0.262 OA 
HETATM    5  C   UNL     1      -8.272  19.150  66.711  1.00  0.00    -0.292 C  
HETATM    6  C   UNL     1      -7.992  17.645  66.716  1.00  0.00    -0.268 C  
HETATM    7  O   UNL     1      -6.407  16.410  68.088  1.00  0.00    -0.124 OA 
HETATM    8  C   UNL     1      -6.935  17.469  67.784  1.00  0.00    -0.172 C  
ENDROOT
BRANCH   6   9
HETATM    9  C   UNL     1      -9.231  16.816  66.975  1.00  0.00    -0.238 A  
HETATM   10  C   UNL     1      -9.957  16.985  68.162  1.00  0.00    -0.287 A  
HETATM   11  C   UNL     1     -11.084  16.202  68.420  1.00  0.00    -0.359 A  
HETATM   12  C   UNL     1     -11.501  15.247  67.496  1.00  0.00    -0.271 A  
HETATM   13  C   UNL     1     -10.800  15.081  66.306  1.00  0.00    -0.333 A  
HETATM   14  C   UNL     1      -9.675  15.863  66.043  1.00  0.00    -0.375 A  
ENDBRANCH   6   9
TORSDOF 1
ENDMDL
MODEL      108
REMARK 921   NORMALIZED FREE ENERGY PREDICTED BY IDOCK:   -3.46 KCAL/MOL
REMARK 922        TOTAL FREE ENERGY PREDICTED BY IDOCK:   -3.96 KCAL/MOL
REMARK 923 INTER-LIGAND FREE ENERGY PREDICTED BY IDOCK:   -3.68 KCAL/MOL
REMARK 924 INTRA-LIGAND FREE ENERGY PREDICTED BY IDOCK:   -0.29 KCAL/MOL
REMARK 927      BINDING AFFINITY PREDICTED BY RF-SCORE:    0.00 PKD
ROOT
HETATM    1  C   UNL     1      -7.641  10.231  65.621  1.00  0.00    -0.148 C  
HETATM    2  N   UNL     1      -8.440  10.967  66.569  1.00  0.00    -0.156 N  
HETATM    3  C   UNL     1      -8.034  12.103  67.199  1.00  0.00    -0.170 C  
HETATM    4  O   UNL     1      -6.988  12.709  67.014  1.00  0.00    -0.076 OA 
HETATM    5  C   UNL     1      -9.083  12.522  68.187  1.00  0.00    -0.204 C  
HETATM    6  C   UNL     1     -10.258  11.583  67.909  1.00  0.00    -0.200 C  
HETATM    7  O   UNL     1     -10.378   9.743  66.321  1.00  0.00    -0.235 OA 
HETATM    8  C   UNL     1      -9.736  10.639  66.849  1.00  0.00    -0.179 C  
ENDROOT
BRANCH   6   9
HETATM    9  C   UNL     1     -10.743  10.863  69.149  1.00  0.00    -0.265 A  
HETATM   10  C   UNL     1     -12.013  11.139  69.673  1.00  0.00    -0.429 A  
HETATM   11  C   UNL     1     -12.454  10.500  70.833  1.00  0.00    -0.488 A  
HETATM   12  C   UNL     1     -11.634   9.578  71.481  1.00  0.00    -0.465 A  
HETATM   13  C   UNL     1     -10.378   9.282  70.962  1.00  0.00    -0.388 A  
HETATM   14  C   UNL     1      -9.935   9.916  69.801  1.00  0.00    -0.275 A  
ENDBRANCH   6   9
TORSDOF 1
ENDMDL
MODEL      109
REMARK 921   NORMALIZED FREE ENERGY PREDICTED BY IDOCK:   -3.41 KCAL/MOL
REMARK 922        TOTAL FREE ENERGY PREDICTED BY IDOCK:   -3.91 KCAL/MOL
REMARK 923 INTER-LIGAND FREE ENERGY PREDICTED BY IDOCK:   -3.64 KCAL/MOL
REMARK 924 INTRA-LIGAND FREE ENERGY PREDICTED BY IDOCK:   -0.28 KCAL/MOL
REMARK 927      BINDING AFFINITY PREDICTED BY RF-SCORE:    0.00 PKD
ROOT
HETATM    1  C   UNL     1     -11.121   5.883  72.918  1.00  0.00    -0.269 C  
HETATM    2  N   UNL     1     -10.895   5.755  71.499  1.00  0.00    -0.258 N  
HETATM    3  C   UNL     1     -10.153   4.769  70.924  1.00  0.00    -0.205 C  
HETATM    4  O   UNL     1      -9.637   3.816  71.490  1.00  0.00    -0.140 OA 
HETATM    5  C   UNL     1     -10.053   5.023  69.449  1.00  0.00    -0.288 C  
HETATM    6  C   UNL     1     -11.008   6.193  69.202  1.00  0.00    -0.450 C  
HETATM    7  O   UNL     1     -12.307   7.450  70.830  1.00  0.00    -0.285 OA 
HETATM    8  C   UNL     1     -11.495   6.571  70.583  1.00  0.00    -0.374 C  
ENDROOT
BRANCH   6   9
HETATM    9  C   UNL     1     -10.351   7.346  68.475  1.00  0.00    -0.221 A  
HETATM   10  C   UNL     1      -9.357   8.104  69.109  1.00  0.00    -0.151 A  
HETATM   11  C   UNL     1      -8.768   9.188  68.455  1.00  0.00    -0.129 A  
HETATM   12  C   UNL     1      -9.162   9.525  67.162  1.00  0.00    -0.158 A  
HETATM   13  C   UNL     1     -10.136   8.771  66.515  1.00  0.00    -0.349 A  
HETATM   14  C   UNL     1     -10.724   7.686  67.164  1.00  0.00    -0.361 A  
ENDBRANCH   6   9
TORSDOF 1
ENDMDL
MODEL      110
REMARK 921   NORMALIZED FREE ENERGY PREDICTED BY IDOCK:   -3.40 KCAL/MOL
REMARK 922        TOTAL FREE ENERGY PREDICTED BY IDOCK:   -3.90 KCAL/MOL
REMARK 923 INTER-LIGAND FREE ENERGY PREDICTED BY IDOCK:   -3.60 KCAL/MOL
REMARK 924 INTRA-LIGAND FREE ENERGY PREDICTED BY IDOCK:   -0.30 KCAL/MOL
REMARK 927      BINDING AFFINITY PREDICTED BY RF-SCORE:    0.00 PKD
ROOT
HETATM    1  C   UNL     1      -9.017   8.705  72.056  1.00  0.00    -0.216 C  
HETATM    2  N   UNL     1      -9.988   7.993  71.262  1.00  0.00    -0.172 N  
HETATM    3  C   UNL     1     -11.050   7.312  71.774  1.00  0.00    -0.235 C  
HETATM    4  O   UNL     1     -11.387   7.258  72.948  1.00  0.00    -0.299 OA 
HETATM    5  C   UNL     1     -11.772   6.613  70.661  1.00  0.00    -0.452 C  
HETATM    6  C   UNL     1     -11.103   7.139  69.389  1.00  0.00    -0.141 C  
HETATM    7  O   UNL     1      -9.216   8.663  69.196  1.00  0.00    -0.151 OA 
HETATM    8  C   UNL     1      -9.983   8.020  69.897  1.00  0.00    -0.189 C  
ENDROOT
BRANCH   6   9
HETATM    9  C   UNL     1     -10.612   6.032  68.481  1.00  0.00    -0.325 A  
HETATM   10  C   UNL     1     -10.828   6.107  67.098  1.00  0.00    -0.442 A  
HETATM   11  C   UNL     1     -10.405   5.076  66.259  1.00  0.00    -0.332 A  
HETATM   12  C   UNL     1      -9.759   3.960  66.789  1.00  0.00    -0.189 A  
HETATM   13  C   UNL     1      -9.523   3.880  68.157  1.00  0.00    -0.219 A  
HETATM   14  C   UNL     1      -9.942   4.911  68.999  1.00  0.00    -0.237 A  
ENDBRANCH   6   9
TORSDOF 1
ENDMDL
MODEL      111
REMARK 921   NORMALIZED FREE ENERGY PREDICTED BY IDOCK:   -3.39 KCAL/MOL
REMARK 922        TOTAL FREE ENERGY PREDICTED BY IDOCK:   -3.89 KCAL/MOL
REMARK 923 INTER-LIGAND FREE ENERGY PREDICTED BY IDOCK:   -3.59 KCAL/MOL
REMARK 924 INTRA-LIGAND FREE ENERGY PREDICTED BY IDOCK:   -0.30 KCAL/MOL
REMARK 927      BINDING AFFINITY PREDICTED BY RF-SCORE:    0.00 PKD
ROOT
HETATM    1  C   UNL     1      -8.838   8.591  65.368  1.00  0.00    -0.130 C  
HETATM    2  N   UNL     1      -9.424   9.371  66.430  1.00  0.00    -0.184 N  
HETATM    3  C   UNL     1      -9.155  10.686  66.658  1.00  0.00    -0.160 C  
HETATM    4  O   UNL     1      -8.455  11.419  65.974  1.00  0.00    -0.151 OA 
HETATM    5  C   UNL     1      -9.861  11.126  67.906  1.00  0.00    -0.187 C  
HETATM    6  C   UNL     1     -10.747   9.935  68.277  1.00  0.00    -0.276 C  
HETATM    7  O   UNL     1     -10.901   7.768  67.182  1.00  0.00    -0.313 OA 
HETATM    8  C   UNL     1     -10.390   8.876  67.258  1.00  0.00    -0.280 C  
ENDROOT
BRANCH   6   9
HETATM    9  C   UNL     1     -10.542   9.470  69.703  1.00  0.00    -0.245 A  
HETATM   10  C   UNL     1      -9.269   9.080  70.141  1.00  0.00    -0.212 A  
HETATM   11  C   UNL     1      -9.079   8.621  71.445  1.00  0.00    -0.295 A  
HETATM   12  C   UNL     1     -10.155   8.551  72.328  1.00  0.00    -0.386 A  
HETATM   13  C   UNL     1     -11.421   8.952  71.912  1.00  0.00    -0.442 A  
HETATM   14  C   UNL     1     -11.614   9.413  70.610  1.00  0.00    -0.330 A  
ENDBRANCH   6   9
TORSDOF 1
ENDMDL
MODEL      112
REMARK 921   NORMALIZED FREE ENERGY PREDICTED BY IDOCK:   -3.33 KCAL/MOL
REMARK 922        TOTAL FREE ENERGY PREDICTED BY IDOCK:   -3.82 KCAL/MOL
REMARK 923 INTER-LIGAND FREE ENERGY PREDICTED BY IDOCK:   -3.83 KCAL/MOL
REMARK 924 INTRA-LIGAND FREE ENERGY PREDICTED BY IDOCK:    0.01 KCAL/MOL
REMARK 927      BINDING AFFINITY PREDICTED BY RF-SCORE:    0.00 PKD
ROOT
HETATM    1  C   UNL     1     -11.683  12.741  63.444  1.00  0.00    -0.488 C  
HETATM    2  N   UNL     1     -11.556  12.364  64.830  1.00  0.00    -0.331 N  
HETATM    3  C   UNL     1     -12.145  13.025  65.864  1.00  0.00    -0.444 C  
HETATM    4  O   UNL     1     -12.917  13.970  65.783  1.00  0.00    -0.517 OA 
HETATM    5  C   UNL     1     -11.702  12.412  67.159  1.00  0.00    -0.415 C  
HETATM    6  C   UNL     1     -10.921  11.165  66.738  1.00  0.00    -0.309 C  
HETATM    7  O   UNL     1     -10.397  10.401  64.488  1.00  0.00    -0.311 OA 
HETATM    8  C   UNL     1     -10.901  11.234  65.227  1.00  0.00    -0.194 C  
ENDROOT
BRANCH   6   9
HETATM    9  C   UNL     1      -9.534  11.108  67.341  1.00  0.00    -0.176 A  
HETATM   10  C   UNL     1      -9.367  10.805  68.699  1.00  0.00    -0.184 A  
HETATM   11  C   UNL     1      -8.092  10.781  69.267  1.00  0.00    -0.102 A  
HETATM   12  C   UNL     1      -6.971  11.054  68.487  1.00  0.00    -0.070 A  
HETATM   13  C   UNL     1      -7.120  11.340  67.134  1.00  0.00    -0.125 A  
HETATM   14  C   UNL     1      -8.392  11.363  66.562  1.00  0.00    -0.164 A  
ENDBRANCH   6   9
TORSDOF 1
ENDMDL
MODEL      113
REMARK 921   NORMALIZED FREE ENERGY PREDICTED BY IDOCK:   -3.32 KCAL/MOL
REMARK 922        TOTAL FREE ENERGY PREDICTED BY IDOCK:   -3.82 KCAL/MOL
REMARK 923 INTER-LIGAND FREE ENERGY PREDICTED BY IDOCK:   -3.67 KCAL/MOL
REMARK 924 INTRA-LIGAND FREE ENERGY PREDICTED BY IDOCK:   -0.15 KCAL/MOL
REMARK 927      BINDING AFFINITY PREDICTED BY RF-SCORE:    0.00 PKD
ROOT
HETATM    1  C   UNL     1     -11.587  16.078  68.902  1.00  0.00    -0.354 C  
HETATM    2  N   UNL     1     -10.600  15.066  68.614  1.00  0.00    -0.231 N  
HETATM    3  C   UNL     1      -9.263  15.302  68.517  1.00  0.00    -0.200 C  
HETATM    4  O   UNL     1      -8.689  16.360  68.728  1.00  0.00    -0.224 OA 
HETATM    5  C   UNL     1      -8.568  14.039  68.101  1.00  0.00    -0.181 C  
HETATM    6  C   UNL     1      -9.663  12.970  68.159  1.00  0.00    -0.228 C  
HETATM    7  O   UNL     1     -12.022  13.253  68.680  1.00  0.00    -0.339 OA 
HETATM    8  C   UNL     1     -10.916  13.742  68.506  1.00  0.00    -0.262 C  
ENDROOT
BRANCH   6   9
HETATM    9  C   UNL     1      -9.793  12.191  66.868  1.00  0.00    -0.213 A  
HETATM   10  C   UNL     1      -9.060  11.012  66.680  1.00  0.00    -0.177 A  
HETATM   11  C   UNL     1      -9.152  10.304  65.480  1.00  0.00    -0.211 A  
HETATM   12  C   UNL     1      -9.980  10.764  64.457  1.00  0.00    -0.395 A  
HETATM   13  C   UNL     1     -10.726  11.924  64.637  1.00  0.00    -0.356 A  
HETATM   14  C   UNL     1     -10.638  12.632  65.835  1.00  0.00    -0.297 A  
ENDBRANCH   6   9
TORSDOF 1
ENDMDL
MODEL      114
REMARK 921   NORMALIZED FREE ENERGY PREDICTED BY IDOCK:   -3.32 KCAL/MOL
REMARK 922        TOTAL FREE ENERGY PREDICTED BY IDOCK:   -3.81 KCAL/MOL
REMARK 923 INTER-LIGAND FREE ENERGY PREDICTED BY IDOCK:   -3.51 KCAL/MOL
REMARK 924 INTRA-LIGAND FREE ENERGY PREDICTED BY IDOCK:   -0.30 KCAL/MOL
REMARK 927      BINDING AFFINITY PREDICTED BY RF-SCORE:    0.00 PKD
ROOT
HETATM    1  C   UNL     1      -8.981   8.638  70.864  1.00  0.00    -0.187 C  
HETATM    2  N   UNL     1      -8.759   9.519  69.745  1.00  0.00    -0.176 N  
HETATM    3  C   UNL     1      -7.735  10.412  69.661  1.00  0.00    -0.144 C  
HETATM    4  O   UNL     1      -6.821  10.555  70.460  1.00  0.00    -0.312 OA 
HETATM    5  C   UNL     1      -7.889  11.224  68.409  1.00  0.00    -0.136 C  
HETATM    6  C   UNL     1      -9.042  10.549  67.662  1.00  0.00    -0.146 C  
HETATM    7  O   UNL     1     -10.408   8.668  68.378  1.00  0.00    -0.203 OA 
HETATM    8  C   UNL     1      -9.512   9.467  68.607  1.00  0.00    -0.142 C  
ENDROOT
BRANCH   6   9
HETATM    9  C   UNL     1     -10.143  11.516  67.282  1.00  0.00    -0.223 A  
HETATM   10  C   UNL     1     -10.670  11.507  65.983  1.00  0.00    -0.332 A  
HETATM   11  C   UNL     1     -11.665  12.416  65.617  1.00  0.00    -0.468 A  
HETATM   12  C   UNL     1     -12.146  13.340  66.543  1.00  0.00    -0.435 A  
HETATM   13  C   UNL     1     -11.643  13.348  67.840  1.00  0.00    -0.374 A  
HETATM   14  C   UNL     1     -10.651  12.439  68.210  1.00  0.00    -0.236 A  
ENDBRANCH   6   9
TORSDOF 1
ENDMDL
MODEL      115
REMARK 921   NORMALIZED FREE ENERGY PREDICTED BY IDOCK:   -3.30 KCAL/MOL
REMARK 922        TOTAL FREE ENERGY PREDICTED BY IDOCK:   -3.80 KCAL/MOL
REMARK 923 INTER-LIGAND FREE ENERGY PREDICTED BY IDOCK:   -3.50 KCAL/MOL
REMARK 924 INTRA-LIGAND FREE ENERGY PREDICTED BY IDOCK:   -0.30 KCAL/MOL
REMARK 927      BINDING AFFINITY PREDICTED BY RF-SCORE:    0.00 PKD
ROOT
HETATM    1  C   UNL     1      -8.656  13.737  68.286  1.00  0.00    -0.175 C  
HETATM    2  N   UNL     1      -9.708  12.777  68.056  1.00  0.00    -0.214 N  
HETATM    3  C   UNL     1     -10.977  12.897  68.533  1.00  0.00    -0.259 C  
HETATM    4  O   UNL     1     -11.440  13.846  69.149  1.00  0.00    -0.262 OA 
HETATM    5  C   UNL     1     -11.754  11.662  68.185  1.00  0.00    -0.365 C  
HETATM    6  C   UNL     1     -10.821  10.877  67.261  1.00  0.00    -0.342 C  
HETATM    7  O   UNL     1      -8.546  11.424  66.594  1.00  0.00    -0.161 OA 
HETATM    8  C   UNL     1      -9.546  11.691  67.244  1.00  0.00    -0.174 C  
ENDROOT
BRANCH   6   9
HETATM    9  C   UNL     1     -10.601   9.451  67.719  1.00  0.00    -0.317 A  
HETATM   10  C   UNL     1     -10.538   9.152  69.087  1.00  0.00    -0.224 A  
HETATM   11  C   UNL     1     -10.306   7.844  69.516  1.00  0.00    -0.217 A  
HETATM   12  C   UNL     1     -10.137   6.821  68.586  1.00  0.00    -0.163 A  
HETATM   13  C   UNL     1     -10.213   7.100  67.225  1.00  0.00    -0.315 A  
HETATM   14  C   UNL     1     -10.448   8.406  66.793  1.00  0.00    -0.315 A  
ENDBRANCH   6   9
TORSDOF 1
ENDMDL
MODEL      116
REMARK 921   NORMALIZED FREE ENERGY PREDICTED BY IDOCK:   -3.30 KCAL/MOL
REMARK 922        TOTAL FREE ENERGY PREDICTED BY IDOCK:   -3.79 KCAL/MOL
REMARK 923 INTER-LIGAND FREE ENERGY PREDICTED BY IDOCK:   -3.54 KCAL/MOL
REMARK 924 INTRA-LIGAND FREE ENERGY PREDICTED BY IDOCK:   -0.25 KCAL/MOL
REMARK 927      BINDING AFFINITY PREDICTED BY RF-SCORE:    0.00 PKD
ROOT
HETATM    1  C   UNL     1     -11.247  11.121  66.440  1.00  0.00    -0.046 C  
HETATM    2  N   UNL     1     -10.500  10.269  67.333  1.00  0.00    -0.233 N  
HETATM    3  C   UNL     1      -9.640   9.295  66.926  1.00  0.00    -0.174 C  
HETATM    4  O   UNL     1      -9.311   9.043  65.776  1.00  0.00    -0.223 OA 
HETATM    5  C   UNL     1      -9.134   8.550  68.126  1.00  0.00    -0.138 C  
HETATM    6  C   UNL     1      -9.665   9.351  69.317  1.00  0.00    -0.173 C  
HETATM    7  O   UNL     1     -11.104  11.313  69.298  1.00  0.00    -0.226 OA 
HETATM    8  C   UNL     1     -10.516  10.431  68.688  1.00  0.00    -0.196 C  
ENDROOT
BRANCH   6   9
HETATM    9  C   UNL     1     -10.433   8.498  70.304  1.00  0.00    -0.233 A  
HETATM   10  C   UNL     1     -11.015   7.293  69.890  1.00  0.00    -0.262 A  
HETATM   11  C   UNL     1     -11.750   6.516  70.788  1.00  0.00    -0.427 A  
HETATM   12  C   UNL     1     -11.910   6.933  72.108  1.00  0.00    -0.318 A  
HETATM   13  C   UNL     1     -11.324   8.120  72.536  1.00  0.00    -0.469 A  
HETATM   14  C   UNL     1     -10.586   8.896  71.643  1.00  0.00    -0.422 A  
ENDBRANCH   6   9
TORSDOF 1
ENDMDL
MODEL      117
REMARK 921   NORMALIZED FREE ENERGY PREDICTED BY IDOCK:   -3.29 KCAL/MOL
REMARK 922        TOTAL FREE ENERGY PREDICTED BY IDOCK:   -3.79 KCAL/MOL
REMARK 923 INTER-LIGAND FREE ENERGY PREDICTED BY IDOCK:   -3.49 KCAL/MOL
REMARK 924 INTRA-LIGAND FREE ENERGY PREDICTED BY IDOCK:   -0.30 KCAL/MOL
REMARK 927      BINDING AFFINITY PREDICTED BY RF-SCORE:    0.00 PKD
ROOT
HETATM    1  C   UNL     1      -8.874   8.061  68.045  1.00  0.00    -0.128 C  
HETATM    2  N   UNL     1      -9.451   9.066  67.185  1.00  0.00    -0.146 N  
HETATM    3  C   UNL     1      -9.158   9.207  65.864  1.00  0.00    -0.205 C  
HETATM    4  O   UNL     1      -8.439   8.481  65.192  1.00  0.00    -0.170 OA 
HETATM    5  C   UNL     1      -9.863  10.418  65.328  1.00  0.00    -0.361 C  
HETATM    6  C   UNL     1     -10.775  10.861  66.475  1.00  0.00    -0.270 C  
HETATM    7  O   UNL     1     -10.963   9.910  68.706  1.00  0.00    -0.223 OA 
HETATM    8  C   UNL     1     -10.432   9.917  67.606  1.00  0.00    -0.244 C  
ENDROOT
BRANCH   6   9
HETATM    9  C   UNL     1     -10.588  12.315  66.848  1.00  0.00    -0.249 A  
HETATM   10  C   UNL     1      -9.302  12.870  66.902  1.00  0.00    -0.240 A  
HETATM   11  C   UNL     1      -9.121  14.203  67.274  1.00  0.00    -0.218 A  
HETATM   12  C   UNL     1     -10.220  14.998  67.592  1.00  0.00    -0.236 A  
HETATM   13  C   UNL     1     -11.503  14.465  67.526  1.00  0.00    -0.370 A  
HETATM   14  C   UNL     1     -11.689  13.134  67.152  1.00  0.00    -0.430 A  
ENDBRANCH   6   9
TORSDOF 1
ENDMDL
MODEL      118
REMARK 921   NORMALIZED FREE ENERGY PREDICTED BY IDOCK:   -3.28 KCAL/MOL
REMARK 922        TOTAL FREE ENERGY PREDICTED BY IDOCK:   -3.77 KCAL/MOL
REMARK 923 INTER-LIGAND FREE ENERGY PREDICTED BY IDOCK:   -3.85 KCAL/MOL
REMARK 924 INTRA-LIGAND FREE ENERGY PREDICTED BY IDOCK:    0.08 KCAL/MOL
REMARK 927      BINDING AFFINITY PREDICTED BY RF-SCORE:    0.00 PKD
ROOT
HETATM    1  C   UNL     1      -8.296   5.913  65.286  1.00  0.00    -0.146 C  
HETATM    2  N   UNL     1      -9.276   6.390  66.231  1.00  0.00    -0.157 N  
HETATM    3  C   UNL     1      -9.507   7.703  66.502  1.00  0.00    -0.190 C  
HETATM    4  O   UNL     1      -8.993   8.666  65.951  1.00  0.00    -0.177 OA 
HETATM    5  C   UNL     1     -10.514   7.809  67.609  1.00  0.00    -0.308 C  
HETATM    6  C   UNL     1     -10.995   6.372  67.820  1.00  0.00    -0.425 C  
HETATM    7  O   UNL     1     -10.227   4.346  66.714  1.00  0.00    -0.202 OA 
HETATM    8  C   UNL     1     -10.140   5.554  66.878  1.00  0.00    -0.203 C  
ENDROOT
BRANCH   6   9
HETATM    9  C   UNL     1     -10.881   5.918  69.260  1.00  0.00    -0.414 A  
HETATM   10  C   UNL     1     -11.656   6.529  70.255  1.00  0.00    -0.473 A  
HETATM   11  C   UNL     1     -11.534   6.135  71.588  1.00  0.00    -0.331 A  
HETATM   12  C   UNL     1     -10.640   5.127  71.943  1.00  0.00    -0.256 A  
HETATM   13  C   UNL     1      -9.877   4.501  70.963  1.00  0.00    -0.266 A  
HETATM   14  C   UNL     1      -9.998   4.889  69.629  1.00  0.00    -0.302 A  
ENDBRANCH   6   9
TORSDOF 1
ENDMDL
MODEL      119
REMARK 921   NORMALIZED FREE ENERGY PREDICTED BY IDOCK:   -3.24 KCAL/MOL
REMARK 922        TOTAL FREE ENERGY PREDICTED BY IDOCK:   -3.73 KCAL/MOL
REMARK 923 INTER-LIGAND FREE ENERGY PREDICTED BY IDOCK:   -3.75 KCAL/MOL
REMARK 924 INTRA-LIGAND FREE ENERGY PREDICTED BY IDOCK:    0.02 KCAL/MOL
REMARK 927      BINDING AFFINITY PREDICTED BY RF-SCORE:    0.00 PKD
ROOT
HETATM    1  C   UNL     1      -9.833  10.248  68.544  1.00  0.00    -0.164 C  
HETATM    2  N   UNL     1     -10.238  11.604  68.265  1.00  0.00    -0.193 N  
HETATM    3  C   UNL     1      -9.574  12.447  67.427  1.00  0.00    -0.184 C  
HETATM    4  O   UNL     1      -8.602  12.177  66.737  1.00  0.00    -0.191 OA 
HETATM    5  C   UNL     1     -10.224  13.799  67.470  1.00  0.00    -0.241 C  
HETATM    6  C   UNL     1     -11.489  13.582  68.303  1.00  0.00    -0.345 C  
HETATM    7  O   UNL     1     -12.234  11.551  69.417  1.00  0.00    -0.289 OA 
HETATM    8  C   UNL     1     -11.396  12.140  68.749  1.00  0.00    -0.288 C  
ENDROOT
BRANCH   6   9
HETATM    9  C   UNL     1     -11.604  14.548  69.462  1.00  0.00    -0.350 A  
HETATM   10  C   UNL     1     -10.709  15.620  69.577  1.00  0.00    -0.271 A  
HETATM   11  C   UNL     1     -10.790  16.498  70.660  1.00  0.00     0.115 A  
HETATM   12  C   UNL     1     -11.767  16.317  71.637  1.00  0.00    -0.490 A  
HETATM   13  C   UNL     1     -12.672  15.267  71.527  1.00  0.00    -0.455 A  
HETATM   14  C   UNL     1     -12.595  14.390  70.445  1.00  0.00    -0.405 A  
ENDBRANCH   6   9
TORSDOF 1
ENDMDL
MODEL      120
REMARK 921   NORMALIZED FREE ENERGY PREDICTED BY IDOCK:   -3.21 KCAL/MOL
REMARK 922        TOTAL FREE ENERGY PREDICTED BY IDOCK:   -3.70 KCAL/MOL
REMARK 923 INTER-LIGAND FREE ENERGY PREDICTED BY IDOCK:   -3.40 KCAL/MOL
REMARK 924 INTRA-LIGAND FREE ENERGY PREDICTED BY IDOCK:   -0.30 KCAL/MOL
REMARK 927      BINDING AFFINITY PREDICTED BY RF-SCORE:    0.00 PKD
ROOT
HETATM    1  C   UNL     1     -10.503   7.961  66.897  1.00  0.00    -0.318 C  
HETATM    2  N   UNL     1      -9.882   9.192  67.324  1.00  0.00    -0.176 N  
HETATM    3  C   UNL     1      -9.136   9.325  68.454  1.00  0.00    -0.128 C  
HETATM    4  O   UNL     1      -8.816   8.435  69.229  1.00  0.00    -0.140 OA 
HETATM    5  C   UNL     1      -8.749  10.765  68.624  1.00  0.00    -0.152 C  
HETATM    6  C   UNL     1      -9.206  11.433  67.325  1.00  0.00    -0.167 C  
HETATM    7  O   UNL     1     -10.399  10.436  65.453  1.00  0.00    -0.275 OA 
HETATM    8  C   UNL     1      -9.908  10.328  66.567  1.00  0.00    -0.212 C  
ENDROOT
BRANCH   6   9
HETATM    9  C   UNL     1     -10.092  12.637  67.562  1.00  0.00    -0.212 A  
HETATM   10  C   UNL     1      -9.898  13.811  66.822  1.00  0.00    -0.275 A  
HETATM   11  C   UNL     1     -10.692  14.935  67.056  1.00  0.00    -0.307 A  
HETATM   12  C   UNL     1     -11.690  14.898  68.028  1.00  0.00    -0.344 A  
HETATM   13  C   UNL     1     -11.904  13.734  68.758  1.00  0.00    -0.398 A  
HETATM   14  C   UNL     1     -11.115  12.608  68.525  1.00  0.00    -0.300 A  
ENDBRANCH   6   9
TORSDOF 1
ENDMDL
MODEL      121
REMARK 921   NORMALIZED FREE ENERGY PREDICTED BY IDOCK:   -3.20 KCAL/MOL
REMARK 922        TOTAL FREE ENERGY PREDICTED BY IDOCK:   -3.69 KCAL/MOL
REMARK 923 INTER-LIGAND FREE ENERGY PREDICTED BY IDOCK:   -3.41 KCAL/MOL
REMARK 924 INTRA-LIGAND FREE ENERGY PREDICTED BY IDOCK:   -0.28 KCAL/MOL
REMARK 927      BINDING AFFINITY PREDICTED BY RF-SCORE:    0.00 PKD
ROOT
HETATM    1  C   UNL     1      -8.173   3.960  67.474  1.00  0.00    -0.094 C  
HETATM    2  N   UNL     1      -9.265   4.848  67.788  1.00  0.00    -0.117 N  
HETATM    3  C   UNL     1      -9.757   5.791  66.938  1.00  0.00    -0.148 C  
HETATM    4  O   UNL     1      -9.415   5.983  65.780  1.00  0.00    -0.049 OA 
HETATM    5  C   UNL     1     -10.811   6.591  67.645  1.00  0.00    -0.419 C  
HETATM    6  C   UNL     1     -11.015   5.856  68.972  1.00  0.00    -0.359 C  
HETATM    7  O   UNL     1      -9.824   3.910  69.818  1.00  0.00    -0.195 OA 
HETATM    8  C   UNL     1      -9.979   4.754  68.948  1.00  0.00    -0.126 C  
ENDROOT
BRANCH   6   9
HETATM    9  C   UNL     1     -10.877   6.764  70.175  1.00  0.00    -0.311 A  
HETATM   10  C   UNL     1      -9.632   7.321  70.498  1.00  0.00    -0.168 A  
HETATM   11  C   UNL     1      -9.491   8.136  71.623  1.00  0.00    -0.233 A  
HETATM   12  C   UNL     1     -10.591   8.406  72.436  1.00  0.00    -0.405 A  
HETATM   13  C   UNL     1     -11.836   7.873  72.117  1.00  0.00    -0.384 A  
HETATM   14  C   UNL     1     -11.981   7.061  70.992  1.00  0.00    -0.406 A  
ENDBRANCH   6   9
TORSDOF 1
ENDMDL
MODEL      122
REMARK 921   NORMALIZED FREE ENERGY PREDICTED BY IDOCK:   -3.17 KCAL/MOL
REMARK 922        TOTAL FREE ENERGY PREDICTED BY IDOCK:   -3.65 KCAL/MOL
REMARK 923 INTER-LIGAND FREE ENERGY PREDICTED BY IDOCK:   -3.38 KCAL/MOL
REMARK 924 INTRA-LIGAND FREE ENERGY PREDICTED BY IDOCK:   -0.27 KCAL/MOL
REMARK 927      BINDING AFFINITY PREDICTED BY RF-SCORE:    0.00 PKD
ROOT
HETATM    1  C   UNL     1      -8.046   3.730  70.931  1.00  0.00    -0.066 C  
HETATM    2  N   UNL     1      -9.090   4.522  70.328  1.00  0.00    -0.094 N  
HETATM    3  C   UNL     1      -9.236   4.709  68.988  1.00  0.00    -0.129 C  
HETATM    4  O   UNL     1      -8.575   4.190  68.100  1.00  0.00    -0.092 OA 
HETATM    5  C   UNL     1     -10.360   5.672  68.744  1.00  0.00    -0.288 C  
HETATM    6  C   UNL     1     -10.988   5.876  70.124  1.00  0.00    -0.412 C  
HETATM    7  O   UNL     1     -10.270   4.959  72.260  1.00  0.00    -0.184 OA 
HETATM    8  C   UNL     1     -10.098   5.085  71.056  1.00  0.00    -0.227 C  
ENDROOT
BRANCH   6   9
HETATM    9  C   UNL     1     -11.095   7.335  70.512  1.00  0.00    -0.290 A  
HETATM   10  C   UNL     1     -10.193   8.272  69.989  1.00  0.00    -0.202 A  
HETATM   11  C   UNL     1     -10.267   9.614  70.367  1.00  0.00    -0.348 A  
HETATM   12  C   UNL     1     -11.244  10.036  71.267  1.00  0.00    -0.270 A  
HETATM   13  C   UNL     1     -12.156   9.120  71.780  1.00  0.00    -0.446 A  
HETATM   14  C   UNL     1     -12.086   7.779  71.403  1.00  0.00    -0.335 A  
ENDBRANCH   6   9
TORSDOF 1
ENDMDL
MODEL      123
REMARK 921   NORMALIZED FREE ENERGY PREDICTED BY IDOCK:   -3.14 KCAL/MOL
REMARK 922        TOTAL FREE ENERGY PREDICTED BY IDOCK:   -3.63 KCAL/MOL
REMARK 923 INTER-LIGAND FREE ENERGY PREDICTED BY IDOCK:   -3.33 KCAL/MOL
REMARK 924 INTRA-LIGAND FREE ENERGY PREDICTED BY IDOCK:   -0.30 KCAL/MOL
REMARK 927      BINDING AFFINITY PREDICTED BY RF-SCORE:    0.00 PKD
ROOT
HETATM    1  C   UNL     1     -11.743  12.430  68.233  1.00  0.00    -0.345 C  
HETATM    2  N   UNL     1     -11.661  11.289  69.112  1.00  0.00    -0.312 N  
HETATM    3  C   UNL     1     -12.059  11.292  70.414  1.00  0.00    -0.384 C  
HETATM    4  O   UNL     1     -12.604  12.209  71.011  1.00  0.00    -0.362 OA 
HETATM    5  C   UNL     1     -11.723   9.968  71.036  1.00  0.00    -0.479 C  
HETATM    6  C   UNL     1     -11.250   9.110  69.861  1.00  0.00    -0.118 C  
HETATM    7  O   UNL     1     -10.976   9.757  67.532  1.00  0.00    -0.275 OA 
HETATM    8  C   UNL     1     -11.261  10.057  68.682  1.00  0.00    -0.121 C  
ENDROOT
BRANCH   6   9
HETATM    9  C   UNL     1      -9.893   8.484  70.098  1.00  0.00    -0.184 A  
HETATM   10  C   UNL     1      -8.834   9.261  70.587  1.00  0.00    -0.287 A  
HETATM   11  C   UNL     1      -7.572   8.698  70.779  1.00  0.00    -0.083 A  
HETATM   12  C   UNL     1      -7.353   7.352  70.490  1.00  0.00    -0.076 A  
HETATM   13  C   UNL     1      -8.399   6.565  70.020  1.00  0.00    -0.134 A  
HETATM   14  C   UNL     1      -9.662   7.124  69.829  1.00  0.00    -0.165 A  
ENDBRANCH   6   9
TORSDOF 1
ENDMDL
MODEL      124
REMARK 921   NORMALIZED FREE ENERGY PREDICTED BY IDOCK:   -3.04 KCAL/MOL
REMARK 922        TOTAL FREE ENERGY PREDICTED BY IDOCK:   -3.52 KCAL/MOL
REMARK 923 INTER-LIGAND FREE ENERGY PREDICTED BY IDOCK:   -3.23 KCAL/MOL
REMARK 924 INTRA-LIGAND FREE ENERGY PREDICTED BY IDOCK:   -0.30 KCAL/MOL
REMARK 927      BINDING AFFINITY PREDICTED BY RF-SCORE:    0.00 PKD
ROOT
HETATM    1  C   UNL     1     -10.342   5.316  69.945  1.00  0.00    -0.304 C  
HETATM    2  N   UNL     1      -9.697   6.516  69.471  1.00  0.00    -0.151 N  
HETATM    3  C   UNL     1      -8.613   7.090  70.060  1.00  0.00    -0.141 C  
HETATM    4  O   UNL     1      -7.980   6.655  71.011  1.00  0.00    -0.104 OA 
HETATM    5  C   UNL     1      -8.291   8.375  69.356  1.00  0.00    -0.120 C  
HETATM    6  C   UNL     1      -9.219   8.380  68.139  1.00  0.00    -0.141 C  
HETATM    7  O   UNL     1     -10.922   6.752  67.532  1.00  0.00    -0.294 OA 
HETATM    8  C   UNL     1     -10.065   7.139  68.313  1.00  0.00    -0.167 C  
ENDROOT
BRANCH   6   9
HETATM    9  C   UNL     1     -10.045   9.644  68.035  1.00  0.00    -0.213 A  
HETATM   10  C   UNL     1     -10.950   9.980  69.051  1.00  0.00    -0.249 A  
HETATM   11  C   UNL     1     -11.737  11.128  68.947  1.00  0.00    -0.406 A  
HETATM   12  C   UNL     1     -11.627  11.955  67.830  1.00  0.00    -0.393 A  
HETATM   13  C   UNL     1     -10.721  11.642  66.822  1.00  0.00    -0.299 A  
HETATM   14  C   UNL     1      -9.931  10.497  66.924  1.00  0.00    -0.246 A  
ENDBRANCH   6   9
TORSDOF 1
ENDMDL
MODEL      125
REMARK 921   NORMALIZED FREE ENERGY PREDICTED BY IDOCK:   -3.04 KCAL/MOL
REMARK 922        TOTAL FREE ENERGY PREDICTED BY IDOCK:   -3.52 KCAL/MOL
REMARK 923 INTER-LIGAND FREE ENERGY PREDICTED BY IDOCK:   -3.71 KCAL/MOL
REMARK 924 INTRA-LIGAND FREE ENERGY PREDICTED BY IDOCK:    0.19 KCAL/MOL
REMARK 927      BINDING AFFINITY PREDICTED BY RF-SCORE:    0.00 PKD
ROOT
HETATM    1  C   UNL     1      -9.747   8.678  66.079  1.00  0.00    -0.168 C  
HETATM    2  N   UNL     1     -10.008   8.527  67.490  1.00  0.00    -0.184 N  
HETATM    3  C   UNL     1     -10.406   7.366  68.078  1.00  0.00    -0.199 C  
HETATM    4  O   UNL     1     -10.529   6.276  67.538  1.00  0.00    -0.172 OA 
HETATM    5  C   UNL     1     -10.683   7.617  69.531  1.00  0.00    -0.211 C  
HETATM    6  C   UNL     1     -10.200   9.051  69.763  1.00  0.00    -0.214 C  
HETATM    7  O   UNL     1      -9.303  10.624  68.138  1.00  0.00    -0.144 OA 
HETATM    8  C   UNL     1      -9.782   9.528  68.390  1.00  0.00    -0.154 C  
ENDROOT
BRANCH   6   9
HETATM    9  C   UNL     1     -11.256   9.933  70.394  1.00  0.00    -0.379 A  
HETATM   10  C   UNL     1     -11.269  11.310  70.138  1.00  0.00    -0.151 A  
HETATM   11  C   UNL     1     -12.222  12.134  70.740  1.00  0.00    -0.367 A  
HETATM   12  C   UNL     1     -13.174  11.592  71.601  1.00  0.00    -0.389 A  
HETATM   13  C   UNL     1     -13.183  10.223  71.851  1.00  0.00    -0.550 A  
HETATM   14  C   UNL     1     -12.234   9.397  71.249  1.00  0.00    -0.425 A  
ENDBRANCH   6   9
TORSDOF 1
ENDMDL
MODEL      126
REMARK 921   NORMALIZED FREE ENERGY PREDICTED BY IDOCK:   -3.04 KCAL/MOL
REMARK 922        TOTAL FREE ENERGY PREDICTED BY IDOCK:   -3.52 KCAL/MOL
REMARK 923 INTER-LIGAND FREE ENERGY PREDICTED BY IDOCK:   -3.26 KCAL/MOL
REMARK 924 INTRA-LIGAND FREE ENERGY PREDICTED BY IDOCK:   -0.25 KCAL/MOL
REMARK 927      BINDING AFFINITY PREDICTED BY RF-SCORE:    0.00 PKD
ROOT
HETATM    1  C   UNL     1      -9.580   9.322  65.662  1.00  0.00    -0.254 C  
HETATM    2  N   UNL     1      -9.275   8.570  66.854  1.00  0.00    -0.150 N  
HETATM    3  C   UNL     1      -8.891   7.264  66.862  1.00  0.00    -0.132 C  
HETATM    4  O   UNL     1      -8.672   6.560  65.887  1.00  0.00    -0.149 OA 
HETATM    5  C   UNL     1      -8.767   6.794  68.281  1.00  0.00    -0.123 C  
HETATM    6  C   UNL     1      -8.942   8.065  69.115  1.00  0.00    -0.145 C  
HETATM    7  O   UNL     1      -9.432  10.320  68.346  1.00  0.00    -0.140 OA 
HETATM    8  C   UNL     1      -9.252   9.137  68.096  1.00  0.00    -0.131 C  
ENDROOT
BRANCH   6   9
HETATM    9  C   UNL     1     -10.016   7.932  70.173  1.00  0.00    -0.190 A  
HETATM   10  C   UNL     1      -9.970   8.725  71.327  1.00  0.00    -0.333 A  
HETATM   11  C   UNL     1     -10.942   8.586  72.320  1.00  0.00    -0.426 A  
HETATM   12  C   UNL     1     -11.971   7.659  72.170  1.00  0.00    -0.344 A  
HETATM   13  C   UNL     1     -12.038   6.877  71.022  1.00  0.00    -0.429 A  
HETATM   14  C   UNL     1     -11.070   7.015  70.026  1.00  0.00    -0.316 A  
ENDBRANCH   6   9
TORSDOF 1
ENDMDL
MODEL      127
REMARK 921   NORMALIZED FREE ENERGY PREDICTED BY IDOCK:   -3.00 KCAL/MOL
REMARK 922        TOTAL FREE ENERGY PREDICTED BY IDOCK:   -3.48 KCAL/MOL
REMARK 923 INTER-LIGAND FREE ENERGY PREDICTED BY IDOCK:   -3.24 KCAL/MOL
REMARK 924 INTRA-LIGAND FREE ENERGY PREDICTED BY IDOCK:   -0.24 KCAL/MOL
REMARK 927      BINDING AFFINITY PREDICTED BY RF-SCORE:    0.00 PKD
ROOT
HETATM    1  C   UNL     1      -8.482  11.961  66.055  1.00  0.00     0.198 C  
HETATM    2  N   UNL     1      -9.670  11.926  66.873  1.00  0.00    -0.198 N  
HETATM    3  C   UNL     1     -10.920  11.667  66.402  1.00  0.00    -0.295 C  
HETATM    4  O   UNL     1     -11.221  11.355  65.259  1.00  0.00    -0.198 OA 
HETATM    5  C   UNL     1     -11.910  11.822  67.518  1.00  0.00    -0.227 C  
HETATM    6  C   UNL     1     -11.045  12.016  68.765  1.00  0.00    -0.298 C  
HETATM    7  O   UNL     1      -8.621  12.168  68.912  1.00  0.00     0.043 OA 
HETATM    8  C   UNL     1      -9.631  12.056  68.232  1.00  0.00    -0.204 C  
ENDROOT
BRANCH   6   9
HETATM    9  C   UNL     1     -11.412  13.258  69.549  1.00  0.00    -0.299 A  
HETATM   10  C   UNL     1     -11.039  14.524  69.078  1.00  0.00    -0.279 A  
HETATM   11  C   UNL     1     -11.348  15.672  69.810  1.00  0.00    -0.327 A  
HETATM   12  C   UNL     1     -12.036  15.568  71.018  1.00  0.00    -0.428 A  
HETATM   13  C   UNL     1     -12.427  14.319  71.489  1.00  0.00    -0.435 A  
HETATM   14  C   UNL     1     -12.122  13.171  70.758  1.00  0.00    -0.290 A  
ENDBRANCH   6   9
TORSDOF 1
ENDMDL
MODEL      128
REMARK 921   NORMALIZED FREE ENERGY PREDICTED BY IDOCK:   -2.90 KCAL/MOL
REMARK 922        TOTAL FREE ENERGY PREDICTED BY IDOCK:   -3.37 KCAL/MOL
REMARK 923 INTER-LIGAND FREE ENERGY PREDICTED BY IDOCK:   -3.15 KCAL/MOL
REMARK 924 INTRA-LIGAND FREE ENERGY PREDICTED BY IDOCK:   -0.22 KCAL/MOL
REMARK 927      BINDING AFFINITY PREDICTED BY RF-SCORE:    0.00 PKD
ROOT
HETATM    1  C   UNL     1      -9.046   4.793  69.717  1.00  0.00    -0.108 C  
HETATM    2  N   UNL     1      -9.736   5.468  68.646  1.00  0.00    -0.134 N  
HETATM    3  C   UNL     1      -9.997   4.915  67.430  1.00  0.00    -0.168 C  
HETATM    4  O   UNL     1      -9.765   3.765  67.084  1.00  0.00    -0.209 OA 
HETATM    5  C   UNL     1     -10.629   5.947  66.543  1.00  0.00    -0.266 C  
HETATM    6  C   UNL     1     -10.887   7.135  67.472  1.00  0.00    -0.311 C  
HETATM    7  O   UNL     1     -10.303   7.368  69.822  1.00  0.00    -0.210 OA 
HETATM    8  C   UNL     1     -10.284   6.711  68.792  1.00  0.00    -0.171 C  
ENDROOT
BRANCH   6   9
HETATM    9  C   UNL     1     -10.304   8.429  66.949  1.00  0.00    -0.378 A  
HETATM   10  C   UNL     1      -9.292   8.405  65.979  1.00  0.00    -0.244 A  
HETATM   11  C   UNL     1      -8.729   9.595  65.514  1.00  0.00    -0.176 A  
HETATM   12  C   UNL     1      -9.170  10.820  66.008  1.00  0.00    -0.210 A  
HETATM   13  C   UNL     1     -10.185  10.860  66.959  1.00  0.00    -0.256 A  
HETATM   14  C   UNL     1     -10.753   9.673  67.424  1.00  0.00    -0.308 A  
ENDBRANCH   6   9
TORSDOF 1
ENDMDL
MODEL      129
REMARK 921   NORMALIZED FREE ENERGY PREDICTED BY IDOCK:   -2.90 KCAL/MOL
REMARK 922        TOTAL FREE ENERGY PREDICTED BY IDOCK:   -3.37 KCAL/MOL
REMARK 923 INTER-LIGAND FREE ENERGY PREDICTED BY IDOCK:   -3.44 KCAL/MOL
REMARK 924 INTRA-LIGAND FREE ENERGY PREDICTED BY IDOCK:    0.07 KCAL/MOL
REMARK 927      BINDING AFFINITY PREDICTED BY RF-SCORE:    0.00 PKD
ROOT
HETATM    1  C   UNL     1     -13.267  14.826  70.092  1.00  0.00     0.211 C  
HETATM    2  N   UNL     1     -11.937  15.299  69.795  1.00  0.00    -0.331 N  
HETATM    3  C   UNL     1     -10.968  15.504  70.728  1.00  0.00    -0.325 C  
HETATM    4  O   UNL     1     -11.038  15.256  71.923  1.00  0.00    -0.371 OA 
HETATM    5  C   UNL     1      -9.760  16.097  70.064  1.00  0.00     0.327 C  
HETATM    6  C   UNL     1     -10.082  16.029  68.569  1.00  0.00    -0.233 C  
HETATM    7  O   UNL     1     -12.125  15.258  67.498  1.00  0.00    -0.033 OA 
HETATM    8  C   UNL     1     -11.495  15.493  68.518  1.00  0.00    -0.361 C  
ENDROOT
BRANCH   6   9
HETATM    9  C   UNL     1      -9.936  17.366  67.874  1.00  0.00    -0.301 A  
HETATM   10  C   UNL     1      -9.259  18.418  68.506  1.00  0.00    -0.348 A  
HETATM   11  C   UNL     1      -9.146  19.662  67.883  1.00  0.00    -0.396 A  
HETATM   12  C   UNL     1      -9.705  19.869  66.623  1.00  0.00    -0.542 A  
HETATM   13  C   UNL     1     -10.364  18.829  65.978  1.00  0.00    -0.467 A  
HETATM   14  C   UNL     1     -10.476  17.583  66.596  1.00  0.00    -0.270 A  
ENDBRANCH   6   9
TORSDOF 1
ENDMDL
MODEL      130
REMARK 921   NORMALIZED FREE ENERGY PREDICTED BY IDOCK:   -2.90 KCAL/MOL
REMARK 922        TOTAL FREE ENERGY PREDICTED BY IDOCK:   -3.37 KCAL/MOL
REMARK 923 INTER-LIGAND FREE ENERGY PREDICTED BY IDOCK:   -3.07 KCAL/MOL
REMARK 924 INTRA-LIGAND FREE ENERGY PREDICTED BY IDOCK:   -0.30 KCAL/MOL
REMARK 927      BINDING AFFINITY PREDICTED BY RF-SCORE:    0.00 PKD
ROOT
HETATM    1  C   UNL     1      -8.561  10.240  66.926  1.00  0.00    -0.126 C  
HETATM    2  N   UNL     1      -9.280  11.392  67.414  1.00  0.00    -0.162 N  
HETATM    3  C   UNL     1     -10.637  11.489  67.461  1.00  0.00    -0.206 C  
HETATM    4  O   UNL     1     -11.443  10.615  67.178  1.00  0.00    -0.359 OA 
HETATM    5  C   UNL     1     -11.018  12.865  67.923  1.00  0.00    -0.266 C  
HETATM    6  C   UNL     1      -9.690  13.505  68.334  1.00  0.00    -0.207 C  
HETATM    7  O   UNL     1      -7.449  12.573  68.168  1.00  0.00    -0.097 OA 
HETATM    8  C   UNL     1      -8.651  12.468  67.972  1.00  0.00    -0.185 C  
ENDROOT
BRANCH   6   9
HETATM    9  C   UNL     1      -9.447  14.839  67.660  1.00  0.00    -0.204 A  
HETATM   10  C   UNL     1      -8.874  15.897  68.379  1.00  0.00    -0.184 A  
HETATM   11  C   UNL     1      -8.674  17.138  67.773  1.00  0.00    -0.220 A  
HETATM   12  C   UNL     1      -9.040  17.336  66.443  1.00  0.00    -0.281 A  
HETATM   13  C   UNL     1      -9.594  16.290  65.713  1.00  0.00    -0.266 A  
HETATM   14  C   UNL     1      -9.793  15.047  66.315  1.00  0.00    -0.307 A  
ENDBRANCH   6   9
TORSDOF 1
ENDMDL
MODEL      131
REMARK 921   NORMALIZED FREE ENERGY PREDICTED BY IDOCK:   -2.86 KCAL/MOL
REMARK 922        TOTAL FREE ENERGY PREDICTED BY IDOCK:   -3.33 KCAL/MOL
REMARK 923 INTER-LIGAND FREE ENERGY PREDICTED BY IDOCK:   -3.13 KCAL/MOL
REMARK 924 INTRA-LIGAND FREE ENERGY PREDICTED BY IDOCK:   -0.20 KCAL/MOL
REMARK 927      BINDING AFFINITY PREDICTED BY RF-SCORE:    0.00 PKD
ROOT
HETATM    1  C   UNL     1      -9.171  16.597  68.806  1.00  0.00    -0.253 C  
HETATM    2  N   UNL     1      -9.814  15.478  68.162  1.00  0.00    -0.215 N  
HETATM    3  C   UNL     1     -11.063  15.030  68.467  1.00  0.00    -0.272 C  
HETATM    4  O   UNL     1     -11.849  15.534  69.256  1.00  0.00    -0.334 OA 
HETATM    5  C   UNL     1     -11.350  13.790  67.672  1.00  0.00    -0.331 C  
HETATM    6  C   UNL     1     -10.169  13.681  66.706  1.00  0.00    -0.268 C  
HETATM    7  O   UNL     1      -8.203  15.106  66.556  1.00  0.00    -0.150 OA 
HETATM    8  C   UNL     1      -9.257  14.818  67.105  1.00  0.00    -0.222 C  
ENDROOT
BRANCH   6   9
HETATM    9  C   UNL     1      -9.485  12.332  66.762  1.00  0.00    -0.222 A  
HETATM   10  C   UNL     1      -9.813  11.335  65.833  1.00  0.00    -0.272 A  
HETATM   11  C   UNL     1      -9.207  10.079  65.898  1.00  0.00    -0.211 A  
HETATM   12  C   UNL     1      -8.266   9.805  66.889  1.00  0.00    -0.117 A  
HETATM   13  C   UNL     1      -7.919  10.790  67.807  1.00  0.00    -0.110 A  
HETATM   14  C   UNL     1      -8.520  12.048  67.743  1.00  0.00    -0.157 A  
ENDBRANCH   6   9
TORSDOF 1
ENDMDL
MODEL      132
REMARK 921   NORMALIZED FREE ENERGY PREDICTED BY IDOCK:   -2.84 KCAL/MOL
REMARK 922        TOTAL FREE ENERGY PREDICTED BY IDOCK:   -3.31 KCAL/MOL
REMARK 923 INTER-LIGAND FREE ENERGY PREDICTED BY IDOCK:   -3.11 KCAL/MOL
REMARK 924 INTRA-LIGAND FREE ENERGY PREDICTED BY IDOCK:   -0.20 KCAL/MOL
REMARK 927      BINDING AFFINITY PREDICTED BY RF-SCORE:    0.00 PKD
ROOT
HETATM    1  C   UNL     1      -8.707   9.341  65.758  1.00  0.00    -0.156 C  
HETATM    2  N   UNL     1      -9.279  10.359  66.605  1.00  0.00    -0.154 N  
HETATM    3  C   UNL     1     -10.394  10.189  67.367  1.00  0.00    -0.238 C  
HETATM    4  O   UNL     1     -11.029   9.155  67.513  1.00  0.00    -0.176 OA 
HETATM    5  C   UNL     1     -10.746  11.491  68.024  1.00  0.00    -0.241 C  
HETATM    6  C   UNL     1      -9.565  12.408  67.700  1.00  0.00    -0.193 C  
HETATM    7  O   UNL     1      -7.613  11.929  66.330  1.00  0.00     0.044 OA 
HETATM    8  C   UNL     1      -8.686  11.575  66.796  1.00  0.00    -0.178 C  
ENDROOT
BRANCH   6   9
HETATM    9  C   UNL     1      -9.992  13.714  67.063  1.00  0.00    -0.248 A  
HETATM   10  C   UNL     1     -10.275  13.769  65.692  1.00  0.00    -0.326 A  
HETATM   11  C   UNL     1     -10.640  14.976  65.093  1.00  0.00    -0.440 A  
HETATM   12  C   UNL     1     -10.729  16.139  65.856  1.00  0.00    -0.261 A  
HETATM   13  C   UNL     1     -10.467  16.095  67.221  1.00  0.00    -0.309 A  
HETATM   14  C   UNL     1     -10.105  14.890  67.824  1.00  0.00    -0.234 A  
ENDBRANCH   6   9
TORSDOF 1
ENDMDL
MODEL      133
REMARK 921   NORMALIZED FREE ENERGY PREDICTED BY IDOCK:   -2.82 KCAL/MOL
REMARK 922        TOTAL FREE ENERGY PREDICTED BY IDOCK:   -3.29 KCAL/MOL
REMARK 923 INTER-LIGAND FREE ENERGY PREDICTED BY IDOCK:   -2.99 KCAL/MOL
REMARK 924 INTRA-LIGAND FREE ENERGY PREDICTED BY IDOCK:   -0.30 KCAL/MOL
REMARK 927      BINDING AFFINITY PREDICTED BY RF-SCORE:    0.00 PKD
ROOT
HETATM    1  C   UNL     1      -9.586   3.357  73.179  1.00  0.00    -0.110 C  
HETATM    2  N   UNL     1      -9.937   4.132  72.014  1.00  0.00    -0.176 N  
HETATM    3  C   UNL     1      -9.760   3.714  70.731  1.00  0.00    -0.152 C  
HETATM    4  O   UNL     1      -9.359   2.618  70.367  1.00  0.00    -0.130 OA 
HETATM    5  C   UNL     1     -10.139   4.823  69.794  1.00  0.00    -0.289 C  
HETATM    6  C   UNL     1     -10.754   5.890  70.702  1.00  0.00    -0.353 C  
HETATM    7  O   UNL     1     -10.968   5.869  73.125  1.00  0.00    -0.255 OA 
HETATM    8  C   UNL     1     -10.579   5.334  72.097  1.00  0.00    -0.221 C  
ENDROOT
BRANCH   6   9
HETATM    9  C   UNL     1     -10.116   7.251  70.528  1.00  0.00    -0.195 A  
HETATM   10  C   UNL     1     -10.900   8.411  70.589  1.00  0.00    -0.256 A  
HETATM   11  C   UNL     1     -10.322   9.667  70.400  1.00  0.00    -0.350 A  
HETATM   12  C   UNL     1      -8.956   9.781  70.151  1.00  0.00    -0.235 A  
HETATM   13  C   UNL     1      -8.163   8.639  70.104  1.00  0.00    -0.123 A  
HETATM   14  C   UNL     1      -8.736   7.382  70.296  1.00  0.00    -0.146 A  
ENDBRANCH   6   9
TORSDOF 1
ENDMDL
MODEL      134
REMARK 921   NORMALIZED FREE ENERGY PREDICTED BY IDOCK:   -2.78 KCAL/MOL
REMARK 922        TOTAL FREE ENERGY PREDICTED BY IDOCK:   -3.25 KCAL/MOL
REMARK 923 INTER-LIGAND FREE ENERGY PREDICTED BY IDOCK:   -2.95 KCAL/MOL
REMARK 924 INTRA-LIGAND FREE ENERGY PREDICTED BY IDOCK:   -0.30 KCAL/MOL
REMARK 927      BINDING AFFINITY PREDICTED BY RF-SCORE:    0.00 PKD
ROOT
HETATM    1  C   UNL     1     -10.499  13.705  68.920  1.00  0.00    -0.150 C  
HETATM    2  N   UNL     1     -10.139  15.101  68.938  1.00  0.00    -0.230 N  
HETATM    3  C   UNL     1     -11.016  16.124  68.748  1.00  0.00    -0.330 C  
HETATM    4  O   UNL     1     -12.228  16.033  68.612  1.00  0.00    -0.080 OA 
HETATM    5  C   UNL     1     -10.265  17.423  68.727  1.00  0.00    -0.361 C  
HETATM    6  C   UNL     1      -8.840  17.039  69.132  1.00  0.00    -0.035 C  
HETATM    7  O   UNL     1      -7.944  14.823  69.586  1.00  0.00    -0.084 OA 
HETATM    8  C   UNL     1      -8.881  15.532  69.249  1.00  0.00    -0.256 C  
ENDROOT
BRANCH   6   9
HETATM    9  C   UNL     1      -7.798  17.522  68.146  1.00  0.00    -0.244 A  
HETATM   10  C   UNL     1      -7.971  17.302  66.773  1.00  0.00    -0.276 A  
HETATM   11  C   UNL     1      -7.000  17.719  65.861  1.00  0.00    -0.291 A  
HETATM   12  C   UNL     1      -5.847  18.362  66.308  1.00  0.00    -0.201 A  
HETATM   13  C   UNL     1      -5.671  18.602  67.667  1.00  0.00    -0.175 A  
HETATM   14  C   UNL     1      -6.640  18.190  68.581  1.00  0.00    -0.233 A  
ENDBRANCH   6   9
TORSDOF 1
ENDMDL
MODEL      135
REMARK 921   NORMALIZED FREE ENERGY PREDICTED BY IDOCK:   -2.75 KCAL/MOL
REMARK 922        TOTAL FREE ENERGY PREDICTED BY IDOCK:   -3.21 KCAL/MOL
REMARK 923 INTER-LIGAND FREE ENERGY PREDICTED BY IDOCK:   -2.91 KCAL/MOL
REMARK 924 INTRA-LIGAND FREE ENERGY PREDICTED BY IDOCK:   -0.30 KCAL/MOL
REMARK 927      BINDING AFFINITY PREDICTED BY RF-SCORE:    0.00 PKD
ROOT
HETATM    1  C   UNL     1     -10.434  18.012  67.001  1.00  0.00    -0.351 C  
HETATM    2  N   UNL     1      -9.085  17.647  67.360  1.00  0.00    -0.237 N  
HETATM    3  C   UNL     1      -7.973  18.071  66.700  1.00  0.00    -0.251 C  
HETATM    4  O   UNL     1      -7.931  18.867  65.772  1.00  0.00    -0.473 OA 
HETATM    5  C   UNL     1      -6.765  17.404  67.289  1.00  0.00    -0.188 C  
HETATM    6  C   UNL     1      -7.301  16.676  68.523  1.00  0.00    -0.201 C  
HETATM    7  O   UNL     1      -9.601  16.517  69.302  1.00  0.00    -0.248 OA 
HETATM    8  C   UNL     1      -8.794  16.910  68.471  1.00  0.00    -0.251 C  
ENDROOT
BRANCH   6   9
HETATM    9  C   UNL     1      -6.938  15.206  68.543  1.00  0.00    -0.105 A  
HETATM   10  C   UNL     1      -7.194  14.402  67.425  1.00  0.00    -0.148 A  
HETATM   11  C   UNL     1      -6.889  13.040  67.448  1.00  0.00    -0.126 A  
HETATM   12  C   UNL     1      -6.323  12.467  68.585  1.00  0.00    -0.073 A  
HETATM   13  C   UNL     1      -6.048  13.257  69.696  1.00  0.00    -0.118 A  
HETATM   14  C   UNL     1      -6.349  14.619  69.676  1.00  0.00    -0.142 A  
ENDBRANCH   6   9
TORSDOF 1
ENDMDL
MODEL      136
REMARK 921   NORMALIZED FREE ENERGY PREDICTED BY IDOCK:   -2.74 KCAL/MOL
REMARK 922        TOTAL FREE ENERGY PREDICTED BY IDOCK:   -3.20 KCAL/MOL
REMARK 923 INTER-LIGAND FREE ENERGY PREDICTED BY IDOCK:   -2.95 KCAL/MOL
REMARK 924 INTRA-LIGAND FREE ENERGY PREDICTED BY IDOCK:   -0.25 KCAL/MOL
REMARK 927      BINDING AFFINITY PREDICTED BY RF-SCORE:    0.00 PKD
ROOT
HETATM    1  C   UNL     1      -6.385   8.105  68.752  1.00  0.00    -0.045 C  
HETATM    2  N   UNL     1      -7.726   8.524  68.428  1.00  0.00    -0.099 N  
HETATM    3  C   UNL     1      -8.834   7.750  68.590  1.00  0.00    -0.131 C  
HETATM    4  O   UNL     1      -8.882   6.637  69.093  1.00  0.00    -0.129 OA 
HETATM    5  C   UNL     1     -10.029   8.478  68.048  1.00  0.00    -0.221 C  
HETATM    6  C   UNL     1      -9.501   9.877  67.721  1.00  0.00    -0.158 C  
HETATM    7  O   UNL     1      -7.225  10.714  67.911  1.00  0.00    -0.085 OA 
HETATM    8  C   UNL     1      -8.020   9.791  68.013  1.00  0.00    -0.097 C  
ENDROOT
BRANCH   6   9
HETATM    9  C   UNL     1      -9.795  10.299  66.298  1.00  0.00    -0.276 A  
HETATM   10  C   UNL     1      -9.095   9.719  65.231  1.00  0.00    -0.259 A  
HETATM   11  C   UNL     1      -9.339  10.125  63.919  1.00  0.00    -0.336 A  
HETATM   12  C   UNL     1     -10.288  11.111  63.655  1.00  0.00    -0.449 A  
HETATM   13  C   UNL     1     -11.003  11.683  64.702  1.00  0.00    -0.363 A  
HETATM   14  C   UNL     1     -10.763  11.278  66.015  1.00  0.00    -0.301 A  
ENDBRANCH   6   9
TORSDOF 1
ENDMDL
MODEL      137
REMARK 921   NORMALIZED FREE ENERGY PREDICTED BY IDOCK:   -2.72 KCAL/MOL
REMARK 922        TOTAL FREE ENERGY PREDICTED BY IDOCK:   -3.19 KCAL/MOL
REMARK 923 INTER-LIGAND FREE ENERGY PREDICTED BY IDOCK:   -2.90 KCAL/MOL
REMARK 924 INTRA-LIGAND FREE ENERGY PREDICTED BY IDOCK:   -0.28 KCAL/MOL
REMARK 927      BINDING AFFINITY PREDICTED BY RF-SCORE:    0.00 PKD
ROOT
HETATM    1  C   UNL     1      -9.224  11.090  68.015  1.00  0.00    -0.159 C  
HETATM    2  N   UNL     1      -9.787   9.773  68.192  1.00  0.00    -0.145 N  
HETATM    3  C   UNL     1     -10.041   9.202  69.400  1.00  0.00    -0.197 C  
HETATM    4  O   UNL     1      -9.912   9.723  70.499  1.00  0.00    -0.265 OA 
HETATM    5  C   UNL     1     -10.520   7.795  69.191  1.00  0.00    -0.219 C  
HETATM    6  C   UNL     1     -10.701   7.681  67.675  1.00  0.00    -0.246 C  
HETATM    7  O   UNL     1     -10.214   9.344  65.967  1.00  0.00    -0.269 OA 
HETATM    8  C   UNL     1     -10.211   9.009  67.143  1.00  0.00    -0.265 C  
ENDROOT
BRANCH   6   9
HETATM    9  C   UNL     1      -9.963   6.502  67.081  1.00  0.00    -0.203 A  
HETATM   10  C   UNL     1      -8.562   6.470  67.090  1.00  0.00    -0.111 A  
HETATM   11  C   UNL     1      -7.874   5.399  66.517  1.00  0.00    -0.100 A  
HETATM   12  C   UNL     1      -8.576   4.347  65.931  1.00  0.00    -0.114 A  
HETATM   13  C   UNL     1      -9.967   4.358  65.931  1.00  0.00    -0.255 A  
HETATM   14  C   UNL     1     -10.658   5.425  66.505  1.00  0.00    -0.353 A  
ENDBRANCH   6   9
TORSDOF 1
ENDMDL
MODEL      138
REMARK 921   NORMALIZED FREE ENERGY PREDICTED BY IDOCK:   -2.68 KCAL/MOL
REMARK 922        TOTAL FREE ENERGY PREDICTED BY IDOCK:   -3.14 KCAL/MOL
REMARK 923 INTER-LIGAND FREE ENERGY PREDICTED BY IDOCK:   -2.84 KCAL/MOL
REMARK 924 INTRA-LIGAND FREE ENERGY PREDICTED BY IDOCK:   -0.30 KCAL/MOL
REMARK 927      BINDING AFFINITY PREDICTED BY RF-SCORE:    0.00 PKD
ROOT
HETATM    1  C   UNL     1     -11.189   9.907  70.760  1.00  0.00    -0.353 C  
HETATM    2  N   UNL     1     -11.122   8.476  70.591  1.00  0.00    -0.251 N  
HETATM    3  C   UNL     1     -11.558   7.572  71.511  1.00  0.00    -0.272 C  
HETATM    4  O   UNL     1     -12.130   7.817  72.564  1.00  0.00    -0.286 OA 
HETATM    5  C   UNL     1     -11.228   6.188  71.038  1.00  0.00    -0.361 C  
HETATM    6  C   UNL     1     -10.712   6.390  69.612  1.00  0.00    -0.339 C  
HETATM    7  O   UNL     1     -10.375   8.479  68.410  1.00  0.00    -0.206 OA 
HETATM    8  C   UNL     1     -10.697   7.892  69.433  1.00  0.00    -0.168 C  
ENDROOT
BRANCH   6   9
HETATM    9  C   UNL     1      -9.356   5.759  69.382  1.00  0.00    -0.151 A  
HETATM   10  C   UNL     1      -9.132   4.961  68.251  1.00  0.00    -0.138 A  
HETATM   11  C   UNL     1      -7.893   4.351  68.048  1.00  0.00    -0.080 A  
HETATM   12  C   UNL     1      -6.862   4.534  68.969  1.00  0.00    -0.050 A  
HETATM   13  C   UNL     1      -7.065   5.337  70.086  1.00  0.00    -0.061 A  
HETATM   14  C   UNL     1      -8.301   5.950  70.291  1.00  0.00    -0.122 A  
ENDBRANCH   6   9
TORSDOF 1
ENDMDL
MODEL      139
REMARK 921   NORMALIZED FREE ENERGY PREDICTED BY IDOCK:   -2.67 KCAL/MOL
REMARK 922        TOTAL FREE ENERGY PREDICTED BY IDOCK:   -3.13 KCAL/MOL
REMARK 923 INTER-LIGAND FREE ENERGY PREDICTED BY IDOCK:   -3.02 KCAL/MOL
REMARK 924 INTRA-LIGAND FREE ENERGY PREDICTED BY IDOCK:   -0.11 KCAL/MOL
REMARK 927      BINDING AFFINITY PREDICTED BY RF-SCORE:    0.00 PKD
ROOT
HETATM    1  C   UNL     1      -8.916   7.929  69.340  1.00  0.00    -0.145 C  
HETATM    2  N   UNL     1      -9.627   7.437  70.495  1.00  0.00    -0.172 N  
HETATM    3  C   UNL     1      -9.803   8.141  71.646  1.00  0.00    -0.182 C  
HETATM    4  O   UNL     1      -9.466   9.298  71.856  1.00  0.00    -0.291 OA 
HETATM    5  C   UNL     1     -10.492   7.272  72.656  1.00  0.00    -0.285 C  
HETATM    6  C   UNL     1     -10.877   6.016  71.872  1.00  0.00    -0.304 C  
HETATM    7  O   UNL     1     -10.386   5.475  69.551  1.00  0.00    -0.236 OA 
HETATM    8  C   UNL     1     -10.280   6.238  70.500  1.00  0.00    -0.193 C  
ENDROOT
BRANCH   6   9
HETATM    9  C   UNL     1     -10.388   4.741  72.525  1.00  0.00    -0.259 A  
HETATM   10  C   UNL     1      -9.136   4.210  72.184  1.00  0.00    -0.156 A  
HETATM   11  C   UNL     1      -8.692   3.019  72.760  1.00  0.00    -0.091 A  
HETATM   12  C   UNL     1      -9.489   2.347  73.684  1.00  0.00    -0.105 A  
HETATM   13  C   UNL     1     -10.726   2.871  74.044  1.00  0.00    -0.275 A  
HETATM   14  C   UNL     1     -11.172   4.063  73.473  1.00  0.00    -0.325 A  
ENDBRANCH   6   9
TORSDOF 1
ENDMDL
MODEL      140
REMARK 921   NORMALIZED FREE ENERGY PREDICTED BY IDOCK:   -2.67 KCAL/MOL
REMARK 922        TOTAL FREE ENERGY PREDICTED BY IDOCK:   -3.13 KCAL/MOL
REMARK 923 INTER-LIGAND FREE ENERGY PREDICTED BY IDOCK:   -2.84 KCAL/MOL
REMARK 924 INTRA-LIGAND FREE ENERGY PREDICTED BY IDOCK:   -0.28 KCAL/MOL
REMARK 927      BINDING AFFINITY PREDICTED BY RF-SCORE:    0.00 PKD
ROOT
HETATM    1  C   UNL     1     -10.820   6.933  66.857  1.00  0.00    -0.310 C  
HETATM    2  N   UNL     1      -9.945   6.537  67.933  1.00  0.00    -0.126 N  
HETATM    3  C   UNL     1      -9.312   5.334  68.005  1.00  0.00    -0.117 C  
HETATM    4  O   UNL     1      -9.320   4.450  67.160  1.00  0.00    -0.133 OA 
HETATM    5  C   UNL     1      -8.579   5.239  69.311  1.00  0.00    -0.102 C  
HETATM    6  C   UNL     1      -8.705   6.639  69.916  1.00  0.00    -0.141 C  
HETATM    7  O   UNL     1      -9.917   8.558  69.040  1.00  0.00    -0.182 OA 
HETATM    8  C   UNL     1      -9.591   7.385  68.943  1.00  0.00    -0.148 C  
ENDROOT
BRANCH   6   9
HETATM    9  C   UNL     1      -9.262   6.625  71.323  1.00  0.00    -0.155 A  
HETATM   10  C   UNL     1     -10.152   5.617  71.718  1.00  0.00    -0.240 A  
HETATM   11  C   UNL     1     -10.693   5.615  73.005  1.00  0.00    -0.290 A  
HETATM   12  C   UNL     1     -10.348   6.615  73.913  1.00  0.00    -0.385 A  
HETATM   13  C   UNL     1      -9.453   7.611  73.539  1.00  0.00    -0.347 A  
HETATM   14  C   UNL     1      -8.908   7.615  72.255  1.00  0.00    -0.170 A  
ENDBRANCH   6   9
TORSDOF 1
ENDMDL
MODEL      141
REMARK 921   NORMALIZED FREE ENERGY PREDICTED BY IDOCK:   -2.62 KCAL/MOL
REMARK 922        TOTAL FREE ENERGY PREDICTED BY IDOCK:   -3.07 KCAL/MOL
REMARK 923 INTER-LIGAND FREE ENERGY PREDICTED BY IDOCK:   -2.87 KCAL/MOL
REMARK 924 INTRA-LIGAND FREE ENERGY PREDICTED BY IDOCK:   -0.21 KCAL/MOL
REMARK 927      BINDING AFFINITY PREDICTED BY RF-SCORE:    0.00 PKD
ROOT
HETATM    1  C   UNL     1      -7.768  11.916  68.672  1.00  0.00    -0.113 C  
HETATM    2  N   UNL     1      -8.453  10.651  68.774  1.00  0.00    -0.141 N  
HETATM    3  C   UNL     1      -9.426  10.231  67.919  1.00  0.00    -0.141 C  
HETATM    4  O   UNL     1      -9.812  10.806  66.911  1.00  0.00    -0.178 OA 
HETATM    5  C   UNL     1      -9.977   8.922  68.401  1.00  0.00    -0.198 C  
HETATM    6  C   UNL     1      -9.054   8.527  69.556  1.00  0.00    -0.150 C  
HETATM    7  O   UNL     1      -7.191   9.779  70.495  1.00  0.00    -0.138 OA 
HETATM    8  C   UNL     1      -8.113   9.703  69.697  1.00  0.00    -0.141 C  
ENDROOT
BRANCH   6   9
HETATM    9  C   UNL     1      -9.806   8.222  70.833  1.00  0.00    -0.215 A  
HETATM   10  C   UNL     1      -9.188   7.494  71.859  1.00  0.00    -0.159 A  
HETATM   11  C   UNL     1      -9.886   7.183  73.027  1.00  0.00    -0.233 A  
HETATM   12  C   UNL     1     -11.207   7.598  73.186  1.00  0.00    -0.311 A  
HETATM   13  C   UNL     1     -11.828   8.336  72.183  1.00  0.00    -0.431 A  
HETATM   14  C   UNL     1     -11.132   8.651  71.016  1.00  0.00    -0.316 A  
ENDBRANCH   6   9
TORSDOF 1
ENDMDL
MODEL      142
REMARK 921   NORMALIZED FREE ENERGY PREDICTED BY IDOCK:   -2.56 KCAL/MOL
REMARK 922        TOTAL FREE ENERGY PREDICTED BY IDOCK:   -3.01 KCAL/MOL
REMARK 923 INTER-LIGAND FREE ENERGY PREDICTED BY IDOCK:   -2.71 KCAL/MOL
REMARK 924 INTRA-LIGAND FREE ENERGY PREDICTED BY IDOCK:   -0.30 KCAL/MOL
REMARK 927      BINDING AFFINITY PREDICTED BY RF-SCORE:    0.00 PKD
ROOT
HETATM    1  C   UNL     1      -9.127  10.700  65.867  1.00  0.00    -0.180 C  
HETATM    2  N   UNL     1      -9.559  10.456  67.221  1.00  0.00    -0.154 N  
HETATM    3  C   UNL     1      -9.272  11.264  68.278  1.00  0.00    -0.176 C  
HETATM    4  O   UNL     1      -8.685  12.337  68.241  1.00  0.00    -0.182 OA 
HETATM    5  C   UNL     1      -9.793  10.636  69.536  1.00  0.00    -0.115 C  
HETATM    6  C   UNL     1     -10.605   9.434  69.049  1.00  0.00    -0.233 C  
HETATM    7  O   UNL     1     -10.895   8.632  66.770  1.00  0.00    -0.145 OA 
HETATM    8  C   UNL     1     -10.390   9.424  67.552  1.00  0.00    -0.255 C  
ENDROOT
BRANCH   6   9
HETATM    9  C   UNL     1     -10.190   8.137  69.709  1.00  0.00    -0.203 A  
HETATM   10  C   UNL     1     -11.134   7.365  70.401  1.00  0.00    -0.284 A  
HETATM   11  C   UNL     1     -10.752   6.183  71.037  1.00  0.00    -0.317 A  
HETATM   12  C   UNL     1      -9.426   5.756  70.988  1.00  0.00    -0.195 A  
HETATM   13  C   UNL     1      -8.483   6.504  70.291  1.00  0.00    -0.135 A  
HETATM   14  C   UNL     1      -8.861   7.684  69.651  1.00  0.00    -0.140 A  
ENDBRANCH   6   9
TORSDOF 1
ENDMDL
MODEL      143
REMARK 921   NORMALIZED FREE ENERGY PREDICTED BY IDOCK:   -2.53 KCAL/MOL
REMARK 922        TOTAL FREE ENERGY PREDICTED BY IDOCK:   -2.97 KCAL/MOL
REMARK 923 INTER-LIGAND FREE ENERGY PREDICTED BY IDOCK:   -2.68 KCAL/MOL
REMARK 924 INTRA-LIGAND FREE ENERGY PREDICTED BY IDOCK:   -0.30 KCAL/MOL
REMARK 927      BINDING AFFINITY PREDICTED BY RF-SCORE:    0.00 PKD
ROOT
HETATM    1  C   UNL     1     -14.271  16.092  72.885  1.00  0.00     0.074 C  
HETATM    2  N   UNL     1     -13.117  15.562  72.201  1.00  0.00    -0.402 N  
HETATM    3  C   UNL     1     -11.929  15.280  72.802  1.00  0.00    -0.416 C  
HETATM    4  O   UNL     1     -11.676  15.355  73.996  1.00  0.00    -0.287 OA 
HETATM    5  C   UNL     1     -10.938  14.851  71.760  1.00  0.00     0.363 C  
HETATM    6  C   UNL     1     -11.767  14.728  70.480  1.00  0.00    -0.350 C  
HETATM    7  O   UNL     1     -14.126  15.229  70.155  1.00  0.00     0.633 OA 
HETATM    8  C   UNL     1     -13.146  15.199  70.885  1.00  0.00    -0.441 C  
ENDROOT
BRANCH   6   9
HETATM    9  C   UNL     1     -11.192  15.522  69.327  1.00  0.00    -0.312 A  
HETATM   10  C   UNL     1     -11.156  14.970  68.039  1.00  0.00    -0.304 A  
HETATM   11  C   UNL     1     -10.599  15.685  66.978  1.00  0.00    -0.311 A  
HETATM   12  C   UNL     1     -10.076  16.959  67.188  1.00  0.00    -0.287 A  
HETATM   13  C   UNL     1     -10.120  17.526  68.457  1.00  0.00    -0.363 A  
HETATM   14  C   UNL     1     -10.678  16.816  69.520  1.00  0.00    -0.273 A  
ENDBRANCH   6   9
TORSDOF 1
ENDMDL
MODEL      144
REMARK 921   NORMALIZED FREE ENERGY PREDICTED BY IDOCK:   -2.49 KCAL/MOL
REMARK 922        TOTAL FREE ENERGY PREDICTED BY IDOCK:   -2.94 KCAL/MOL
REMARK 923 INTER-LIGAND FREE ENERGY PREDICTED BY IDOCK:   -2.90 KCAL/MOL
REMARK 924 INTRA-LIGAND FREE ENERGY PREDICTED BY IDOCK:   -0.03 KCAL/MOL
REMARK 927      BINDING AFFINITY PREDICTED BY RF-SCORE:    0.00 PKD
ROOT
HETATM    1  C   UNL     1      -7.253   7.336  67.625  1.00  0.00    -0.091 C  
HETATM    2  N   UNL     1      -8.292   8.071  68.304  1.00  0.00    -0.123 N  
HETATM    3  C   UNL     1      -9.338   7.496  68.958  1.00  0.00    -0.146 C  
HETATM    4  O   UNL     1      -9.521   6.300  69.138  1.00  0.00    -0.133 OA 
HETATM    5  C   UNL     1     -10.267   8.569  69.444  1.00  0.00    -0.211 C  
HETATM    6  C   UNL     1      -9.519   9.873  69.156  1.00  0.00    -0.201 C  
HETATM    7  O   UNL     1      -7.371  10.169  68.053  1.00  0.00    -0.085 OA 
HETATM    8  C   UNL     1      -8.266   9.429  68.435  1.00  0.00    -0.117 C  
ENDROOT
BRANCH   6   9
HETATM    9  C   UNL     1     -10.341  10.858  68.353  1.00  0.00    -0.196 A  
HETATM   10  C   UNL     1     -10.147  10.975  66.970  1.00  0.00    -0.232 A  
HETATM   11  C   UNL     1     -10.880  11.902  66.229  1.00  0.00    -0.323 A  
HETATM   12  C   UNL     1     -11.816  12.721  66.858  1.00  0.00    -0.440 A  
HETATM   13  C   UNL     1     -12.031  12.604  68.227  1.00  0.00    -0.271 A  
HETATM   14  C   UNL     1     -11.302  11.676  68.971  1.00  0.00    -0.337 A  
ENDBRANCH   6   9
TORSDOF 1
ENDMDL
MODEL      145
REMARK 921   NORMALIZED FREE ENERGY PREDICTED BY IDOCK:   -2.46 KCAL/MOL
REMARK 922        TOTAL FREE ENERGY PREDICTED BY IDOCK:   -2.90 KCAL/MOL
REMARK 923 INTER-LIGAND FREE ENERGY PREDICTED BY IDOCK:   -2.61 KCAL/MOL
REMARK 924 INTRA-LIGAND FREE ENERGY PREDICTED BY IDOCK:   -0.30 KCAL/MOL
REMARK 927      BINDING AFFINITY PREDICTED BY RF-SCORE:    0.00 PKD
ROOT
HETATM    1  C   UNL     1     -10.206   4.425  65.610  1.00  0.00    -0.238 C  
HETATM    2  N   UNL     1      -9.568   4.779  66.854  1.00  0.00    -0.158 N  
HETATM    3  C   UNL     1      -9.376   3.919  67.891  1.00  0.00    -0.177 C  
HETATM    4  O   UNL     1      -9.636   2.724  67.909  1.00  0.00    -0.194 OA 
HETATM    5  C   UNL     1      -8.783   4.666  69.049  1.00  0.00    -0.108 C  
HETATM    6  C   UNL     1      -8.465   6.051  68.480  1.00  0.00    -0.113 C  
HETATM    7  O   UNL     1      -8.924   6.908  66.250  1.00  0.00    -0.150 OA 
HETATM    8  C   UNL     1      -9.003   6.003  67.068  1.00  0.00    -0.113 C  
ENDROOT
BRANCH   6   9
HETATM    9  C   UNL     1      -9.065   7.174  69.298  1.00  0.00    -0.137 A  
HETATM   10  C   UNL     1     -10.451   7.248  69.486  1.00  0.00    -0.238 A  
HETATM   11  C   UNL     1     -11.013   8.298  70.214  1.00  0.00    -0.233 A  
HETATM   12  C   UNL     1     -10.197   9.284  70.766  1.00  0.00    -0.353 A  
HETATM   13  C   UNL     1      -8.818   9.214  70.602  1.00  0.00    -0.278 A  
HETATM   14  C   UNL     1      -8.253   8.164  69.877  1.00  0.00    -0.118 A  
ENDBRANCH   6   9
TORSDOF 1
ENDMDL
MODEL      146
REMARK 921   NORMALIZED FREE ENERGY PREDICTED BY IDOCK:   -2.45 KCAL/MOL
REMARK 922        TOTAL FREE ENERGY PREDICTED BY IDOCK:   -2.89 KCAL/MOL
REMARK 923 INTER-LIGAND FREE ENERGY PREDICTED BY IDOCK:   -2.59 KCAL/MOL
REMARK 924 INTRA-LIGAND FREE ENERGY PREDICTED BY IDOCK:   -0.30 KCAL/MOL
REMARK 927      BINDING AFFINITY PREDICTED BY RF-SCORE:    0.00 PKD
ROOT
HETATM    1  C   UNL     1     -10.807   5.655  72.994  1.00  0.00    -0.271 C  
HETATM    2  N   UNL     1     -10.869   6.511  71.836  1.00  0.00    -0.230 N  
HETATM    3  C   UNL     1     -11.953   7.258  71.489  1.00  0.00    -0.316 C  
HETATM    4  O   UNL     1     -12.990   7.382  72.124  1.00  0.00    -0.189 OA 
HETATM    5  C   UNL     1     -11.689   7.932  70.174  1.00  0.00     0.154 C  
HETATM    6  C   UNL     1     -10.215   7.635  69.889  1.00  0.00    -0.215 C  
HETATM    7  O   UNL     1      -8.669   6.279  71.189  1.00  0.00    -0.128 OA 
HETATM    8  C   UNL     1      -9.794   6.727  71.023  1.00  0.00    -0.182 C  
ENDROOT
BRANCH   6   9
HETATM    9  C   UNL     1      -9.993   7.014  68.527  1.00  0.00    -0.158 A  
HETATM   10  C   UNL     1     -10.871   6.032  68.048  1.00  0.00    -0.374 A  
HETATM   11  C   UNL     1     -10.655   5.433  66.806  1.00  0.00    -0.339 A  
HETATM   12  C   UNL     1      -9.563   5.810  66.026  1.00  0.00    -0.079 A  
HETATM   13  C   UNL     1      -8.693   6.796  66.481  1.00  0.00    -0.139 A  
HETATM   14  C   UNL     1      -8.908   7.398  67.721  1.00  0.00    -0.128 A  
ENDBRANCH   6   9
TORSDOF 1
ENDMDL
MODEL      147
REMARK 921   NORMALIZED FREE ENERGY PREDICTED BY IDOCK:   -2.45 KCAL/MOL
REMARK 922        TOTAL FREE ENERGY PREDICTED BY IDOCK:   -2.89 KCAL/MOL
REMARK 923 INTER-LIGAND FREE ENERGY PREDICTED BY IDOCK:   -2.62 KCAL/MOL
REMARK 924 INTRA-LIGAND FREE ENERGY PREDICTED BY IDOCK:   -0.27 KCAL/MOL
REMARK 927      BINDING AFFINITY PREDICTED BY RF-SCORE:    0.00 PKD
ROOT
HETATM    1  C   UNL     1     -12.019   5.995  72.250  1.00  0.00    -0.204 C  
HETATM    2  N   UNL     1     -10.776   6.421  71.655  1.00  0.00    -0.226 N  
HETATM    3  C   UNL     1      -9.618   6.610  72.345  1.00  0.00    -0.147 C  
HETATM    4  O   UNL     1      -9.427   6.382  73.531  1.00  0.00    -0.137 OA 
HETATM    5  C   UNL     1      -8.573   7.154  71.416  1.00  0.00    -0.116 C  
HETATM    6  C   UNL     1      -9.221   7.074  70.032  1.00  0.00    -0.148 C  
HETATM    7  O   UNL     1     -11.472   6.351  69.458  1.00  0.00    -0.407 OA 
HETATM    8  C   UNL     1     -10.624   6.583  70.308  1.00  0.00    -0.228 C  
ENDROOT
BRANCH   6   9
HETATM    9  C   UNL     1      -9.196   8.395  69.293  1.00  0.00    -0.154 A  
HETATM   10  C   UNL     1      -8.368   8.562  68.175  1.00  0.00    -0.127 A  
HETATM   11  C   UNL     1      -8.319   9.787  67.507  1.00  0.00    -0.114 A  
HETATM   12  C   UNL     1      -9.097  10.857  67.946  1.00  0.00    -0.149 A  
HETATM   13  C   UNL     1      -9.936  10.700  69.044  1.00  0.00    -0.226 A  
HETATM   14  C   UNL     1      -9.990   9.476  69.712  1.00  0.00    -0.234 A  
ENDBRANCH   6   9
TORSDOF 1
ENDMDL
MODEL      148
REMARK 921   NORMALIZED FREE ENERGY PREDICTED BY IDOCK:   -2.43 KCAL/MOL
REMARK 922        TOTAL FREE ENERGY PREDICTED BY IDOCK:   -2.88 KCAL/MOL
REMARK 923 INTER-LIGAND FREE ENERGY PREDICTED BY IDOCK:   -2.58 KCAL/MOL
REMARK 924 INTRA-LIGAND FREE ENERGY PREDICTED BY IDOCK:   -0.29 KCAL/MOL
REMARK 927      BINDING AFFINITY PREDICTED BY RF-SCORE:    0.00 PKD
ROOT
HETATM    1  C   UNL     1      -7.055   6.995  72.986  1.00  0.00    -0.073 C  
HETATM    2  N   UNL     1      -8.202   6.444  72.305  1.00  0.00    -0.108 N  
HETATM    3  C   UNL     1      -8.750   5.230  72.581  1.00  0.00    -0.120 C  
HETATM    4  O   UNL     1      -8.419   4.464  73.475  1.00  0.00    -0.097 OA 
HETATM    5  C   UNL     1      -9.853   4.952  71.604  1.00  0.00    -0.245 C  
HETATM    6  C   UNL     1     -10.012   6.263  70.832  1.00  0.00    -0.219 C  
HETATM    7  O   UNL     1      -8.704   8.304  71.039  1.00  0.00    -0.129 OA 
HETATM    8  C   UNL     1      -8.910   7.147  71.372  1.00  0.00    -0.131 C  
ENDROOT
BRANCH   6   9
HETATM    9  C   UNL     1      -9.933   6.078  69.332  1.00  0.00    -0.220 A  
HETATM   10  C   UNL     1      -8.762   5.581  68.745  1.00  0.00    -0.102 A  
HETATM   11  C   UNL     1      -8.671   5.436  67.359  1.00  0.00    -0.107 A  
HETATM   12  C   UNL     1      -9.749   5.780  66.546  1.00  0.00    -0.185 A  
HETATM   13  C   UNL     1     -10.924   6.258  67.117  1.00  0.00    -0.453 A  
HETATM   14  C   UNL     1     -11.019   6.402  68.502  1.00  0.00    -0.396 A  
ENDBRANCH   6   9
TORSDOF 1
ENDMDL
MODEL      149
REMARK 921   NORMALIZED FREE ENERGY PREDICTED BY IDOCK:   -2.39 KCAL/MOL
REMARK 922        TOTAL FREE ENERGY PREDICTED BY IDOCK:   -2.83 KCAL/MOL
REMARK 923 INTER-LIGAND FREE ENERGY PREDICTED BY IDOCK:   -2.53 KCAL/MOL
REMARK 924 INTRA-LIGAND FREE ENERGY PREDICTED BY IDOCK:   -0.30 KCAL/MOL
REMARK 927      BINDING AFFINITY PREDICTED BY RF-SCORE:    0.00 PKD
ROOT
HETATM    1  C   UNL     1      -6.903  12.904  68.072  1.00  0.00    -0.108 C  
HETATM    2  N   UNL     1      -7.541  11.743  68.643  1.00  0.00    -0.126 N  
HETATM    3  C   UNL     1      -7.098  11.090  69.752  1.00  0.00    -0.047 C  
HETATM    4  O   UNL     1      -6.162  11.415  70.468  1.00  0.00    -0.295 OA 
HETATM    5  C   UNL     1      -7.947   9.874  69.981  1.00  0.00    -0.194 C  
HETATM    6  C   UNL     1      -9.081  10.010  68.962  1.00  0.00    -0.172 C  
HETATM    7  O   UNL     1      -9.390  11.727  67.266  1.00  0.00    -0.167 OA 
HETATM    8  C   UNL     1      -8.721  11.246  68.169  1.00  0.00    -0.155 C  
ENDROOT
BRANCH   6   9
HETATM    9  C   UNL     1      -9.242   8.781  68.093  1.00  0.00    -0.145 A  
HETATM   10  C   UNL     1     -10.520   8.334  67.734  1.00  0.00    -0.280 A  
HETATM   11  C   UNL     1     -10.676   7.184  66.957  1.00  0.00    -0.420 A  
HETATM   12  C   UNL     1      -9.559   6.471  66.527  1.00  0.00    -0.184 A  
HETATM   13  C   UNL     1      -8.283   6.914  66.862  1.00  0.00    -0.113 A  
HETATM   14  C   UNL     1      -8.123   8.063  67.636  1.00  0.00    -0.124 A  
ENDBRANCH   6   9
TORSDOF 1
ENDMDL
MODEL      150
REMARK 921   NORMALIZED FREE ENERGY PREDICTED BY IDOCK:   -2.38 KCAL/MOL
REMARK 922        TOTAL FREE ENERGY PREDICTED BY IDOCK:   -2.82 KCAL/MOL
REMARK 923 INTER-LIGAND FREE ENERGY PREDICTED BY IDOCK:   -2.55 KCAL/MOL
REMARK 924 INTRA-LIGAND FREE ENERGY PREDICTED BY IDOCK:   -0.27 KCAL/MOL
REMARK 927      BINDING AFFINITY PREDICTED BY RF-SCORE:    0.00 PKD
ROOT
HETATM    1  C   UNL     1     -11.051   6.945  69.907  1.00  0.00    -0.288 C  
HETATM    2  N   UNL     1     -10.516   5.827  69.168  1.00  0.00    -0.249 N  
HETATM    3  C   UNL     1      -9.990   4.709  69.740  1.00  0.00    -0.225 C  
HETATM    4  O   UNL     1      -9.955   4.444  70.933  1.00  0.00    -0.197 OA 
HETATM    5  C   UNL     1      -9.439   3.818  68.666  1.00  0.00    -0.215 C  
HETATM    6  C   UNL     1      -9.892   4.476  67.361  1.00  0.00    -0.204 C  
HETATM    7  O   UNL     1     -11.118   6.557  67.066  1.00  0.00    -0.399 OA 
HETATM    8  C   UNL     1     -10.579   5.747  67.807  1.00  0.00    -0.237 C  
ENDROOT
BRANCH   6   9
HETATM    9  C   UNL     1      -8.749   4.732  66.402  1.00  0.00    -0.112 A  
HETATM   10  C   UNL     1      -8.980   4.755  65.020  1.00  0.00    -0.153 A  
HETATM   11  C   UNL     1      -7.925   4.961  64.130  1.00  0.00    -0.105 A  
HETATM   12  C   UNL     1      -6.630   5.150  64.608  1.00  0.00    -0.043 A  
HETATM   13  C   UNL     1      -6.390   5.147  65.978  1.00  0.00    -0.039 A  
HETATM   14  C   UNL     1      -7.442   4.944  66.871  1.00  0.00    -0.087 A  
ENDBRANCH   6   9
TORSDOF 1
ENDMDL
MODEL      151
REMARK 921   NORMALIZED FREE ENERGY PREDICTED BY IDOCK:   -2.37 KCAL/MOL
REMARK 922        TOTAL FREE ENERGY PREDICTED BY IDOCK:   -2.81 KCAL/MOL
REMARK 923 INTER-LIGAND FREE ENERGY PREDICTED BY IDOCK:   -2.52 KCAL/MOL
REMARK 924 INTRA-LIGAND FREE ENERGY PREDICTED BY IDOCK:   -0.28 KCAL/MOL
REMARK 927      BINDING AFFINITY PREDICTED BY RF-SCORE:    0.00 PKD
ROOT
HETATM    1  C   UNL     1      -8.424   4.640  67.065  1.00  0.00    -0.105 C  
HETATM    2  N   UNL     1      -8.096   5.440  68.219  1.00  0.00    -0.095 N  
HETATM    3  C   UNL     1      -7.202   5.076  69.179  1.00  0.00    -0.057 C  
HETATM    4  O   UNL     1      -6.496   4.078  69.180  1.00  0.00    -0.034 OA 
HETATM    5  C   UNL     1      -7.204   6.103  70.272  1.00  0.00    -0.083 C  
HETATM    6  C   UNL     1      -8.083   7.231  69.727  1.00  0.00    -0.128 C  
HETATM    7  O   UNL     1      -9.309   7.309  67.627  1.00  0.00    -0.128 OA 
HETATM    8  C   UNL     1      -8.590   6.699  68.405  1.00  0.00    -0.124 C  
ENDROOT
BRANCH   6   9
HETATM    9  C   UNL     1      -9.201   7.615  70.673  1.00  0.00    -0.162 A  
HETATM   10  C   UNL     1      -9.763   6.656  71.526  1.00  0.00    -0.172 A  
HETATM   11  C   UNL     1     -10.814   6.997  72.379  1.00  0.00    -0.272 A  
HETATM   12  C   UNL     1     -11.313   8.298  72.393  1.00  0.00    -0.457 A  
HETATM   13  C   UNL     1     -10.753   9.264  71.563  1.00  0.00    -0.425 A  
HETATM   14  C   UNL     1      -9.701   8.928  70.711  1.00  0.00    -0.281 A  
ENDBRANCH   6   9
TORSDOF 1
ENDMDL
MODEL      152
REMARK 921   NORMALIZED FREE ENERGY PREDICTED BY IDOCK:   -2.30 KCAL/MOL
REMARK 922        TOTAL FREE ENERGY PREDICTED BY IDOCK:   -2.74 KCAL/MOL
REMARK 923 INTER-LIGAND FREE ENERGY PREDICTED BY IDOCK:   -2.83 KCAL/MOL
REMARK 924 INTRA-LIGAND FREE ENERGY PREDICTED BY IDOCK:    0.09 KCAL/MOL
REMARK 927      BINDING AFFINITY PREDICTED BY RF-SCORE:    0.00 PKD
ROOT
HETATM    1  C   UNL     1      -8.907   4.254  70.655  1.00  0.00    -0.088 C  
HETATM    2  N   UNL     1      -9.362   5.030  69.528  1.00  0.00    -0.118 N  
HETATM    3  C   UNL     1      -8.860   4.922  68.267  1.00  0.00    -0.103 C  
HETATM    4  O   UNL     1      -8.022   4.120  67.880  1.00  0.00    -0.085 OA 
HETATM    5  C   UNL     1      -9.500   5.957  67.390  1.00  0.00    -0.112 C  
HETATM    6  C   UNL     1     -10.599   6.564  68.264  1.00  0.00    -0.302 C  
HETATM    7  O   UNL     1     -11.125   6.070  70.588  1.00  0.00    -0.302 OA 
HETATM    8  C   UNL     1     -10.421   5.888  69.605  1.00  0.00    -0.277 C  
ENDROOT
BRANCH   6   9
HETATM    9  C   UNL     1     -10.515   8.073  68.352  1.00  0.00    -0.205 A  
HETATM   10  C   UNL     1     -10.175   8.690  69.563  1.00  0.00    -0.209 A  
HETATM   11  C   UNL     1     -10.125  10.082  69.659  1.00  0.00    -0.263 A  
HETATM   12  C   UNL     1     -10.410  10.872  68.547  1.00  0.00    -0.203 A  
HETATM   13  C   UNL     1     -10.732  10.272  67.334  1.00  0.00    -0.339 A  
HETATM   14  C   UNL     1     -10.780   8.882  67.234  1.00  0.00    -0.219 A  
ENDBRANCH   6   9
TORSDOF 1
ENDMDL
MODEL      153
REMARK 921   NORMALIZED FREE ENERGY PREDICTED BY IDOCK:   -2.18 KCAL/MOL
REMARK 922        TOTAL FREE ENERGY PREDICTED BY IDOCK:   -2.61 KCAL/MOL
REMARK 923 INTER-LIGAND FREE ENERGY PREDICTED BY IDOCK:   -2.35 KCAL/MOL
REMARK 924 INTRA-LIGAND FREE ENERGY PREDICTED BY IDOCK:   -0.26 KCAL/MOL
REMARK 927      BINDING AFFINITY PREDICTED BY RF-SCORE:    0.00 PKD
ROOT
HETATM    1  C   UNL     1      -7.498   7.426  69.656  1.00  0.00    -0.093 C  
HETATM    2  N   UNL     1      -8.526   6.484  69.287  1.00  0.00    -0.126 N  
HETATM    3  C   UNL     1      -9.021   5.523  70.114  1.00  0.00    -0.136 C  
HETATM    4  O   UNL     1      -8.739   5.354  71.292  1.00  0.00    -0.127 OA 
HETATM    5  C   UNL     1      -9.992   4.669  69.353  1.00  0.00    -0.249 C  
HETATM    6  C   UNL     1     -10.152   5.386  68.011  1.00  0.00    -0.224 C  
HETATM    7  O   UNL     1      -9.009   7.382  67.219  1.00  0.00    -0.122 OA 
HETATM    8  C   UNL     1      -9.174   6.536  68.086  1.00  0.00    -0.112 C  
ENDROOT
BRANCH   6   9
HETATM    9  C   UNL     1      -9.900   4.479  66.826  1.00  0.00    -0.242 A  
HETATM   10  C   UNL     1     -10.512   4.743  65.593  1.00  0.00    -0.226 A  
HETATM   11  C   UNL     1     -10.308   3.894  64.504  1.00  0.00    -0.231 A  
HETATM   12  C   UNL     1      -9.489   2.774  64.633  1.00  0.00    -0.142 A  
HETATM   13  C   UNL     1      -8.862   2.508  65.846  1.00  0.00    -0.131 A  
HETATM   14  C   UNL     1      -9.062   3.357  66.935  1.00  0.00    -0.188 A  
ENDBRANCH   6   9
TORSDOF 1
ENDMDL
MODEL      154
REMARK 921   NORMALIZED FREE ENERGY PREDICTED BY IDOCK:   -2.16 KCAL/MOL
REMARK 922        TOTAL FREE ENERGY PREDICTED BY IDOCK:   -2.58 KCAL/MOL
REMARK 923 INTER-LIGAND FREE ENERGY PREDICTED BY IDOCK:   -2.29 KCAL/MOL
REMARK 924 INTRA-LIGAND FREE ENERGY PREDICTED BY IDOCK:   -0.29 KCAL/MOL
REMARK 927      BINDING AFFINITY PREDICTED BY RF-SCORE:    0.00 PKD
ROOT
HETATM    1  C   UNL     1      -8.104  14.529  67.854  1.00  0.00    -0.148 C  
HETATM    2  N   UNL     1      -8.910  13.495  67.252  1.00  0.00    -0.214 N  
HETATM    3  C   UNL     1     -10.267  13.534  67.162  1.00  0.00    -0.247 C  
HETATM    4  O   UNL     1     -10.997  14.456  67.495  1.00  0.00    -0.280 OA 
HETATM    5  C   UNL     1     -10.760  12.243  66.576  1.00  0.00    -0.279 C  
HETATM    6  C   UNL     1      -9.486  11.513  66.148  1.00  0.00    -0.239 C  
HETATM    7  O   UNL     1      -7.174  12.208  66.451  1.00  0.00     0.238 OA 
HETATM    8  C   UNL     1      -8.366  12.413  66.623  1.00  0.00     0.016 C  
ENDROOT
BRANCH   6   9
HETATM    9  C   UNL     1      -9.392  10.112  66.714  1.00  0.00    -0.190 A  
HETATM   10  C   UNL     1      -9.407   9.004  65.856  1.00  0.00    -0.306 A  
HETATM   11  C   UNL     1      -9.351   7.708  66.373  1.00  0.00    -0.228 A  
HETATM   12  C   UNL     1      -9.276   7.505  67.750  1.00  0.00    -0.139 A  
HETATM   13  C   UNL     1      -9.242   8.596  68.611  1.00  0.00    -0.138 A  
HETATM   14  C   UNL     1      -9.295   9.892  68.098  1.00  0.00    -0.138 A  
ENDBRANCH   6   9
TORSDOF 1
ENDMDL
MODEL      155
REMARK 921   NORMALIZED FREE ENERGY PREDICTED BY IDOCK:   -2.11 KCAL/MOL
REMARK 922        TOTAL FREE ENERGY PREDICTED BY IDOCK:   -2.53 KCAL/MOL
REMARK 923 INTER-LIGAND FREE ENERGY PREDICTED BY IDOCK:   -2.27 KCAL/MOL
REMARK 924 INTRA-LIGAND FREE ENERGY PREDICTED BY IDOCK:   -0.27 KCAL/MOL
REMARK 927      BINDING AFFINITY PREDICTED BY RF-SCORE:    0.00 PKD
ROOT
HETATM    1  C   UNL     1      -7.548   1.768  69.176  1.00  0.00    -0.042 C  
HETATM    2  N   UNL     1      -8.455   2.889  69.221  1.00  0.00    -0.060 N  
HETATM    3  C   UNL     1      -8.644   3.767  68.198  1.00  0.00    -0.097 C  
HETATM    4  O   UNL     1      -8.149   3.707  67.082  1.00  0.00    -0.090 OA 
HETATM    5  C   UNL     1      -9.574   4.855  68.647  1.00  0.00    -0.215 C  
HETATM    6  C   UNL     1     -10.067   4.388  70.018  1.00  0.00    -0.136 C  
HETATM    7  O   UNL     1      -9.410   2.402  71.262  1.00  0.00    -0.109 OA 
HETATM    8  C   UNL     1      -9.291   3.116  70.277  1.00  0.00    -0.165 C  
ENDROOT
BRANCH   6   9
HETATM    9  C   UNL     1      -9.867   5.427  71.101  1.00  0.00    -0.243 A  
HETATM   10  C   UNL     1     -10.968   6.115  71.629  1.00  0.00    -0.320 A  
HETATM   11  C   UNL     1     -10.788   7.095  72.606  1.00  0.00    -0.315 A  
HETATM   12  C   UNL     1      -9.509   7.397  73.069  1.00  0.00    -0.233 A  
HETATM   13  C   UNL     1      -8.409   6.710  72.566  1.00  0.00    -0.113 A  
HETATM   14  C   UNL     1      -8.586   5.728  71.592  1.00  0.00    -0.132 A  
ENDBRANCH   6   9
TORSDOF 1
ENDMDL
MODEL      156
REMARK 921   NORMALIZED FREE ENERGY PREDICTED BY IDOCK:   -2.01 KCAL/MOL
REMARK 922        TOTAL FREE ENERGY PREDICTED BY IDOCK:   -2.43 KCAL/MOL
REMARK 923 INTER-LIGAND FREE ENERGY PREDICTED BY IDOCK:   -2.13 KCAL/MOL
REMARK 924 INTRA-LIGAND FREE ENERGY PREDICTED BY IDOCK:   -0.30 KCAL/MOL
REMARK 927      BINDING AFFINITY PREDICTED BY RF-SCORE:    0.00 PKD
ROOT
HETATM    1  C   UNL     1      -9.782  12.578  64.429  1.00  0.00     0.061 C  
HETATM    2  N   UNL     1      -9.796  12.389  65.859  1.00  0.00    -0.256 N  
HETATM    3  C   UNL     1     -10.021  13.382  66.763  1.00  0.00    -0.264 C  
HETATM    4  O   UNL     1     -10.314  14.543  66.518  1.00  0.00    -0.273 OA 
HETATM    5  C   UNL     1      -9.852  12.834  68.150  1.00  0.00    -0.226 C  
HETATM    6  C   UNL     1      -9.690  11.327  67.942  1.00  0.00    -0.185 C  
HETATM    7  O   UNL     1      -9.599  10.093  65.847  1.00  0.00    -0.187 OA 
HETATM    8  C   UNL     1      -9.679  11.159  66.439  1.00  0.00    -0.204 C  
ENDROOT
BRANCH   6   9
HETATM    9  C   UNL     1      -8.447  10.771  68.603  1.00  0.00    -0.143 A  
HETATM   10  C   UNL     1      -8.549   9.720  69.524  1.00  0.00    -0.186 A  
HETATM   11  C   UNL     1      -7.410   9.223  70.160  1.00  0.00    -0.096 A  
HETATM   12  C   UNL     1      -6.157   9.767  69.881  1.00  0.00    -0.045 A  
HETATM   13  C   UNL     1      -6.040  10.799  68.956  1.00  0.00    -0.041 A  
HETATM   14  C   UNL     1      -7.176  11.296  68.317  1.00  0.00    -0.080 A  
ENDBRANCH   6   9
TORSDOF 1
ENDMDL
MODEL      157
REMARK 921   NORMALIZED FREE ENERGY PREDICTED BY IDOCK:   -1.91 KCAL/MOL
REMARK 922        TOTAL FREE ENERGY PREDICTED BY IDOCK:   -2.32 KCAL/MOL
REMARK 923 INTER-LIGAND FREE ENERGY PREDICTED BY IDOCK:   -2.07 KCAL/MOL
REMARK 924 INTRA-LIGAND FREE ENERGY PREDICTED BY IDOCK:   -0.25 KCAL/MOL
REMARK 927      BINDING AFFINITY PREDICTED BY RF-SCORE:    0.00 PKD
ROOT
HETATM    1  C   UNL     1      -9.570   3.641  68.411  1.00  0.00    -0.096 C  
HETATM    2  N   UNL     1      -9.059   4.870  68.967  1.00  0.00    -0.106 N  
HETATM    3  C   UNL     1      -7.895   5.462  68.584  1.00  0.00    -0.087 C  
HETATM    4  O   UNL     1      -7.154   5.102  67.681  1.00  0.00    -0.064 OA 
HETATM    5  C   UNL     1      -7.639   6.657  69.453  1.00  0.00    -0.096 C  
HETATM    6  C   UNL     1      -8.920   6.805  70.277  1.00  0.00    -0.152 C  
HETATM    7  O   UNL     1     -10.885   5.369  70.284  1.00  0.00    -0.266 OA 
HETATM    8  C   UNL     1      -9.759   5.612  69.875  1.00  0.00    -0.168 C  
ENDROOT
BRANCH   6   9
HETATM    9  C   UNL     1      -8.659   6.862  71.767  1.00  0.00    -0.119 A  
HETATM   10  C   UNL     1      -8.294   5.703  72.464  1.00  0.00    -0.114 A  
HETATM   11  C   UNL     1      -8.080   5.743  73.842  1.00  0.00    -0.109 A  
HETATM   12  C   UNL     1      -8.226   6.940  74.540  1.00  0.00    -0.171 A  
HETATM   13  C   UNL     1      -8.572   8.102  73.859  1.00  0.00    -0.288 A  
HETATM   14  C   UNL     1      -8.783   8.067  72.480  1.00  0.00    -0.232 A  
ENDBRANCH   6   9
TORSDOF 1
ENDMDL
MODEL      158
REMARK 921   NORMALIZED FREE ENERGY PREDICTED BY IDOCK:   -1.78 KCAL/MOL
REMARK 922        TOTAL FREE ENERGY PREDICTED BY IDOCK:   -2.18 KCAL/MOL
REMARK 923 INTER-LIGAND FREE ENERGY PREDICTED BY IDOCK:   -2.01 KCAL/MOL
REMARK 924 INTRA-LIGAND FREE ENERGY PREDICTED BY IDOCK:   -0.17 KCAL/MOL
REMARK 927      BINDING AFFINITY PREDICTED BY RF-SCORE:    0.00 PKD
ROOT
HETATM    1  C   UNL     1      -8.289  11.155  66.925  1.00  0.00    -0.147 C  
HETATM    2  N   UNL     1      -8.642  10.179  67.927  1.00  0.00    -0.118 N  
HETATM    3  C   UNL     1      -8.203  10.207  69.216  1.00  0.00    -0.156 C  
HETATM    4  O   UNL     1      -7.522  11.077  69.739  1.00  0.00    -0.050 OA 
HETATM    5  C   UNL     1      -8.688   8.979  69.929  1.00  0.00    -0.160 C  
HETATM    6  C   UNL     1      -9.643   8.318  68.933  1.00  0.00    -0.153 C  
HETATM    7  O   UNL     1     -10.175   9.011  66.662  1.00  0.00    -0.269 OA 
HETATM    8  C   UNL     1      -9.541   9.178  67.694  1.00  0.00    -0.149 C  
ENDROOT
BRANCH   6   9
HETATM    9  C   UNL     1      -9.307   6.866  68.669  1.00  0.00    -0.135 A  
HETATM   10  C   UNL     1     -10.225   6.038  68.012  1.00  0.00    -0.218 A  
HETATM   11  C   UNL     1      -9.933   4.690  67.791  1.00  0.00    -0.150 A  
HETATM   12  C   UNL     1      -8.720   4.156  68.222  1.00  0.00    -0.119 A  
HETATM   13  C   UNL     1      -7.792   4.971  68.861  1.00  0.00    -0.077 A  
HETATM   14  C   UNL     1      -8.079   6.319  69.080  1.00  0.00    -0.110 A  
ENDBRANCH   6   9
TORSDOF 1
ENDMDL
MODEL      159
REMARK 921   NORMALIZED FREE ENERGY PREDICTED BY IDOCK:   -1.73 KCAL/MOL
REMARK 922        TOTAL FREE ENERGY PREDICTED BY IDOCK:   -2.13 KCAL/MOL
REMARK 923 INTER-LIGAND FREE ENERGY PREDICTED BY IDOCK:   -1.97 KCAL/MOL
REMARK 924 INTRA-LIGAND FREE ENERGY PREDICTED BY IDOCK:   -0.16 KCAL/MOL
REMARK 927      BINDING AFFINITY PREDICTED BY RF-SCORE:    0.00 PKD
ROOT
HETATM    1  C   UNL     1      -9.847  10.526  65.420  1.00  0.00    -0.274 C  
HETATM    2  N   UNL     1     -10.060  11.716  66.206  1.00  0.00    -0.215 N  
HETATM    3  C   UNL     1     -10.842  12.762  65.822  1.00  0.00    -0.272 C  
HETATM    4  O   UNL     1     -11.532  12.828  64.815  1.00  0.00    -0.298 OA 
HETATM    5  C   UNL     1     -10.736  13.858  66.840  1.00  0.00    -0.284 C  
HETATM    6  C   UNL     1      -9.934  13.234  67.984  1.00  0.00    -0.233 C  
HETATM    7  O   UNL     1      -8.940  11.016  68.095  1.00  0.00    -0.140 OA 
HETATM    8  C   UNL     1      -9.564  11.860  67.470  1.00  0.00    -0.175 C  
ENDROOT
BRANCH   6   9
HETATM    9  C   UNL     1      -8.727  14.058  68.376  1.00  0.00    -0.179 A  
HETATM   10  C   UNL     1      -8.311  15.126  67.569  1.00  0.00    -0.188 A  
HETATM   11  C   UNL     1      -7.181  15.872  67.908  1.00  0.00    -0.151 A  
HETATM   12  C   UNL     1      -6.456  15.563  69.058  1.00  0.00    -0.123 A  
HETATM   13  C   UNL     1      -6.867  14.517  69.876  1.00  0.00    -0.097 A  
HETATM   14  C   UNL     1      -7.998  13.771  69.542  1.00  0.00     0.658 A  
ENDBRANCH   6   9
TORSDOF 1
ENDMDL
MODEL      160
REMARK 921   NORMALIZED FREE ENERGY PREDICTED BY IDOCK:   -1.58 KCAL/MOL
REMARK 922        TOTAL FREE ENERGY PREDICTED BY IDOCK:   -1.97 KCAL/MOL
REMARK 923 INTER-LIGAND FREE ENERGY PREDICTED BY IDOCK:   -1.95 KCAL/MOL
REMARK 924 INTRA-LIGAND FREE ENERGY PREDICTED BY IDOCK:   -0.02 KCAL/MOL
REMARK 927      BINDING AFFINITY PREDICTED BY RF-SCORE:    0.00 PKD
ROOT
HETATM    1  C   UNL     1     -11.602   4.159  73.428  1.00  0.00    -0.063 C  
HETATM    2  N   UNL     1     -11.101   5.151  72.510  1.00  0.00    -0.222 N  
HETATM    3  C   UNL     1     -11.868   6.104  71.912  1.00  0.00    -0.257 C  
HETATM    4  O   UNL     1     -13.056   6.316  72.109  1.00  0.00    -0.071 OA 
HETATM    5  C   UNL     1     -11.026   6.883  70.946  1.00  0.00    -0.290 C  
HETATM    6  C   UNL     1      -9.601   6.385  71.202  1.00  0.00    -0.187 C  
HETATM    7  O   UNL     1      -8.863   4.642  72.731  1.00  0.00    -0.116 OA 
HETATM    8  C   UNL     1      -9.772   5.287  72.228  1.00  0.00    -0.158 C  
ENDROOT
BRANCH   6   9
HETATM    9  C   UNL     1      -8.908   5.910  69.943  1.00  0.00    -0.130 A  
HETATM   10  C   UNL     1      -7.612   5.380  70.009  1.00  0.00    -0.069 A  
HETATM   11  C   UNL     1      -6.956   4.968  68.848  1.00  0.00    -0.052 A  
HETATM   12  C   UNL     1      -7.586   5.076  67.610  1.00  0.00    -0.087 A  
HETATM   13  C   UNL     1      -8.879   5.584  67.532  1.00  0.00    -0.105 A  
HETATM   14  C   UNL     1      -9.539   5.994  68.691  1.00  0.00    -0.141 A  
ENDBRANCH   6   9
TORSDOF 1
ENDMDL
MODEL      161
REMARK 921   NORMALIZED FREE ENERGY PREDICTED BY IDOCK:   -1.15 KCAL/MOL
REMARK 922        TOTAL FREE ENERGY PREDICTED BY IDOCK:   -1.52 KCAL/MOL
REMARK 923 INTER-LIGAND FREE ENERGY PREDICTED BY IDOCK:   -1.31 KCAL/MOL
REMARK 924 INTRA-LIGAND FREE ENERGY PREDICTED BY IDOCK:   -0.21 KCAL/MOL
REMARK 927      BINDING AFFINITY PREDICTED BY RF-SCORE:    0.00 PKD
ROOT
HETATM    1  C   UNL     1      -7.669   5.382  70.060  1.00  0.00    -0.077 C  
HETATM    2  N   UNL     1      -8.091   4.543  68.965  1.00  0.00    -0.073 N  
HETATM    3  C   UNL     1      -7.810   3.215  68.861  1.00  0.00    -0.050 C  
HETATM    4  O   UNL     1      -7.240   2.520  69.690  1.00  0.00    -0.043 OA 
HETATM    5  C   UNL     1      -8.316   2.705  67.544  1.00  0.00    -0.094 C  
HETATM    6  C   UNL     1      -9.113   3.877  66.967  1.00  0.00    -0.168 C  
HETATM    7  O   UNL     1      -9.403   6.107  67.895  1.00  0.00    -0.116 OA 
HETATM    8  C   UNL     1      -8.905   4.993  67.966  1.00  0.00    -0.103 C  
ENDROOT
BRANCH   6   9
HETATM    9  C   UNL     1      -8.676   4.254  65.567  1.00  0.00    -0.121 A  
HETATM   10  C   UNL     1      -7.529   5.034  65.373  1.00  0.00    -0.073 A  
HETATM   11  C   UNL     1      -7.137   5.410  64.087  1.00  0.00    -0.049 A  
HETATM   12  C   UNL     1      -7.884   5.008  62.981  1.00  0.00    -0.074 A  
HETATM   13  C   UNL     1      -9.016   4.219  63.158  1.00  0.00    -0.123 A  
HETATM   14  C   UNL     1      -9.408   3.840  64.442  1.00  0.00    -0.150 A  
ENDBRANCH   6   9
TORSDOF 1
ENDMDL
MODEL      162
REMARK 921   NORMALIZED FREE ENERGY PREDICTED BY IDOCK:   -0.66 KCAL/MOL
REMARK 922        TOTAL FREE ENERGY PREDICTED BY IDOCK:   -1.00 KCAL/MOL
REMARK 923 INTER-LIGAND FREE ENERGY PREDICTED BY IDOCK:   -0.97 KCAL/MOL
REMARK 924 INTRA-LIGAND FREE ENERGY PREDICTED BY IDOCK:   -0.03 KCAL/MOL
REMARK 927      BINDING AFFINITY PREDICTED BY RF-SCORE:    0.00 PKD
ROOT
HETATM    1  C   UNL     1      -9.318  13.798  65.888  1.00  0.00     0.062 C  
HETATM    2  N   UNL     1      -9.179  12.363  65.901  1.00  0.00    -0.067 N  
HETATM    3  C   UNL     1     -10.166  11.491  65.558  1.00  0.00    -0.258 C  
HETATM    4  O   UNL     1     -11.273  11.774  65.123  1.00  0.00    -0.302 OA 
HETATM    5  C   UNL     1      -9.692  10.088  65.797  1.00  0.00    -0.321 C  
HETATM    6  C   UNL     1      -8.209  10.246  66.143  1.00  0.00    -0.138 C  
HETATM    7  O   UNL     1      -6.925  12.298  66.381  1.00  0.00     0.341 OA 
HETATM    8  C   UNL     1      -7.993  11.742  66.171  1.00  0.00     0.260 C  
ENDROOT
BRANCH   6   9
HETATM    9  C   UNL     1      -7.834   9.575  67.447  1.00  0.00    -0.102 A  
HETATM   10  C   UNL     1      -7.705  10.333  68.618  1.00  0.00    -0.094 A  
HETATM   11  C   UNL     1      -7.331   9.725  69.817  1.00  0.00    -0.116 A  
HETATM   12  C   UNL     1      -7.085   8.354  69.862  1.00  0.00    -0.051 A  
HETATM   13  C   UNL     1      -7.226   7.587  68.710  1.00  0.00    -0.082 A  
HETATM   14  C   UNL     1      -7.603   8.190  67.511  1.00  0.00    -0.101 A  
ENDBRANCH   6   9
TORSDOF 1
ENDMDL
MODEL      163
REMARK 921   NORMALIZED FREE ENERGY PREDICTED BY IDOCK:   -0.18 KCAL/MOL
REMARK 922        TOTAL FREE ENERGY PREDICTED BY IDOCK:   -0.49 KCAL/MOL
REMARK 923 INTER-LIGAND FREE ENERGY PREDICTED BY IDOCK:   -0.49 KCAL/MOL
REMARK 924 INTRA-LIGAND FREE ENERGY PREDICTED BY IDOCK:    0.00 KCAL/MOL
REMARK 927      BINDING AFFINITY PREDICTED BY RF-SCORE:    0.00 PKD
ROOT
HETATM    1  C   UNL     1      -8.404  17.707  65.405  1.00  0.00     1.421 C  
HETATM    2  N   UNL     1      -8.012  17.484  66.775  1.00  0.00    -0.225 N  
HETATM    3  C   UNL     1      -8.805  16.902  67.717  1.00  0.00    -0.217 C  
HETATM    4  O   UNL     1      -9.914  16.420  67.543  1.00  0.00    -0.241 OA 
HETATM    5  C   UNL     1      -8.104  16.937  69.043  1.00  0.00    -0.162 C  
HETATM    6  C   UNL     1      -6.698  17.445  68.712  1.00  0.00    -0.219 C  
HETATM    7  O   UNL     1      -5.818  18.157  66.559  1.00  0.00    -0.140 OA 
HETATM    8  C   UNL     1      -6.754  17.752  67.233  1.00  0.00    -0.165 C  
ENDROOT
BRANCH   6   9
HETATM    9  C   UNL     1      -6.293  18.641  69.546  1.00  0.00    -0.268 A  
HETATM   10  C   UNL     1      -6.319  19.928  68.990  1.00  0.00    -0.345 A  
HETATM   11  C   UNL     1      -5.918  21.032  69.744  1.00  0.00     0.318 A  
HETATM   12  C   UNL     1      -5.491  20.866  71.060  1.00  0.00     0.002 A  
HETATM   13  C   UNL     1      -5.477  19.597  71.629  1.00  0.00    -0.400 A  
HETATM   14  C   UNL     1      -5.879  18.491  70.880  1.00  0.00     0.151 A  
ENDBRANCH   6   9
TORSDOF 1
ENDMDL
MODEL      164
REMARK 921   NORMALIZED FREE ENERGY PREDICTED BY IDOCK:    1.07 KCAL/MOL
REMARK 922        TOTAL FREE ENERGY PREDICTED BY IDOCK:    0.84 KCAL/MOL
REMARK 923 INTER-LIGAND FREE ENERGY PREDICTED BY IDOCK:    1.14 KCAL/MOL
REMARK 924 INTRA-LIGAND FREE ENERGY PREDICTED BY IDOCK:   -0.30 KCAL/MOL
REMARK 927      BINDING AFFINITY PREDICTED BY RF-SCORE:    0.00 PKD
ROOT
HETATM    1  C   UNL     1      -9.843  12.423  64.259  1.00  0.00    -0.102 C  
HETATM    2  N   UNL     1      -9.630  11.031  64.572  1.00  0.00    -0.241 N  
HETATM    3  C   UNL     1     -10.573  10.211  65.113  1.00  0.00     0.297 C  
HETATM    4  O   UNL     1     -11.740  10.491  65.343  1.00  0.00     1.122 OA 
HETATM    5  C   UNL     1      -9.959   8.872  65.397  1.00  0.00     0.508 C  
HETATM    6  C   UNL     1      -8.569   8.953  64.763  1.00  0.00    -0.184 C  
HETATM    7  O   UNL     1      -7.523  10.849  63.653  1.00  0.00     0.226 OA 
HETATM    8  C   UNL     1      -8.474  10.376  64.258  1.00  0.00    -0.158 C  
ENDROOT
BRANCH   6   9
HETATM    9  C   UNL     1      -7.459   8.598  65.729  1.00  0.00    -0.085 A  
HETATM   10  C   UNL     1      -7.419   9.183  67.002  1.00  0.00    -0.091 A  
HETATM   11  C   UNL     1      -6.382   8.883  67.887  1.00  0.00    -0.056 A  
HETATM   12  C   UNL     1      -5.376   7.994  67.513  1.00  0.00    -0.033 A  
HETATM   13  C   UNL     1      -5.413   7.393  66.259  1.00  0.00    -0.024 A  
HETATM   14  C   UNL     1      -6.449   7.688  65.373  1.00  0.00    -0.041 A  
ENDBRANCH   6   9
TORSDOF 1
ENDMDL
MODEL      165
REMARK 921   NORMALIZED FREE ENERGY PREDICTED BY IDOCK:    2.71 KCAL/MOL
REMARK 922        TOTAL FREE ENERGY PREDICTED BY IDOCK:    2.57 KCAL/MOL
REMARK 923 INTER-LIGAND FREE ENERGY PREDICTED BY IDOCK:    2.80 KCAL/MOL
REMARK 924 INTRA-LIGAND FREE ENERGY PREDICTED BY IDOCK:   -0.23 KCAL/MOL
REMARK 927      BINDING AFFINITY PREDICTED BY RF-SCORE:    0.00 PKD
ROOT
HETATM    1  C   UNL     1     -10.584   2.702  74.428  1.00  0.00    -0.137 C  
HETATM    2  N   UNL     1     -10.212   3.439  73.246  1.00  0.00    -0.142 N  
HETATM    3  C   UNL     1     -10.894   3.402  72.069  1.00  0.00     0.684 C  
HETATM    4  O   UNL     1     -11.945   2.815  71.851  1.00  0.00     3.091 OA 
HETATM    5  C   UNL     1     -10.154   4.206  71.042  1.00  0.00    -0.130 C  
HETATM    6  C   UNL     1      -9.037   4.890  71.834  1.00  0.00    -0.160 C  
HETATM    7  O   UNL     1      -8.491   4.647  74.192  1.00  0.00    -0.102 OA 
HETATM    8  C   UNL     1      -9.179   4.332  73.232  1.00  0.00    -0.109 C  
ENDROOT
BRANCH   6   9
HETATM    9  C   UNL     1      -7.664   4.650  71.243  1.00  0.00    -0.081 A  
HETATM   10  C   UNL     1      -6.610   5.528  71.530  1.00  0.00    -0.045 A  
HETATM   11  C   UNL     1      -5.350   5.330  70.964  1.00  0.00    -0.005 A  
HETATM   12  C   UNL     1      -5.126   4.252  70.110  1.00  0.00     0.000 A  
HETATM   13  C   UNL     1      -6.159   3.363  69.830  1.00  0.00    -0.023 A  
HETATM   14  C   UNL     1      -7.419   3.557  70.396  1.00  0.00    -0.041 A  
ENDBRANCH   6   9
TORSDOF 1
ENDMDL
MODEL      166
REMARK 921   NORMALIZED FREE ENERGY PREDICTED BY IDOCK:    5.61 KCAL/MOL
REMARK 922        TOTAL FREE ENERGY PREDICTED BY IDOCK:    5.64 KCAL/MOL
REMARK 923 INTER-LIGAND FREE ENERGY PREDICTED BY IDOCK:    5.71 KCAL/MOL
REMARK 924 INTRA-LIGAND FREE ENERGY PREDICTED BY IDOCK:   -0.08 KCAL/MOL
REMARK 927      BINDING AFFINITY PREDICTED BY RF-SCORE:    0.00 PKD
ROOT
HETATM    1  C   UNL     1     -13.816  16.794  73.152  1.00  0.00     1.514 C  
HETATM    2  N   UNL     1     -12.862  15.780  72.774  1.00  0.00    -0.433 N  
HETATM    3  C   UNL     1     -11.512  15.915  72.885  1.00  0.00     0.004 C  
HETATM    4  O   UNL     1     -10.909  16.857  73.379  1.00  0.00     2.449 OA 
HETATM    5  C   UNL     1     -10.844  14.707  72.297  1.00  0.00     1.644 C  
HETATM    6  C   UNL     1     -11.998  13.746  72.001  1.00  0.00     0.637 C  
HETATM    7  O   UNL     1     -14.385  14.118  72.292  1.00  0.00    -0.525 OA 
HETATM    8  C   UNL     1     -13.238  14.536  72.355  1.00  0.00    -0.419 C  
ENDROOT
BRANCH   6   9
HETATM    9  C   UNL     1     -12.003  13.256  70.570  1.00  0.00    -0.319 A  
HETATM   10  C   UNL     1     -11.192  12.178  70.191  1.00  0.00     0.287 A  
HETATM   11  C   UNL     1     -11.169  11.740  68.866  1.00  0.00    -0.311 A  
HETATM   12  C   UNL     1     -11.958  12.370  67.905  1.00  0.00    -0.260 A  
HETATM   13  C   UNL     1     -12.780  13.431  68.271  1.00  0.00     1.058 A  
HETATM   14  C   UNL     1     -12.807  13.869  69.594  1.00  0.00     0.387 A  
ENDBRANCH   6   9
TORSDOF 1
ENDMDL
MODEL      167
REMARK 921   NORMALIZED FREE ENERGY PREDICTED BY IDOCK:   13.04 KCAL/MOL
REMARK 922        TOTAL FREE ENERGY PREDICTED BY IDOCK:   13.50 KCAL/MOL
REMARK 923 INTER-LIGAND FREE ENERGY PREDICTED BY IDOCK:   13.46 KCAL/MOL
REMARK 924 INTRA-LIGAND FREE ENERGY PREDICTED BY IDOCK:    0.04 KCAL/MOL
REMARK 927      BINDING AFFINITY PREDICTED BY RF-SCORE:    0.00 PKD
ROOT
HETATM    1  C   UNL     1     -13.548  17.237  73.157  1.00  0.00     3.758 C  
HETATM    2  N   UNL     1     -12.249  16.979  72.585  1.00  0.00     0.526 N  
HETATM    3  C   UNL     1     -11.100  17.592  72.981  1.00  0.00     2.281 C  
HETATM    4  O   UNL     1     -10.971  18.379  73.907  1.00  0.00     1.059 OA 
HETATM    5  C   UNL     1      -9.974  17.152  72.092  1.00  0.00     7.224 C  
HETATM    6  C   UNL     1     -10.583  16.038  71.237  1.00  0.00     0.712 C  
HETATM    7  O   UNL     1     -12.879  15.233  71.219  1.00  0.00    -0.355 OA 
HETATM    8  C   UNL     1     -12.038  16.010  71.647  1.00  0.00    -0.472 C  
ENDROOT
BRANCH   6   9
HETATM    9  C   UNL     1     -10.396  16.266  69.753  1.00  0.00    -0.219 A  
HETATM   10  C   UNL     1      -9.534  17.272  69.297  1.00  0.00     0.056 A  
HETATM   11  C   UNL     1      -9.379  17.507  67.930  1.00  0.00    -0.265 A  
HETATM   12  C   UNL     1     -10.080  16.738  67.003  1.00  0.00    -0.276 A  
HETATM   13  C   UNL     1     -10.926  15.725  67.440  1.00  0.00    -0.279 A  
HETATM   14  C   UNL     1     -11.080  15.485  68.806  1.00  0.00    -0.291 A  
ENDBRANCH   6   9
TORSDOF 1
ENDMDL
