MODEL        1
REMARK 921   NORMALIZED FREE ENERGY PREDICTED BY IDOCK:   -8.18 KCAL/MOL
REMARK 922        TOTAL FREE ENERGY PREDICTED BY IDOCK:   -9.41 KCAL/MOL
REMARK 923 INTER-LIGAND FREE ENERGY PREDICTED BY IDOCK:   -8.66 KCAL/MOL
REMARK 924 INTRA-LIGAND FREE ENERGY PREDICTED BY IDOCK:   -0.75 KCAL/MOL
REMARK 927      BINDING AFFINITY PREDICTED BY RF-SCORE:    0.00 PKD
ROOT
HETATM    1 NA   UNL     1      -6.805  10.601  69.291  1.00  0.00    -0.047 Na 
HETATM    2 NA   UNL     2      -6.291  15.385  70.756  1.00  0.00    -0.145 Na 
HETATM    3  O   UNL     3      -7.049  14.036  69.505  1.00  0.00    -0.071 OA 
HETATM    4  C   UNL     3      -7.705  13.447  68.576  1.00  0.00    -0.124 C  
HETATM    5  C   UNL     3      -8.561  14.267  67.647  1.00  0.00    -0.186 A  
HETATM    6  O   UNL     3      -7.614  12.186  68.419  1.00  0.00    -0.116 OA 
HETATM    7  C   UNL     3      -8.106  15.512  67.152  1.00  0.00    -0.216 A  
HETATM    8 CL   UNL     3      -6.514  16.106  67.571  1.00  0.00    -0.184 Cl 
HETATM    9  C   UNL     3      -8.910  16.292  66.289  1.00  0.00    -0.331 A  
HETATM   10 CL   UNL     3      -8.325  17.831  65.707  1.00  0.00     0.067 Cl 
HETATM   11  C   UNL     3     -10.175  15.835  65.891  1.00  0.00    -0.355 A  
HETATM   12  C   UNL     3     -10.645  14.600  66.364  1.00  0.00    -0.301 A  
HETATM   13 CL   UNL     3     -11.154  16.792  64.814  1.00  0.00    -0.220 Cl 
HETATM   14  C   UNL     3      -9.852  13.815  67.243  1.00  0.00    -0.241 A  
HETATM   15 CL   UNL     3     -12.213  14.019  65.866  1.00  0.00    -0.450 Cl 
ENDROOT
BRANCH  14  16
HETATM   16  C   UNL     3     -10.430  12.542  67.794  1.00  0.00    -0.230 A  
HETATM   17  C   UNL     3     -10.166  11.343  67.204  1.00  0.00    -0.234 A  
HETATM   18  C   UNL     3      -9.356  11.248  65.989  1.00  0.00    -0.234 C  
HETATM   19  C   UNL     3      -8.964  10.073  65.475  1.00  0.00    -0.174 C  
HETATM   20 BR   UNL     3      -7.858   9.985  63.978  1.00  0.00    -0.147 Br 
HETATM   21  C   UNL     3      -9.364   8.796  66.150  1.00  0.00    -0.234 C  
HETATM   22  O   UNL     3      -8.880   7.715  65.794  1.00  0.00    -0.162 OA 
HETATM   23  C   UNL     3     -10.317   8.889  67.297  1.00  0.00    -0.280 C  
HETATM   24  C   UNL     3     -10.674  10.096  67.793  1.00  0.00    -0.277 A  
HETATM   25 BR   UNL     3     -10.899   7.277  68.051  1.00  0.00    -0.107 Br 
HETATM   26  O   UNL     3     -11.493  10.150  68.909  1.00  0.00    -0.176 OA 
HETATM   27  C   UNL     3     -11.757  11.342  69.528  1.00  0.00    -0.348 A  
HETATM   28  C   UNL     3     -11.283  12.539  69.006  1.00  0.00    -0.321 A  
HETATM   29  C   UNL     3     -11.634  13.718  69.661  1.00  0.00    -0.343 C  
HETATM   30  C   UNL     3     -12.388  13.694  70.846  1.00  0.00    -0.371 C  
HETATM   31 BR   UNL     3     -12.747  15.421  71.610  1.00  0.00    -0.529 Br 
HETATM   32  C   UNL     3     -12.842  12.499  71.457  1.00  0.00    -0.265 C  
HETATM   33  C   UNL     3     -12.516  11.322  70.721  1.00  0.00    -0.376 C  
HETATM   34  O   UNL     3     -13.473  12.485  72.571  1.00  0.00    -0.452 OA 
HETATM   35 BR   UNL     3     -13.097   9.593  71.361  1.00  0.00    -0.478 Br 
ENDBRANCH  14  16
TORSDOF 1
ENDMDL
MODEL        2
REMARK 921   NORMALIZED FREE ENERGY PREDICTED BY IDOCK:   -7.77 KCAL/MOL
REMARK 922        TOTAL FREE ENERGY PREDICTED BY IDOCK:   -8.98 KCAL/MOL
REMARK 923 INTER-LIGAND FREE ENERGY PREDICTED BY IDOCK:   -7.95 KCAL/MOL
REMARK 924 INTRA-LIGAND FREE ENERGY PREDICTED BY IDOCK:   -1.03 KCAL/MOL
REMARK 927      BINDING AFFINITY PREDICTED BY RF-SCORE:    0.00 PKD
ROOT
HETATM    1 NA   UNL     1      -6.296  11.213  68.423  1.00  0.00    -0.049 Na 
HETATM    2 NA   UNL     2      -7.765  15.679  70.211  1.00  0.00    -0.156 Na 
HETATM    3  O   UNL     3      -7.894  14.242  68.840  1.00  0.00    -0.137 OA 
HETATM    4  C   UNL     3      -8.239  13.517  67.843  1.00  0.00    -0.168 C  
HETATM    5  C   UNL     3      -9.330  14.000  66.923  1.00  0.00    -0.266 A  
HETATM    6  O   UNL     3      -7.650  12.411  67.611  1.00  0.00    -0.118 OA 
HETATM    7  C   UNL     3      -9.398  15.359  66.533  1.00  0.00    -0.282 A  
HETATM    8 CL   UNL     3      -8.185  16.500  67.071  1.00  0.00    -0.207 Cl 
HETATM    9  C   UNL     3     -10.427  15.822  65.679  1.00  0.00    -0.383 A  
HETATM   10 CL   UNL     3     -10.490  17.508  65.227  1.00  0.00     0.011 Cl 
HETATM   11  C   UNL     3     -11.395  14.934  65.189  1.00  0.00    -0.379 A  
HETATM   12  C   UNL     3     -11.344  13.581  65.557  1.00  0.00    -0.296 A  
HETATM   13 CL   UNL     3     -12.650  15.507  64.124  1.00  0.00     0.030 Cl 
HETATM   14  C   UNL     3     -10.325  13.108  66.425  1.00  0.00    -0.289 A  
HETATM   15 CL   UNL     3     -12.539  12.468  64.943  1.00  0.00    -0.548 Cl 
ENDROOT
BRANCH  14  16
HETATM   16  C   UNL     3     -10.359  11.671  66.865  1.00  0.00    -0.253 A  
HETATM   17  C   UNL     3      -9.831  10.690  66.082  1.00  0.00    -0.268 A  
HETATM   18  C   UNL     3      -9.254  10.982  64.769  1.00  0.00    -0.198 C  
HETATM   19  C   UNL     3      -8.600  10.059  64.049  1.00  0.00    -0.190 C  
HETATM   20 BR   UNL     3      -7.800  10.483  62.420  1.00  0.00    -0.208 Br 
HETATM   21  C   UNL     3      -8.447   8.668  64.585  1.00  0.00    -0.132 C  
HETATM   22  O   UNL     3      -7.711   7.851  64.020  1.00  0.00    -0.119 OA 
HETATM   23  C   UNL     3      -9.167   8.331  65.850  1.00  0.00    -0.123 C  
HETATM   24  C   UNL     3      -9.802   9.298  66.553  1.00  0.00    -0.263 A  
HETATM   25 BR   UNL     3      -9.062   6.558  66.442  1.00  0.00    -0.170 Br 
HETATM   26  O   UNL     3     -10.390   8.973  67.764  1.00  0.00    -0.219 OA 
HETATM   27  C   UNL     3     -10.912   9.945  68.574  1.00  0.00    -0.180 A  
HETATM   28  C   UNL     3     -10.945  11.272  68.167  1.00  0.00    -0.284 A  
HETATM   29  C   UNL     3     -11.537  12.200  69.021  1.00  0.00    -0.374 C  
HETATM   30  C   UNL     3     -12.028  11.818  70.281  1.00  0.00    -0.343 C  
HETATM   31 BR   UNL     3     -12.785  13.247  71.320  1.00  0.00    -0.344 Br 
HETATM   32  C   UNL     3     -11.962  10.492  70.773  1.00  0.00    -0.370 C  
HETATM   33  C   UNL     3     -11.407   9.564  69.842  1.00  0.00    -0.126 C  
HETATM   34  O   UNL     3     -12.354  10.167  71.948  1.00  0.00    -0.362 OA 
HETATM   35 BR   UNL     3     -11.284   7.691  70.305  1.00  0.00    -0.183 Br 
ENDBRANCH  14  16
TORSDOF 1
ENDMDL
MODEL        3
REMARK 921   NORMALIZED FREE ENERGY PREDICTED BY IDOCK:   -7.67 KCAL/MOL
REMARK 922        TOTAL FREE ENERGY PREDICTED BY IDOCK:   -8.87 KCAL/MOL
REMARK 923 INTER-LIGAND FREE ENERGY PREDICTED BY IDOCK:   -7.77 KCAL/MOL
REMARK 924 INTRA-LIGAND FREE ENERGY PREDICTED BY IDOCK:   -1.09 KCAL/MOL
REMARK 927      BINDING AFFINITY PREDICTED BY RF-SCORE:    0.00 PKD
ROOT
HETATM    1 NA   UNL     1      -6.204  11.676  68.902  1.00  0.00    -0.047 Na 
HETATM    2 NA   UNL     2      -7.651  16.317  70.191  1.00  0.00    -0.151 Na 
HETATM    3  O   UNL     3      -7.801  14.732  68.996  1.00  0.00    -0.141 OA 
HETATM    4  C   UNL     3      -8.164  13.896  68.096  1.00  0.00    -0.158 C  
HETATM    5  C   UNL     3      -9.273  14.270  67.148  1.00  0.00    -0.230 A  
HETATM    6  O   UNL     3      -7.575  12.772  67.983  1.00  0.00    -0.107 OA 
HETATM    7  C   UNL     3      -9.352  15.575  66.605  1.00  0.00    -0.266 A  
HETATM    8 CL   UNL     3      -8.131  16.771  66.985  1.00  0.00    -0.207 Cl 
HETATM    9  C   UNL     3     -10.397  15.935  65.723  1.00  0.00    -0.376 A  
HETATM   10 CL   UNL     3     -10.473  17.558  65.081  1.00  0.00     0.159 Cl 
HETATM   11  C   UNL     3     -11.372  14.997  65.356  1.00  0.00    -0.328 A  
HETATM   12  C   UNL     3     -11.311  13.695  65.878  1.00  0.00    -0.309 A  
HETATM   13 CL   UNL     3     -12.648  15.442  64.257  1.00  0.00    -0.039 Cl 
HETATM   14  C   UNL     3     -10.274  13.326  66.775  1.00  0.00    -0.254 A  
HETATM   15 CL   UNL     3     -12.513  12.518  65.418  1.00  0.00    -0.443 Cl 
ENDROOT
BRANCH  14  16
HETATM   16  C   UNL     3     -10.296  11.949  67.377  1.00  0.00    -0.228 A  
HETATM   17  C   UNL     3     -10.874  11.728  68.591  1.00  0.00    -0.259 A  
HETATM   18  C   UNL     3     -11.451  12.819  69.377  1.00  0.00    -0.321 C  
HETATM   19  C   UNL     3     -12.152  12.606  70.500  1.00  0.00    -0.275 C  
HETATM   20 BR   UNL     3     -12.950  14.008  71.432  1.00  0.00    -0.435 Br 
HETATM   21  C   UNL     3     -12.358  11.205  70.992  1.00  0.00    -0.382 C  
HETATM   22  O   UNL     3     -13.134  10.972  71.927  1.00  0.00    -0.486 OA 
HETATM   23  C   UNL     3     -11.640  10.108  70.278  1.00  0.00    -0.302 C  
HETATM   24  C   UNL     3     -10.957  10.366  69.138  1.00  0.00    -0.241 A  
HETATM   25 BR   UNL     3     -11.814   8.380  70.978  1.00  0.00    -0.243 Br 
HETATM   26  O   UNL     3     -10.371   9.316  68.451  1.00  0.00    -0.196 OA 
HETATM   27  C   UNL     3      -9.800   9.513  67.223  1.00  0.00    -0.177 A  
HETATM   28  C   UNL     3      -9.715  10.784  66.670  1.00  0.00    -0.227 A  
HETATM   29  C   UNL     3      -9.075  10.916  65.439  1.00  0.00    -0.218 C  
HETATM   30  C   UNL     3      -8.588   9.793  64.749  1.00  0.00    -0.179 C  
HETATM   31 BR   UNL     3      -7.760  10.181  63.058  1.00  0.00    -0.147 Br 
HETATM   32  C   UNL     3      -8.705   8.468  65.236  1.00  0.00    -0.140 C  
HETATM   33  C   UNL     3      -9.309   8.385  66.526  1.00  0.00    -0.201 C  
HETATM   34  O   UNL     3      -8.316   7.446  64.570  1.00  0.00    -0.067 OA 
HETATM   35 BR   UNL     3      -9.507   6.666  67.388  1.00  0.00    -0.153 Br 
ENDBRANCH  14  16
TORSDOF 1
ENDMDL
MODEL        4
REMARK 921   NORMALIZED FREE ENERGY PREDICTED BY IDOCK:   -7.40 KCAL/MOL
REMARK 922        TOTAL FREE ENERGY PREDICTED BY IDOCK:   -8.59 KCAL/MOL
REMARK 923 INTER-LIGAND FREE ENERGY PREDICTED BY IDOCK:   -7.66 KCAL/MOL
REMARK 924 INTRA-LIGAND FREE ENERGY PREDICTED BY IDOCK:   -0.93 KCAL/MOL
REMARK 927      BINDING AFFINITY PREDICTED BY RF-SCORE:    0.00 PKD
ROOT
HETATM    1 NA   UNL     1      -6.567  10.773  69.903  1.00  0.00    -0.055 Na 
HETATM    2 NA   UNL     2      -6.465  15.707  70.873  1.00  0.00    -0.066 Na 
HETATM    3  O   UNL     3      -7.097  14.179  69.765  1.00  0.00    -0.032 OA 
HETATM    4  C   UNL     3      -7.693  13.446  68.901  1.00  0.00     0.049 C  
HETATM    5  C   UNL     3      -8.606  14.092  67.892  1.00  0.00    -0.178 A  
HETATM    6  O   UNL     3      -7.496  12.188  68.873  1.00  0.00    -0.101 OA 
HETATM    7  C   UNL     3      -8.252  15.315  67.273  1.00  0.00    -0.204 A  
HETATM    8 CL   UNL     3      -6.718  16.079  67.630  1.00  0.00    -0.169 Cl 
HETATM    9  C   UNL     3      -9.110  15.933  66.334  1.00  0.00    -0.320 A  
HETATM   10 CL   UNL     3      -8.649  17.449  65.599  1.00  0.00     0.273 Cl 
HETATM   11  C   UNL     3     -10.329  15.334  65.985  1.00  0.00    -0.312 A  
HETATM   12  C   UNL     3     -10.699  14.118  66.581  1.00  0.00    -0.289 A  
HETATM   13 CL   UNL     3     -11.374  16.091  64.815  1.00  0.00    -0.346 Cl 
HETATM   14  C   UNL     3      -9.852  13.496  67.536  1.00  0.00    -0.227 A  
HETATM   15 CL   UNL     3     -12.208  13.361  66.144  1.00  0.00    -0.472 Cl 
ENDROOT
BRANCH  14  16
HETATM   16  C   UNL     3     -10.327  12.242  68.214  1.00  0.00    -0.227 A  
HETATM   17  C   UNL     3     -11.091  12.304  69.340  1.00  0.00    -0.166 A  
HETATM   18  C   UNL     3     -11.440  13.582  69.961  1.00  0.00    -0.141 C  
HETATM   19  C   UNL     3     -12.308  13.674  70.979  1.00  0.00    -0.354 C  
HETATM   20 BR   UNL     3     -12.801  15.324  71.692  1.00  0.00    -0.522 Br 
HETATM   21  C   UNL     3     -12.951  12.435  71.522  1.00  0.00    -0.285 C  
HETATM   22  O   UNL     3     -13.872  12.509  72.345  1.00  0.00    -0.404 OA 
HETATM   23  C   UNL     3     -12.477  11.121  70.993  1.00  0.00    -0.403 C  
HETATM   24  C   UNL     3     -11.612  11.074  69.953  1.00  0.00    -0.337 A  
HETATM   25 BR   UNL     3     -13.206   9.579  71.768  1.00  0.00    -0.542 Br 
HETATM   26  O   UNL     3     -11.256   9.843  69.429  1.00  0.00    -0.221 OA 
HETATM   27  C   UNL     3     -10.502   9.758  68.289  1.00  0.00    -0.216 A  
HETATM   28  C   UNL     3     -10.003  10.899  67.675  1.00  0.00    -0.197 A  
HETATM   29  C   UNL     3      -9.202  10.734  66.547  1.00  0.00    -0.187 C  
HETATM   30  C   UNL     3      -8.958   9.459  66.010  1.00  0.00    -0.168 C  
HETATM   31 BR   UNL     3      -7.850   9.443  64.439  1.00  0.00    -0.132 Br 
HETATM   32  C   UNL     3      -9.495   8.267  66.556  1.00  0.00    -0.220 C  
HETATM   33  C   UNL     3     -10.256   8.476  67.745  1.00  0.00    -0.225 C  
HETATM   34  O   UNL     3      -9.321   7.117  66.021  1.00  0.00    -0.094 OA 
HETATM   35 BR   UNL     3     -11.025   6.966  68.676  1.00  0.00    -0.168 Br 
ENDBRANCH  14  16
TORSDOF 1
ENDMDL
MODEL        5
REMARK 921   NORMALIZED FREE ENERGY PREDICTED BY IDOCK:   -7.38 KCAL/MOL
REMARK 922        TOTAL FREE ENERGY PREDICTED BY IDOCK:   -8.56 KCAL/MOL
REMARK 923 INTER-LIGAND FREE ENERGY PREDICTED BY IDOCK:   -7.52 KCAL/MOL
REMARK 924 INTRA-LIGAND FREE ENERGY PREDICTED BY IDOCK:   -1.04 KCAL/MOL
REMARK 927      BINDING AFFINITY PREDICTED BY RF-SCORE:    0.00 PKD
ROOT
HETATM    1 NA   UNL     1     -12.442  13.141  69.432  1.00  0.00    -0.285 Na 
HETATM    2 NA   UNL     2     -10.411   9.313  71.986  1.00  0.00    -0.262 Na 
HETATM    3  O   UNL     3     -10.718  10.273  70.269  1.00  0.00    -0.288 OA 
HETATM    4  C   UNL     3     -10.692  10.650  69.046  1.00  0.00    -0.221 C  
HETATM    5  C   UNL     3      -9.900   9.849  68.046  1.00  0.00    -0.170 A  
HETATM    6  O   UNL     3     -11.350  11.674  68.670  1.00  0.00    -0.219 OA 
HETATM    7  C   UNL     3      -9.914   8.434  68.077  1.00  0.00    -0.182 A  
HETATM    8 CL   UNL     3     -10.893   7.581  69.251  1.00  0.00    -0.176 Cl 
HETATM    9  C   UNL     3      -9.163   7.676  67.148  1.00  0.00    -0.132 A  
HETATM   10 CL   UNL     3      -9.191   5.931  67.223  1.00  0.00    -0.113 Cl 
HETATM   11  C   UNL     3      -8.399   8.317  66.162  1.00  0.00    -0.124 A  
HETATM   12  C   UNL     3      -8.375   9.719  66.108  1.00  0.00    -0.120 A  
HETATM   13 CL   UNL     3      -7.490   7.379  65.010  1.00  0.00    -0.079 Cl 
HETATM   14  C   UNL     3      -9.113  10.490  67.044  1.00  0.00    -0.156 A  
HETATM   15 CL   UNL     3      -7.436  10.525  64.878  1.00  0.00    -0.057 Cl 
ENDROOT
BRANCH  14  16
HETATM   16  C   UNL     3      -8.989  11.987  67.005  1.00  0.00    -0.198 A  
HETATM   17  C   UNL     3      -9.750  12.728  66.153  1.00  0.00    -0.246 A  
HETATM   18  C   UNL     3     -10.680  12.102  65.212  1.00  0.00    -0.328 C  
HETATM   19  C   UNL     3     -11.542  12.813  64.470  1.00  0.00    -0.347 C  
HETATM   20 BR   UNL     3     -12.775  11.982  63.346  1.00  0.00    -0.301 Br 
HETATM   21  C   UNL     3     -11.567  14.306  64.587  1.00  0.00    -0.408 C  
HETATM   22  O   UNL     3     -12.458  14.968  64.041  1.00  0.00    -0.796 OA 
HETATM   23  C   UNL     3     -10.515  14.952  65.428  1.00  0.00    -0.384 C  
HETATM   24  C   UNL     3      -9.676  14.196  66.174  1.00  0.00    -0.290 A  
HETATM   25 BR   UNL     3     -10.488  16.825  65.467  1.00  0.00    -0.159 Br 
HETATM   26  O   UNL     3      -8.766  14.824  67.008  1.00  0.00    -0.210 OA 
HETATM   27  C   UNL     3      -8.003  14.100  67.885  1.00  0.00    -0.156 A  
HETATM   28  C   UNL     3      -8.057  12.712  67.901  1.00  0.00    -0.165 A  
HETATM   29  C   UNL     3      -7.214  12.039  68.784  1.00  0.00    -0.108 C  
HETATM   30  C   UNL     3      -6.384  12.742  69.674  1.00  0.00    -0.091 C  
HETATM   31 BR   UNL     3      -5.317  11.635  70.827  1.00  0.00    -0.130 Br 
HETATM   32  C   UNL     3      -6.338  14.156  69.745  1.00  0.00    -0.141 C  
HETATM   33  C   UNL     3      -7.167  14.803  68.781  1.00  0.00    -0.125 C  
HETATM   34  O   UNL     3      -5.626  14.785  70.604  1.00  0.00    -0.132 OA 
HETATM   35 BR   UNL     3      -7.198  16.734  68.679  1.00  0.00    -0.219 Br 
ENDBRANCH  14  16
TORSDOF 1
ENDMDL
MODEL        6
REMARK 921   NORMALIZED FREE ENERGY PREDICTED BY IDOCK:   -7.38 KCAL/MOL
REMARK 922        TOTAL FREE ENERGY PREDICTED BY IDOCK:   -8.56 KCAL/MOL
REMARK 923 INTER-LIGAND FREE ENERGY PREDICTED BY IDOCK:   -7.47 KCAL/MOL
REMARK 924 INTRA-LIGAND FREE ENERGY PREDICTED BY IDOCK:   -1.09 KCAL/MOL
REMARK 927      BINDING AFFINITY PREDICTED BY RF-SCORE:    0.00 PKD
ROOT
HETATM    1 NA   UNL     1     -12.646  12.087  69.702  1.00  0.00    -0.248 Na 
HETATM    2 NA   UNL     2     -10.671   7.835  71.525  1.00  0.00    -0.211 Na 
HETATM    3  O   UNL     3     -10.950   9.098  70.012  1.00  0.00    -0.231 OA 
HETATM    4  C   UNL     3     -10.906   9.695  68.880  1.00  0.00    -0.174 C  
HETATM    5  C   UNL     3     -10.107   9.086  67.758  1.00  0.00    -0.260 A  
HETATM    6  O   UNL     3     -11.554  10.776  68.693  1.00  0.00    -0.290 OA 
HETATM    7  C   UNL     3     -10.130   7.690  67.526  1.00  0.00    -0.202 A  
HETATM    8 CL   UNL     3     -11.129   6.643  68.511  1.00  0.00    -0.304 Cl 
HETATM    9  C   UNL     3      -9.373   7.111  66.482  1.00  0.00    -0.164 A  
HETATM   10 CL   UNL     3      -9.412   5.383  66.231  1.00  0.00    -0.161 Cl 
HETATM   11  C   UNL     3      -8.592   7.917  65.640  1.00  0.00    -0.138 A  
HETATM   12  C   UNL     3      -8.559   9.305  65.846  1.00  0.00    -0.148 A  
HETATM   13 CL   UNL     3      -7.675   7.201  64.344  1.00  0.00    -0.112 Cl 
HETATM   14  C   UNL     3      -9.304   9.896  66.901  1.00  0.00    -0.184 A  
HETATM   15 CL   UNL     3      -7.599  10.316  64.797  1.00  0.00    -0.136 Cl 
ENDROOT
BRANCH  14  16
HETATM   16  C   UNL     3      -9.170  11.373  67.141  1.00  0.00    -0.170 A  
HETATM   17  C   UNL     3      -8.283  11.854  68.056  1.00  0.00    -0.157 A  
HETATM   18  C   UNL     3      -7.463  10.959  68.873  1.00  0.00    -0.116 C  
HETATM   19  C   UNL     3      -6.483  11.409  69.672  1.00  0.00    -0.133 C  
HETATM   20 BR   UNL     3      -5.396  10.239  70.633  1.00  0.00    -0.075 Br 
HETATM   21  C   UNL     3      -6.205  12.879  69.751  1.00  0.00    -0.105 C  
HETATM   22  O   UNL     3      -5.208  13.302  70.347  1.00  0.00    -0.097 OA 
HETATM   23  C   UNL     3      -7.141  13.800  69.039  1.00  0.00    -0.088 C  
HETATM   24  C   UNL     3      -8.106  13.303  68.230  1.00  0.00    -0.156 A  
HETATM   25 BR   UNL     3      -6.849  15.638  69.246  1.00  0.00    -0.177 Br 
HETATM   26  O   UNL     3      -8.905  14.180  67.517  1.00  0.00    -0.180 OA 
HETATM   27  C   UNL     3      -9.792  13.720  66.581  1.00  0.00    -0.284 A  
HETATM   28  C   UNL     3      -9.976  12.358  66.381  1.00  0.00    -0.254 A  
HETATM   29  C   UNL     3     -10.931  11.961  65.447  1.00  0.00    -0.352 C  
HETATM   30  C   UNL     3     -11.640  12.906  64.686  1.00  0.00    -0.346 C  
HETATM   31 BR   UNL     3     -12.894  12.160  63.436  1.00  0.00    -0.179 Br 
HETATM   32  C   UNL     3     -11.445  14.305  64.803  1.00  0.00    -0.393 C  
HETATM   33  C   UNL     3     -10.506  14.668  65.814  1.00  0.00    -0.325 C  
HETATM   34  O   UNL     3     -12.049  15.154  64.060  1.00  0.00    -0.546 OA 
HETATM   35 BR   UNL     3     -10.145  16.534  66.168  1.00  0.00    -0.378 Br 
ENDBRANCH  14  16
TORSDOF 1
ENDMDL
MODEL        7
REMARK 921   NORMALIZED FREE ENERGY PREDICTED BY IDOCK:   -7.29 KCAL/MOL
REMARK 922        TOTAL FREE ENERGY PREDICTED BY IDOCK:   -8.47 KCAL/MOL
REMARK 923 INTER-LIGAND FREE ENERGY PREDICTED BY IDOCK:   -7.41 KCAL/MOL
REMARK 924 INTRA-LIGAND FREE ENERGY PREDICTED BY IDOCK:   -1.05 KCAL/MOL
REMARK 927      BINDING AFFINITY PREDICTED BY RF-SCORE:    0.00 PKD
ROOT
HETATM    1 NA   UNL     1     -12.311  12.432  69.503  1.00  0.00    -0.262 Na 
HETATM    2 NA   UNL     2     -10.708   8.126  71.550  1.00  0.00    -0.206 Na 
HETATM    3  O   UNL     3     -10.879   9.329  69.973  1.00  0.00    -0.227 OA 
HETATM    4  C   UNL     3     -10.785   9.860  68.811  1.00  0.00    -0.220 C  
HETATM    5  C   UNL     3     -10.043   9.128  67.725  1.00  0.00    -0.253 A  
HETATM    6  O   UNL     3     -11.337  10.982  68.567  1.00  0.00    -0.241 OA 
HETATM    7  C   UNL     3     -10.187   7.729  67.566  1.00  0.00    -0.235 A  
HETATM    8 CL   UNL     3     -11.271   6.824  68.600  1.00  0.00    -0.210 Cl 
HETATM    9  C   UNL     3      -9.483   7.033  66.555  1.00  0.00    -0.150 A  
HETATM   10 CL   UNL     3      -9.672   5.304  66.394  1.00  0.00    -0.169 Cl 
HETATM   11  C   UNL     3      -8.637   7.724  65.675  1.00  0.00    -0.127 A  
HETATM   12  C   UNL     3      -8.484   9.113  65.809  1.00  0.00    -0.141 A  
HETATM   13 CL   UNL     3      -7.786   6.865  64.421  1.00  0.00    -0.113 Cl 
HETATM   14  C   UNL     3      -9.173   9.819  66.830  1.00  0.00    -0.174 A  
HETATM   15 CL   UNL     3      -7.442   9.982  64.713  1.00  0.00    -0.140 Cl 
ENDROOT
BRANCH  14  16
HETATM   16  C   UNL     3      -8.913  11.290  66.994  1.00  0.00    -0.154 A  
HETATM   17  C   UNL     3      -9.590  12.206  66.248  1.00  0.00    -0.246 A  
HETATM   18  C   UNL     3     -10.558  11.801  65.228  1.00  0.00    -0.327 C  
HETATM   19  C   UNL     3     -11.340  12.682  64.587  1.00  0.00    -0.318 C  
HETATM   20 BR   UNL     3     -12.627  12.127  63.358  1.00  0.00    -0.432 Br 
HETATM   21  C   UNL     3     -11.231  14.142  64.905  1.00  0.00    -0.373 C  
HETATM   22  O   UNL     3     -12.049  14.950  64.450  1.00  0.00    -0.473 OA 
HETATM   23  C   UNL     3     -10.137  14.568  65.828  1.00  0.00    -0.342 C  
HETATM   24  C   UNL     3      -9.382  13.645  66.467  1.00  0.00    -0.228 A  
HETATM   25 BR   UNL     3      -9.940  16.408  66.120  1.00  0.00    -0.378 Br 
HETATM   26  O   UNL     3      -8.432  14.067  67.381  1.00  0.00    -0.177 OA 
HETATM   27  C   UNL     3      -7.751  13.164  68.154  1.00  0.00    -0.143 A  
HETATM   28  C   UNL     3      -7.932  11.798  67.982  1.00  0.00    -0.141 A  
HETATM   29  C   UNL     3      -7.168  10.938  68.769  1.00  0.00    -0.091 C  
HETATM   30  C   UNL     3      -6.291  11.434  69.748  1.00  0.00    -0.139 C  
HETATM   31 BR   UNL     3      -5.348  10.088  70.744  1.00  0.00    -0.067 Br 
HETATM   32  C   UNL     3      -6.116  12.815  70.009  1.00  0.00    -0.112 C  
HETATM   33  C   UNL     3      -6.868  13.661  69.140  1.00  0.00    -0.095 C  
HETATM   34  O   UNL     3      -5.364  13.255  70.947  1.00  0.00    -0.139 OA 
HETATM   35 BR   UNL     3      -6.721  15.582  69.299  1.00  0.00    -0.166 Br 
ENDBRANCH  14  16
TORSDOF 1
ENDMDL
MODEL        8
REMARK 921   NORMALIZED FREE ENERGY PREDICTED BY IDOCK:   -7.14 KCAL/MOL
REMARK 922        TOTAL FREE ENERGY PREDICTED BY IDOCK:   -8.31 KCAL/MOL
REMARK 923 INTER-LIGAND FREE ENERGY PREDICTED BY IDOCK:   -7.22 KCAL/MOL
REMARK 924 INTRA-LIGAND FREE ENERGY PREDICTED BY IDOCK:   -1.09 KCAL/MOL
REMARK 927      BINDING AFFINITY PREDICTED BY RF-SCORE:    0.00 PKD
ROOT
HETATM    1 NA   UNL     1     -12.256   6.217  67.102  1.00  0.00    -0.496 Na 
HETATM    2 NA   UNL     2     -13.758   6.515  71.893  1.00  0.00    -0.328 Na 
HETATM    3  O   UNL     3     -12.327   6.681  70.520  1.00  0.00    -0.314 OA 
HETATM    4  C   UNL     3     -11.225   6.909  69.909  1.00  0.00    -0.285 C  
HETATM    5  C   UNL     3     -10.033   7.388  70.695  1.00  0.00    -0.186 A  
HETATM    6  O   UNL     3     -11.127   6.708  68.655  1.00  0.00    -0.257 OA 
HETATM    7  C   UNL     3      -9.734   6.837  71.965  1.00  0.00    -0.153 A  
HETATM    8 CL   UNL     3     -10.718   5.550  72.628  1.00  0.00    -0.271 Cl 
HETATM    9  C   UNL     3      -8.623   7.290  72.713  1.00  0.00    -0.118 A  
HETATM   10 CL   UNL     3      -8.290   6.599  74.282  1.00  0.00    -0.141 Cl 
HETATM   11  C   UNL     3      -7.782   8.289  72.202  1.00  0.00    -0.124 A  
HETATM   12  C   UNL     3      -8.054   8.845  70.942  1.00  0.00    -0.166 A  
HETATM   13 CL   UNL     3      -6.405   8.831  73.120  1.00  0.00    -0.068 Cl 
HETATM   14  C   UNL     3      -9.176   8.409  70.188  1.00  0.00    -0.159 A  
HETATM   15 CL   UNL     3      -7.007  10.080  70.293  1.00  0.00    -0.143 Cl 
ENDROOT
BRANCH  14  16
HETATM   16  C   UNL     3      -9.481   9.093  68.885  1.00  0.00    -0.151 A  
HETATM   17  C   UNL     3     -10.363  10.128  68.831  1.00  0.00    -0.223 A  
HETATM   18  C   UNL     3     -11.084  10.586  70.020  1.00  0.00    -0.376 C  
HETATM   19  C   UNL     3     -11.844  11.691  70.020  1.00  0.00    -0.355 C  
HETATM   20 BR   UNL     3     -12.678  12.298  71.572  1.00  0.00    -0.243 Br 
HETATM   21  C   UNL     3     -11.979  12.500  68.767  1.00  0.00    -0.238 C  
HETATM   22  O   UNL     3     -12.535  13.605  68.785  1.00  0.00    -0.129 OA 
HETATM   23  C   UNL     3     -11.372  11.949  67.518  1.00  0.00    -0.314 C  
HETATM   24  C   UNL     3     -10.599  10.839  67.566  1.00  0.00    -0.237 A  
HETATM   25 BR   UNL     3     -11.654  12.914  65.938  1.00  0.00    -0.448 Br 
HETATM   26  O   UNL     3      -9.981  10.399  66.408  1.00  0.00    -0.204 OA 
HETATM   27  C   UNL     3      -9.078   9.370  66.442  1.00  0.00    -0.161 A  
HETATM   28  C   UNL     3      -8.821   8.685  67.622  1.00  0.00    -0.138 A  
HETATM   29  C   UNL     3      -7.927   7.616  67.572  1.00  0.00    -0.120 C  
HETATM   30  C   UNL     3      -7.259   7.283  66.381  1.00  0.00    -0.079 C  
HETATM   31 BR   UNL     3      -6.050   5.796  66.523  1.00  0.00    -0.026 Br 
HETATM   32  C   UNL     3      -7.434   7.989  65.166  1.00  0.00    -0.085 C  
HETATM   33  C   UNL     3      -8.404   9.033  65.246  1.00  0.00    -0.149 C  
HETATM   34  O   UNL     3      -6.772   7.719  64.104  1.00  0.00    -0.055 OA 
HETATM   35 BR   UNL     3      -8.828  10.077  63.676  1.00  0.00    -0.276 Br 
ENDBRANCH  14  16
TORSDOF 1
ENDMDL
MODEL        9
REMARK 921   NORMALIZED FREE ENERGY PREDICTED BY IDOCK:   -7.07 KCAL/MOL
REMARK 922        TOTAL FREE ENERGY PREDICTED BY IDOCK:   -8.24 KCAL/MOL
REMARK 923 INTER-LIGAND FREE ENERGY PREDICTED BY IDOCK:   -7.16 KCAL/MOL
REMARK 924 INTRA-LIGAND FREE ENERGY PREDICTED BY IDOCK:   -1.08 KCAL/MOL
REMARK 927      BINDING AFFINITY PREDICTED BY RF-SCORE:    0.00 PKD
ROOT
HETATM    1 NA   UNL     1     -12.050   6.669  66.842  1.00  0.00    -0.705 Na 
HETATM    2 NA   UNL     2     -12.844   7.767  71.686  1.00  0.00    -0.282 Na 
HETATM    3  O   UNL     3     -11.633   7.701  70.107  1.00  0.00    -0.145 OA 
HETATM    4  C   UNL     3     -10.639   7.825  69.311  1.00  0.00    -0.192 C  
HETATM    5  C   UNL     3      -9.357   8.430  69.821  1.00  0.00    -0.158 A  
HETATM    6  O   UNL     3     -10.720   7.416  68.107  1.00  0.00    -0.186 OA 
HETATM    7  C   UNL     3      -8.862   8.101  71.105  1.00  0.00    -0.146 A  
HETATM    8 CL   UNL     3      -9.705   6.943  72.112  1.00  0.00    -0.156 Cl 
HETATM    9  C   UNL     3      -7.666   8.675  71.595  1.00  0.00    -0.108 A  
HETATM   10 CL   UNL     3      -7.089   8.259  73.190  1.00  0.00    -0.147 Cl 
HETATM   11  C   UNL     3      -6.935   9.575  70.805  1.00  0.00    -0.102 A  
HETATM   12  C   UNL     3      -7.403   9.911  69.525  1.00  0.00    -0.102 A  
HETATM   13 CL   UNL     3      -5.453  10.265  71.407  1.00  0.00    -0.059 Cl 
HETATM   14  C   UNL     3      -8.611   9.352  69.029  1.00  0.00    -0.135 A  
HETATM   15 CL   UNL     3      -6.494  11.021  68.532  1.00  0.00    -0.053 Cl 
ENDROOT
BRANCH  14  16
HETATM   16  C   UNL     3      -9.121   9.807  67.691  1.00  0.00    -0.140 A  
HETATM   17  C   UNL     3     -10.043  10.805  67.598  1.00  0.00    -0.205 A  
HETATM   18  C   UNL     3     -10.609  11.440  68.788  1.00  0.00    -0.235 C  
HETATM   19  C   UNL     3     -11.405  12.518  68.720  1.00  0.00    -0.293 C  
HETATM   20 BR   UNL     3     -12.039  13.358  70.258  1.00  0.00    -0.375 Br 
HETATM   21  C   UNL     3     -11.745  13.107  67.385  1.00  0.00    -0.370 C  
HETATM   22  O   UNL     3     -12.337  14.190  67.305  1.00  0.00    -0.350 OA 
HETATM   23  C   UNL     3     -11.296  12.367  66.168  1.00  0.00    -0.352 C  
HETATM   24  C   UNL     3     -10.480  11.293  66.282  1.00  0.00    -0.258 A  
HETATM   25 BR   UNL     3     -11.832  13.053  64.510  1.00  0.00    -0.461 Br 
HETATM   26  O   UNL     3     -10.011  10.679  65.133  1.00  0.00    -0.261 OA 
HETATM   27  C   UNL     3      -9.072   9.685  65.203  1.00  0.00    -0.228 A  
HETATM   28  C   UNL     3      -8.626   9.207  66.428  1.00  0.00    -0.135 A  
HETATM   29  C   UNL     3      -7.707   8.160  66.423  1.00  0.00    -0.092 C  
HETATM   30  C   UNL     3      -7.198   7.647  65.218  1.00  0.00    -0.065 C  
HETATM   31 BR   UNL     3      -5.923   6.223  65.422  1.00  0.00    -0.026 Br 
HETATM   32  C   UNL     3      -7.568   8.140  63.943  1.00  0.00    -0.127 C  
HETATM   33  C   UNL     3      -8.557   9.167  63.992  1.00  0.00    -0.166 C  
HETATM   34  O   UNL     3      -7.049   7.709  62.854  1.00  0.00    -0.073 OA 
HETATM   35 BR   UNL     3      -9.237   9.930  62.352  1.00  0.00    -0.277 Br 
ENDBRANCH  14  16
TORSDOF 1
ENDMDL
MODEL       10
REMARK 921   NORMALIZED FREE ENERGY PREDICTED BY IDOCK:   -7.01 KCAL/MOL
REMARK 922        TOTAL FREE ENERGY PREDICTED BY IDOCK:   -8.17 KCAL/MOL
REMARK 923 INTER-LIGAND FREE ENERGY PREDICTED BY IDOCK:   -7.08 KCAL/MOL
REMARK 924 INTRA-LIGAND FREE ENERGY PREDICTED BY IDOCK:   -1.09 KCAL/MOL
REMARK 927      BINDING AFFINITY PREDICTED BY RF-SCORE:    0.00 PKD
ROOT
HETATM    1 NA   UNL     1      -5.757  10.919  68.791  1.00  0.00    -0.042 Na 
HETATM    2 NA   UNL     2      -7.278  15.464  70.318  1.00  0.00    -0.171 Na 
HETATM    3  O   UNL     3      -7.395  13.945  69.037  1.00  0.00    -0.111 OA 
HETATM    4  C   UNL     3      -7.738  13.156  68.089  1.00  0.00    -0.143 C  
HETATM    5  C   UNL     3      -8.843  13.567  67.151  1.00  0.00    -0.231 A  
HETATM    6  O   UNL     3      -7.134  12.047  67.920  1.00  0.00    -0.082 OA 
HETATM    7  C   UNL     3      -8.934  14.899  66.680  1.00  0.00    -0.270 A  
HETATM    8 CL   UNL     3      -7.733  16.087  67.138  1.00  0.00    -0.218 Cl 
HETATM    9  C   UNL     3      -9.975  15.294  65.809  1.00  0.00    -0.360 A  
HETATM   10 CL   UNL     3     -10.067  16.949  65.256  1.00  0.00     0.059 Cl 
HETATM   11  C   UNL     3     -10.935  14.365  65.381  1.00  0.00    -0.339 A  
HETATM   12  C   UNL     3     -10.861  13.037  65.830  1.00  0.00    -0.272 A  
HETATM   13 CL   UNL     3     -12.205  14.854  64.295  1.00  0.00    -0.472 Cl 
HETATM   14  C   UNL     3      -9.828  12.632  66.717  1.00  0.00    -0.236 A  
HETATM   15 CL   UNL     3     -12.043  11.872  65.295  1.00  0.00    -0.126 Cl 
ENDROOT
BRANCH  14  16
HETATM   16  C   UNL     3      -9.838  11.225  67.242  1.00  0.00    -0.203 A  
HETATM   17  C   UNL     3     -10.450  10.924  68.421  1.00  0.00    -0.206 A  
HETATM   18  C   UNL     3     -11.077  11.958  69.246  1.00  0.00    -0.264 C  
HETATM   19  C   UNL     3     -11.809  11.668  70.331  1.00  0.00    -0.293 C  
HETATM   20 BR   UNL     3     -12.670  13.000  71.310  1.00  0.00    -0.300 Br 
HETATM   21  C   UNL     3     -11.999  10.239  70.739  1.00  0.00    -0.360 C  
HETATM   22  O   UNL     3     -12.799   9.938  71.633  1.00  0.00    -0.367 OA 
HETATM   23  C   UNL     3     -11.232   9.198  69.991  1.00  0.00    -0.150 C  
HETATM   24  C   UNL     3     -10.519   9.533  68.891  1.00  0.00    -0.216 A  
HETATM   25 BR   UNL     3     -11.389   7.430  70.590  1.00  0.00    -0.298 Br 
HETATM   26  O   UNL     3      -9.887   8.535  68.168  1.00  0.00    -0.155 OA 
HETATM   27  C   UNL     3      -9.280   8.811  66.972  1.00  0.00    -0.142 A  
HETATM   28  C   UNL     3      -9.207  10.112  66.492  1.00  0.00    -0.182 A  
HETATM   29  C   UNL     3      -8.530  10.326  65.293  1.00  0.00    -0.168 C  
HETATM   30  C   UNL     3      -7.994   9.254  64.560  1.00  0.00    -0.128 C  
HETATM   31 BR   UNL     3      -7.121   9.751  62.922  1.00  0.00    -0.119 Br 
HETATM   32  C   UNL     3      -8.097   7.901  64.970  1.00  0.00    -0.144 C  
HETATM   33  C   UNL     3      -8.740   7.735  66.233  1.00  0.00    -0.155 C  
HETATM   34  O   UNL     3      -7.662   6.927  64.263  1.00  0.00    -0.102 OA 
HETATM   35 BR   UNL     3      -8.926   5.967  66.993  1.00  0.00    -0.114 Br 
ENDBRANCH  14  16
TORSDOF 1
ENDMDL
MODEL       11
REMARK 921   NORMALIZED FREE ENERGY PREDICTED BY IDOCK:   -6.96 KCAL/MOL
REMARK 922        TOTAL FREE ENERGY PREDICTED BY IDOCK:   -8.12 KCAL/MOL
REMARK 923 INTER-LIGAND FREE ENERGY PREDICTED BY IDOCK:   -7.56 KCAL/MOL
REMARK 924 INTRA-LIGAND FREE ENERGY PREDICTED BY IDOCK:   -0.56 KCAL/MOL
REMARK 927      BINDING AFFINITY PREDICTED BY RF-SCORE:    0.00 PKD
ROOT
HETATM    1 NA   UNL     1      -8.570   9.236  72.632  1.00  0.00    -0.100 Na 
HETATM    2 NA   UNL     2      -5.126  12.244  70.538  1.00  0.00    -0.068 Na 
HETATM    3  O   UNL     3      -6.714  11.058  70.365  1.00  0.00    -0.263 OA 
HETATM    4  C   UNL     3      -7.725  10.407  69.924  1.00  0.00    -0.069 C  
HETATM    5  C   UNL     3      -8.069  10.485  68.460  1.00  0.00    -0.121 A  
HETATM    6  O   UNL     3      -8.418   9.679  70.707  1.00  0.00    -0.245 OA 
HETATM    7  C   UNL     3      -7.053  10.454  67.475  1.00  0.00    -0.086 A  
HETATM    8 CL   UNL     3      -5.374  10.273  67.936  1.00  0.00    -0.037 Cl 
HETATM    9  C   UNL     3      -7.368  10.538  66.099  1.00  0.00    -0.136 A  
HETATM   10 CL   UNL     3      -6.089  10.511  64.909  1.00  0.00    -0.107 Cl 
HETATM   11  C   UNL     3      -8.703  10.640  65.681  1.00  0.00    -0.188 A  
HETATM   12  C   UNL     3      -9.728  10.666  66.639  1.00  0.00    -0.184 A  
HETATM   13 CL   UNL     3      -9.086  10.727  63.984  1.00  0.00    -0.216 Cl 
HETATM   14  C   UNL     3      -9.422  10.597  68.024  1.00  0.00    -0.164 A  
HETATM   15 CL   UNL     3     -11.392  10.781  66.128  1.00  0.00     0.204 Cl 
ENDROOT
BRANCH  14  16
HETATM   16  C   UNL     3     -10.543  10.717  69.018  1.00  0.00    -0.250 A  
HETATM   17  C   UNL     3     -11.096   9.609  69.584  1.00  0.00    -0.223 A  
HETATM   18  C   UNL     3     -10.660   8.261  69.217  1.00  0.00    -0.191 C  
HETATM   19  C   UNL     3     -11.084   7.165  69.864  1.00  0.00    -0.235 C  
HETATM   20 BR   UNL     3     -10.443   5.470  69.431  1.00  0.00    -0.343 Br 
HETATM   21  C   UNL     3     -12.046   7.302  71.004  1.00  0.00    -0.324 C  
HETATM   22  O   UNL     3     -12.322   6.330  71.717  1.00  0.00    -0.283 OA 
HETATM   23  C   UNL     3     -12.609   8.658  71.276  1.00  0.00    -0.235 C  
HETATM   24  C   UNL     3     -12.140   9.739  70.610  1.00  0.00    -0.230 A  
HETATM   25 BR   UNL     3     -13.900   8.789  72.627  1.00  0.00    -0.246 Br 
HETATM   26  O   UNL     3     -12.620  10.995  70.942  1.00  0.00    -0.351 OA 
HETATM   27  C   UNL     3     -12.068  12.124  70.398  1.00  0.00    -0.309 A  
HETATM   28  C   UNL     3     -11.071  12.038  69.435  1.00  0.00    -0.198 A  
HETATM   29  C   UNL     3     -10.591  13.227  68.888  1.00  0.00    -0.167 C  
HETATM   30  C   UNL     3     -11.054  14.474  69.341  1.00  0.00    -0.268 C  
HETATM   31 BR   UNL     3     -10.253  15.994  68.481  1.00  0.00    -0.246 Br 
HETATM   32  C   UNL     3     -12.022  14.620  70.366  1.00  0.00    -0.311 C  
HETATM   33  C   UNL     3     -12.531  13.379  70.852  1.00  0.00    -0.359 C  
HETATM   34  O   UNL     3     -12.389  15.761  70.816  1.00  0.00    -0.410 OA 
HETATM   35 BR   UNL     3     -13.904  13.369  72.213  1.00  0.00    -0.600 Br 
ENDBRANCH  14  16
TORSDOF 1
ENDMDL
MODEL       12
REMARK 921   NORMALIZED FREE ENERGY PREDICTED BY IDOCK:   -6.86 KCAL/MOL
REMARK 922        TOTAL FREE ENERGY PREDICTED BY IDOCK:   -8.01 KCAL/MOL
REMARK 923 INTER-LIGAND FREE ENERGY PREDICTED BY IDOCK:   -7.08 KCAL/MOL
REMARK 924 INTRA-LIGAND FREE ENERGY PREDICTED BY IDOCK:   -0.93 KCAL/MOL
REMARK 927      BINDING AFFINITY PREDICTED BY RF-SCORE:    0.00 PKD
ROOT
HETATM    1 NA   UNL     1      -5.550  11.512  64.592  1.00  0.00    -0.336 Na 
HETATM    2 NA   UNL     2      -8.764   8.348  62.365  1.00  0.00    -0.168 Na 
HETATM    3  O   UNL     3      -8.048   9.204  64.013  1.00  0.00    -0.134 OA 
HETATM    4  C   UNL     3      -7.855   9.585  65.220  1.00  0.00    -0.111 C  
HETATM    5  C   UNL     3      -8.731   9.035  66.315  1.00  0.00    -0.155 A  
HETATM    6  O   UNL     3      -6.915  10.398  65.499  1.00  0.00    -0.139 OA 
HETATM    7  C   UNL     3      -9.098   7.668  66.330  1.00  0.00    -0.174 A  
HETATM    8 CL   UNL     3      -8.500   6.574  65.103  1.00  0.00    -0.098 Cl 
HETATM    9  C   UNL     3      -9.930   7.148  67.349  1.00  0.00    -0.172 A  
HETATM   10 CL   UNL     3     -10.375   5.459  67.332  1.00  0.00    -0.253 Cl 
HETATM   11  C   UNL     3     -10.398   7.979  68.377  1.00  0.00    -0.199 A  
HETATM   12  C   UNL     3     -10.041   9.336  68.386  1.00  0.00    -0.191 A  
HETATM   13 CL   UNL     3     -11.408   7.329  69.639  1.00  0.00    -0.103 Cl 
HETATM   14  C   UNL     3      -9.219   9.873  67.361  1.00  0.00    -0.151 A  
HETATM   15 CL   UNL     3     -10.609  10.375  69.668  1.00  0.00    -0.271 Cl 
ENDROOT
BRANCH  14  16
HETATM   16  C   UNL     3      -8.935  11.349  67.360  1.00  0.00    -0.154 A  
HETATM   17  C   UNL     3      -9.631  12.193  66.550  1.00  0.00    -0.235 A  
HETATM   18  C   UNL     3     -10.645  11.699  65.616  1.00  0.00    -0.324 C  
HETATM   19  C   UNL     3     -11.442  12.521  64.918  1.00  0.00    -0.325 C  
HETATM   20 BR   UNL     3     -12.784  11.862  63.805  1.00  0.00    -0.317 Br 
HETATM   21  C   UNL     3     -11.304  14.004  65.078  1.00  0.00    -0.342 C  
HETATM   22  O   UNL     3     -12.131  14.773  64.574  1.00  0.00    -0.461 OA 
HETATM   23  C   UNL     3     -10.169  14.507  65.908  1.00  0.00    -0.322 C  
HETATM   24  C   UNL     3      -9.399  13.643  66.610  1.00  0.00    -0.254 A  
HETATM   25 BR   UNL     3      -9.939  16.364  65.999  1.00  0.00    -0.369 Br 
HETATM   26  O   UNL     3      -8.408  14.143  67.437  1.00  0.00    -0.175 OA 
HETATM   27  C   UNL     3      -7.706  13.315  68.272  1.00  0.00    -0.141 A  
HETATM   28  C   UNL     3      -7.909  11.941  68.251  1.00  0.00    -0.141 A  
HETATM   29  C   UNL     3      -7.124  11.155  69.092  1.00  0.00    -0.116 C  
HETATM   30  C   UNL     3      -6.202  11.737  69.979  1.00  0.00    -0.136 C  
HETATM   31 BR   UNL     3      -5.235  10.487  71.072  1.00  0.00    -0.093 Br 
HETATM   32  C   UNL     3      -6.002  13.135  70.089  1.00  0.00    -0.138 C  
HETATM   33  C   UNL     3      -6.779  13.897  69.166  1.00  0.00    -0.113 C  
HETATM   34  O   UNL     3      -5.207  13.657  70.945  1.00  0.00    -0.112 OA 
HETATM   35 BR   UNL     3      -6.604  15.822  69.119  1.00  0.00    -0.160 Br 
ENDBRANCH  14  16
TORSDOF 1
ENDMDL
MODEL       13
REMARK 921   NORMALIZED FREE ENERGY PREDICTED BY IDOCK:   -6.70 KCAL/MOL
REMARK 922        TOTAL FREE ENERGY PREDICTED BY IDOCK:   -7.84 KCAL/MOL
REMARK 923 INTER-LIGAND FREE ENERGY PREDICTED BY IDOCK:   -7.89 KCAL/MOL
REMARK 924 INTRA-LIGAND FREE ENERGY PREDICTED BY IDOCK:    0.04 KCAL/MOL
REMARK 927      BINDING AFFINITY PREDICTED BY RF-SCORE:    0.00 PKD
ROOT
HETATM    1 NA   UNL     1      -6.328  12.243  68.222  1.00  0.00    -0.050 Na 
HETATM    2 NA   UNL     2      -5.910   7.450  69.691  1.00  0.00    -0.020 Na 
HETATM    3  O   UNL     3      -6.951   9.145  69.606  1.00  0.00    -0.051 OA 
HETATM    4  C   UNL     3      -7.867  10.035  69.698  1.00  0.00    -0.167 C  
HETATM    5  C   UNL     3      -9.167   9.687  70.374  1.00  0.00    -0.258 A  
HETATM    6  O   UNL     3      -7.673  11.211  69.248  1.00  0.00    -0.109 OA 
HETATM    7  C   UNL     3      -9.183   8.906  71.555  1.00  0.00    -0.252 A  
HETATM    8 CL   UNL     3      -7.685   8.369  72.284  1.00  0.00    -0.163 Cl 
HETATM    9  C   UNL     3     -10.401   8.566  72.188  1.00  0.00    -0.339 A  
HETATM   10 CL   UNL     3     -10.386   7.590  73.636  1.00  0.00    -0.374 Cl 
HETATM   11  C   UNL     3     -11.622   9.012  71.664  1.00  0.00    -0.356 A  
HETATM   12  C   UNL     3     -11.631   9.793  70.498  1.00  0.00    -0.292 A  
HETATM   13 CL   UNL     3     -13.118   8.605  72.458  1.00  0.00    -0.384 Cl 
HETATM   14  C   UNL     3     -10.416  10.128  69.845  1.00  0.00    -0.322 A  
HETATM   15 CL   UNL     3     -13.146  10.361  69.844  1.00  0.00     0.153 Cl 
ENDROOT
BRANCH  14  16
HETATM   16  C   UNL     3     -10.477  10.891  68.551  1.00  0.00    -0.209 A  
HETATM   17  C   UNL     3     -10.876  12.193  68.527  1.00  0.00    -0.267 A  
HETATM   18  C   UNL     3     -11.305  12.887  69.741  1.00  0.00    -0.107 C  
HETATM   19  C   UNL     3     -11.561  14.203  69.767  1.00  0.00    -0.290 C  
HETATM   20 BR   UNL     3     -12.020  15.075  71.348  1.00  0.00    -0.434 Br 
HETATM   21  C   UNL     3     -11.415  15.012  68.514  1.00  0.00    -0.317 C  
HETATM   22  O   UNL     3     -11.484  16.247  68.548  1.00  0.00    -0.371 OA 
HETATM   23  C   UNL     3     -11.129  14.278  67.245  1.00  0.00    -0.306 C  
HETATM   24  C   UNL     3     -10.861  12.952  67.268  1.00  0.00    -0.255 A  
HETATM   25 BR   UNL     3     -11.069  15.292  65.671  1.00  0.00    -0.277 Br 
HETATM   26  O   UNL     3     -10.517  12.314  66.088  1.00  0.00    -0.232 OA 
HETATM   27  C   UNL     3     -10.097  11.011  66.092  1.00  0.00    -0.237 A  
HETATM   28  C   UNL     3     -10.086  10.267  67.264  1.00  0.00    -0.249 A  
HETATM   29  C   UNL     3      -9.695   8.932  67.184  1.00  0.00    -0.241 C  
HETATM   30  C   UNL     3      -9.263   8.373  65.969  1.00  0.00    -0.187 C  
HETATM   31 BR   UNL     3      -8.742   6.526  66.070  1.00  0.00    -0.144 Br 
HETATM   32  C   UNL     3      -9.193   9.103  64.757  1.00  0.00    -0.018 C  
HETATM   33  C   UNL     3      -9.662  10.446  64.871  1.00  0.00    -0.309 C  
HETATM   34  O   UNL     3      -8.738   8.603  63.670  1.00  0.00    -0.064 OA 
HETATM   35 BR   UNL     3      -9.700  11.589  63.312  1.00  0.00    -0.389 Br 
ENDBRANCH  14  16
TORSDOF 1
ENDMDL
MODEL       14
REMARK 921   NORMALIZED FREE ENERGY PREDICTED BY IDOCK:   -6.69 KCAL/MOL
REMARK 922        TOTAL FREE ENERGY PREDICTED BY IDOCK:   -7.83 KCAL/MOL
REMARK 923 INTER-LIGAND FREE ENERGY PREDICTED BY IDOCK:   -6.77 KCAL/MOL
REMARK 924 INTRA-LIGAND FREE ENERGY PREDICTED BY IDOCK:   -1.06 KCAL/MOL
REMARK 927      BINDING AFFINITY PREDICTED BY RF-SCORE:    0.00 PKD
ROOT
HETATM    1 NA   UNL     1     -11.835   5.617  66.925  1.00  0.00    -0.412 Na 
HETATM    2 NA   UNL     2     -14.014   6.873  71.281  1.00  0.00    -0.334 Na 
HETATM    3  O   UNL     3     -12.376   6.647  70.173  1.00  0.00    -0.162 OA 
HETATM    4  C   UNL     3     -11.171   6.646  69.739  1.00  0.00    -0.356 C  
HETATM    5  C   UNL     3     -10.062   7.112  70.646  1.00  0.00    -0.198 A  
HETATM    6  O   UNL     3     -10.906   6.229  68.565  1.00  0.00    -0.263 OA 
HETATM    7  C   UNL     3     -10.045   6.750  72.014  1.00  0.00    -0.182 A  
HETATM    8 CL   UNL     3     -11.289   5.710  72.673  1.00  0.00    -0.348 Cl 
HETATM    9  C   UNL     3      -9.013   7.194  72.873  1.00  0.00    -0.131 A  
HETATM   10 CL   UNL     3      -9.029   6.741  74.560  1.00  0.00    -0.207 Cl 
HETATM   11  C   UNL     3      -7.972   7.993  72.379  1.00  0.00    -0.128 A  
HETATM   12  C   UNL     3      -7.964   8.359  71.024  1.00  0.00    -0.106 A  
HETATM   13 CL   UNL     3      -6.695   8.523  73.438  1.00  0.00    -0.112 Cl 
HETATM   14  C   UNL     3      -9.003   7.932  70.155  1.00  0.00    -0.151 A  
HETATM   15 CL   UNL     3      -6.668   9.344  70.398  1.00  0.00    -0.071 Cl 
ENDROOT
BRANCH  14  16
HETATM   16  C   UNL     3      -9.003   8.419  68.734  1.00  0.00    -0.140 A  
HETATM   17  C   UNL     3      -8.296   7.764  67.772  1.00  0.00    -0.125 A  
HETATM   18  C   UNL     3      -7.474   6.594  68.085  1.00  0.00    -0.095 C  
HETATM   19  C   UNL     3      -6.890   5.849  67.136  1.00  0.00    -0.063 C  
HETATM   20 BR   UNL     3      -5.923   4.314  67.561  1.00  0.00    -0.024 Br 
HETATM   21  C   UNL     3      -7.066   6.212  65.693  1.00  0.00    -0.072 C  
HETATM   22  O   UNL     3      -6.678   5.452  64.798  1.00  0.00    -0.045 OA 
HETATM   23  C   UNL     3      -7.772   7.491  65.383  1.00  0.00    -0.109 C  
HETATM   24  C   UNL     3      -8.362   8.204  66.371  1.00  0.00    -0.115 A  
HETATM   25 BR   UNL     3      -7.878   7.990  63.580  1.00  0.00    -0.129 Br 
HETATM   26  O   UNL     3      -9.081   9.341  66.044  1.00  0.00    -0.161 OA 
HETATM   27  C   UNL     3      -9.812  10.006  66.992  1.00  0.00    -0.189 A  
HETATM   28  C   UNL     3      -9.784   9.610  68.322  1.00  0.00    -0.162 A  
HETATM   29  C   UNL     3     -10.512  10.365  69.241  1.00  0.00    -0.257 C  
HETATM   30  C   UNL     3     -11.300  11.451  68.826  1.00  0.00    -0.271 C  
HETATM   31 BR   UNL     3     -12.247  12.347  70.238  1.00  0.00    -0.274 Br 
HETATM   32  C   UNL     3     -11.417  11.858  67.474  1.00  0.00    -0.326 C  
HETATM   33  C   UNL     3     -10.606  11.099  66.577  1.00  0.00    -0.262 C  
HETATM   34  O   UNL     3     -12.189  12.808  67.099  1.00  0.00    -0.404 OA 
HETATM   35 BR   UNL     3     -10.582  11.538  64.695  1.00  0.00    -0.384 Br 
ENDBRANCH  14  16
TORSDOF 1
ENDMDL
MODEL       15
REMARK 921   NORMALIZED FREE ENERGY PREDICTED BY IDOCK:   -6.53 KCAL/MOL
REMARK 922        TOTAL FREE ENERGY PREDICTED BY IDOCK:   -7.66 KCAL/MOL
REMARK 923 INTER-LIGAND FREE ENERGY PREDICTED BY IDOCK:   -6.61 KCAL/MOL
REMARK 924 INTRA-LIGAND FREE ENERGY PREDICTED BY IDOCK:   -1.05 KCAL/MOL
REMARK 927      BINDING AFFINITY PREDICTED BY RF-SCORE:    0.00 PKD
ROOT
HETATM    1 NA   UNL     1     -12.258  16.491  65.066  1.00  0.00     0.180 Na 
HETATM    2 NA   UNL     2     -13.250  11.647  64.147  1.00  0.00    -0.393 Na 
HETATM    3  O   UNL     3     -12.016  13.059  64.814  1.00  0.00    -0.354 OA 
HETATM    4  C   UNL     3     -11.031  13.691  65.334  1.00  0.00    -0.298 C  
HETATM    5  C   UNL     3      -9.838  12.915  65.828  1.00  0.00    -0.216 A  
HETATM    6  O   UNL     3     -11.045  14.962  65.408  1.00  0.00    -0.333 OA 
HETATM    7  C   UNL     3      -9.328  11.822  65.088  1.00  0.00    -0.015 A  
HETATM    8 CL   UNL     3     -10.043  11.377  63.553  1.00  0.00    -0.389 Cl 
HETATM    9  C   UNL     3      -8.215  11.083  65.553  1.00  0.00     0.018 A  
HETATM   10 CL   UNL     3      -7.618   9.731  64.622  1.00  0.00    -0.127 Cl 
HETATM   11  C   UNL     3      -7.584  11.431  66.755  1.00  0.00    -0.143 A  
HETATM   12  C   UNL     3      -8.068  12.515  67.503  1.00  0.00    -0.176 A  
HETATM   13 CL   UNL     3      -6.203  10.527  67.314  1.00  0.00    -0.057 Cl 
HETATM   14  C   UNL     3      -9.194  13.256  67.054  1.00  0.00    -0.237 A  
HETATM   15 CL   UNL     3      -7.282  12.962  68.995  1.00  0.00    -0.038 Cl 
ENDROOT
BRANCH  14  16
HETATM   16  C   UNL     3      -9.733  14.352  67.929  1.00  0.00    -0.223 A  
HETATM   17  C   UNL     3     -10.693  14.094  68.859  1.00  0.00    -0.270 A  
HETATM   18  C   UNL     3     -11.272  12.758  69.014  1.00  0.00    -0.317 C  
HETATM   19  C   UNL     3     -12.109  12.448  70.015  1.00  0.00    -0.263 C  
HETATM   20 BR   UNL     3     -12.760  10.716  70.238  1.00  0.00    -0.186 Br 
HETATM   21  C   UNL     3     -12.484  13.493  71.021  1.00  0.00    -0.369 C  
HETATM   22  O   UNL     3     -13.117  13.191  72.040  1.00  0.00    -0.389 OA 
HETATM   23  C   UNL     3     -12.018  14.891  70.774  1.00  0.00    -0.314 C  
HETATM   24  C   UNL     3     -11.161  15.156  69.760  1.00  0.00    -0.279 A  
HETATM   25 BR   UNL     3     -12.596  16.206  71.976  1.00  0.00    -0.189 Br 
HETATM   26  O   UNL     3     -10.680  16.445  69.606  1.00  0.00    -0.311 OA 
HETATM   27  C   UNL     3      -9.703  16.725  68.688  1.00  0.00    -0.259 A  
HETATM   28  C   UNL     3      -9.228  15.742  67.829  1.00  0.00    -0.197 A  
HETATM   29  C   UNL     3      -8.270  16.110  66.887  1.00  0.00    -0.273 C  
HETATM   30  C   UNL     3      -7.752  17.416  66.849  1.00  0.00    -0.216 C  
HETATM   31 BR   UNL     3      -6.423  17.718  65.494  1.00  0.00     0.141 Br 
HETATM   32  C   UNL     3      -8.153  18.439  67.743  1.00  0.00    -0.254 C  
HETATM   33  C   UNL     3      -9.180  18.037  68.648  1.00  0.00    -0.267 C  
HETATM   34  O   UNL     3      -7.628  19.608  67.741  1.00  0.00    -0.263 OA 
HETATM   35 BR   UNL     3      -9.904  19.309  69.911  1.00  0.00     0.661 Br 
ENDBRANCH  14  16
TORSDOF 1
ENDMDL
MODEL       16
REMARK 921   NORMALIZED FREE ENERGY PREDICTED BY IDOCK:   -6.52 KCAL/MOL
REMARK 922        TOTAL FREE ENERGY PREDICTED BY IDOCK:   -7.66 KCAL/MOL
REMARK 923 INTER-LIGAND FREE ENERGY PREDICTED BY IDOCK:   -6.60 KCAL/MOL
REMARK 924 INTRA-LIGAND FREE ENERGY PREDICTED BY IDOCK:   -1.06 KCAL/MOL
REMARK 927      BINDING AFFINITY PREDICTED BY RF-SCORE:    0.00 PKD
ROOT
HETATM    1 NA   UNL     1      -5.763  11.755  64.901  1.00  0.00    -0.229 Na 
HETATM    2 NA   UNL     2      -8.586   8.478  62.333  1.00  0.00    -0.153 Na 
HETATM    3  O   UNL     3      -8.046   9.309  64.059  1.00  0.00    -0.132 OA 
HETATM    4  C   UNL     3      -7.962   9.649  65.291  1.00  0.00    -0.115 C  
HETATM    5  C   UNL     3      -8.868   8.994  66.299  1.00  0.00    -0.180 A  
HETATM    6  O   UNL     3      -7.103  10.512  65.667  1.00  0.00    -0.142 OA 
HETATM    7  C   UNL     3      -9.137   7.605  66.236  1.00  0.00    -0.162 A  
HETATM    8 CL   UNL     3      -8.381   6.609  65.012  1.00  0.00    -0.107 Cl 
HETATM    9  C   UNL     3      -9.997   6.986  67.173  1.00  0.00    -0.189 A  
HETATM   10 CL   UNL     3     -10.318   5.273  67.060  1.00  0.00    -0.270 Cl 
HETATM   11  C   UNL     3     -10.590   7.737  68.198  1.00  0.00    -0.124 A  
HETATM   12  C   UNL     3     -10.333   9.114  68.284  1.00  0.00    -0.214 A  
HETATM   13 CL   UNL     3     -11.634   6.966  69.359  1.00  0.00    -0.113 Cl 
HETATM   14  C   UNL     3      -9.483   9.750  67.340  1.00  0.00    -0.178 A  
HETATM   15 CL   UNL     3     -11.058  10.055  69.562  1.00  0.00    -0.271 Cl 
ENDROOT
BRANCH  14  16
HETATM   16  C   UNL     3      -9.306  11.240  67.416  1.00  0.00    -0.168 A  
HETATM   17  C   UNL     3      -8.373  11.790  68.242  1.00  0.00    -0.159 A  
HETATM   18  C   UNL     3      -7.542  10.965  69.120  1.00  0.00    -0.133 C  
HETATM   19  C   UNL     3      -6.522  11.469  69.829  1.00  0.00    -0.125 C  
HETATM   20 BR   UNL     3      -5.427  10.378  70.870  1.00  0.00    -0.085 Br 
HETATM   21  C   UNL     3      -6.207  12.931  69.741  1.00  0.00    -0.105 C  
HETATM   22  O   UNL     3      -5.177  13.387  70.253  1.00  0.00    -0.093 OA 
HETATM   23  C   UNL     3      -7.149  13.797  68.970  1.00  0.00    -0.088 C  
HETATM   24  C   UNL     3      -8.156  13.244  68.255  1.00  0.00    -0.156 A  
HETATM   25 BR   UNL     3      -6.805  15.638  68.970  1.00  0.00    -0.152 Br 
HETATM   26  O   UNL     3      -8.961  14.063  67.482  1.00  0.00    -0.177 OA 
HETATM   27  C   UNL     3      -9.894  13.531  66.633  1.00  0.00    -0.279 A  
HETATM   28  C   UNL     3     -10.118  12.161  66.585  1.00  0.00    -0.218 A  
HETATM   29  C   UNL     3     -11.118  11.695  65.734  1.00  0.00    -0.313 C  
HETATM   30  C   UNL     3     -11.833  12.573  64.904  1.00  0.00    -0.386 C  
HETATM   31 BR   UNL     3     -13.152  11.734  63.786  1.00  0.00     0.269 Br 
HETATM   32  C   UNL     3     -11.602  13.970  64.864  1.00  0.00    -0.367 C  
HETATM   33  C   UNL     3     -10.616  14.412  65.796  1.00  0.00    -0.318 C  
HETATM   34  O   UNL     3     -12.214  14.753  64.057  1.00  0.00    -0.577 OA 
HETATM   35 BR   UNL     3     -10.197  16.295  65.935  1.00  0.00    -0.388 Br 
ENDBRANCH  14  16
TORSDOF 1
ENDMDL
MODEL       17
REMARK 921   NORMALIZED FREE ENERGY PREDICTED BY IDOCK:   -6.41 KCAL/MOL
REMARK 922        TOTAL FREE ENERGY PREDICTED BY IDOCK:   -7.54 KCAL/MOL
REMARK 923 INTER-LIGAND FREE ENERGY PREDICTED BY IDOCK:   -6.55 KCAL/MOL
REMARK 924 INTRA-LIGAND FREE ENERGY PREDICTED BY IDOCK:   -0.99 KCAL/MOL
REMARK 927      BINDING AFFINITY PREDICTED BY RF-SCORE:    0.00 PKD
ROOT
HETATM    1 NA   UNL     1     -12.010   6.747  66.755  1.00  0.00    -0.616 Na 
HETATM    2 NA   UNL     2     -13.065   8.266  71.432  1.00  0.00    -0.300 Na 
HETATM    3  O   UNL     3     -11.748   7.971  69.969  1.00  0.00     0.054 OA 
HETATM    4  C   UNL     3     -10.687   7.942  69.253  1.00  0.00    -0.135 C  
HETATM    5  C   UNL     3      -9.395   8.461  69.828  1.00  0.00    -0.158 A  
HETATM    6  O   UNL     3     -10.715   7.456  68.076  1.00  0.00    -0.194 OA 
HETATM    7  C   UNL     3      -9.037   8.182  71.169  1.00  0.00    -0.154 A  
HETATM    8 CL   UNL     3     -10.066   7.185  72.174  1.00  0.00    -0.195 Cl 
HETATM    9  C   UNL     3      -7.831   8.675  71.719  1.00  0.00    -0.091 A  
HETATM   10 CL   UNL     3      -7.424   8.324  73.381  1.00  0.00    -0.187 Cl 
HETATM   11  C   UNL     3      -6.955   9.442  70.937  1.00  0.00    -0.093 A  
HETATM   12  C   UNL     3      -7.286   9.725  69.603  1.00  0.00    -0.103 A  
HETATM   13 CL   UNL     3      -5.463  10.032  71.615  1.00  0.00    -0.051 Cl 
HETATM   14  C   UNL     3      -8.501   9.248  69.044  1.00  0.00    -0.132 A  
HETATM   15 CL   UNL     3      -6.197  10.669  68.619  1.00  0.00    -0.046 Cl 
ENDROOT
BRANCH  14  16
HETATM   16  C   UNL     3      -8.858   9.649  67.641  1.00  0.00    -0.127 A  
HETATM   17  C   UNL     3      -8.340   8.984  66.572  1.00  0.00    -0.115 A  
HETATM   18  C   UNL     3      -7.383   7.889  66.739  1.00  0.00    -0.089 C  
HETATM   19  C   UNL     3      -6.973   7.127  65.714  1.00  0.00    -0.061 C  
HETATM   20 BR   UNL     3      -5.823   5.684  65.973  1.00  0.00    -0.018 Br 
HETATM   21  C   UNL     3      -7.497   7.392  64.336  1.00  0.00    -0.100 C  
HETATM   22  O   UNL     3      -7.264   6.606  63.410  1.00  0.00    -0.055 OA 
HETATM   23  C   UNL     3      -8.349   8.603  64.140  1.00  0.00    -0.126 C  
HETATM   24  C   UNL     3      -8.752   9.335  65.205  1.00  0.00    -0.184 A  
HETATM   25 BR   UNL     3      -8.895   8.986  62.390  1.00  0.00    -0.104 Br 
HETATM   26  O   UNL     3      -9.610  10.403  65.003  1.00  0.00    -0.231 OA 
HETATM   27  C   UNL     3     -10.156  11.075  66.063  1.00  0.00    -0.247 A  
HETATM   28  C   UNL     3      -9.799  10.762  67.368  1.00  0.00    -0.204 A  
HETATM   29  C   UNL     3     -10.356  11.522  68.395  1.00  0.00    -0.214 C  
HETATM   30  C   UNL     3     -11.297  12.530  68.125  1.00  0.00    -0.295 C  
HETATM   31 BR   UNL     3     -11.965  13.446  69.676  1.00  0.00    -0.368 Br 
HETATM   32  C   UNL     3     -11.745  12.847  66.819  1.00  0.00    -0.383 C  
HETATM   33  C   UNL     3     -11.103  12.089  65.794  1.00  0.00    -0.324 C  
HETATM   34  O   UNL     3     -12.651  13.723  66.589  1.00  0.00    -0.330 OA 
HETATM   35 BR   UNL     3     -11.537  12.416  63.939  1.00  0.00    -0.571 Br 
ENDBRANCH  14  16
TORSDOF 1
ENDMDL
MODEL       18
REMARK 921   NORMALIZED FREE ENERGY PREDICTED BY IDOCK:   -6.33 KCAL/MOL
REMARK 922        TOTAL FREE ENERGY PREDICTED BY IDOCK:   -7.45 KCAL/MOL
REMARK 923 INTER-LIGAND FREE ENERGY PREDICTED BY IDOCK:   -7.61 KCAL/MOL
REMARK 924 INTRA-LIGAND FREE ENERGY PREDICTED BY IDOCK:    0.16 KCAL/MOL
REMARK 927      BINDING AFFINITY PREDICTED BY RF-SCORE:    0.00 PKD
ROOT
HETATM    1 NA   UNL     1     -13.051  14.676  65.623  1.00  0.00    -0.399 Na 
HETATM    2 NA   UNL     2     -12.706  10.600  62.695  1.00  0.00    -0.594 Na 
HETATM    3  O   UNL     3     -11.914  11.822  64.052  1.00  0.00    -0.348 OA 
HETATM    4  C   UNL     3     -11.152  12.367  64.925  1.00  0.00    -0.303 C  
HETATM    5  C   UNL     3      -9.824  11.733  65.242  1.00  0.00    -0.267 A  
HETATM    6  O   UNL     3     -11.499  13.449  65.501  1.00  0.00    -0.300 OA 
HETATM    7  C   UNL     3      -9.013  11.199  64.211  1.00  0.00     0.038 A  
HETATM    8 CL   UNL     3      -9.515  11.310  62.538  1.00  0.00    -0.275 Cl 
HETATM    9  C   UNL     3      -7.769  10.591  64.503  1.00  0.00     0.031 A  
HETATM   10 CL   UNL     3      -6.798   9.931  63.210  1.00  0.00    -0.122 Cl 
HETATM   11  C   UNL     3      -7.307  10.520  65.825  1.00  0.00    -0.137 A  
HETATM   12  C   UNL     3      -8.091  11.048  66.862  1.00  0.00    -0.142 A  
HETATM   13 CL   UNL     3      -5.767   9.785  66.176  1.00  0.00    -0.055 Cl 
HETATM   14  C   UNL     3      -9.347  11.647  66.583  1.00  0.00    -0.203 A  
HETATM   15 CL   UNL     3      -7.518  10.973  68.509  1.00  0.00    -0.098 Cl 
ENDROOT
BRANCH  14  16
HETATM   16  C   UNL     3     -10.194  12.120  67.732  1.00  0.00    -0.207 A  
HETATM   17  C   UNL     3     -10.866  11.231  68.515  1.00  0.00    -0.245 A  
HETATM   18  C   UNL     3     -10.834   9.793  68.245  1.00  0.00    -0.256 C  
HETATM   19  C   UNL     3     -11.366   8.892  69.084  1.00  0.00     0.411 C  
HETATM   20 BR   UNL     3     -11.232   7.062  68.759  1.00  0.00     0.065 Br 
HETATM   21  C   UNL     3     -12.029   9.351  70.347  1.00  0.00    -0.029 C  
HETATM   22  O   UNL     3     -12.378   8.537  71.210  1.00  0.00    -0.307 OA 
HETATM   23  C   UNL     3     -12.198  10.822  70.543  1.00  0.00    -0.366 C  
HETATM   24  C   UNL     3     -11.631  11.697  69.680  1.00  0.00    -0.330 A  
HETATM   25 BR   UNL     3     -13.135  11.375  72.068  1.00  0.00    -0.208 Br 
HETATM   26  O   UNL     3     -11.733  13.055  69.933  1.00  0.00    -0.304 OA 
HETATM   27  C   UNL     3     -11.052  13.964  69.170  1.00  0.00    -0.245 A  
HETATM   28  C   UNL     3     -10.310  13.559  68.068  1.00  0.00    -0.241 A  
HETATM   29  C   UNL     3      -9.684  14.544  67.307  1.00  0.00    -0.232 C  
HETATM   30  C   UNL     3      -9.748  15.898  67.677  1.00  0.00    -0.223 C  
HETATM   31 BR   UNL     3      -8.801  17.099  66.513  1.00  0.00    -0.298 Br 
HETATM   32  C   UNL     3     -10.437  16.360  68.826  1.00  0.00    -0.300 C  
HETATM   33  C   UNL     3     -11.115  15.327  69.539  1.00  0.00    -0.281 C  
HETATM   34  O   UNL     3     -10.435  17.588  69.189  1.00  0.00    -0.347 OA 
HETATM   35 BR   UNL     3     -12.160  15.764  71.106  1.00  0.00    -0.494 Br 
ENDBRANCH  14  16
TORSDOF 1
ENDMDL
MODEL       19
REMARK 921   NORMALIZED FREE ENERGY PREDICTED BY IDOCK:   -6.27 KCAL/MOL
REMARK 922        TOTAL FREE ENERGY PREDICTED BY IDOCK:   -7.40 KCAL/MOL
REMARK 923 INTER-LIGAND FREE ENERGY PREDICTED BY IDOCK:   -6.32 KCAL/MOL
REMARK 924 INTRA-LIGAND FREE ENERGY PREDICTED BY IDOCK:   -1.08 KCAL/MOL
REMARK 927      BINDING AFFINITY PREDICTED BY RF-SCORE:    0.00 PKD
ROOT
HETATM    1 NA   UNL     1     -11.698   5.179  66.523  1.00  0.00    -0.463 Na 
HETATM    2 NA   UNL     2     -13.345   6.373  71.123  1.00  0.00    -0.231 Na 
HETATM    3  O   UNL     3     -11.860   6.227  69.806  1.00  0.00    -0.319 OA 
HETATM    4  C   UNL     3     -10.726   6.289  69.214  1.00  0.00    -0.305 C  
HETATM    5  C   UNL     3      -9.536   6.834  69.960  1.00  0.00    -0.160 A  
HETATM    6  O   UNL     3     -10.597   5.871  68.018  1.00  0.00    -0.220 OA 
HETATM    7  C   UNL     3      -9.314   6.495  71.316  1.00  0.00    -0.155 A  
HETATM    8 CL   UNL     3     -10.394   5.394  72.144  1.00  0.00    -0.255 Cl 
HETATM    9  C   UNL     3      -8.205   7.012  72.025  1.00  0.00    -0.101 A  
HETATM   10 CL   UNL     3      -7.968   6.585  73.702  1.00  0.00    -0.100 Cl 
HETATM   11  C   UNL     3      -7.290   7.863  71.389  1.00  0.00    -0.066 A  
HETATM   12  C   UNL     3      -7.486   8.208  70.042  1.00  0.00    -0.065 A  
HETATM   13 CL   UNL     3      -5.916   8.484  72.262  1.00  0.00    -0.062 Cl 
HETATM   14  C   UNL     3      -8.604   7.706  69.325  1.00  0.00    -0.136 A  
HETATM   15 CL   UNL     3      -6.346   9.257  69.240  1.00  0.00    -0.041 Cl 
ENDROOT
BRANCH  14  16
HETATM   16  C   UNL     3      -8.823   8.171  67.912  1.00  0.00    -0.131 A  
HETATM   17  C   UNL     3      -9.656   9.213  67.642  1.00  0.00    -0.181 A  
HETATM   18  C   UNL     3     -10.406   9.891  68.701  1.00  0.00    -0.217 C  
HETATM   19  C   UNL     3     -11.116  11.007  68.479  1.00  0.00    -0.243 C  
HETATM   20 BR   UNL     3     -11.988  11.897  69.865  1.00  0.00    -0.370 Br 
HETATM   21  C   UNL     3     -11.163  11.597  67.103  1.00  0.00    -0.309 C  
HETATM   22  O   UNL     3     -11.671  12.708  66.909  1.00  0.00    -0.355 OA 
HETATM   23  C   UNL     3     -10.528  10.821  65.996  1.00  0.00    -0.208 C  
HETATM   24  C   UNL     3      -9.807   9.708  66.266  1.00  0.00    -0.256 A  
HETATM   25 BR   UNL     3     -10.700  11.514  64.264  1.00  0.00    -0.433 Br 
HETATM   26  O   UNL     3      -9.160   9.057  65.230  1.00  0.00    -0.209 OA 
HETATM   27  C   UNL     3      -8.304   8.017  65.480  1.00  0.00    -0.147 A  
HETATM   28  C   UNL     3      -8.128   7.532  66.769  1.00  0.00    -0.123 A  
HETATM   29  C   UNL     3      -7.281   6.439  66.942  1.00  0.00    -0.074 C  
HETATM   30  C   UNL     3      -6.578   5.886  65.859  1.00  0.00    -0.047 C  
HETATM   31 BR   UNL     3      -5.443   4.401  66.307  1.00  0.00    -0.014 Br 
HETATM   32  C   UNL     3      -6.670   6.382  64.535  1.00  0.00    -0.038 C  
HETATM   33  C   UNL     3      -7.596   7.459  64.392  1.00  0.00    -0.115 C  
HETATM   34  O   UNL     3      -5.976   5.912  63.568  1.00  0.00    -0.021 OA 
HETATM   35 BR   UNL     3      -7.907   8.237  62.650  1.00  0.00    -0.147 Br 
ENDBRANCH  14  16
TORSDOF 1
ENDMDL
MODEL       20
REMARK 921   NORMALIZED FREE ENERGY PREDICTED BY IDOCK:   -6.21 KCAL/MOL
REMARK 922        TOTAL FREE ENERGY PREDICTED BY IDOCK:   -7.33 KCAL/MOL
REMARK 923 INTER-LIGAND FREE ENERGY PREDICTED BY IDOCK:   -6.27 KCAL/MOL
REMARK 924 INTRA-LIGAND FREE ENERGY PREDICTED BY IDOCK:   -1.06 KCAL/MOL
REMARK 927      BINDING AFFINITY PREDICTED BY RF-SCORE:    0.00 PKD
ROOT
HETATM    1 NA   UNL     1      -7.271   8.387  73.190  1.00  0.00    -0.094 Na 
HETATM    2 NA   UNL     2      -6.084  12.674  70.841  1.00  0.00    -0.166 Na 
HETATM    3  O   UNL     3      -6.724  10.791  70.776  1.00  0.00    -0.281 OA 
HETATM    4  C   UNL     3      -7.185   9.658  70.397  1.00  0.00    -0.142 C  
HETATM    5  C   UNL     3      -7.487   9.436  68.938  1.00  0.00    -0.074 A  
HETATM    6  O   UNL     3      -7.360   8.717  71.237  1.00  0.00    -0.078 OA 
HETATM    7  C   UNL     3      -6.612   9.921  67.936  1.00  0.00    -0.064 A  
HETATM    8 CL   UNL     3      -5.132  10.747  68.372  1.00  0.00    -0.034 Cl 
HETATM    9  C   UNL     3      -6.896   9.727  66.564  1.00  0.00    -0.084 A  
HETATM   10 CL   UNL     3      -5.803  10.350  65.352  1.00  0.00    -0.114 Cl 
HETATM   11  C   UNL     3      -8.048   9.032  66.169  1.00  0.00    -0.111 A  
HETATM   12  C   UNL     3      -8.927   8.536  67.145  1.00  0.00    -0.130 A  
HETATM   13 CL   UNL     3      -8.384   8.781  64.478  1.00  0.00    -0.170 Cl 
HETATM   14  C   UNL     3      -8.660   8.738  68.525  1.00  0.00    -0.134 A  
HETATM   15 CL   UNL     3     -10.357   7.662  66.662  1.00  0.00    -0.316 Cl 
ENDROOT
BRANCH  14  16
HETATM   16  C   UNL     3      -9.671   8.269  69.532  1.00  0.00    -0.174 A  
HETATM   17  C   UNL     3      -9.637   6.995  70.013  1.00  0.00    -0.164 A  
HETATM   18  C   UNL     3      -8.654   6.021  69.537  1.00  0.00    -0.119 C  
HETATM   19  C   UNL     3      -8.509   4.811  70.098  1.00  0.00    -0.082 C  
HETATM   20 BR   UNL     3      -7.189   3.626  69.528  1.00  0.00    -0.045 Br 
HETATM   21  C   UNL     3      -9.380   4.418  71.252  1.00  0.00    -0.146 C  
HETATM   22  O   UNL     3      -9.156   3.381  71.887  1.00  0.00    -0.100 OA 
HETATM   23  C   UNL     3     -10.484   5.348  71.634  1.00  0.00    -0.227 C  
HETATM   24  C   UNL     3     -10.584   6.567  71.053  1.00  0.00    -0.231 A  
HETATM   25 BR   UNL     3     -11.636   4.786  72.999  1.00  0.00    -0.144 Br 
HETATM   26  O   UNL     3     -11.566   7.441  71.486  1.00  0.00    -0.259 OA 
HETATM   27  C   UNL     3     -11.608   8.731  71.029  1.00  0.00    -0.288 A  
HETATM   28  C   UNL     3     -10.722   9.174  70.056  1.00  0.00    -0.254 A  
HETATM   29  C   UNL     3     -10.856  10.484  69.602  1.00  0.00    -0.320 C  
HETATM   30  C   UNL     3     -11.813  11.351  70.156  1.00  0.00    -0.355 C  
HETATM   31 BR   UNL     3     -11.824  13.123  69.413  1.00  0.00    -0.371 Br 
HETATM   32  C   UNL     3     -12.699  10.972  71.195  1.00  0.00    -0.419 C  
HETATM   33  C   UNL     3     -12.570   9.605  71.584  1.00  0.00    -0.402 C  
HETATM   34  O   UNL     3     -13.524  11.788  71.736  1.00  0.00    -0.312 OA 
HETATM   35 BR   UNL     3     -13.731   8.880  72.950  1.00  0.00     0.130 Br 
ENDBRANCH  14  16
TORSDOF 1
ENDMDL
MODEL       21
REMARK 921   NORMALIZED FREE ENERGY PREDICTED BY IDOCK:   -6.12 KCAL/MOL
REMARK 922        TOTAL FREE ENERGY PREDICTED BY IDOCK:   -7.23 KCAL/MOL
REMARK 923 INTER-LIGAND FREE ENERGY PREDICTED BY IDOCK:   -7.72 KCAL/MOL
REMARK 924 INTRA-LIGAND FREE ENERGY PREDICTED BY IDOCK:    0.49 KCAL/MOL
REMARK 927      BINDING AFFINITY PREDICTED BY RF-SCORE:    0.00 PKD
ROOT
HETATM    1 NA   UNL     1     -13.430  14.152  66.259  1.00  0.00    -0.489 Na 
HETATM    2 NA   UNL     2     -12.799  10.596  62.758  1.00  0.00    -0.598 Na 
HETATM    3  O   UNL     3     -12.091  11.661  64.283  1.00  0.00    -0.197 OA 
HETATM    4  C   UNL     3     -11.365  12.128  65.229  1.00  0.00    -0.336 C  
HETATM    5  C   UNL     3      -9.988  11.560  65.450  1.00  0.00    -0.288 A  
HETATM    6  O   UNL     3     -11.789  13.082  65.959  1.00  0.00    -0.374 OA 
HETATM    7  C   UNL     3      -9.148  11.251  64.353  1.00  0.00     0.026 A  
HETATM    8 CL   UNL     3      -9.674  11.569  62.714  1.00  0.00    -0.295 Cl 
HETATM    9  C   UNL     3      -7.858  10.706  64.554  1.00  0.00     0.101 A  
HETATM   10 CL   UNL     3      -6.852  10.322  63.178  1.00  0.00    -0.133 Cl 
HETATM   11  C   UNL     3      -7.379  10.475  65.851  1.00  0.00    -0.142 A  
HETATM   12  C   UNL     3      -8.191  10.780  66.954  1.00  0.00    -0.130 A  
HETATM   13 CL   UNL     3      -5.783   9.819  66.092  1.00  0.00    -0.055 Cl 
HETATM   14  C   UNL     3      -9.493  11.314  66.765  1.00  0.00    -0.196 A  
HETATM   15 CL   UNL     3      -7.598  10.506  68.572  1.00  0.00    -0.092 Cl 
ENDROOT
BRANCH  14  16
HETATM   16  C   UNL     3     -10.362  11.543  67.969  1.00  0.00    -0.208 A  
HETATM   17  C   UNL     3     -10.921  10.495  68.636  1.00  0.00    -0.294 A  
HETATM   18  C   UNL     3     -10.740   9.114  68.185  1.00  0.00    -0.186 C  
HETATM   19  C   UNL     3     -11.156   8.062  68.905  1.00  0.00     0.285 C  
HETATM   20 BR   UNL     3     -10.833   6.313  68.348  1.00  0.00    -0.409 Br 
HETATM   21  C   UNL     3     -11.839   8.283  70.220  1.00  0.00     0.206 C  
HETATM   22  O   UNL     3     -12.082   7.333  70.974  1.00  0.00    -0.321 OA 
HETATM   23  C   UNL     3     -12.161   9.691  70.604  1.00  0.00    -0.194 C  
HETATM   24  C   UNL     3     -11.708  10.724  69.856  1.00  0.00    -0.333 A  
HETATM   25 BR   UNL     3     -13.121   9.941  72.193  1.00  0.00    -0.439 Br 
HETATM   26  O   UNL     3     -11.949  12.019  70.281  1.00  0.00    -0.344 OA 
HETATM   27  C   UNL     3     -11.385  13.087  69.636  1.00  0.00    -0.106 A  
HETATM   28  C   UNL     3     -10.625  12.906  68.488  1.00  0.00    -0.270 A  
HETATM   29  C   UNL     3     -10.124  14.042  67.855  1.00  0.00    -0.237 C  
HETATM   30  C   UNL     3     -10.325  15.324  68.395  1.00  0.00    -0.227 C  
HETATM   31 BR   UNL     3      -9.535  16.757  67.388  1.00  0.00    -0.240 Br 
HETATM   32  C   UNL     3     -11.036  15.559  69.597  1.00  0.00    -0.279 C  
HETATM   33  C   UNL     3     -11.586  14.377  70.177  1.00  0.00    -0.265 C  
HETATM   34  O   UNL     3     -11.159  16.724  70.114  1.00  0.00    -0.228 OA 
HETATM   35 BR   UNL     3     -12.640  14.497  71.793  1.00  0.00    -0.432 Br 
ENDBRANCH  14  16
TORSDOF 1
ENDMDL
MODEL       22
REMARK 921   NORMALIZED FREE ENERGY PREDICTED BY IDOCK:   -6.06 KCAL/MOL
REMARK 922        TOTAL FREE ENERGY PREDICTED BY IDOCK:   -7.17 KCAL/MOL
REMARK 923 INTER-LIGAND FREE ENERGY PREDICTED BY IDOCK:   -6.34 KCAL/MOL
REMARK 924 INTRA-LIGAND FREE ENERGY PREDICTED BY IDOCK:   -0.83 KCAL/MOL
REMARK 927      BINDING AFFINITY PREDICTED BY RF-SCORE:    0.00 PKD
ROOT
HETATM    1 NA   UNL     1     -12.108  16.796  65.488  1.00  0.00     0.516 Na 
HETATM    2 NA   UNL     2     -13.487  12.146  64.154  1.00  0.00    -0.635 Na 
HETATM    3  O   UNL     3     -12.134  13.395  64.911  1.00  0.00    -0.356 OA 
HETATM    4  C   UNL     3     -11.092  13.900  65.457  1.00  0.00    -0.304 C  
HETATM    5  C   UNL     3      -9.950  12.996  65.841  1.00  0.00    -0.270 A  
HETATM    6  O   UNL     3     -11.007  15.157  65.650  1.00  0.00    -0.334 OA 
HETATM    7  C   UNL     3      -9.542  11.943  64.988  1.00  0.00    -0.091 A  
HETATM    8 CL   UNL     3     -10.324  11.700  63.441  1.00  0.00    -0.452 Cl 
HETATM    9  C   UNL     3      -8.478  11.083  65.348  1.00  0.00    -0.030 A  
HETATM   10 CL   UNL     3      -8.007   9.785  64.278  1.00  0.00    -0.135 Cl 
HETATM   11  C   UNL     3      -7.794  11.268  66.558  1.00  0.00    -0.133 A  
HETATM   12  C   UNL     3      -8.177  12.310  67.417  1.00  0.00    -0.178 A  
HETATM   13 CL   UNL     3      -6.474  10.217  66.988  1.00  0.00    -0.068 Cl 
HETATM   14  C   UNL     3      -9.253  13.170  67.073  1.00  0.00    -0.233 A  
HETATM   15 CL   UNL     3      -7.324  12.554  68.920  1.00  0.00    -0.067 Cl 
ENDROOT
BRANCH  14  16
HETATM   16  C   UNL     3      -9.687  14.215  68.062  1.00  0.00    -0.226 A  
HETATM   17  C   UNL     3      -9.202  15.486  67.992  1.00  0.00    -0.187 A  
HETATM   18  C   UNL     3      -8.208  15.874  66.991  1.00  0.00    -0.255 C  
HETATM   19  C   UNL     3      -7.826  17.147  66.811  1.00  0.00    -0.242 C  
HETATM   20 BR   UNL     3      -6.625  17.622  65.468  1.00  0.00     0.369 Br 
HETATM   21  C   UNL     3      -8.422  18.228  67.659  1.00  0.00    -0.255 C  
HETATM   22  O   UNL     3      -8.211  19.420  67.404  1.00  0.00    -0.276 OA 
HETATM   23  C   UNL     3      -9.316  17.814  68.782  1.00  0.00    -0.229 C  
HETATM   24  C   UNL     3      -9.688  16.519  68.917  1.00  0.00    -0.257 A  
HETATM   25 BR   UNL     3      -9.955  19.169  69.906  1.00  0.00     0.781 Br 
HETATM   26  O   UNL     3     -10.584  16.178  69.916  1.00  0.00    -0.301 OA 
HETATM   27  C   UNL     3     -11.098  14.911  69.994  1.00  0.00    -0.232 A  
HETATM   28  C   UNL     3     -10.671  13.912  69.129  1.00  0.00    -0.175 A  
HETATM   29  C   UNL     3     -11.199  12.634  69.300  1.00  0.00    -0.255 C  
HETATM   30  C   UNL     3     -12.180  12.377  70.273  1.00  0.00    -0.267 C  
HETATM   31 BR   UNL     3     -12.799  10.559  70.334  1.00  0.00    -0.172 Br 
HETATM   32  C   UNL     3     -12.698  13.372  71.138  1.00  0.00    -0.328 C  
HETATM   33  C   UNL     3     -12.085  14.649  70.972  1.00  0.00    -0.329 C  
HETATM   34  O   UNL     3     -13.638  13.142  71.976  1.00  0.00    -0.475 OA 
HETATM   35 BR   UNL     3     -12.615  16.127  72.100  1.00  0.00    -0.254 Br 
ENDBRANCH  14  16
TORSDOF 1
ENDMDL
MODEL       23
REMARK 921   NORMALIZED FREE ENERGY PREDICTED BY IDOCK:   -6.05 KCAL/MOL
REMARK 922        TOTAL FREE ENERGY PREDICTED BY IDOCK:   -7.16 KCAL/MOL
REMARK 923 INTER-LIGAND FREE ENERGY PREDICTED BY IDOCK:   -6.15 KCAL/MOL
REMARK 924 INTRA-LIGAND FREE ENERGY PREDICTED BY IDOCK:   -1.00 KCAL/MOL
REMARK 927      BINDING AFFINITY PREDICTED BY RF-SCORE:    0.00 PKD
ROOT
HETATM    1 NA   UNL     1     -10.740   9.785  65.011  1.00  0.00    -0.275 Na 
HETATM    2 NA   UNL     2     -11.877   4.997  66.053  1.00  0.00    -0.527 Na 
HETATM    3  O   UNL     3     -10.744   6.607  66.352  1.00  0.00    -0.065 OA 
HETATM    4  C   UNL     3      -9.880   7.441  66.796  1.00  0.00    -0.220 C  
HETATM    5  C   UNL     3      -8.934   7.012  67.887  1.00  0.00    -0.122 A  
HETATM    6  O   UNL     3      -9.801   8.613  66.304  1.00  0.00    -0.267 OA 
HETATM    7  C   UNL     3      -8.344   5.725  67.868  1.00  0.00    -0.104 A  
HETATM    8 CL   UNL     3      -8.663   4.621  66.548  1.00  0.00    -0.112 Cl 
HETATM    9  C   UNL     3      -7.464   5.311  68.895  1.00  0.00    -0.074 A  
HETATM   10 CL   UNL     3      -6.763   3.712  68.849  1.00  0.00    -0.044 Cl 
HETATM   11  C   UNL     3      -7.146   6.179  69.950  1.00  0.00    -0.072 A  
HETATM   12  C   UNL     3      -7.714   7.462  69.986  1.00  0.00    -0.095 A  
HETATM   13 CL   UNL     3      -6.048   5.670  71.203  1.00  0.00    -0.032 Cl 
HETATM   14  C   UNL     3      -8.610   7.883  68.968  1.00  0.00    -0.135 A  
HETATM   15 CL   UNL     3      -7.315   8.552  71.288  1.00  0.00    -0.082 Cl 
ENDROOT
BRANCH  14  16
HETATM   16  C   UNL     3      -9.263   9.231  69.093  1.00  0.00    -0.149 A  
HETATM   17  C   UNL     3     -10.440   9.376  69.763  1.00  0.00    -0.243 A  
HETATM   18  C   UNL     3     -11.139   8.230  70.345  1.00  0.00    -0.238 C  
HETATM   19  C   UNL     3     -12.217   8.367  71.131  1.00  0.00    -0.226 C  
HETATM   20 BR   UNL     3     -13.032   6.894  71.930  1.00  0.00    -0.170 Br 
HETATM   21  C   UNL     3     -12.747   9.735  71.433  1.00  0.00    -0.387 C  
HETATM   22  O   UNL     3     -13.633   9.896  72.281  1.00  0.00    -0.402 OA 
HETATM   23  C   UNL     3     -12.130  10.890  70.715  1.00  0.00    -0.368 C  
HETATM   24  C   UNL     3     -11.033  10.709  69.943  1.00  0.00    -0.274 A  
HETATM   25 BR   UNL     3     -12.885  12.579  71.013  1.00  0.00    -0.150 Br 
HETATM   26  O   UNL     3     -10.432  11.811  69.358  1.00  0.00    -0.030 OA 
HETATM   27  C   UNL     3      -9.241  11.690  68.693  1.00  0.00    -0.108 A  
HETATM   28  C   UNL     3      -8.646  10.448  68.515  1.00  0.00    -0.134 A  
HETATM   29  C   UNL     3      -7.460  10.395  67.785  1.00  0.00    -0.088 C  
HETATM   30  C   UNL     3      -6.851  11.565  67.300  1.00  0.00    -0.118 C  
HETATM   31 BR   UNL     3      -5.210  11.283  66.340  1.00  0.00    -0.119 Br 
HETATM   32  C   UNL     3      -7.381  12.862  67.509  1.00  0.00    -0.154 C  
HETATM   33  C   UNL     3      -8.627  12.865  68.205  1.00  0.00    -0.188 C  
HETATM   34  O   UNL     3      -6.785  13.926  67.119  1.00  0.00    -0.164 OA 
HETATM   35 BR   UNL     3      -9.540  14.536  68.538  1.00  0.00    -0.220 Br 
ENDBRANCH  14  16
TORSDOF 1
ENDMDL
MODEL       24
REMARK 921   NORMALIZED FREE ENERGY PREDICTED BY IDOCK:   -5.97 KCAL/MOL
REMARK 922        TOTAL FREE ENERGY PREDICTED BY IDOCK:   -7.07 KCAL/MOL
REMARK 923 INTER-LIGAND FREE ENERGY PREDICTED BY IDOCK:   -6.18 KCAL/MOL
REMARK 924 INTRA-LIGAND FREE ENERGY PREDICTED BY IDOCK:   -0.89 KCAL/MOL
REMARK 927      BINDING AFFINITY PREDICTED BY RF-SCORE:    0.00 PKD
ROOT
HETATM    1 NA   UNL     1      -6.056   8.149  66.344  1.00  0.00    -0.037 Na 
HETATM    2 NA   UNL     2      -6.317  11.552  62.649  1.00  0.00    -0.331 Na 
HETATM    3  O   UNL     3      -7.110  10.685  64.257  1.00  0.00     0.052 OA 
HETATM    4  C   UNL     3      -7.858  10.380  65.249  1.00  0.00    -0.137 C  
HETATM    5  C   UNL     3      -9.135  11.147  65.473  1.00  0.00    -0.211 A  
HETATM    6  O   UNL     3      -7.544   9.419  66.025  1.00  0.00    -0.097 OA 
HETATM    7  C   UNL     3      -9.963  11.507  64.383  1.00  0.00    -0.269 A  
HETATM    8 CL   UNL     3      -9.546  11.025  62.753  1.00  0.00    -0.337 Cl 
HETATM    9  C   UNL     3     -11.158  12.237  64.585  1.00  0.00    -0.313 A  
HETATM   10 CL   UNL     3     -12.151  12.678  63.217  1.00  0.00    -0.586 Cl 
HETATM   11  C   UNL     3     -11.554  12.607  65.879  1.00  0.00    -0.396 A  
HETATM   12  C   UNL     3     -10.752  12.255  66.975  1.00  0.00    -0.231 A  
HETATM   13 CL   UNL     3     -13.034  13.492  66.123  1.00  0.00    -0.065 Cl 
HETATM   14  C   UNL     3      -9.543  11.535  66.783  1.00  0.00    -0.203 A  
HETATM   15 CL   UNL     3     -11.242  12.701  68.589  1.00  0.00    -0.298 Cl 
ENDROOT
BRANCH  14  16
HETATM   16  C   UNL     3      -8.671  11.256  67.975  1.00  0.00    -0.144 A  
HETATM   17  C   UNL     3      -7.755  12.170  68.398  1.00  0.00    -0.134 A  
HETATM   18  C   UNL     3      -7.546  13.433  67.689  1.00  0.00    -0.177 C  
HETATM   19  C   UNL     3      -6.758  14.406  68.168  1.00  0.00    -0.127 C  
HETATM   20 BR   UNL     3      -6.582  16.039  67.287  1.00  0.00    -0.179 Br 
HETATM   21  C   UNL     3      -6.049  14.213  69.474  1.00  0.00    -0.113 C  
HETATM   22  O   UNL     3      -5.452  15.153  70.013  1.00  0.00    -0.108 OA 
HETATM   23  C   UNL     3      -6.138  12.868  70.117  1.00  0.00    -0.092 C  
HETATM   24  C   UNL     3      -6.959  11.920  69.608  1.00  0.00     0.136 A  
HETATM   25 BR   UNL     3      -5.148  12.608  71.686  1.00  0.00    -0.047 Br 
HETATM   26  O   UNL     3      -7.085  10.712  70.273  1.00  0.00    -0.230 OA 
HETATM   27  C   UNL     3      -8.012   9.785  69.875  1.00  0.00    -0.175 A  
HETATM   28  C   UNL     3      -8.790   9.994  68.744  1.00  0.00    -0.137 A  
HETATM   29  C   UNL     3      -9.676   8.986  68.369  1.00  0.00    -0.170 C  
HETATM   30  C   UNL     3      -9.825   7.824  69.146  1.00  0.00    -0.173 C  
HETATM   31 BR   UNL     3     -11.113   6.565  68.476  1.00  0.00    -0.301 Br 
HETATM   32  C   UNL     3      -9.105   7.589  70.343  1.00  0.00    -0.153 C  
HETATM   33  C   UNL     3      -8.164   8.616  70.654  1.00  0.00    -0.137 C  
HETATM   34  O   UNL     3      -9.295   6.557  71.077  1.00  0.00    -0.160 OA 
HETATM   35 BR   UNL     3      -7.042   8.452  72.220  1.00  0.00    -0.099 Br 
ENDBRANCH  14  16
TORSDOF 1
ENDMDL
MODEL       25
REMARK 921   NORMALIZED FREE ENERGY PREDICTED BY IDOCK:   -5.96 KCAL/MOL
REMARK 922        TOTAL FREE ENERGY PREDICTED BY IDOCK:   -7.06 KCAL/MOL
REMARK 923 INTER-LIGAND FREE ENERGY PREDICTED BY IDOCK:   -6.62 KCAL/MOL
REMARK 924 INTRA-LIGAND FREE ENERGY PREDICTED BY IDOCK:   -0.44 KCAL/MOL
REMARK 927      BINDING AFFINITY PREDICTED BY RF-SCORE:    0.00 PKD
ROOT
HETATM    1 NA   UNL     1      -5.679  12.311  68.499  1.00  0.00    -0.052 Na 
HETATM    2 NA   UNL     2      -5.486   7.495  69.935  1.00  0.00    -0.020 Na 
HETATM    3  O   UNL     3      -6.495   9.200  69.747  1.00  0.00    -0.038 OA 
HETATM    4  C   UNL     3      -7.407  10.098  69.739  1.00  0.00    -0.158 C  
HETATM    5  C   UNL     3      -8.784   9.754  70.244  1.00  0.00    -0.172 A  
HETATM    6  O   UNL     3      -7.150  11.279  69.335  1.00  0.00    -0.119 OA 
HETATM    7  C   UNL     3      -8.952   8.957  71.402  1.00  0.00    -0.229 A  
HETATM    8 CL   UNL     3      -7.561   8.394  72.302  1.00  0.00    -0.155 Cl 
HETATM    9  C   UNL     3     -10.242   8.620  71.874  1.00  0.00    -0.334 A  
HETATM   10 CL   UNL     3     -10.414   7.624  73.298  1.00  0.00    -0.420 Cl 
HETATM   11  C   UNL     3     -11.385   9.086  71.210  1.00  0.00    -0.319 A  
HETATM   12  C   UNL     3     -11.243   9.883  70.063  1.00  0.00    -0.276 A  
HETATM   13 CL   UNL     3     -12.971   8.682  71.806  1.00  0.00    -0.369 Cl 
HETATM   14  C   UNL     3      -9.954  10.215  69.571  1.00  0.00    -0.257 A  
HETATM   15 CL   UNL     3     -12.661  10.475  69.236  1.00  0.00     0.209 Cl 
ENDROOT
BRANCH  14  16
HETATM   16  C   UNL     3      -9.848  10.996  68.292  1.00  0.00    -0.185 A  
HETATM   17  C   UNL     3      -9.458  10.392  67.135  1.00  0.00    -0.183 A  
HETATM   18  C   UNL     3      -9.082   8.978  67.097  1.00  0.00    -0.158 C  
HETATM   19  C   UNL     3      -8.838   8.329  65.949  1.00  0.00    -0.160 C  
HETATM   20 BR   UNL     3      -8.449   6.506  65.926  1.00  0.00    -0.152 Br 
HETATM   21  C   UNL     3      -8.941   9.059  64.645  1.00  0.00    -0.061 C  
HETATM   22  O   UNL     3      -8.883   8.447  63.572  1.00  0.00     0.150 OA 
HETATM   23  C   UNL     3      -9.171  10.534  64.695  1.00  0.00    -0.235 C  
HETATM   24  C   UNL     3      -9.430  11.147  65.874  1.00  0.00    -0.215 A  
HETATM   25 BR   UNL     3      -9.178  11.450  63.061  1.00  0.00    -0.221 Br 
HETATM   26  O   UNL     3      -9.722  12.500  65.880  1.00  0.00    -0.256 OA 
HETATM   27  C   UNL     3     -10.131  13.125  67.028  1.00  0.00    -0.241 A  
HETATM   28  C   UNL     3     -10.183  12.439  68.234  1.00  0.00    -0.230 A  
HETATM   29  C   UNL     3     -10.560  13.152  69.371  1.00  0.00     0.218 C  
HETATM   30  C   UNL     3     -10.939  14.503  69.290  1.00  0.00    -0.260 C  
HETATM   31 BR   UNL     3     -11.449  15.300  70.962  1.00  0.00    -0.421 Br 
HETATM   32  C   UNL     3     -10.967  15.232  68.076  1.00  0.00    -0.299 C  
HETATM   33  C   UNL     3     -10.513  14.483  66.949  1.00  0.00    -0.269 C  
HETATM   34  O   UNL     3     -11.375  16.443  68.003  1.00  0.00    -0.288 OA 
HETATM   35 BR   UNL     3     -10.423  15.321  65.209  1.00  0.00    -0.443 Br 
ENDBRANCH  14  16
TORSDOF 1
ENDMDL
MODEL       26
REMARK 921   NORMALIZED FREE ENERGY PREDICTED BY IDOCK:   -5.95 KCAL/MOL
REMARK 922        TOTAL FREE ENERGY PREDICTED BY IDOCK:   -7.05 KCAL/MOL
REMARK 923 INTER-LIGAND FREE ENERGY PREDICTED BY IDOCK:   -6.11 KCAL/MOL
REMARK 924 INTRA-LIGAND FREE ENERGY PREDICTED BY IDOCK:   -0.94 KCAL/MOL
REMARK 927      BINDING AFFINITY PREDICTED BY RF-SCORE:    0.00 PKD
ROOT
HETATM    1 NA   UNL     1      -7.068  11.520  70.003  1.00  0.00    -0.169 Na 
HETATM    2 NA   UNL     2      -5.219   7.131  71.618  1.00  0.00    -0.024 Na 
HETATM    3  O   UNL     3      -6.771   8.332  71.286  1.00  0.00    -0.043 OA 
HETATM    4  C   UNL     3      -7.948   8.822  71.170  1.00  0.00    -0.138 C  
HETATM    5  C   UNL     3      -9.136   7.986  71.569  1.00  0.00    -0.182 A  
HETATM    6  O   UNL     3      -8.115  10.012  70.748  1.00  0.00    -0.105 OA 
HETATM    7  C   UNL     3      -9.098   7.185  72.736  1.00  0.00    -0.138 A  
HETATM    8 CL   UNL     3      -7.685   7.187  73.769  1.00  0.00    -0.117 Cl 
HETATM    9  C   UNL     3     -10.206   6.389  73.110  1.00  0.00    -0.205 A  
HETATM   10 CL   UNL     3     -10.122   5.401  74.548  1.00  0.00    -0.264 Cl 
HETATM   11  C   UNL     3     -11.375   6.390  72.336  1.00  0.00    -0.287 A  
HETATM   12  C   UNL     3     -11.438   7.181  71.178  1.00  0.00    -0.290 A  
HETATM   13 CL   UNL     3     -12.742   5.421  72.811  1.00  0.00     0.304 Cl 
HETATM   14  C   UNL     3     -10.327   7.973  70.785  1.00  0.00    -0.214 A  
HETATM   15 CL   UNL     3     -12.892   7.197  70.215  1.00  0.00     0.320 Cl 
ENDROOT
BRANCH  14  16
HETATM   16  C   UNL     3     -10.405   8.736  69.492  1.00  0.00    -0.213 A  
HETATM   17  C   UNL     3     -11.054   9.931  69.426  1.00  0.00    -0.237 A  
HETATM   18  C   UNL     3     -11.739  10.498  70.588  1.00  0.00    -0.453 C  
HETATM   19  C   UNL     3     -12.257  11.735  70.586  1.00  0.00    -0.349 C  
HETATM   20 BR   UNL     3     -13.046  12.463  72.109  1.00  0.00    -0.271 Br 
HETATM   21  C   UNL     3     -12.147  12.585  69.356  1.00  0.00    -0.180 C  
HETATM   22  O   UNL     3     -12.467  13.779  69.383  1.00  0.00    -0.255 OA 
HETATM   23  C   UNL     3     -11.588  11.951  68.125  1.00  0.00    -0.334 C  
HETATM   24  C   UNL     3     -11.061  10.705  68.176  1.00  0.00    -0.285 A  
HETATM   25 BR   UNL     3     -11.569  12.990  66.567  1.00  0.00    -0.432 Br 
HETATM   26  O   UNL     3     -10.474  10.175  67.040  1.00  0.00    -0.232 OA 
HETATM   27  C   UNL     3      -9.802   8.983  67.087  1.00  0.00    -0.203 A  
HETATM   28  C   UNL     3      -9.764   8.232  68.254  1.00  0.00    -0.173 A  
HETATM   29  C   UNL     3      -9.105   7.004  68.216  1.00  0.00    -0.126 C  
HETATM   30  C   UNL     3      -8.445   6.570  67.054  1.00  0.00    -0.113 C  
HETATM   31 BR   UNL     3      -7.575   4.863  67.209  1.00  0.00    -0.087 Br 
HETATM   32  C   UNL     3      -8.397   7.326  65.857  1.00  0.00    -0.144 C  
HETATM   33  C   UNL     3      -9.137   8.544  65.920  1.00  0.00    -0.183 C  
HETATM   34  O   UNL     3      -7.739   6.950  64.824  1.00  0.00    -0.100 OA 
HETATM   35 BR   UNL     3      -9.242   9.690  64.367  1.00  0.00    -0.190 Br 
ENDBRANCH  14  16
TORSDOF 1
ENDMDL
MODEL       27
REMARK 921   NORMALIZED FREE ENERGY PREDICTED BY IDOCK:   -5.89 KCAL/MOL
REMARK 922        TOTAL FREE ENERGY PREDICTED BY IDOCK:   -6.99 KCAL/MOL
REMARK 923 INTER-LIGAND FREE ENERGY PREDICTED BY IDOCK:   -5.95 KCAL/MOL
REMARK 924 INTRA-LIGAND FREE ENERGY PREDICTED BY IDOCK:   -1.04 KCAL/MOL
REMARK 927      BINDING AFFINITY PREDICTED BY RF-SCORE:    0.00 PKD
ROOT
HETATM    1 NA   UNL     1      -6.975   8.965  73.057  1.00  0.00    -0.111 Na 
HETATM    2 NA   UNL     2      -6.109  13.121  70.360  1.00  0.00    -0.112 Na 
HETATM    3  O   UNL     3      -6.658  11.211  70.457  1.00  0.00    -0.273 OA 
HETATM    4  C   UNL     3      -7.079  10.033  70.181  1.00  0.00    -0.154 C  
HETATM    5  C   UNL     3      -7.435   9.693  68.758  1.00  0.00    -0.075 A  
HETATM    6  O   UNL     3      -7.169   9.148  71.093  1.00  0.00    -0.138 OA 
HETATM    7  C   UNL     3      -6.632  10.145  67.683  1.00  0.00    -0.067 A  
HETATM    8 CL   UNL     3      -5.177  11.067  67.988  1.00  0.00    -0.039 Cl 
HETATM    9  C   UNL     3      -6.968   9.839  66.343  1.00  0.00    -0.093 A  
HETATM   10 CL   UNL     3      -5.964  10.423  65.039  1.00  0.00    -0.133 Cl 
HETATM   11  C   UNL     3      -8.101   9.065  66.054  1.00  0.00    -0.111 A  
HETATM   12  C   UNL     3      -8.909   8.602  67.104  1.00  0.00    -0.129 A  
HETATM   13 CL   UNL     3      -8.501   8.678  64.403  1.00  0.00    -0.147 Cl 
HETATM   14  C   UNL     3      -8.590   8.914  68.452  1.00  0.00    -0.134 A  
HETATM   15 CL   UNL     3     -10.315   7.629  66.754  1.00  0.00    -0.367 Cl 
ENDROOT
BRANCH  14  16
HETATM   16  C   UNL     3      -9.530   8.472  69.538  1.00  0.00    -0.165 A  
HETATM   17  C   UNL     3     -10.469   9.323  70.037  1.00  0.00    -0.254 A  
HETATM   18  C   UNL     3     -10.572  10.709  69.576  1.00  0.00    -0.265 C  
HETATM   19  C   UNL     3     -11.576  11.517  69.945  1.00  0.00    -0.308 C  
HETATM   20 BR   UNL     3     -11.729  13.248  69.272  1.00  0.00    -0.393 Br 
HETATM   21  C   UNL     3     -12.640  11.007  70.868  1.00  0.00    -0.391 C  
HETATM   22  O   UNL     3     -13.657  11.675  71.089  1.00  0.00     0.346 OA 
HETATM   23  C   UNL     3     -12.451   9.649  71.459  1.00  0.00    -0.386 C  
HETATM   24  C   UNL     3     -11.432   8.860  71.046  1.00  0.00    -0.294 A  
HETATM   25 BR   UNL     3     -13.729   9.076  72.703  1.00  0.00    -0.306 Br 
HETATM   26  O   UNL     3     -11.329   7.574  71.550  1.00  0.00    -0.248 OA 
HETATM   27  C   UNL     3     -10.404   6.696  71.051  1.00  0.00    -0.207 A  
HETATM   28  C   UNL     3      -9.487   7.096  70.088  1.00  0.00    -0.161 A  
HETATM   29  C   UNL     3      -8.542   6.165  69.663  1.00  0.00    -0.128 C  
HETATM   30  C   UNL     3      -8.555   4.845  70.145  1.00  0.00    -0.091 C  
HETATM   31 BR   UNL     3      -7.187   3.707  69.420  1.00  0.00    -0.049 Br 
HETATM   32  C   UNL     3      -9.507   4.366  71.078  1.00  0.00    -0.162 C  
HETATM   33  C   UNL     3     -10.415   5.368  71.533  1.00  0.00    -0.223 C  
HETATM   34  O   UNL     3      -9.551   3.145  71.461  1.00  0.00    -0.138 OA 
HETATM   35 BR   UNL     3     -11.756   4.925  72.854  1.00  0.00    -0.045 Br 
ENDBRANCH  14  16
TORSDOF 1
ENDMDL
MODEL       28
REMARK 921   NORMALIZED FREE ENERGY PREDICTED BY IDOCK:   -5.88 KCAL/MOL
REMARK 922        TOTAL FREE ENERGY PREDICTED BY IDOCK:   -6.98 KCAL/MOL
REMARK 923 INTER-LIGAND FREE ENERGY PREDICTED BY IDOCK:   -6.53 KCAL/MOL
REMARK 924 INTRA-LIGAND FREE ENERGY PREDICTED BY IDOCK:   -0.45 KCAL/MOL
REMARK 927      BINDING AFFINITY PREDICTED BY RF-SCORE:    0.00 PKD
ROOT
HETATM    1 NA   UNL     1     -13.627  14.337  66.908  1.00  0.00    -0.198 Na 
HETATM    2 NA   UNL     2     -10.558  16.113  63.341  1.00  0.00    -0.089 Na 
HETATM    3  O   UNL     3     -10.858  15.500  65.211  1.00  0.00    -0.366 OA 
HETATM    4  C   UNL     3     -10.705  15.146  66.432  1.00  0.00    -0.317 C  
HETATM    5  C   UNL     3      -9.337  15.229  67.057  1.00  0.00    -0.238 A  
HETATM    6  O   UNL     3     -11.702  14.755  67.122  1.00  0.00    -0.376 OA 
HETATM    7  C   UNL     3      -8.491  16.334  66.803  1.00  0.00    -0.247 A  
HETATM    8 CL   UNL     3      -9.036  17.657  65.794  1.00  0.00     0.124 Cl 
HETATM    9  C   UNL     3      -7.201  16.412  67.377  1.00  0.00    -0.160 A  
HETATM   10 CL   UNL     3      -6.176  17.784  67.032  1.00  0.00    -0.176 Cl 
HETATM   11  C   UNL     3      -6.739  15.397  68.226  1.00  0.00    -0.119 A  
HETATM   12  C   UNL     3      -7.563  14.294  68.498  1.00  0.00    -0.127 A  
HETATM   13 CL   UNL     3      -5.156  15.506  68.944  1.00  0.00    -0.098 Cl 
HETATM   14  C   UNL     3      -8.855  14.198  67.916  1.00  0.00    -0.182 A  
HETATM   15 CL   UNL     3      -7.002  13.031  69.563  1.00  0.00     0.095 Cl 
ENDROOT
BRANCH  14  16
HETATM   16  C   UNL     3      -9.668  12.959  68.163  1.00  0.00    -0.227 A  
HETATM   17  C   UNL     3      -9.436  11.819  67.455  1.00  0.00    -0.174 A  
HETATM   18  C   UNL     3      -8.426  11.764  66.398  1.00  0.00    -0.081 C  
HETATM   19  C   UNL     3      -8.080  10.619  65.791  1.00  0.00    -0.158 C  
HETATM   20 BR   UNL     3      -6.726  10.567  64.511  1.00  0.00     0.161 Br 
HETATM   21  C   UNL     3      -8.744   9.337  66.189  1.00  0.00    -0.149 C  
HETATM   22  O   UNL     3      -8.329   8.252  65.764  1.00  0.00    -0.121 OA 
HETATM   23  C   UNL     3      -9.882   9.417  67.154  1.00  0.00    -0.187 C  
HETATM   24  C   UNL     3     -10.186  10.591  67.755  1.00  0.00    -0.190 A  
HETATM   25 BR   UNL     3     -10.777   7.820  67.548  1.00  0.00    -0.203 Br 
HETATM   26  O   UNL     3     -11.191  10.618  68.708  1.00  0.00    -0.244 OA 
HETATM   27  C   UNL     3     -11.430  11.748  69.443  1.00  0.00    -0.307 A  
HETATM   28  C   UNL     3     -10.732  12.923  69.195  1.00  0.00    -0.060 A  
HETATM   29  C   UNL     3     -11.064  14.047  69.948  1.00  0.00    -0.040 C  
HETATM   30  C   UNL     3     -12.028  13.981  70.968  1.00  0.00    -0.233 C  
HETATM   31 BR   UNL     3     -12.325  15.631  71.907  1.00  0.00    -0.559 Br 
HETATM   32  C   UNL     3     -12.723  12.794  71.306  1.00  0.00    -0.269 C  
HETATM   33  C   UNL     3     -12.399  11.684  70.470  1.00  0.00    -0.321 C  
HETATM   34  O   UNL     3     -13.552  12.728  72.280  1.00  0.00    -0.556 OA 
HETATM   35 BR   UNL     3     -13.286   9.987  70.735  1.00  0.00    -0.134 Br 
ENDBRANCH  14  16
TORSDOF 1
ENDMDL
MODEL       29
REMARK 921   NORMALIZED FREE ENERGY PREDICTED BY IDOCK:   -5.81 KCAL/MOL
REMARK 922        TOTAL FREE ENERGY PREDICTED BY IDOCK:   -6.90 KCAL/MOL
REMARK 923 INTER-LIGAND FREE ENERGY PREDICTED BY IDOCK:   -6.04 KCAL/MOL
REMARK 924 INTRA-LIGAND FREE ENERGY PREDICTED BY IDOCK:   -0.86 KCAL/MOL
REMARK 927      BINDING AFFINITY PREDICTED BY RF-SCORE:    0.00 PKD
ROOT
HETATM    1 NA   UNL     1      -6.197   9.888  70.124  1.00  0.00    -0.039 Na 
HETATM    2 NA   UNL     2      -5.498  11.226  65.326  1.00  0.00    -0.133 Na 
HETATM    3  O   UNL     3      -6.164   9.922  66.674  1.00  0.00    -0.065 OA 
HETATM    4  C   UNL     3      -6.713   8.922  67.256  1.00  0.00    -0.066 C  
HETATM    5  C   UNL     3      -7.333   7.833  66.420  1.00  0.00    -0.079 A  
HETATM    6  O   UNL     3      -6.711   8.833  68.527  1.00  0.00    -0.058 OA 
HETATM    7  C   UNL     3      -6.695   7.371  65.244  1.00  0.00    -0.047 A  
HETATM    8 CL   UNL     3      -5.144   8.022  64.761  1.00  0.00    -0.032 Cl 
HETATM    9  C   UNL     3      -7.278   6.357  64.449  1.00  0.00    -0.065 A  
HETATM   10 CL   UNL     3      -6.472   5.819  62.996  1.00  0.00    -0.028 Cl 
HETATM   11  C   UNL     3      -8.499   5.776  64.821  1.00  0.00    -0.079 A  
HETATM   12  C   UNL     3      -9.146   6.214  65.987  1.00  0.00    -0.121 A  
HETATM   13 CL   UNL     3      -9.203   4.516  63.847  1.00  0.00    -0.132 Cl 
HETATM   14  C   UNL     3      -8.578   7.242  66.785  1.00  0.00    -0.127 A  
HETATM   15 CL   UNL     3     -10.660   5.489  66.464  1.00  0.00    -0.352 Cl 
ENDROOT
BRANCH  14  16
HETATM   16  C   UNL     3      -9.348   7.741  67.976  1.00  0.00    -0.146 A  
HETATM   17  C   UNL     3      -9.352   7.044  69.146  1.00  0.00    -0.140 A  
HETATM   18  C   UNL     3      -8.654   5.765  69.280  1.00  0.00    -0.111 C  
HETATM   19  C   UNL     3      -8.523   5.137  70.458  1.00  0.00    -0.111 C  
HETATM   20 BR   UNL     3      -7.552   3.554  70.614  1.00  0.00    -0.040 Br 
HETATM   21  C   UNL     3      -9.111   5.745  71.694  1.00  0.00    -0.143 C  
HETATM   22  O   UNL     3      -8.863   5.272  72.810  1.00  0.00    -0.122 OA 
HETATM   23  C   UNL     3      -9.955   6.966  71.531  1.00  0.00    -0.177 C  
HETATM   24  C   UNL     3     -10.046   7.578  70.327  1.00  0.00    -0.194 A  
HETATM   25 BR   UNL     3     -10.780   7.643  73.070  1.00  0.00    -0.444 Br 
HETATM   26  O   UNL     3     -10.767   8.756  70.223  1.00  0.00    -0.217 OA 
HETATM   27  C   UNL     3     -10.763   9.481  69.061  1.00  0.00    -0.202 A  
HETATM   28  C   UNL     3     -10.107   9.013  67.930  1.00  0.00    -0.246 A  
HETATM   29  C   UNL     3     -10.188   9.779  66.769  1.00  0.00    -0.300 C  
HETATM   30  C   UNL     3     -10.855  11.016  66.759  1.00  0.00    -0.251 C  
HETATM   31 BR   UNL     3     -10.834  11.931  65.069  1.00  0.00    -0.362 Br 
HETATM   32  C   UNL     3     -11.485  11.570  67.900  1.00  0.00    -0.301 C  
HETATM   33  C   UNL     3     -11.433  10.725  69.048  1.00  0.00    -0.298 C  
HETATM   34  O   UNL     3     -12.035  12.727  67.897  1.00  0.00    -0.346 OA 
HETATM   35 BR   UNL     3     -12.287  11.279  70.692  1.00  0.00    -0.467 Br 
ENDBRANCH  14  16
TORSDOF 1
ENDMDL
MODEL       30
REMARK 921   NORMALIZED FREE ENERGY PREDICTED BY IDOCK:   -5.81 KCAL/MOL
REMARK 922        TOTAL FREE ENERGY PREDICTED BY IDOCK:   -6.90 KCAL/MOL
REMARK 923 INTER-LIGAND FREE ENERGY PREDICTED BY IDOCK:   -6.49 KCAL/MOL
REMARK 924 INTRA-LIGAND FREE ENERGY PREDICTED BY IDOCK:   -0.40 KCAL/MOL
REMARK 927      BINDING AFFINITY PREDICTED BY RF-SCORE:    0.00 PKD
ROOT
HETATM    1 NA   UNL     1     -12.264   6.716  66.665  1.00  0.00    -0.597 Na 
HETATM    2 NA   UNL     2      -7.943   5.300  64.515  1.00  0.00    -0.078 Na 
HETATM    3  O   UNL     3      -8.984   6.601  65.605  1.00  0.00    -0.093 OA 
HETATM    4  C   UNL     3      -9.339   7.586  66.342  1.00  0.00    -0.157 C  
HETATM    5  C   UNL     3      -8.317   8.623  66.728  1.00  0.00    -0.108 A  
HETATM    6  O   UNL     3     -10.549   7.706  66.722  1.00  0.00    -0.325 OA 
HETATM    7  C   UNL     3      -7.366   9.088  65.788  1.00  0.00    -0.089 A  
HETATM    8 CL   UNL     3      -7.389   8.504  64.138  1.00  0.00    -0.099 Cl 
HETATM    9  C   UNL     3      -6.397  10.053  66.148  1.00  0.00    -0.081 A  
HETATM   10 CL   UNL     3      -5.229  10.596  64.968  1.00  0.00    -0.143 Cl 
HETATM   11  C   UNL     3      -6.368  10.581  67.447  1.00  0.00    -0.058 A  
HETATM   12  C   UNL     3      -7.305  10.139  68.394  1.00  0.00    -0.081 A  
HETATM   13 CL   UNL     3      -5.182  11.781  67.880  1.00  0.00    -0.048 Cl 
HETATM   14  C   UNL     3      -8.274   9.160  68.049  1.00  0.00    -0.112 A  
HETATM   15 CL   UNL     3      -7.284  10.799  70.009  1.00  0.00    -0.072 Cl 
ENDROOT
BRANCH  14  16
HETATM   16  C   UNL     3      -9.200   8.652  69.117  1.00  0.00    -0.152 A  
HETATM   17  C   UNL     3      -9.039   7.407  69.645  1.00  0.00    -0.140 A  
HETATM   18  C   UNL     3      -7.996   6.499  69.167  1.00  0.00    -0.111 C  
HETATM   19  C   UNL     3      -7.726   5.331  69.768  1.00  0.00    -0.073 C  
HETATM   20 BR   UNL     3      -6.333   4.237  69.190  1.00  0.00    -0.033 Br 
HETATM   21  C   UNL     3      -8.514   4.916  70.974  1.00  0.00    -0.116 C  
HETATM   22  O   UNL     3      -8.177   3.930  71.640  1.00  0.00    -0.075 OA 
HETATM   23  C   UNL     3      -9.677   5.767  71.366  1.00  0.00    -0.167 C  
HETATM   24  C   UNL     3      -9.903   6.946  70.742  1.00  0.00    -0.182 A  
HETATM   25 BR   UNL     3     -10.722   5.170  72.801  1.00  0.00    -0.316 Br 
HETATM   26  O   UNL     3     -10.939   7.754  71.182  1.00  0.00    -0.234 OA 
HETATM   27  C   UNL     3     -11.109   9.015  70.677  1.00  0.00    -0.265 A  
HETATM   28  C   UNL     3     -10.303   9.487  69.649  1.00  0.00    -0.236 A  
HETATM   29  C   UNL     3     -10.566  10.761  69.150  1.00  0.00    -0.254 C  
HETATM   30  C   UNL     3     -11.572  11.568  69.709  1.00  0.00    -0.326 C  
HETATM   31 BR   UNL     3     -11.763  13.299  68.898  1.00  0.00    -0.384 Br 
HETATM   32  C   UNL     3     -12.380  11.161  70.800  1.00  0.00    -0.406 C  
HETATM   33  C   UNL     3     -12.120   9.828  71.238  1.00  0.00    -0.382 C  
HETATM   34  O   UNL     3     -13.249  11.928  71.344  1.00  0.00    -0.290 OA 
HETATM   35 BR   UNL     3     -13.159   9.068  72.679  1.00  0.00    -0.211 Br 
ENDBRANCH  14  16
TORSDOF 1
ENDMDL
MODEL       31
REMARK 921   NORMALIZED FREE ENERGY PREDICTED BY IDOCK:   -5.79 KCAL/MOL
REMARK 922        TOTAL FREE ENERGY PREDICTED BY IDOCK:   -6.88 KCAL/MOL
REMARK 923 INTER-LIGAND FREE ENERGY PREDICTED BY IDOCK:   -6.84 KCAL/MOL
REMARK 924 INTRA-LIGAND FREE ENERGY PREDICTED BY IDOCK:   -0.04 KCAL/MOL
REMARK 927      BINDING AFFINITY PREDICTED BY RF-SCORE:    0.00 PKD
ROOT
HETATM    1 NA   UNL     1      -6.442  11.065  68.578  1.00  0.00    -0.051 Na 
HETATM    2 NA   UNL     2      -5.136   9.535  63.968  1.00  0.00    -0.051 Na 
HETATM    3  O   UNL     3      -6.170   9.265  65.648  1.00  0.00    -0.061 OA 
HETATM    4  C   UNL     3      -6.970   8.826  66.546  1.00  0.00    -0.079 C  
HETATM    5  C   UNL     3      -7.763   7.574  66.277  1.00  0.00    -0.089 A  
HETATM    6  O   UNL     3      -7.074   9.422  67.667  1.00  0.00    -0.080 OA 
HETATM    7  C   UNL     3      -7.169   6.466  65.627  1.00  0.00    -0.074 A  
HETATM    8 CL   UNL     3      -5.482   6.507  65.164  1.00  0.00    -0.021 Cl 
HETATM    9  C   UNL     3      -7.913   5.292  65.361  1.00  0.00    -0.108 A  
HETATM   10 CL   UNL     3      -7.154   3.948  64.544  1.00  0.00    -0.053 Cl 
HETATM   11  C   UNL     3      -9.256   5.198  65.753  1.00  0.00    -0.156 A  
HETATM   12  C   UNL     3      -9.864   6.282  66.405  1.00  0.00    -0.075 A  
HETATM   13 CL   UNL     3     -10.161   3.744  65.438  1.00  0.00    -0.088 Cl 
HETATM   14  C   UNL     3      -9.132   7.471  66.664  1.00  0.00    -0.189 A  
HETATM   15 CL   UNL     3     -11.531   6.169  66.906  1.00  0.00     0.034 Cl 
ENDROOT
BRANCH  14  16
HETATM   16  C   UNL     3      -9.846   8.638  67.285  1.00  0.00    -0.256 A  
HETATM   17  C   UNL     3     -10.104   9.763  66.562  1.00  0.00    -0.307 A  
HETATM   18  C   UNL     3      -9.658   9.903  65.175  1.00  0.00    -0.367 C  
HETATM   19  C   UNL     3     -10.025  10.935  64.401  1.00  0.00    -0.322 C  
HETATM   20 BR   UNL     3      -9.514  11.041  62.612  1.00  0.00    -0.280 Br 
HETATM   21  C   UNL     3     -10.919  12.000  64.958  1.00  0.00    -0.306 C  
HETATM   22  O   UNL     3     -11.402  12.869  64.222  1.00  0.00    -0.333 OA 
HETATM   23  C   UNL     3     -11.245  11.938  66.415  1.00  0.00    -0.331 C  
HETATM   24  C   UNL     3     -10.868  10.870  67.155  1.00  0.00    -0.280 A  
HETATM   25 BR   UNL     3     -12.265  13.343  67.119  1.00  0.00    -0.222 Br 
HETATM   26  O   UNL     3     -11.257  10.799  68.482  1.00  0.00    -0.239 OA 
HETATM   27  C   UNL     3     -11.023   9.672  69.223  1.00  0.00    -0.168 A  
HETATM   28  C   UNL     3     -10.315   8.602  68.691  1.00  0.00    -0.219 A  
HETATM   29  C   UNL     3     -10.071   7.508  69.519  1.00  0.00    -0.189 C  
HETATM   30  C   UNL     3     -10.578   7.460  70.828  1.00  0.00    -0.223 C  
HETATM   31 BR   UNL     3     -10.154   5.857  71.800  1.00  0.00    -0.238 Br 
HETATM   32  C   UNL     3     -11.361   8.494  71.399  1.00  0.00    -0.271 C  
HETATM   33  C   UNL     3     -11.533   9.620  70.540  1.00  0.00    -0.285 C  
HETATM   34  O   UNL     3     -11.873   8.411  72.570  1.00  0.00    -0.391 OA 
HETATM   35 BR   UNL     3     -12.523  11.161  71.158  1.00  0.00    -0.473 Br 
ENDBRANCH  14  16
TORSDOF 1
ENDMDL
MODEL       32
REMARK 921   NORMALIZED FREE ENERGY PREDICTED BY IDOCK:   -5.71 KCAL/MOL
REMARK 922        TOTAL FREE ENERGY PREDICTED BY IDOCK:   -6.80 KCAL/MOL
REMARK 923 INTER-LIGAND FREE ENERGY PREDICTED BY IDOCK:   -6.02 KCAL/MOL
REMARK 924 INTRA-LIGAND FREE ENERGY PREDICTED BY IDOCK:   -0.79 KCAL/MOL
REMARK 927      BINDING AFFINITY PREDICTED BY RF-SCORE:    0.00 PKD
ROOT
HETATM    1 NA   UNL     1      -5.759   9.736  69.612  1.00  0.00    -0.035 Na 
HETATM    2 NA   UNL     2      -5.228  10.545  64.676  1.00  0.00    -0.058 Na 
HETATM    3  O   UNL     3      -5.910   9.432  66.179  1.00  0.00    -0.055 OA 
HETATM    4  C   UNL     3      -6.497   8.539  66.884  1.00  0.00    -0.057 C  
HETATM    5  C   UNL     3      -7.237   7.424  66.193  1.00  0.00    -0.077 A  
HETATM    6  O   UNL     3      -6.432   8.573  68.156  1.00  0.00    -0.054 OA 
HETATM    7  C   UNL     3      -6.699   6.802  65.041  1.00  0.00    -0.050 A  
HETATM    8 CL   UNL     3      -5.134   7.283  64.422  1.00  0.00    -0.028 Cl 
HETATM    9  C   UNL     3      -7.395   5.763  64.380  1.00  0.00    -0.066 A  
HETATM   10 CL   UNL     3      -6.709   5.026  62.953  1.00  0.00    -0.029 Cl 
HETATM   11  C   UNL     3      -8.632   5.316  64.867  1.00  0.00    -0.145 A  
HETATM   12  C   UNL     3      -9.182   5.913  66.011  1.00  0.00    -0.128 A  
HETATM   13 CL   UNL     3      -9.476   4.025  64.059  1.00  0.00    -0.154 Cl 
HETATM   14  C   UNL     3      -8.500   6.967  66.674  1.00  0.00    -0.121 A  
HETATM   15 CL   UNL     3     -10.716   5.356  66.630  1.00  0.00    -0.348 Cl 
ENDROOT
BRANCH  14  16
HETATM   16  C   UNL     3      -9.166   7.637  67.843  1.00  0.00    -0.139 A  
HETATM   17  C   UNL     3      -9.772   8.848  67.700  1.00  0.00    -0.202 A  
HETATM   18  C   UNL     3      -9.761   9.567  66.425  1.00  0.00    -0.295 C  
HETATM   19  C   UNL     3     -10.472  10.686  66.223  1.00  0.00    -0.203 C  
HETATM   20 BR   UNL     3     -10.507  11.530  64.562  1.00  0.00    -0.396 Br 
HETATM   21  C   UNL     3     -11.313  11.243  67.331  1.00  0.00    -0.276 C  
HETATM   22  O   UNL     3     -12.101  12.172  67.120  1.00  0.00    -0.575 OA 
HETATM   23  C   UNL     3     -11.202  10.599  68.674  1.00  0.00    -0.278 C  
HETATM   24  C   UNL     3     -10.486   9.461  68.830  1.00  0.00    -0.212 A  
HETATM   25 BR   UNL     3     -12.168  11.381  70.075  1.00  0.00    -0.358 Br 
HETATM   26  O   UNL     3     -10.469   8.840  70.067  1.00  0.00    -0.202 OA 
HETATM   27  C   UNL     3      -9.880   7.614  70.230  1.00  0.00    -0.180 A  
HETATM   28  C   UNL     3      -9.209   7.000  69.181  1.00  0.00    -0.138 A  
HETATM   29  C   UNL     3      -8.589   5.778  69.432  1.00  0.00    -0.111 C  
HETATM   30  C   UNL     3      -8.694   5.154  70.687  1.00  0.00    -0.127 C  
HETATM   31 BR   UNL     3      -7.792   3.463  70.827  1.00  0.00    -0.052 Br 
HETATM   32  C   UNL     3      -9.421   5.705  71.772  1.00  0.00    -0.149 C  
HETATM   33  C   UNL     3      -9.984   6.985  71.491  1.00  0.00    -0.180 C  
HETATM   34  O   UNL     3      -9.564   5.098  72.890  1.00  0.00    -0.143 OA 
HETATM   35 BR   UNL     3     -10.966   7.928  72.864  1.00  0.00    -0.395 Br 
ENDBRANCH  14  16
TORSDOF 1
ENDMDL
MODEL       33
REMARK 921   NORMALIZED FREE ENERGY PREDICTED BY IDOCK:   -5.71 KCAL/MOL
REMARK 922        TOTAL FREE ENERGY PREDICTED BY IDOCK:   -6.80 KCAL/MOL
REMARK 923 INTER-LIGAND FREE ENERGY PREDICTED BY IDOCK:   -5.82 KCAL/MOL
REMARK 924 INTRA-LIGAND FREE ENERGY PREDICTED BY IDOCK:   -0.98 KCAL/MOL
REMARK 927      BINDING AFFINITY PREDICTED BY RF-SCORE:    0.00 PKD
ROOT
HETATM    1 NA   UNL     1     -12.282   6.394  67.648  1.00  0.00    -0.573 Na 
HETATM    2 NA   UNL     2     -13.202   9.538  71.465  1.00  0.00    -0.291 Na 
HETATM    3  O   UNL     3     -11.932   8.413  70.423  1.00  0.00    -0.030 OA 
HETATM    4  C   UNL     3     -10.883   7.838  69.967  1.00  0.00    -0.241 C  
HETATM    5  C   UNL     3      -9.558   8.085  70.638  1.00  0.00    -0.172 A  
HETATM    6  O   UNL     3     -10.961   7.043  68.974  1.00  0.00    -0.200 OA 
HETATM    7  C   UNL     3      -9.459   8.140  72.049  1.00  0.00    -0.215 A  
HETATM    8 CL   UNL     3     -10.871   7.873  73.049  1.00  0.00    -0.447 Cl 
HETATM    9  C   UNL     3      -8.219   8.384  72.684  1.00  0.00    -0.126 A  
HETATM   10 CL   UNL     3      -8.135   8.459  74.427  1.00  0.00    -0.271 Cl 
HETATM   11  C   UNL     3      -7.054   8.561  71.924  1.00  0.00    -0.089 A  
HETATM   12  C   UNL     3      -7.126   8.504  70.524  1.00  0.00    -0.041 A  
HETATM   13 CL   UNL     3      -5.527   8.843  72.713  1.00  0.00    -0.072 Cl 
HETATM   14  C   UNL     3      -8.368   8.275  69.874  1.00  0.00    -0.125 A  
HETATM   15 CL   UNL     3      -5.680   8.712  69.570  1.00  0.00    -0.030 Cl 
ENDROOT
BRANCH  14  16
HETATM   16  C   UNL     3      -8.415   8.309  68.372  1.00  0.00    -0.129 A  
HETATM   17  C   UNL     3      -8.055   7.221  67.638  1.00  0.00    -0.114 A  
HETATM   18  C   UNL     3      -7.564   5.996  68.271  1.00  0.00    -0.091 C  
HETATM   19  C   UNL     3      -7.343   4.867  67.581  1.00  0.00    -0.078 C  
HETATM   20 BR   UNL     3      -6.804   3.298  68.428  1.00  0.00    -0.049 Br 
HETATM   21  C   UNL     3      -7.596   4.838  66.104  1.00  0.00    -0.090 C  
HETATM   22  O   UNL     3      -7.558   3.772  65.478  1.00  0.00    -0.079 OA 
HETATM   23  C   UNL     3      -7.945   6.127  65.436  1.00  0.00    -0.116 C  
HETATM   24  C   UNL     3      -8.175   7.239  66.173  1.00  0.00    -0.131 A  
HETATM   25 BR   UNL     3      -8.140   6.095  63.573  1.00  0.00    -0.013 Br 
HETATM   26  O   UNL     3      -8.579   8.399  65.534  1.00  0.00    -0.165 OA 
HETATM   27  C   UNL     3      -8.962   9.499  66.253  1.00  0.00    -0.157 A  
HETATM   28  C   UNL     3      -8.874   9.513  67.639  1.00  0.00    -0.121 A  
HETATM   29  C   UNL     3      -9.232  10.685  68.301  1.00  0.00    -0.153 C  
HETATM   30  C   UNL     3      -9.728  11.795  67.597  1.00  0.00    -0.182 C  
HETATM   31 BR   UNL     3     -10.190  13.305  68.693  1.00  0.00    -0.128 Br 
HETATM   32  C   UNL     3      -9.900  11.813  66.191  1.00  0.00    -0.229 C  
HETATM   33  C   UNL     3      -9.462  10.618  65.547  1.00  0.00    -0.214 C  
HETATM   34  O   UNL     3     -10.414  12.806  65.567  1.00  0.00    -0.277 OA 
HETATM   35 BR   UNL     3      -9.560  10.468  63.622  1.00  0.00    -0.381 Br 
ENDBRANCH  14  16
TORSDOF 1
ENDMDL
MODEL       34
REMARK 921   NORMALIZED FREE ENERGY PREDICTED BY IDOCK:   -5.71 KCAL/MOL
REMARK 922        TOTAL FREE ENERGY PREDICTED BY IDOCK:   -6.80 KCAL/MOL
REMARK 923 INTER-LIGAND FREE ENERGY PREDICTED BY IDOCK:   -6.89 KCAL/MOL
REMARK 924 INTRA-LIGAND FREE ENERGY PREDICTED BY IDOCK:    0.09 KCAL/MOL
REMARK 927      BINDING AFFINITY PREDICTED BY RF-SCORE:    0.00 PKD
ROOT
HETATM    1 NA   UNL     1      -6.997  11.746  68.672  1.00  0.00    -0.060 Na 
HETATM    2 NA   UNL     2      -5.132   9.989  64.343  1.00  0.00    -0.047 Na 
HETATM    3  O   UNL     3      -6.271   9.744  65.958  1.00  0.00    -0.066 OA 
HETATM    4  C   UNL     3      -7.090   9.292  66.831  1.00  0.00    -0.082 C  
HETATM    5  C   UNL     3      -7.712   7.935  66.625  1.00  0.00    -0.098 A  
HETATM    6  O   UNL     3      -7.358   9.967  67.878  1.00  0.00    -0.087 OA 
HETATM    7  C   UNL     3      -6.943   6.854  66.131  1.00  0.00    -0.068 A  
HETATM    8 CL   UNL     3      -5.237   7.057  65.796  1.00  0.00    -0.023 Cl 
HETATM    9  C   UNL     3      -7.524   5.581  65.924  1.00  0.00    -0.082 A  
HETATM   10 CL   UNL     3      -6.550   4.271  65.301  1.00  0.00    -0.046 Cl 
HETATM   11  C   UNL     3      -8.876   5.361  66.221  1.00  0.00    -0.131 A  
HETATM   12  C   UNL     3      -9.657   6.416  66.717  1.00  0.00    -0.155 A  
HETATM   13 CL   UNL     3      -9.582   3.786  65.980  1.00  0.00    -0.184 Cl 
HETATM   14  C   UNL     3      -9.089   7.702  66.915  1.00  0.00    -0.171 A  
HETATM   15 CL   UNL     3     -11.338   6.149  67.099  1.00  0.00    -0.167 Cl 
ENDROOT
BRANCH  14  16
HETATM   16  C   UNL     3      -9.981   8.825  67.364  1.00  0.00    -0.267 A  
HETATM   17  C   UNL     3     -10.513   8.835  68.618  1.00  0.00    -0.213 A  
HETATM   18  C   UNL     3     -10.280   7.739  69.559  1.00  0.00    -0.207 C  
HETATM   19  C   UNL     3     -10.670   7.796  70.841  1.00  0.00    -0.221 C  
HETATM   20 BR   UNL     3     -10.281   6.421  72.038  1.00  0.00    -0.221 Br 
HETATM   21  C   UNL     3     -11.377   9.014  71.349  1.00  0.00    -0.323 C  
HETATM   22  O   UNL     3     -11.598   9.159  72.558  1.00  0.00    -0.082 OA 
HETATM   23  C   UNL     3     -11.751  10.063  70.354  1.00  0.00    -0.286 C  
HETATM   24  C   UNL     3     -11.323   9.974  69.073  1.00  0.00    -0.084 A  
HETATM   25 BR   UNL     3     -12.740  11.523  70.986  1.00  0.00    -0.365 Br 
HETATM   26  O   UNL     3     -11.614  11.002  68.193  1.00  0.00    -0.417 OA 
HETATM   27  C   UNL     3     -11.077  11.021  66.933  1.00  0.00    -0.213 A  
HETATM   28  C   UNL     3     -10.296   9.968  66.474  1.00  0.00    -0.268 A  
HETATM   29  C   UNL     3      -9.825  10.031  65.164  1.00  0.00    -0.388 C  
HETATM   30  C   UNL     3     -10.077  11.152  64.355  1.00  0.00    -0.320 C  
HETATM   31 BR   UNL     3      -9.321  11.059  62.590  1.00  0.00    -0.318 Br 
HETATM   32  C   UNL     3     -10.811  12.281  64.793  1.00  0.00    -0.304 C  
HETATM   33  C   UNL     3     -11.328  12.147  66.117  1.00  0.00    -0.361 C  
HETATM   34  O   UNL     3     -10.979  13.324  64.070  1.00  0.00    -0.382 OA 
HETATM   35 BR   UNL     3     -12.408  13.559  66.877  1.00  0.00    -0.184 Br 
ENDBRANCH  14  16
TORSDOF 1
ENDMDL
MODEL       35
REMARK 921   NORMALIZED FREE ENERGY PREDICTED BY IDOCK:   -5.66 KCAL/MOL
REMARK 922        TOTAL FREE ENERGY PREDICTED BY IDOCK:   -6.75 KCAL/MOL
REMARK 923 INTER-LIGAND FREE ENERGY PREDICTED BY IDOCK:   -5.98 KCAL/MOL
REMARK 924 INTRA-LIGAND FREE ENERGY PREDICTED BY IDOCK:   -0.77 KCAL/MOL
REMARK 927      BINDING AFFINITY PREDICTED BY RF-SCORE:    0.00 PKD
ROOT
HETATM    1 NA   UNL     1     -12.250   6.728  67.116  1.00  0.00    -0.674 Na 
HETATM    2 NA   UNL     2      -8.156   5.262  64.587  1.00  0.00    -0.084 Na 
HETATM    3  O   UNL     3      -9.093   6.595  65.731  1.00  0.00    -0.093 OA 
HETATM    4  C   UNL     3      -9.380   7.603  66.467  1.00  0.00    -0.189 C  
HETATM    5  C   UNL     3      -8.333   8.658  66.712  1.00  0.00    -0.108 A  
HETATM    6  O   UNL     3     -10.546   7.729  66.964  1.00  0.00    -0.335 OA 
HETATM    7  C   UNL     3      -7.487   9.095  65.665  1.00  0.00    -0.093 A  
HETATM    8 CL   UNL     3      -7.673   8.454  64.046  1.00  0.00    -0.131 Cl 
HETATM    9  C   UNL     3      -6.495  10.077  65.891  1.00  0.00    -0.096 A  
HETATM   10 CL   UNL     3      -5.458  10.585  64.580  1.00  0.00    -0.142 Cl 
HETATM   11  C   UNL     3      -6.339  10.650  67.161  1.00  0.00    -0.070 A  
HETATM   12  C   UNL     3      -7.171  10.236  68.213  1.00  0.00    -0.083 A  
HETATM   13 CL   UNL     3      -5.126  11.871  67.430  1.00  0.00    -0.076 Cl 
HETATM   14  C   UNL     3      -8.161   9.241  68.002  1.00  0.00    -0.115 A  
HETATM   15 CL   UNL     3      -6.992  10.952  69.794  1.00  0.00    -0.142 Cl 
ENDROOT
BRANCH  14  16
HETATM   16  C   UNL     3      -8.970   8.765  69.175  1.00  0.00    -0.137 A  
HETATM   17  C   UNL     3     -10.002   9.509  69.660  1.00  0.00    -0.220 A  
HETATM   18  C   UNL     3     -10.336  10.817  69.095  1.00  0.00    -0.238 C  
HETATM   19  C   UNL     3     -11.433  11.499  69.457  1.00  0.00    -0.311 C  
HETATM   20 BR   UNL     3     -11.879  13.121  68.655  1.00  0.00    -0.334 Br 
HETATM   21  C   UNL     3     -12.362  10.923  70.481  1.00  0.00    -0.374 C  
HETATM   22  O   UNL     3     -13.457  11.451  70.709  1.00  0.00     0.333 OA 
HETATM   23  C   UNL     3     -11.940   9.666  71.169  1.00  0.00    -0.367 C  
HETATM   24  C   UNL     3     -10.834   9.002  70.760  1.00  0.00    -0.251 A  
HETATM   25 BR   UNL     3     -13.055   9.025  72.530  1.00  0.00    -0.363 Br 
HETATM   26  O   UNL     3     -10.513   7.795  71.360  1.00  0.00    -0.207 OA 
HETATM   27  C   UNL     3      -9.490   7.022  70.879  1.00  0.00    -0.160 A  
HETATM   28  C   UNL     3      -8.692   7.465  69.832  1.00  0.00    -0.141 A  
HETATM   29  C   UNL     3      -7.637   6.648  69.428  1.00  0.00    -0.096 C  
HETATM   30  C   UNL     3      -7.427   5.390  70.016  1.00  0.00    -0.069 C  
HETATM   31 BR   UNL     3      -5.938   4.405  69.304  1.00  0.00    -0.023 Br 
HETATM   32  C   UNL     3      -8.249   4.861  71.041  1.00  0.00    -0.104 C  
HETATM   33  C   UNL     3      -9.276   5.755  71.468  1.00  0.00    -0.146 C  
HETATM   34  O   UNL     3      -8.088   3.687  71.525  1.00  0.00    -0.063 OA 
HETATM   35 BR   UNL     3     -10.469   5.241  72.899  1.00  0.00    -0.274 Br 
ENDBRANCH  14  16
TORSDOF 1
ENDMDL
MODEL       36
REMARK 921   NORMALIZED FREE ENERGY PREDICTED BY IDOCK:   -5.61 KCAL/MOL
REMARK 922        TOTAL FREE ENERGY PREDICTED BY IDOCK:   -6.69 KCAL/MOL
REMARK 923 INTER-LIGAND FREE ENERGY PREDICTED BY IDOCK:   -7.23 KCAL/MOL
REMARK 924 INTRA-LIGAND FREE ENERGY PREDICTED BY IDOCK:    0.54 KCAL/MOL
REMARK 927      BINDING AFFINITY PREDICTED BY RF-SCORE:    0.00 PKD
ROOT
HETATM    1 NA   UNL     1     -13.102  14.521  65.875  1.00  0.00    -0.439 Na 
HETATM    2 NA   UNL     2     -12.959  10.474  62.892  1.00  0.00    -0.328 Na 
HETATM    3  O   UNL     3     -12.072  11.690  64.194  1.00  0.00    -0.242 OA 
HETATM    4  C   UNL     3     -11.248  12.233  65.010  1.00  0.00    -0.321 C  
HETATM    5  C   UNL     3      -9.894  11.606  65.216  1.00  0.00    -0.279 A  
HETATM    6  O   UNL     3     -11.556  13.307  65.621  1.00  0.00    -0.317 OA 
HETATM    7  C   UNL     3      -9.162  11.088  64.120  1.00  0.00    -0.151 A  
HETATM    8 CL   UNL     3      -9.795  11.209  62.493  1.00  0.00    -0.133 Cl 
HETATM    9  C   UNL     3      -7.896  10.487  64.308  1.00  0.00     0.023 A  
HETATM   10 CL   UNL     3      -7.024   9.845  62.937  1.00  0.00    -0.118 Cl 
HETATM   11  C   UNL     3      -7.330  10.407  65.589  1.00  0.00    -0.148 A  
HETATM   12  C   UNL     3      -8.035  10.920  66.689  1.00  0.00    -0.148 A  
HETATM   13 CL   UNL     3      -5.763   9.682  65.812  1.00  0.00    -0.049 Cl 
HETATM   14  C   UNL     3      -9.313  11.512  66.515  1.00  0.00    -0.210 A  
HETATM   15 CL   UNL     3      -7.334  10.835  68.285  1.00  0.00    -0.083 Cl 
ENDROOT
BRANCH  14  16
HETATM   16  C   UNL     3     -10.070  11.968  67.730  1.00  0.00    -0.199 A  
HETATM   17  C   UNL     3     -10.204  13.294  68.012  1.00  0.00    -0.240 A  
HETATM   18  C   UNL     3      -9.582  14.323  67.178  1.00  0.00    -0.245 C  
HETATM   19  C   UNL     3      -9.820  15.631  67.350  1.00  0.00    -0.225 C  
HETATM   20 BR   UNL     3      -9.083  16.913  66.216  1.00  0.00    -0.278 Br 
HETATM   21  C   UNL     3     -10.750  16.081  68.436  1.00  0.00    -0.289 C  
HETATM   22  O   UNL     3     -11.112  17.261  68.508  1.00  0.00    -0.226 OA 
HETATM   23  C   UNL     3     -11.260  15.044  69.382  1.00  0.00    -0.284 C  
HETATM   24  C   UNL     3     -11.009  13.733  69.161  1.00  0.00    -0.208 A  
HETATM   25 BR   UNL     3     -12.325  15.641  70.804  1.00  0.00    -0.456 Br 
HETATM   26  O   UNL     3     -11.565  12.789  70.008  1.00  0.00    -0.236 OA 
HETATM   27  C   UNL     3     -11.457  11.451  69.735  1.00  0.00    -0.300 A  
HETATM   28  C   UNL     3     -10.715  11.001  68.651  1.00  0.00    -0.234 A  
HETATM   29  C   UNL     3     -10.607   9.625  68.463  1.00  0.00    -0.253 C  
HETATM   30  C   UNL     3     -11.278   8.722  69.305  1.00  0.00     0.244 C  
HETATM   31 BR   UNL     3     -11.023   6.868  68.868  1.00  0.00    -0.188 Br 
HETATM   32  C   UNL     3     -12.100   9.127  70.385  1.00  0.00     0.131 C  
HETATM   33  C   UNL     3     -12.131  10.541  70.580  1.00  0.00    -0.345 C  
HETATM   34  O   UNL     3     -12.758   8.299  71.106  1.00  0.00    -0.237 OA 
HETATM   35 BR   UNL     3     -13.152  11.290  72.041  1.00  0.00    -0.218 Br 
ENDBRANCH  14  16
TORSDOF 1
ENDMDL
MODEL       37
REMARK 921   NORMALIZED FREE ENERGY PREDICTED BY IDOCK:   -5.35 KCAL/MOL
REMARK 922        TOTAL FREE ENERGY PREDICTED BY IDOCK:   -6.42 KCAL/MOL
REMARK 923 INTER-LIGAND FREE ENERGY PREDICTED BY IDOCK:   -5.38 KCAL/MOL
REMARK 924 INTRA-LIGAND FREE ENERGY PREDICTED BY IDOCK:   -1.04 KCAL/MOL
REMARK 927      BINDING AFFINITY PREDICTED BY RF-SCORE:    0.00 PKD
ROOT
HETATM    1 NA   UNL     1     -12.042   6.783  66.750  1.00  0.00    -0.666 Na 
HETATM    2 NA   UNL     2     -10.542  10.617  63.860  1.00  0.00    -0.310 Na 
HETATM    3  O   UNL     3     -10.482   9.632  65.589  1.00  0.00    -0.054 OA 
HETATM    4  C   UNL     3     -10.193   9.233  66.771  1.00  0.00    -0.255 C  
HETATM    5  C   UNL     3      -9.181   9.999  67.581  1.00  0.00    -0.148 A  
HETATM    6  O   UNL     3     -10.775   8.215  67.270  1.00  0.00    -0.298 OA 
HETATM    7  C   UNL     3      -9.168  11.414  67.572  1.00  0.00    -0.160 A  
HETATM    8 CL   UNL     3     -10.364  12.308  66.658  1.00  0.00    -0.232 Cl 
HETATM    9  C   UNL     3      -8.213  12.140  68.321  1.00  0.00    -0.168 A  
HETATM   10 CL   UNL     3      -8.216  13.886  68.279  1.00  0.00    -0.152 Cl 
HETATM   11  C   UNL     3      -7.263  11.466  69.103  1.00  0.00    -0.102 A  
HETATM   12  C   UNL     3      -7.260  10.063  69.132  1.00  0.00    -0.076 A  
HETATM   13 CL   UNL     3      -6.099  12.365  70.037  1.00  0.00    -0.144 Cl 
HETATM   14  C   UNL     3      -8.205   9.324  68.373  1.00  0.00    -0.115 A  
HETATM   15 CL   UNL     3      -6.090   9.217  70.111  1.00  0.00    -0.034 Cl 
ENDROOT
BRANCH  14  16
HETATM   16  C   UNL     3      -8.110   7.824  68.363  1.00  0.00    -0.124 A  
HETATM   17  C   UNL     3      -8.676   7.083  69.356  1.00  0.00    -0.133 A  
HETATM   18  C   UNL     3      -9.353   7.710  70.491  1.00  0.00    -0.163 C  
HETATM   19  C   UNL     3     -10.041   7.002  71.400  1.00  0.00    -0.189 C  
HETATM   20 BR   UNL     3     -10.968   7.836  72.785  1.00  0.00    -0.463 Br 
HETATM   21  C   UNL     3     -10.127   5.512  71.271  1.00  0.00    -0.207 C  
HETATM   22  O   UNL     3     -10.886   4.858  71.997  1.00  0.00    -0.148 OA 
HETATM   23  C   UNL     3      -9.308   4.861  70.205  1.00  0.00    -0.154 C  
HETATM   24  C   UNL     3      -8.642   5.614  69.299  1.00  0.00    -0.106 A  
HETATM   25 BR   UNL     3      -9.334   2.990  70.136  1.00  0.00    -0.210 Br 
HETATM   26  O   UNL     3      -7.960   4.985  68.271  1.00  0.00    -0.086 OA 
HETATM   27  C   UNL     3      -7.398   5.709  67.254  1.00  0.00    -0.077 A  
HETATM   28  C   UNL     3      -7.422   7.098  67.269  1.00  0.00    -0.099 A  
HETATM   29  C   UNL     3      -6.787   7.770  66.227  1.00  0.00    -0.062 C  
HETATM   30  C   UNL     3      -6.196   7.068  65.162  1.00  0.00    -0.037 C  
HETATM   31 BR   UNL     3      -5.393   8.175  63.812  1.00  0.00    -0.049 Br 
HETATM   32  C   UNL     3      -6.200   5.655  65.064  1.00  0.00    -0.029 C  
HETATM   33  C   UNL     3      -6.804   5.006  66.182  1.00  0.00    -0.061 C  
HETATM   34  O   UNL     3      -5.716   5.028  64.058  1.00  0.00    -0.016 OA 
HETATM   35 BR   UNL     3      -6.856   3.075  66.263  1.00  0.00    -0.053 Br 
ENDBRANCH  14  16
TORSDOF 1
ENDMDL
MODEL       38
REMARK 921   NORMALIZED FREE ENERGY PREDICTED BY IDOCK:   -5.33 KCAL/MOL
REMARK 922        TOTAL FREE ENERGY PREDICTED BY IDOCK:   -6.40 KCAL/MOL
REMARK 923 INTER-LIGAND FREE ENERGY PREDICTED BY IDOCK:   -5.30 KCAL/MOL
REMARK 924 INTRA-LIGAND FREE ENERGY PREDICTED BY IDOCK:   -1.10 KCAL/MOL
REMARK 927      BINDING AFFINITY PREDICTED BY RF-SCORE:    0.00 PKD
ROOT
HETATM    1 NA   UNL     1     -12.218   6.781  66.851  1.00  0.00    -0.683 Na 
HETATM    2 NA   UNL     2     -10.360  10.526  64.054  1.00  0.00    -0.279 Na 
HETATM    3  O   UNL     3     -10.401   9.504  65.761  1.00  0.00    -0.182 OA 
HETATM    4  C   UNL     3     -10.158   9.055  66.936  1.00  0.00    -0.267 C  
HETATM    5  C   UNL     3      -9.087   9.711  67.768  1.00  0.00    -0.132 A  
HETATM    6  O   UNL     3     -10.832   8.083  67.409  1.00  0.00    -0.231 OA 
HETATM    7  C   UNL     3      -8.949  11.119  67.790  1.00  0.00    -0.139 A  
HETATM    8 CL   UNL     3     -10.053  12.135  66.888  1.00  0.00    -0.218 Cl 
HETATM    9  C   UNL     3      -7.938  11.740  68.560  1.00  0.00    -0.145 A  
HETATM   10 CL   UNL     3      -7.785  13.481  68.555  1.00  0.00    -0.130 Cl 
HETATM   11  C   UNL     3      -7.058  10.969  69.333  1.00  0.00    -0.128 A  
HETATM   12  C   UNL     3      -7.181   9.570  69.331  1.00  0.00    -0.064 A  
HETATM   13 CL   UNL     3      -5.826  11.740  70.292  1.00  0.00    -0.153 Cl 
HETATM   14  C   UNL     3      -8.182   8.935  68.550  1.00  0.00    -0.116 A  
HETATM   15 CL   UNL     3      -6.098   8.603  70.298  1.00  0.00    -0.033 Cl 
ENDROOT
BRANCH  14  16
HETATM   16  C   UNL     3      -8.221   7.433  68.509  1.00  0.00    -0.125 A  
HETATM   17  C   UNL     3      -7.575   6.745  67.527  1.00  0.00    -0.106 A  
HETATM   18  C   UNL     3      -6.861   7.433  66.451  1.00  0.00    -0.061 C  
HETATM   19  C   UNL     3      -6.099   6.781  65.560  1.00  0.00    -0.035 C  
HETATM   20 BR   UNL     3      -5.130   7.692  64.255  1.00  0.00    -0.029 Br 
HETATM   21  C   UNL     3      -5.964   5.291  65.647  1.00  0.00    -0.025 C  
HETATM   22  O   UNL     3      -5.143   4.689  64.946  1.00  0.00    -0.008 OA 
HETATM   23  C   UNL     3      -6.815   4.577  66.646  1.00  0.00    -0.052 C  
HETATM   24  C   UNL     3      -7.557   5.276  67.537  1.00  0.00    -0.088 A  
HETATM   25 BR   UNL     3      -6.722   2.706  66.659  1.00  0.00    -0.041 Br 
HETATM   26  O   UNL     3      -8.270   4.589  68.505  1.00  0.00    -0.082 OA 
HETATM   27  C   UNL     3      -8.913   5.259  69.511  1.00  0.00    -0.103 A  
HETATM   28  C   UNL     3      -8.940   6.647  69.540  1.00  0.00    -0.138 A  
HETATM   29  C   UNL     3      -9.656   7.262  70.565  1.00  0.00    -0.168 C  
HETATM   30  C   UNL     3     -10.277   6.505  71.573  1.00  0.00    -0.192 C  
HETATM   31 BR   UNL     3     -11.193   7.538  72.910  1.00  0.00    -0.364 Br 
HETATM   32  C   UNL     3     -10.226   5.090  71.629  1.00  0.00    -0.208 C  
HETATM   33  C   UNL     3      -9.538   4.500  70.526  1.00  0.00    -0.204 C  
HETATM   34  O   UNL     3     -10.739   4.414  72.586  1.00  0.00    -0.187 OA 
HETATM   35 BR   UNL     3      -9.409   2.576  70.389  1.00  0.00    -0.183 Br 
ENDBRANCH  14  16
TORSDOF 1
ENDMDL
MODEL       39
REMARK 921   NORMALIZED FREE ENERGY PREDICTED BY IDOCK:   -5.29 KCAL/MOL
REMARK 922        TOTAL FREE ENERGY PREDICTED BY IDOCK:   -6.35 KCAL/MOL
REMARK 923 INTER-LIGAND FREE ENERGY PREDICTED BY IDOCK:   -5.77 KCAL/MOL
REMARK 924 INTRA-LIGAND FREE ENERGY PREDICTED BY IDOCK:   -0.58 KCAL/MOL
REMARK 927      BINDING AFFINITY PREDICTED BY RF-SCORE:    0.00 PKD
ROOT
HETATM    1 NA   UNL     1     -13.208  14.077  69.004  1.00  0.00    -0.430 Na 
HETATM    2 NA   UNL     2     -11.552  10.543  72.178  1.00  0.00    -0.188 Na 
HETATM    3  O   UNL     3     -11.502  11.417  70.390  1.00  0.00    -0.247 OA 
HETATM    4  C   UNL     3     -11.204  11.759  69.193  1.00  0.00    -0.264 C  
HETATM    5  C   UNL     3     -10.119  11.012  68.462  1.00  0.00    -0.198 A  
HETATM    6  O   UNL     3     -11.835  12.702  68.613  1.00  0.00    -0.305 OA 
HETATM    7  C   UNL     3     -10.016   9.604  68.564  1.00  0.00    -0.165 A  
HETATM    8 CL   UNL     3     -11.178   8.693  69.503  1.00  0.00     0.028 Cl 
HETATM    9  C   UNL     3      -8.992   8.898  67.890  1.00  0.00    -0.139 A  
HETATM   10 CL   UNL     3      -8.884   7.161  68.047  1.00  0.00    -0.129 Cl 
HETATM   11  C   UNL     3      -8.065   9.582  67.090  1.00  0.00    -0.106 A  
HETATM   12  C   UNL     3      -8.152  10.977  66.970  1.00  0.00    -0.136 A  
HETATM   13 CL   UNL     3      -6.817   8.705  66.249  1.00  0.00    -0.069 Cl 
HETATM   14  C   UNL     3      -9.166  11.699  67.653  1.00  0.00    -0.178 A  
HETATM   15 CL   UNL     3      -7.009  11.835  65.969  1.00  0.00     0.504 Cl 
ENDROOT
BRANCH  14  16
HETATM   16  C   UNL     3      -9.169  13.199  67.567  1.00  0.00    -0.206 A  
HETATM   17  C   UNL     3      -8.354  13.945  68.363  1.00  0.00    -0.157 A  
HETATM   18  C   UNL     3      -7.482  13.327  69.363  1.00  0.00     0.402 C  
HETATM   19  C   UNL     3      -6.569  14.026  70.053  1.00  0.00    -0.025 C  
HETATM   20 BR   UNL     3      -5.413  13.197  71.256  1.00  0.00    -0.107 Br 
HETATM   21  C   UNL     3      -6.423  15.498  69.813  1.00  0.00    -0.167 C  
HETATM   22  O   UNL     3      -5.484  16.129  70.312  1.00  0.00    -0.162 OA 
HETATM   23  C   UNL     3      -7.415  16.154  68.909  1.00  0.00    -0.197 C  
HETATM   24  C   UNL     3      -8.309  15.407  68.220  1.00  0.00    -0.150 A  
HETATM   25 BR   UNL     3      -7.290  18.012  68.714  1.00  0.00    -0.259 Br 
HETATM   26  O   UNL     3      -9.161  16.034  67.325  1.00  0.00    -0.202 OA 
HETATM   27  C   UNL     3      -9.977  15.302  66.504  1.00  0.00    -0.265 A  
HETATM   28  C   UNL     3     -10.035  13.919  66.603  1.00  0.00    -0.279 A  
HETATM   29  C   UNL     3     -10.925  13.244  65.770  1.00  0.00    -0.284 C  
HETATM   30  C   UNL     3     -11.692  13.933  64.815  1.00  0.00    -0.386 C  
HETATM   31 BR   UNL     3     -12.839  12.823  63.746  1.00  0.00    -0.020 Br 
HETATM   32  C   UNL     3     -11.624  15.336  64.626  1.00  0.00    -0.333 C  
HETATM   33  C   UNL     3     -10.749  15.993  65.542  1.00  0.00    -0.361 C  
HETATM   34  O   UNL     3     -12.278  15.946  63.711  1.00  0.00    -0.817 OA 
HETATM   35 BR   UNL     3     -10.562  17.917  65.484  1.00  0.00     0.227 Br 
ENDBRANCH  14  16
TORSDOF 1
ENDMDL
MODEL       40
REMARK 921   NORMALIZED FREE ENERGY PREDICTED BY IDOCK:   -5.25 KCAL/MOL
REMARK 922        TOTAL FREE ENERGY PREDICTED BY IDOCK:   -6.31 KCAL/MOL
REMARK 923 INTER-LIGAND FREE ENERGY PREDICTED BY IDOCK:   -5.94 KCAL/MOL
REMARK 924 INTRA-LIGAND FREE ENERGY PREDICTED BY IDOCK:   -0.37 KCAL/MOL
REMARK 927      BINDING AFFINITY PREDICTED BY RF-SCORE:    0.00 PKD
ROOT
HETATM    1 NA   UNL     1     -13.911  13.665  67.199  1.00  0.00     1.099 Na 
HETATM    2 NA   UNL     2     -11.603  15.477  63.113  1.00  0.00    -0.536 Na 
HETATM    3  O   UNL     3     -11.566  14.991  65.043  1.00  0.00    -0.366 OA 
HETATM    4  C   UNL     3     -11.205  14.759  66.249  1.00  0.00    -0.343 C  
HETATM    5  C   UNL     3      -9.785  15.048  66.661  1.00  0.00    -0.273 A  
HETATM    6  O   UNL     3     -12.041  14.316  67.102  1.00  0.00    -0.423 OA 
HETATM    7  C   UNL     3      -9.125  16.217  66.213  1.00  0.00    -0.331 A  
HETATM    8 CL   UNL     3      -9.963  17.382  65.210  1.00  0.00     0.435 Cl 
HETATM    9  C   UNL     3      -7.788  16.488  66.587  1.00  0.00    -0.285 A  
HETATM   10 CL   UNL     3      -6.998  17.934  66.006  1.00  0.00    -0.333 Cl 
HETATM   11  C   UNL     3      -7.092  15.606  67.425  1.00  0.00    -0.207 A  
HETATM   12  C   UNL     3      -7.728  14.443  67.886  1.00  0.00    -0.146 A  
HETATM   13 CL   UNL     3      -5.451  15.953  67.895  1.00  0.00    -0.137 Cl 
HETATM   14  C   UNL     3      -9.065  14.153  67.506  1.00  0.00    -0.195 A  
HETATM   15 CL   UNL     3      -6.873  13.344  68.938  1.00  0.00    -0.108 Cl 
ENDROOT
BRANCH  14  16
HETATM   16  C   UNL     3      -9.677  12.854  67.950  1.00  0.00    -0.218 A  
HETATM   17  C   UNL     3     -10.526  12.811  69.014  1.00  0.00    -0.019 A  
HETATM   18  C   UNL     3     -10.839  14.008  69.796  1.00  0.00     0.064 C  
HETATM   19  C   UNL     3     -11.779  14.018  70.752  1.00  0.00    -0.118 C  
HETATM   20 BR   UNL     3     -12.218  15.580  71.669  1.00  0.00    -0.529 Br 
HETATM   21  C   UNL     3     -12.547  12.767  71.053  1.00  0.00    -0.271 C  
HETATM   22  O   UNL     3     -13.525  12.793  71.809  1.00  0.00    -0.390 OA 
HETATM   23  C   UNL     3     -12.120  11.511  70.366  1.00  0.00    -0.382 C  
HETATM   24  C   UNL     3     -11.177  11.549  69.395  1.00  0.00    -0.259 A  
HETATM   25 BR   UNL     3     -13.012   9.935  70.844  1.00  0.00    -0.304 Br 
HETATM   26  O   UNL     3     -10.862  10.384  68.717  1.00  0.00    -0.206 OA 
HETATM   27  C   UNL     3     -10.024  10.407  67.634  1.00  0.00    -0.174 A  
HETATM   28  C   UNL     3      -9.401  11.583  67.238  1.00  0.00    -0.170 A  
HETATM   29  C   UNL     3      -8.522  11.522  66.159  1.00  0.00    -0.060 C  
HETATM   30  C   UNL     3      -8.321  10.324  65.452  1.00  0.00    -0.162 C  
HETATM   31 BR   UNL     3      -7.091  10.450  63.981  1.00  0.00     0.105 Br 
HETATM   32  C   UNL     3      -8.980   9.111  65.772  1.00  0.00    -0.193 C  
HETATM   33  C   UNL     3      -9.820   9.203  66.922  1.00  0.00    -0.217 C  
HETATM   34  O   UNL     3      -8.839   8.042  65.083  1.00  0.00    -0.052 OA 
HETATM   35 BR   UNL     3     -10.763   7.639  67.554  1.00  0.00    -0.230 Br 
ENDBRANCH  14  16
TORSDOF 1
ENDMDL
MODEL       41
REMARK 921   NORMALIZED FREE ENERGY PREDICTED BY IDOCK:   -5.13 KCAL/MOL
REMARK 922        TOTAL FREE ENERGY PREDICTED BY IDOCK:   -6.18 KCAL/MOL
REMARK 923 INTER-LIGAND FREE ENERGY PREDICTED BY IDOCK:   -5.16 KCAL/MOL
REMARK 924 INTRA-LIGAND FREE ENERGY PREDICTED BY IDOCK:   -1.02 KCAL/MOL
REMARK 927      BINDING AFFINITY PREDICTED BY RF-SCORE:    0.00 PKD
ROOT
HETATM    1 NA   UNL     1      -7.058  11.814  69.191  1.00  0.00    -0.075 Na 
HETATM    2 NA   UNL     2      -5.126   8.145  72.038  1.00  0.00    -0.032 Na 
HETATM    3  O   UNL     3      -6.699   9.039  71.209  1.00  0.00    -0.081 OA 
HETATM    4  C   UNL     3      -7.878   9.337  70.808  1.00  0.00    -0.145 C  
HETATM    5  C   UNL     3      -9.036   8.461  71.208  1.00  0.00    -0.224 A  
HETATM    6  O   UNL     3      -8.077  10.379  70.101  1.00  0.00    -0.028 OA 
HETATM    7  C   UNL     3      -9.129   7.940  72.521  1.00  0.00    -0.187 A  
HETATM    8 CL   UNL     3      -7.924   8.344  73.725  1.00  0.00    -0.228 Cl 
HETATM    9  C   UNL     3     -10.208   7.107  72.900  1.00  0.00    -0.230 A  
HETATM   10 CL   UNL     3     -10.286   6.469  74.524  1.00  0.00    -0.356 Cl 
HETATM   11  C   UNL     3     -11.219   6.793  71.981  1.00  0.00    -0.262 A  
HETATM   12  C   UNL     3     -11.151   7.304  70.676  1.00  0.00    -0.264 A  
HETATM   13 CL   UNL     3     -12.554   5.780  72.459  1.00  0.00     0.090 Cl 
HETATM   14  C   UNL     3     -10.066   8.129  70.279  1.00  0.00    -0.192 A  
HETATM   15 CL   UNL     3     -12.411   6.927  69.529  1.00  0.00     0.711 Cl 
ENDROOT
BRANCH  14  16
HETATM   16  C   UNL     3      -9.987   8.581  68.848  1.00  0.00    -0.197 A  
HETATM   17  C   UNL     3     -10.583   9.738  68.448  1.00  0.00    -0.264 A  
HETATM   18  C   UNL     3     -11.362  10.560  69.375  1.00  0.00    -0.331 C  
HETATM   19  C   UNL     3     -11.833  11.771  69.042  1.00  0.00    -0.317 C  
HETATM   20 BR   UNL     3     -12.744  12.833  70.272  1.00  0.00     0.188 Br 
HETATM   21  C   UNL     3     -11.570  12.320  67.673  1.00  0.00    -0.354 C  
HETATM   22  O   UNL     3     -11.849  13.493  67.398  1.00  0.00    -0.355 OA 
HETATM   23  C   UNL     3     -10.912  11.418  66.680  1.00  0.00    -0.285 C  
HETATM   24  C   UNL     3     -10.438  10.210  67.064  1.00  0.00    -0.240 A  
HETATM   25 BR   UNL     3     -10.700  12.078  64.941  1.00  0.00    -0.363 Br 
HETATM   26  O   UNL     3      -9.758   9.430  66.143  1.00  0.00    -0.224 OA 
HETATM   27  C   UNL     3      -9.137   8.272  66.527  1.00  0.00    -0.178 A  
HETATM   28  C   UNL     3      -9.242   7.803  67.829  1.00  0.00    -0.143 A  
HETATM   29  C   UNL     3      -8.626   6.591  68.136  1.00  0.00    -0.118 C  
HETATM   30  C   UNL     3      -7.869   5.898  67.177  1.00  0.00    -0.102 C  
HETATM   31 BR   UNL     3      -7.079   4.260  67.801  1.00  0.00    -0.064 Br 
HETATM   32  C   UNL     3      -7.674   6.363  65.853  1.00  0.00    -0.094 C  
HETATM   33  C   UNL     3      -8.374   7.573  65.564  1.00  0.00    -0.133 C  
HETATM   34  O   UNL     3      -6.929   5.757  65.006  1.00  0.00    -0.056 OA 
HETATM   35 BR   UNL     3      -8.281   8.340  63.792  1.00  0.00    -0.028 Br 
ENDBRANCH  14  16
TORSDOF 1
ENDMDL
MODEL       42
REMARK 921   NORMALIZED FREE ENERGY PREDICTED BY IDOCK:   -5.12 KCAL/MOL
REMARK 922        TOTAL FREE ENERGY PREDICTED BY IDOCK:   -6.18 KCAL/MOL
REMARK 923 INTER-LIGAND FREE ENERGY PREDICTED BY IDOCK:   -5.31 KCAL/MOL
REMARK 924 INTRA-LIGAND FREE ENERGY PREDICTED BY IDOCK:   -0.87 KCAL/MOL
REMARK 927      BINDING AFFINITY PREDICTED BY RF-SCORE:    0.00 PKD
ROOT
HETATM    1 NA   UNL     1      -6.034   8.407  70.879  1.00  0.00    -0.031 Na 
HETATM    2 NA   UNL     2      -5.411  10.808  66.504  1.00  0.00    -0.038 Na 
HETATM    3  O   UNL     3      -6.081   9.241  67.532  1.00  0.00    -0.052 OA 
HETATM    4  C   UNL     3      -6.643   8.145  67.882  1.00  0.00    -0.061 C  
HETATM    5  C   UNL     3      -7.312   7.294  66.836  1.00  0.00    -0.092 A  
HETATM    6  O   UNL     3      -6.614   7.763  69.097  1.00  0.00    -0.039 OA 
HETATM    7  C   UNL     3      -6.715   7.104  65.567  1.00  0.00    -0.052 A  
HETATM    8 CL   UNL     3      -5.158   7.816  65.202  1.00  0.00    -0.028 Cl 
HETATM    9  C   UNL     3      -7.344   6.315  64.575  1.00  0.00    -0.070 A  
HETATM   10 CL   UNL     3      -6.587   6.112  63.014  1.00  0.00    -0.038 Cl 
HETATM   11  C   UNL     3      -8.572   5.690  64.838  1.00  0.00    -0.085 A  
HETATM   12  C   UNL     3      -9.179   5.859  66.092  1.00  0.00    -0.150 A  
HETATM   13 CL   UNL     3      -9.333   4.706  63.620  1.00  0.00    -0.046 Cl 
HETATM   14  C   UNL     3      -8.565   6.660  67.090  1.00  0.00    -0.112 A  
HETATM   15 CL   UNL     3     -10.701   5.075  66.432  1.00  0.00    -0.314 Cl 
ENDROOT
BRANCH  14  16
HETATM   16  C   UNL     3      -9.292   6.886  68.385  1.00  0.00    -0.129 A  
HETATM   17  C   UNL     3      -9.970   8.044  68.612  1.00  0.00    -0.200 A  
HETATM   18  C   UNL     3      -9.981   9.132  67.633  1.00  0.00    -0.245 C  
HETATM   19  C   UNL     3     -10.757  10.217  67.770  1.00  0.00    -0.277 C  
HETATM   20 BR   UNL     3     -10.815  11.544  66.462  1.00  0.00    -0.339 Br 
HETATM   21  C   UNL     3     -11.650  10.345  68.966  1.00  0.00    -0.150 C  
HETATM   22  O   UNL     3     -12.491  11.250  69.032  1.00  0.00    -0.417 OA 
HETATM   23  C   UNL     3     -11.524   9.313  70.038  1.00  0.00    -0.049 C  
HETATM   24  C   UNL     3     -10.740   8.226  69.851  1.00  0.00    -0.234 A  
HETATM   25 BR   UNL     3     -12.561   9.555  71.579  1.00  0.00    -0.493 Br 
HETATM   26  O   UNL     3     -10.707   7.244  70.827  1.00  0.00    -0.225 OA 
HETATM   27  C   UNL     3     -10.046   6.064  70.614  1.00  0.00    -0.194 A  
HETATM   28  C   UNL     3      -9.318   5.854  69.450  1.00  0.00    -0.150 A  
HETATM   29  C   UNL     3      -8.629   4.650  69.323  1.00  0.00    -0.101 C  
HETATM   30  C   UNL     3      -8.717   3.654  70.310  1.00  0.00    -0.073 C  
HETATM   31 BR   UNL     3      -7.713   2.058  69.939  1.00  0.00    -0.048 Br 
HETATM   32  C   UNL     3      -9.495   3.790  71.486  1.00  0.00    -0.151 C  
HETATM   33  C   UNL     3     -10.133   5.061  71.606  1.00  0.00    -0.196 C  
HETATM   34  O   UNL     3      -9.621   2.851  72.348  1.00  0.00    -0.109 OA 
HETATM   35 BR   UNL     3     -11.195   5.463  73.170  1.00  0.00    -0.324 Br 
ENDBRANCH  14  16
TORSDOF 1
ENDMDL
MODEL       43
REMARK 921   NORMALIZED FREE ENERGY PREDICTED BY IDOCK:   -5.09 KCAL/MOL
REMARK 922        TOTAL FREE ENERGY PREDICTED BY IDOCK:   -6.14 KCAL/MOL
REMARK 923 INTER-LIGAND FREE ENERGY PREDICTED BY IDOCK:   -5.42 KCAL/MOL
REMARK 924 INTRA-LIGAND FREE ENERGY PREDICTED BY IDOCK:   -0.72 KCAL/MOL
REMARK 927      BINDING AFFINITY PREDICTED BY RF-SCORE:    0.00 PKD
ROOT
HETATM    1 NA   UNL     1     -10.820   9.199  65.413  1.00  0.00    -0.152 Na 
HETATM    2 NA   UNL     2     -11.438   4.268  66.193  1.00  0.00    -0.500 Na 
HETATM    3  O   UNL     3     -10.427   5.953  66.513  1.00  0.00    -0.221 OA 
HETATM    4  C   UNL     3      -9.603   6.833  66.944  1.00  0.00    -0.160 C  
HETATM    5  C   UNL     3      -8.529   6.423  67.917  1.00  0.00    -0.118 A  
HETATM    6  O   UNL     3      -9.670   8.037  66.533  1.00  0.00    -0.221 OA 
HETATM    7  C   UNL     3      -7.834   5.201  67.755  1.00  0.00    -0.091 A  
HETATM    8 CL   UNL     3      -8.173   4.160  66.389  1.00  0.00    -0.101 Cl 
HETATM    9  C   UNL     3      -6.833   4.804  68.672  1.00  0.00    -0.051 A  
HETATM   10 CL   UNL     3      -6.003   3.283  68.452  1.00  0.00    -0.023 Cl 
HETATM   11  C   UNL     3      -6.498   5.627  69.757  1.00  0.00    -0.041 A  
HETATM   12  C   UNL     3      -7.170   6.847  69.934  1.00  0.00    -0.076 A  
HETATM   13 CL   UNL     3      -5.252   5.141  70.874  1.00  0.00    -0.004 Cl 
HETATM   14  C   UNL     3      -8.186   7.248  69.028  1.00  0.00    -0.125 A  
HETATM   15 CL   UNL     3      -6.752   7.882  71.275  1.00  0.00    -0.041 Cl 
ENDROOT
BRANCH  14  16
HETATM   16  C   UNL     3      -8.940   8.518  69.305  1.00  0.00    -0.146 A  
HETATM   17  C   UNL     3      -8.579   9.688  68.709  1.00  0.00    -0.125 A  
HETATM   18  C   UNL     3      -7.422   9.770  67.817  1.00  0.00    -0.090 C  
HETATM   19  C   UNL     3      -7.136  10.871  67.108  1.00  0.00    -0.103 C  
HETATM   20 BR   UNL     3      -5.706  10.916  65.913  1.00  0.00    -0.117 Br 
HETATM   21  C   UNL     3      -8.016  12.078  67.221  1.00  0.00    -0.174 C  
HETATM   22  O   UNL     3      -7.870  13.041  66.458  1.00  0.00     0.363 OA 
HETATM   23  C   UNL     3      -9.103  12.048  68.245  1.00  0.00    -0.190 C  
HETATM   24  C   UNL     3      -9.368  10.909  68.928  1.00  0.00    -0.160 A  
HETATM   25 BR   UNL     3     -10.118  13.608  68.456  1.00  0.00    -0.188 Br 
HETATM   26  O   UNL     3     -10.435  10.886  69.810  1.00  0.00    -0.160 OA 
HETATM   27  C   UNL     3     -10.826   9.718  70.408  1.00  0.00    -0.311 A  
HETATM   28  C   UNL     3     -10.112   8.542  70.214  1.00  0.00    -0.199 A  
HETATM   29  C   UNL     3     -10.537   7.403  70.894  1.00  0.00    -0.234 C  
HETATM   30  C   UNL     3     -11.689   7.425  71.699  1.00  0.00    -0.279 C  
HETATM   31 BR   UNL     3     -12.124   5.749  72.532  1.00  0.00     0.083 Br 
HETATM   32  C   UNL     3     -12.491   8.579  71.881  1.00  0.00    -0.352 C  
HETATM   33  C   UNL     3     -11.983   9.737  71.218  1.00  0.00    -0.386 C  
HETATM   34  O   UNL     3     -13.573   8.572  72.564  1.00  0.00    -0.299 OA 
HETATM   35 BR   UNL     3     -12.906  11.427  71.391  1.00  0.00    -0.430 Br 
ENDBRANCH  14  16
TORSDOF 1
ENDMDL
MODEL       44
REMARK 921   NORMALIZED FREE ENERGY PREDICTED BY IDOCK:   -5.05 KCAL/MOL
REMARK 922        TOTAL FREE ENERGY PREDICTED BY IDOCK:   -6.10 KCAL/MOL
REMARK 923 INTER-LIGAND FREE ENERGY PREDICTED BY IDOCK:   -5.01 KCAL/MOL
REMARK 924 INTRA-LIGAND FREE ENERGY PREDICTED BY IDOCK:   -1.09 KCAL/MOL
REMARK 927      BINDING AFFINITY PREDICTED BY RF-SCORE:    0.00 PKD
ROOT
HETATM    1 NA   UNL     1     -11.876   8.404  68.993  1.00  0.00    -0.333 Na 
HETATM    2 NA   UNL     2     -12.784  12.715  66.567  1.00  0.00    -0.342 Na 
HETATM    3  O   UNL     3     -11.539  11.527  67.567  1.00  0.00    -0.477 OA 
HETATM    4  C   UNL     3     -10.508  11.009  68.122  1.00  0.00    -0.189 C  
HETATM    5  C   UNL     3      -9.205  11.765  68.107  1.00  0.00    -0.186 A  
HETATM    6  O   UNL     3     -10.586   9.880  68.708  1.00  0.00    -0.206 OA 
HETATM    7  C   UNL     3      -9.177  13.163  68.326  1.00  0.00    -0.194 A  
HETATM    8 CL   UNL     3     -10.653  14.038  68.671  1.00  0.00    -0.255 Cl 
HETATM    9  C   UNL     3      -7.959  13.881  68.301  1.00  0.00    -0.148 A  
HETATM   10 CL   UNL     3      -7.960  15.608  68.563  1.00  0.00    -0.132 Cl 
HETATM   11  C   UNL     3      -6.746  13.215  68.072  1.00  0.00    -0.119 A  
HETATM   12  C   UNL     3      -6.749  11.828  67.858  1.00  0.00    -0.072 A  
HETATM   13 CL   UNL     3      -5.247  14.101  68.058  1.00  0.00    -0.113 Cl 
HETATM   14  C   UNL     3      -7.968  11.099  67.866  1.00  0.00    -0.114 A  
HETATM   15 CL   UNL     3      -5.244  10.988  67.582  1.00  0.00    -0.040 Cl 
ENDROOT
BRANCH  14  16
HETATM   16  C   UNL     3      -7.934   9.631  67.545  1.00  0.00    -0.106 A  
HETATM   17  C   UNL     3      -8.119   9.191  66.269  1.00  0.00    -0.111 A  
HETATM   18  C   UNL     3      -8.404  10.117  65.172  1.00  0.00    -0.163 C  
HETATM   19  C   UNL     3      -8.444   9.724  63.891  1.00  0.00    -0.184 C  
HETATM   20 BR   UNL     3      -8.722  10.942  62.507  1.00  0.00    -0.339 Br 
HETATM   21  C   UNL     3      -8.198   8.287  63.546  1.00  0.00    -0.084 C  
HETATM   22  O   UNL     3      -8.067   7.934  62.368  1.00  0.00    -0.155 OA 
HETATM   23  C   UNL     3      -8.062   7.318  64.675  1.00  0.00    -0.081 C  
HETATM   24  C   UNL     3      -8.010   7.760  65.953  1.00  0.00    -0.107 A  
HETATM   25 BR   UNL     3      -7.874   5.510  64.225  1.00  0.00    -0.116 Br 
HETATM   26  O   UNL     3      -7.799   6.848  66.973  1.00  0.00    -0.107 OA 
HETATM   27  C   UNL     3      -7.594   7.268  68.259  1.00  0.00    -0.118 A  
HETATM   28  C   UNL     3      -7.677   8.614  68.593  1.00  0.00    -0.099 A  
HETATM   29  C   UNL     3      -7.508   8.964  69.931  1.00  0.00    -0.058 C  
HETATM   30  C   UNL     3      -7.199   7.996  70.902  1.00  0.00    -0.053 C  
HETATM   31 BR   UNL     3      -6.979   8.682  72.684  1.00  0.00     0.060 Br 
HETATM   32  C   UNL     3      -7.039   6.620  70.606  1.00  0.00    -0.069 C  
HETATM   33  C   UNL     3      -7.284   6.297  69.238  1.00  0.00    -0.086 C  
HETATM   34  O   UNL     3      -6.694   5.757  71.487  1.00  0.00    -0.054 OA 
HETATM   35 BR   UNL     3      -7.172   4.460  68.647  1.00  0.00    -0.056 Br 
ENDBRANCH  14  16
TORSDOF 1
ENDMDL
MODEL       45
REMARK 921   NORMALIZED FREE ENERGY PREDICTED BY IDOCK:   -4.98 KCAL/MOL
REMARK 922        TOTAL FREE ENERGY PREDICTED BY IDOCK:   -6.02 KCAL/MOL
REMARK 923 INTER-LIGAND FREE ENERGY PREDICTED BY IDOCK:   -4.93 KCAL/MOL
REMARK 924 INTRA-LIGAND FREE ENERGY PREDICTED BY IDOCK:   -1.09 KCAL/MOL
REMARK 927      BINDING AFFINITY PREDICTED BY RF-SCORE:    0.00 PKD
ROOT
HETATM    1 NA   UNL     1     -12.222   6.769  66.968  1.00  0.00    -0.691 Na 
HETATM    2 NA   UNL     2     -11.783  10.747  70.014  1.00  0.00    -0.201 Na 
HETATM    3  O   UNL     3     -11.144   8.965  69.401  1.00  0.00    -0.114 OA 
HETATM    4  C   UNL     3     -10.475   7.887  69.230  1.00  0.00    -0.216 C  
HETATM    5  C   UNL     3      -9.249   7.640  70.071  1.00  0.00    -0.151 A  
HETATM    6  O   UNL     3     -10.854   7.017  68.380  1.00  0.00    -0.197 OA 
HETATM    7  C   UNL     3      -9.241   7.958  71.450  1.00  0.00    -0.136 A  
HETATM    8 CL   UNL     3     -10.675   8.599  72.222  1.00  0.00    -0.417 Cl 
HETATM    9  C   UNL     3      -8.090   7.740  72.242  1.00  0.00    -0.114 A  
HETATM   10 CL   UNL     3      -8.108   8.156  73.938  1.00  0.00    -0.285 Cl 
HETATM   11  C   UNL     3      -6.932   7.187  71.675  1.00  0.00    -0.067 A  
HETATM   12  C   UNL     3      -6.919   6.858  70.310  1.00  0.00    -0.066 A  
HETATM   13 CL   UNL     3      -5.523   6.905  72.659  1.00  0.00    -0.037 Cl 
HETATM   14  C   UNL     3      -8.064   7.086  69.502  1.00  0.00    -0.130 A  
HETATM   15 CL   UNL     3      -5.487   6.160  69.599  1.00  0.00    -0.012 Cl 
ENDROOT
BRANCH  14  16
HETATM   16  C   UNL     3      -7.977   6.802  68.029  1.00  0.00    -0.114 A  
HETATM   17  C   UNL     3      -7.634   7.783  67.149  1.00  0.00    -0.100 A  
HETATM   18  C   UNL     3      -7.384   9.156  67.588  1.00  0.00    -0.087 C  
HETATM   19  C   UNL     3      -6.905  10.100  66.764  1.00  0.00    -0.086 C  
HETATM   20 BR   UNL     3      -6.513  11.816  67.374  1.00  0.00    -0.131 Br 
HETATM   21  C   UNL     3      -6.614   9.760  65.335  1.00  0.00    -0.091 C  
HETATM   22  O   UNL     3      -6.021  10.562  64.603  1.00  0.00    -0.125 OA 
HETATM   23  C   UNL     3      -7.015   8.405  64.850  1.00  0.00    -0.075 C  
HETATM   24  C   UNL     3      -7.479   7.478  65.719  1.00  0.00    -0.079 A  
HETATM   25 BR   UNL     3      -6.752   8.040  63.032  1.00  0.00    -0.085 Br 
HETATM   26  O   UNL     3      -7.763   6.204  65.256  1.00  0.00    -0.084 OA 
HETATM   27  C   UNL     3      -8.094   5.199  66.126  1.00  0.00    -0.108 A  
HETATM   28  C   UNL     3      -8.237   5.448  67.484  1.00  0.00    -0.100 A  
HETATM   29  C   UNL     3      -8.625   4.389  68.302  1.00  0.00    -0.106 C  
HETATM   30  C   UNL     3      -8.803   3.096  67.782  1.00  0.00    -0.134 C  
HETATM   31 BR   UNL     3      -9.313   1.768  69.074  1.00  0.00    -0.176 Br 
HETATM   32  C   UNL     3      -8.607   2.772  66.416  1.00  0.00    -0.110 C  
HETATM   33  C   UNL     3      -8.274   3.897  65.605  1.00  0.00    -0.105 C  
HETATM   34  O   UNL     3      -8.709   1.579  65.964  1.00  0.00    -0.107 OA 
HETATM   35 BR   UNL     3      -8.022   3.672  63.701  1.00  0.00    -0.089 Br 
ENDBRANCH  14  16
TORSDOF 1
ENDMDL
MODEL       46
REMARK 921   NORMALIZED FREE ENERGY PREDICTED BY IDOCK:   -4.95 KCAL/MOL
REMARK 922        TOTAL FREE ENERGY PREDICTED BY IDOCK:   -6.00 KCAL/MOL
REMARK 923 INTER-LIGAND FREE ENERGY PREDICTED BY IDOCK:   -4.95 KCAL/MOL
REMARK 924 INTRA-LIGAND FREE ENERGY PREDICTED BY IDOCK:   -1.05 KCAL/MOL
REMARK 927      BINDING AFFINITY PREDICTED BY RF-SCORE:    0.00 PKD
ROOT
HETATM    1 NA   UNL     1     -12.246   6.841  67.156  1.00  0.00    -0.674 Na 
HETATM    2 NA   UNL     2      -8.324   7.208  64.028  1.00  0.00    -0.128 Na 
HETATM    3  O   UNL     3      -9.203   7.664  65.754  1.00  0.00    -0.065 OA 
HETATM    4  C   UNL     3      -9.459   8.106  66.929  1.00  0.00    -0.191 C  
HETATM    5  C   UNL     3      -8.424   8.932  67.646  1.00  0.00    -0.121 A  
HETATM    6  O   UNL     3     -10.586   7.874  67.476  1.00  0.00    -0.261 OA 
HETATM    7  C   UNL     3      -7.673   9.912  66.954  1.00  0.00    -0.098 A  
HETATM    8 CL   UNL     3      -7.967  10.221  65.256  1.00  0.00    -0.146 Cl 
HETATM    9  C   UNL     3      -6.692  10.683  67.619  1.00  0.00    -0.072 A  
HETATM   10 CL   UNL     3      -5.773  11.876  66.733  1.00  0.00    -0.122 Cl 
HETATM   11  C   UNL     3      -6.454  10.501  68.989  1.00  0.00    -0.054 A  
HETATM   12  C   UNL     3      -7.191   9.539  69.697  1.00  0.00    -0.076 A  
HETATM   13 CL   UNL     3      -5.256  11.465  69.807  1.00  0.00    -0.053 Cl 
HETATM   14  C   UNL     3      -8.168   8.749  69.037  1.00  0.00    -0.117 A  
HETATM   15 CL   UNL     3      -6.909   9.313  71.404  1.00  0.00    -0.042 Cl 
ENDROOT
BRANCH  14  16
HETATM   16  C   UNL     3      -8.871   7.671  69.813  1.00  0.00    -0.140 A  
HETATM   17  C   UNL     3     -10.006   7.943  70.514  1.00  0.00    -0.191 A  
HETATM   18  C   UNL     3     -10.561   9.296  70.581  1.00  0.00    -0.324 C  
HETATM   19  C   UNL     3     -11.752   9.559  71.140  1.00  0.00    -0.363 C  
HETATM   20 BR   UNL     3     -12.473  11.277  71.131  1.00  0.00    -0.439 Br 
HETATM   21  C   UNL     3     -12.559   8.443  71.730  1.00  0.00    -0.342 C  
HETATM   22  O   UNL     3     -13.723   8.632  72.100  1.00  0.00    -0.381 OA 
HETATM   23  C   UNL     3     -11.924   7.092  71.801  1.00  0.00    -0.313 C  
HETATM   24  C   UNL     3     -10.728   6.867  71.209  1.00  0.00    -0.223 A  
HETATM   25 BR   UNL     3     -12.899   5.737  72.649  1.00  0.00     0.907 Br 
HETATM   26  O   UNL     3     -10.203   5.586  71.217  1.00  0.00    -0.204 OA 
HETATM   27  C   UNL     3      -9.071   5.286  70.507  1.00  0.00    -0.141 A  
HETATM   28  C   UNL     3      -8.372   6.275  69.828  1.00  0.00    -0.125 A  
HETATM   29  C   UNL     3      -7.201   5.906  69.168  1.00  0.00    -0.078 C  
HETATM   30  C   UNL     3      -6.776   4.568  69.135  1.00  0.00    -0.046 C  
HETATM   31 BR   UNL     3      -5.152   4.260  68.154  1.00  0.00    -0.008 Br 
HETATM   32  C   UNL     3      -7.486   3.510  69.755  1.00  0.00    -0.045 C  
HETATM   33  C   UNL     3      -8.642   3.940  70.472  1.00  0.00    -0.070 C  
HETATM   34  O   UNL     3      -7.124   2.285  69.664  1.00  0.00    -0.033 OA 
HETATM   35 BR   UNL     3      -9.714   2.651  71.435  1.00  0.00    -0.172 Br 
ENDBRANCH  14  16
TORSDOF 1
ENDMDL
MODEL       47
REMARK 921   NORMALIZED FREE ENERGY PREDICTED BY IDOCK:   -4.94 KCAL/MOL
REMARK 922        TOTAL FREE ENERGY PREDICTED BY IDOCK:   -5.98 KCAL/MOL
REMARK 923 INTER-LIGAND FREE ENERGY PREDICTED BY IDOCK:   -5.11 KCAL/MOL
REMARK 924 INTRA-LIGAND FREE ENERGY PREDICTED BY IDOCK:   -0.87 KCAL/MOL
REMARK 927      BINDING AFFINITY PREDICTED BY RF-SCORE:    0.00 PKD
ROOT
HETATM    1 NA   UNL     1     -12.854   6.250  67.802  1.00  0.00     0.810 Na 
HETATM    2 NA   UNL     2     -10.008   2.301  66.536  1.00  0.00    -0.371 Na 
HETATM    3  O   UNL     3     -10.312   4.268  66.573  1.00  0.00    -0.146 OA 
HETATM    4  C   UNL     3     -10.185   5.537  66.466  1.00  0.00    -0.228 C  
HETATM    5  C   UNL     3      -8.936   6.101  65.839  1.00  0.00    -0.133 A  
HETATM    6  O   UNL     3     -11.113   6.316  66.858  1.00  0.00    -0.361 OA 
HETATM    7  C   UNL     3      -8.364   5.496  64.695  1.00  0.00    -0.131 A  
HETATM    8 CL   UNL     3      -9.123   4.105  63.952  1.00  0.00    -0.136 Cl 
HETATM    9  C   UNL     3      -7.185   6.014  64.109  1.00  0.00    -0.057 A  
HETATM   10 CL   UNL     3      -6.496   5.235  62.706  1.00  0.00    -0.025 Cl 
HETATM   11  C   UNL     3      -6.567   7.153  64.645  1.00  0.00    -0.040 A  
HETATM   12  C   UNL     3      -7.121   7.774  65.775  1.00  0.00    -0.061 A  
HETATM   13 CL   UNL     3      -5.125   7.796  63.909  1.00  0.00    -0.036 Cl 
HETATM   14  C   UNL     3      -8.295   7.254  66.381  1.00  0.00    -0.124 A  
HETATM   15 CL   UNL     3      -6.365   9.198  66.442  1.00  0.00    -0.065 Cl 
ENDROOT
BRANCH  14  16
HETATM   16  C   UNL     3      -8.804   7.897  67.641  1.00  0.00    -0.128 A  
HETATM   17  C   UNL     3      -9.526   9.051  67.593  1.00  0.00    -0.166 A  
HETATM   18  C   UNL     3      -9.795   9.736  66.328  1.00  0.00    -0.315 C  
HETATM   19  C   UNL     3     -10.622  10.788  66.241  1.00  0.00    -0.192 C  
HETATM   20 BR   UNL     3     -11.015  11.584  64.602  1.00  0.00    -0.321 Br 
HETATM   21  C   UNL     3     -11.303  11.302  67.472  1.00  0.00    -0.288 C  
HETATM   22  O   UNL     3     -12.191  12.159  67.392  1.00  0.00    -0.486 OA 
HETATM   23  C   UNL     3     -10.908  10.703  68.782  1.00  0.00    -0.229 C  
HETATM   24  C   UNL     3     -10.082   9.632  68.823  1.00  0.00    -0.179 A  
HETATM   25 BR   UNL     3     -11.680  11.440  70.322  1.00  0.00    -0.349 Br 
HETATM   26  O   UNL     3      -9.800   9.045  70.045  1.00  0.00    -0.170 OA 
HETATM   27  C   UNL     3      -9.090   7.877  70.116  1.00  0.00    -0.152 A  
HETATM   28  C   UNL     3      -8.560   7.293  68.972  1.00  0.00    -0.129 A  
HETATM   29  C   UNL     3      -7.806   6.131  69.125  1.00  0.00    -0.104 C  
HETATM   30  C   UNL     3      -7.640   5.533  70.386  1.00  0.00    -0.081 C  
HETATM   31 BR   UNL     3      -6.588   3.925  70.384  1.00  0.00    -0.033 Br 
HETATM   32  C   UNL     3      -8.212   6.050  71.575  1.00  0.00    -0.123 C  
HETATM   33  C   UNL     3      -8.921   7.273  71.382  1.00  0.00    -0.138 C  
HETATM   34  O   UNL     3      -8.108   5.462  72.707  1.00  0.00    -0.108 OA 
HETATM   35 BR   UNL     3      -9.727   8.167  72.895  1.00  0.00    -0.314 Br 
ENDBRANCH  14  16
TORSDOF 1
ENDMDL
MODEL       48
REMARK 921   NORMALIZED FREE ENERGY PREDICTED BY IDOCK:   -4.93 KCAL/MOL
REMARK 922        TOTAL FREE ENERGY PREDICTED BY IDOCK:   -5.98 KCAL/MOL
REMARK 923 INTER-LIGAND FREE ENERGY PREDICTED BY IDOCK:   -5.38 KCAL/MOL
REMARK 924 INTRA-LIGAND FREE ENERGY PREDICTED BY IDOCK:   -0.60 KCAL/MOL
REMARK 927      BINDING AFFINITY PREDICTED BY RF-SCORE:    0.00 PKD
ROOT
HETATM    1 NA   UNL     1      -5.895   7.217  65.394  1.00  0.00    -0.030 Na 
HETATM    2 NA   UNL     2      -5.807  11.399  62.600  1.00  0.00    -0.185 Na 
HETATM    3  O   UNL     3      -6.718  10.230  63.929  1.00  0.00    -0.127 OA 
HETATM    4  C   UNL     3      -7.527   9.747  64.796  1.00  0.00    -0.130 C  
HETATM    5  C   UNL     3      -8.772  10.517  65.150  1.00  0.00    -0.197 A  
HETATM    6  O   UNL     3      -7.299   8.615  65.333  1.00  0.00    -0.082 OA 
HETATM    7  C   UNL     3      -9.528  11.171  64.149  1.00  0.00    -0.208 A  
HETATM    8 CL   UNL     3      -9.060  11.059  62.466  1.00  0.00    -0.361 Cl 
HETATM    9  C   UNL     3     -10.692  11.905  64.476  1.00  0.00    -0.312 A  
HETATM   10 CL   UNL     3     -11.595  12.713  63.218  1.00  0.00    -0.517 Cl 
HETATM   11  C   UNL     3     -11.130  11.986  65.806  1.00  0.00    -0.324 A  
HETATM   12  C   UNL     3     -10.399  11.340  66.815  1.00  0.00    -0.238 A  
HETATM   13 CL   UNL     3     -12.573  12.878  66.202  1.00  0.00    -0.083 Cl 
HETATM   14  C   UNL     3      -9.222  10.612  66.500  1.00  0.00    -0.187 A  
HETATM   15 CL   UNL     3     -10.943  11.426  68.471  1.00  0.00    -0.242 Cl 
ENDROOT
BRANCH  14  16
HETATM   16  C   UNL     3      -8.422  10.010  67.622  1.00  0.00    -0.114 A  
HETATM   17  C   UNL     3      -7.542  10.766  68.335  1.00  0.00    -0.102 A  
HETATM   18  C   UNL     3      -7.302  12.173  68.013  1.00  0.00    -0.105 C  
HETATM   19  C   UNL     3      -6.554  12.971  68.789  1.00  0.00    -0.096 C  
HETATM   20 BR   UNL     3      -6.338  14.781  68.401  1.00  0.00    -0.114 Br 
HETATM   21  C   UNL     3      -5.925  12.422  70.033  1.00  0.00    -0.149 C  
HETATM   22  O   UNL     3      -5.371  13.173  70.845  1.00  0.00    -0.141 OA 
HETATM   23  C   UNL     3      -6.041  10.953  70.276  1.00  0.00    -0.142 C  
HETATM   24  C   UNL     3      -6.820  10.187  69.477  1.00  0.00    -0.079 A  
HETATM   25 BR   UNL     3      -5.148  10.265  71.772  1.00  0.00    -0.027 Br 
HETATM   26  O   UNL     3      -6.977   8.844  69.777  1.00  0.00    -0.048 OA 
HETATM   27  C   UNL     3      -7.868   8.070  69.083  1.00  0.00    -0.108 A  
HETATM   28  C   UNL     3      -8.577   8.587  68.007  1.00  0.00    -0.134 A  
HETATM   29  C   UNL     3      -9.429   7.727  67.316  1.00  0.00    -0.187 C  
HETATM   30  C   UNL     3      -9.615   6.398  67.734  1.00  0.00    -0.121 C  
HETATM   31 BR   UNL     3     -10.848   5.382  66.666  1.00  0.00    -0.071 Br 
HETATM   32  C   UNL     3      -8.968   5.839  68.863  1.00  0.00    -0.113 C  
HETATM   33  C   UNL     3      -8.058   6.733  69.501  1.00  0.00    -0.126 C  
HETATM   34  O   UNL     3      -9.194   4.647  69.273  1.00  0.00    -0.108 OA 
HETATM   35 BR   UNL     3      -7.033   6.137  71.028  1.00  0.00    -0.070 Br 
ENDBRANCH  14  16
TORSDOF 1
ENDMDL
MODEL       49
REMARK 921   NORMALIZED FREE ENERGY PREDICTED BY IDOCK:   -4.87 KCAL/MOL
REMARK 922        TOTAL FREE ENERGY PREDICTED BY IDOCK:   -5.91 KCAL/MOL
REMARK 923 INTER-LIGAND FREE ENERGY PREDICTED BY IDOCK:   -5.04 KCAL/MOL
REMARK 924 INTRA-LIGAND FREE ENERGY PREDICTED BY IDOCK:   -0.87 KCAL/MOL
REMARK 927      BINDING AFFINITY PREDICTED BY RF-SCORE:    0.00 PKD
ROOT
HETATM    1 NA   UNL     1     -12.132   6.687  67.065  1.00  0.00    -0.715 Na 
HETATM    2 NA   UNL     2     -11.578  10.786  69.927  1.00  0.00    -0.200 Na 
HETATM    3  O   UNL     3     -11.023   8.940  69.431  1.00  0.00    -0.173 OA 
HETATM    4  C   UNL     3     -10.413   7.818  69.343  1.00  0.00    -0.220 C  
HETATM    5  C   UNL     3      -9.239   7.545  70.246  1.00  0.00    -0.157 A  
HETATM    6  O   UNL     3     -10.810   6.929  68.521  1.00  0.00    -0.215 OA 
HETATM    7  C   UNL     3      -9.267   7.933  71.607  1.00  0.00    -0.141 A  
HETATM    8 CL   UNL     3     -10.690   8.696  72.284  1.00  0.00    -0.417 Cl 
HETATM    9  C   UNL     3      -8.163   7.691  72.457  1.00  0.00    -0.118 A  
HETATM   10 CL   UNL     3      -8.225   8.194  74.129  1.00  0.00    -0.314 Cl 
HETATM   11  C   UNL     3      -7.020   7.043  71.969  1.00  0.00    -0.065 A  
HETATM   12  C   UNL     3      -6.972   6.644  70.624  1.00  0.00    -0.064 A  
HETATM   13 CL   UNL     3      -5.670   6.732  73.025  1.00  0.00    -0.042 Cl 
HETATM   14  C   UNL     3      -8.068   6.895  69.758  1.00  0.00    -0.126 A  
HETATM   15 CL   UNL     3      -5.557   5.828  70.011  1.00  0.00    -0.011 Cl 
ENDROOT
BRANCH  14  16
HETATM   16  C   UNL     3      -7.939   6.530  68.305  1.00  0.00    -0.110 A  
HETATM   17  C   UNL     3      -8.108   5.244  67.892  1.00  0.00    -0.099 A  
HETATM   18  C   UNL     3      -8.372   4.161  68.840  1.00  0.00    -0.089 C  
HETATM   19  C   UNL     3      -8.685   2.918  68.445  1.00  0.00    -0.103 C  
HETATM   20 BR   UNL     3      -9.103   1.582  69.675  1.00  0.00    -0.159 Br 
HETATM   21  C   UNL     3      -8.767   2.601  66.983  1.00  0.00    -0.123 C  
HETATM   22  O   UNL     3      -9.212   1.514  66.596  1.00  0.00    -0.082 OA 
HETATM   23  C   UNL     3      -8.346   3.663  66.021  1.00  0.00    -0.106 C  
HETATM   24  C   UNL     3      -8.054   4.909  66.461  1.00  0.00    -0.107 A  
HETATM   25 BR   UNL     3      -8.341   3.211  64.203  1.00  0.00    -0.089 Br 
HETATM   26  O   UNL     3      -7.748   5.895  65.539  1.00  0.00    -0.084 OA 
HETATM   27  C   UNL     3      -7.591   7.198  65.930  1.00  0.00    -0.093 A  
HETATM   28  C   UNL     3      -7.648   7.552  67.272  1.00  0.00    -0.108 A  
HETATM   29  C   UNL     3      -7.428   8.889  67.601  1.00  0.00    -0.092 C  
HETATM   30  C   UNL     3      -7.220   9.858  66.606  1.00  0.00    -0.091 C  
HETATM   31 BR   UNL     3      -6.961  11.646  67.261  1.00  0.00    -0.142 Br 
HETATM   32  C   UNL     3      -7.217   9.563  65.220  1.00  0.00    -0.104 C  
HETATM   33  C   UNL     3      -7.381   8.175  64.931  1.00  0.00    -0.087 C  
HETATM   34  O   UNL     3      -7.090  10.463  64.319  1.00  0.00    -0.094 OA 
HETATM   35 BR   UNL     3      -7.347   7.562  63.098  1.00  0.00    -0.097 Br 
ENDBRANCH  14  16
TORSDOF 1
ENDMDL
MODEL       50
REMARK 921   NORMALIZED FREE ENERGY PREDICTED BY IDOCK:   -4.87 KCAL/MOL
REMARK 922        TOTAL FREE ENERGY PREDICTED BY IDOCK:   -5.91 KCAL/MOL
REMARK 923 INTER-LIGAND FREE ENERGY PREDICTED BY IDOCK:   -4.96 KCAL/MOL
REMARK 924 INTRA-LIGAND FREE ENERGY PREDICTED BY IDOCK:   -0.95 KCAL/MOL
REMARK 927      BINDING AFFINITY PREDICTED BY RF-SCORE:    0.00 PKD
ROOT
HETATM    1 NA   UNL     1     -11.953   7.850  68.716  1.00  0.00    -0.089 Na 
HETATM    2 NA   UNL     2     -12.775  12.127  66.201  1.00  0.00    -0.296 Na 
HETATM    3  O   UNL     3     -11.592  10.985  67.322  1.00  0.00    -0.496 OA 
HETATM    4  C   UNL     3     -10.602  10.505  67.978  1.00  0.00    -0.214 C  
HETATM    5  C   UNL     3      -9.334  11.310  68.090  1.00  0.00    -0.181 A  
HETATM    6  O   UNL     3     -10.696   9.374  68.556  1.00  0.00    -0.214 OA 
HETATM    7  C   UNL     3      -9.379  12.707  68.308  1.00  0.00    -0.195 A  
HETATM    8 CL   UNL     3     -10.914  13.526  68.502  1.00  0.00    -0.277 Cl 
HETATM    9  C   UNL     3      -8.192  13.470  68.401  1.00  0.00    -0.141 A  
HETATM   10 CL   UNL     3      -8.283  15.196  68.657  1.00  0.00    -0.145 Cl 
HETATM   11  C   UNL     3      -6.939  12.849  68.295  1.00  0.00    -0.099 A  
HETATM   12  C   UNL     3      -6.869  11.463  68.085  1.00  0.00    -0.064 A  
HETATM   13 CL   UNL     3      -5.480  13.791  68.428  1.00  0.00    -0.091 Cl 
HETATM   14  C   UNL     3      -8.054  10.690  67.975  1.00  0.00    -0.112 A  
HETATM   15 CL   UNL     3      -5.314  10.681  67.963  1.00  0.00    -0.037 Cl 
ENDROOT
BRANCH  14  16
HETATM   16  C   UNL     3      -7.935   9.225  67.663  1.00  0.00    -0.103 A  
HETATM   17  C   UNL     3      -7.876   8.301  68.661  1.00  0.00    -0.120 A  
HETATM   18  C   UNL     3      -7.878   8.693  70.071  1.00  0.00    -0.103 C  
HETATM   19  C   UNL     3      -7.968   7.800  71.067  1.00  0.00    -0.090 C  
HETATM   20 BR   UNL     3      -8.057   8.336  72.850  1.00  0.00    -0.181 Br 
HETATM   21  C   UNL     3      -8.064   6.339  70.749  1.00  0.00    -0.120 C  
HETATM   22  O   UNL     3      -8.313   5.515  71.637  1.00  0.00    -0.120 OA 
HETATM   23  C   UNL     3      -7.905   5.930  69.321  1.00  0.00    -0.095 C  
HETATM   24  C   UNL     3      -7.834   6.866  68.346  1.00  0.00    -0.121 A  
HETATM   25 BR   UNL     3      -7.909   4.093  68.957  1.00  0.00    -0.056 Br 
HETATM   26  O   UNL     3      -7.771   6.457  67.024  1.00  0.00    -0.097 OA 
HETATM   27  C   UNL     3      -7.846   7.367  66.004  1.00  0.00    -0.102 A  
HETATM   28  C   UNL     3      -7.899   8.730  66.265  1.00  0.00    -0.102 A  
HETATM   29  C   UNL     3      -7.922   9.600  65.177  1.00  0.00    -0.120 C  
HETATM   30  C   UNL     3      -7.955   9.115  63.859  1.00  0.00    -0.142 C  
HETATM   31 BR   UNL     3      -8.009  10.472  62.500  1.00  0.00    -0.196 Br 
HETATM   32  C   UNL     3      -7.968   7.735  63.537  1.00  0.00    -0.104 C  
HETATM   33  C   UNL     3      -7.879   6.882  64.677  1.00  0.00    -0.116 C  
HETATM   34  O   UNL     3      -8.064   7.304  62.336  1.00  0.00    -0.131 OA 
HETATM   35 BR   UNL     3      -7.825   4.964  64.443  1.00  0.00    -0.093 Br 
ENDBRANCH  14  16
TORSDOF 1
ENDMDL
MODEL       51
REMARK 921   NORMALIZED FREE ENERGY PREDICTED BY IDOCK:   -4.81 KCAL/MOL
REMARK 922        TOTAL FREE ENERGY PREDICTED BY IDOCK:   -5.85 KCAL/MOL
REMARK 923 INTER-LIGAND FREE ENERGY PREDICTED BY IDOCK:   -5.39 KCAL/MOL
REMARK 924 INTRA-LIGAND FREE ENERGY PREDICTED BY IDOCK:   -0.46 KCAL/MOL
REMARK 927      BINDING AFFINITY PREDICTED BY RF-SCORE:    0.00 PKD
ROOT
HETATM    1 NA   UNL     1      -6.296   8.369  66.469  1.00  0.00    -0.045 Na 
HETATM    2 NA   UNL     2      -6.388  11.648  62.657  1.00  0.00    -0.352 Na 
HETATM    3  O   UNL     3      -7.249  10.841  64.260  1.00  0.00     0.160 OA 
HETATM    4  C   UNL     3      -8.037  10.573  65.232  1.00  0.00    -0.131 C  
HETATM    5  C   UNL     3      -9.316  11.356  65.381  1.00  0.00    -0.206 A  
HETATM    6  O   UNL     3      -7.760   9.637  66.051  1.00  0.00    -0.099 OA 
HETATM    7  C   UNL     3     -10.098  11.685  64.249  1.00  0.00    -0.287 A  
HETATM    8 CL   UNL     3      -9.623  11.147  62.653  1.00  0.00    -0.310 Cl 
HETATM    9  C   UNL     3     -11.294  12.430  64.380  1.00  0.00    -0.340 A  
HETATM   10 CL   UNL     3     -12.230  12.832  62.961  1.00  0.00    -0.318 Cl 
HETATM   11  C   UNL     3     -11.736  12.845  65.644  1.00  0.00    -0.387 A  
HETATM   12  C   UNL     3     -10.980  12.524  66.782  1.00  0.00    -0.265 A  
HETATM   13 CL   UNL     3     -13.218  13.747  65.801  1.00  0.00    -0.144 Cl 
HETATM   14  C   UNL     3      -9.771  11.790  66.661  1.00  0.00    -0.219 A  
HETATM   15 CL   UNL     3     -11.529  13.027  68.360  1.00  0.00    -0.322 Cl 
ENDROOT
BRANCH  14  16
HETATM   16  C   UNL     3      -8.948  11.545  67.894  1.00  0.00    -0.159 A  
HETATM   17  C   UNL     3      -9.010  10.353  68.549  1.00  0.00    -0.139 A  
HETATM   18  C   UNL     3      -9.910   9.284  68.113  1.00  0.00    -0.185 C  
HETATM   19  C   UNL     3      -9.882   8.055  68.651  1.00  0.00    -0.174 C  
HETATM   20 BR   UNL     3     -10.978   6.689  68.015  1.00  0.00    -0.310 Br 
HETATM   21  C   UNL     3      -8.907   7.745  69.745  1.00  0.00    -0.139 C  
HETATM   22  O   UNL     3      -8.749   6.584  70.141  1.00  0.00    -0.138 OA 
HETATM   23  C   UNL     3      -8.100   8.876  70.294  1.00  0.00    -0.123 C  
HETATM   24  C   UNL     3      -8.146  10.096  69.710  1.00  0.00    -0.154 A  
HETATM   25 BR   UNL     3      -6.973   8.493  71.741  1.00  0.00    -0.100 Br 
HETATM   26  O   UNL     3      -7.324  11.103  70.188  1.00  0.00     0.083 OA 
HETATM   27  C   UNL     3      -7.233  12.303  69.536  1.00  0.00     0.318 A  
HETATM   28  C   UNL     3      -8.025  12.576  68.428  1.00  0.00    -0.139 A  
HETATM   29  C   UNL     3      -7.916  13.837  67.845  1.00  0.00    -0.157 C  
HETATM   30  C   UNL     3      -6.990  14.780  68.322  1.00  0.00    -0.119 C  
HETATM   31 BR   UNL     3      -6.975  16.449  67.370  1.00  0.00    -0.218 Br 
HETATM   32  C   UNL     3      -6.113  14.531  69.406  1.00  0.00    -0.106 C  
HETATM   33  C   UNL     3      -6.302  13.254  70.013  1.00  0.00    -0.016 C  
HETATM   34  O   UNL     3      -5.228  15.373  69.791  1.00  0.00    -0.096 OA 
HETATM   35 BR   UNL     3      -5.240  12.748  71.546  1.00  0.00    -0.055 Br 
ENDBRANCH  14  16
TORSDOF 1
ENDMDL
MODEL       52
REMARK 921   NORMALIZED FREE ENERGY PREDICTED BY IDOCK:   -4.78 KCAL/MOL
REMARK 922        TOTAL FREE ENERGY PREDICTED BY IDOCK:   -5.82 KCAL/MOL
REMARK 923 INTER-LIGAND FREE ENERGY PREDICTED BY IDOCK:   -4.76 KCAL/MOL
REMARK 924 INTRA-LIGAND FREE ENERGY PREDICTED BY IDOCK:   -1.06 KCAL/MOL
REMARK 927      BINDING AFFINITY PREDICTED BY RF-SCORE:    0.00 PKD
ROOT
HETATM    1 NA   UNL     1     -11.646   7.919  66.966  1.00  0.00    -0.474 Na 
HETATM    2 NA   UNL     2     -11.620  10.599  71.223  1.00  0.00    -0.289 Na 
HETATM    3  O   UNL     3     -10.955   9.062  70.147  1.00  0.00    -0.237 OA 
HETATM    4  C   UNL     3     -10.313   8.036  69.728  1.00  0.00    -0.219 C  
HETATM    5  C   UNL     3      -9.281   7.398  70.621  1.00  0.00    -0.157 A  
HETATM    6  O   UNL     3     -10.562   7.541  68.581  1.00  0.00    -0.197 OA 
HETATM    7  C   UNL     3      -9.521   7.240  72.007  1.00  0.00    -0.132 A  
HETATM    8 CL   UNL     3     -11.046   7.738  72.707  1.00  0.00    -0.428 Cl 
HETATM    9  C   UNL     3      -8.552   6.652  72.853  1.00  0.00    -0.118 A  
HETATM   10 CL   UNL     3      -8.874   6.484  74.561  1.00  0.00    -0.173 Cl 
HETATM   11  C   UNL     3      -7.333   6.199  72.328  1.00  0.00    -0.093 A  
HETATM   12  C   UNL     3      -7.075   6.340  70.955  1.00  0.00    -0.070 A  
HETATM   13 CL   UNL     3      -6.149   5.461  73.371  1.00  0.00    -0.049 Cl 
HETATM   14  C   UNL     3      -8.035   6.941  70.099  1.00  0.00    -0.115 A  
HETATM   15 CL   UNL     3      -5.566   5.768  70.292  1.00  0.00    -0.012 Cl 
ENDROOT
BRANCH  14  16
HETATM   16  C   UNL     3      -7.682   7.152  68.654  1.00  0.00    -0.120 A  
HETATM   17  C   UNL     3      -7.876   6.163  67.737  1.00  0.00    -0.105 A  
HETATM   18  C   UNL     3      -8.386   4.847  68.124  1.00  0.00    -0.099 C  
HETATM   19  C   UNL     3      -8.722   3.912  67.223  1.00  0.00    -0.110 C  
HETATM   20 BR   UNL     3      -9.452   2.278  67.742  1.00  0.00    -0.039 Br 
HETATM   21  C   UNL     3      -8.570   4.201  65.760  1.00  0.00    -0.114 C  
HETATM   22  O   UNL     3      -9.024   3.423  64.913  1.00  0.00    -0.122 OA 
HETATM   23  C   UNL     3      -7.905   5.481  65.373  1.00  0.00    -0.100 C  
HETATM   24  C   UNL     3      -7.598   6.404  66.314  1.00  0.00    -0.090 A  
HETATM   25 BR   UNL     3      -7.617   5.770  63.545  1.00  0.00    -0.086 Br 
HETATM   26  O   UNL     3      -7.059   7.616  65.917  1.00  0.00    -0.062 OA 
HETATM   27  C   UNL     3      -6.872   8.629  66.819  1.00  0.00    -0.069 A  
HETATM   28  C   UNL     3      -7.136   8.442  68.169  1.00  0.00    -0.085 A  
HETATM   29  C   UNL     3      -6.873   9.501  69.036  1.00  0.00    -0.054 C  
HETATM   30  C   UNL     3      -6.418  10.739  68.554  1.00  0.00    -0.054 C  
HETATM   31 BR   UNL     3      -6.139  12.079  69.903  1.00  0.00    -0.134 Br 
HETATM   32  C   UNL     3      -6.194  11.006  67.180  1.00  0.00    -0.075 C  
HETATM   33  C   UNL     3      -6.414   9.877  66.336  1.00  0.00    -0.072 C  
HETATM   34  O   UNL     3      -5.842  12.157  66.745  1.00  0.00    -0.265 OA 
HETATM   35 BR   UNL     3      -6.107  10.022  64.433  1.00  0.00    -0.137 Br 
ENDBRANCH  14  16
TORSDOF 1
ENDMDL
MODEL       53
REMARK 921   NORMALIZED FREE ENERGY PREDICTED BY IDOCK:   -4.75 KCAL/MOL
REMARK 922        TOTAL FREE ENERGY PREDICTED BY IDOCK:   -5.78 KCAL/MOL
REMARK 923 INTER-LIGAND FREE ENERGY PREDICTED BY IDOCK:   -5.25 KCAL/MOL
REMARK 924 INTRA-LIGAND FREE ENERGY PREDICTED BY IDOCK:   -0.54 KCAL/MOL
REMARK 927      BINDING AFFINITY PREDICTED BY RF-SCORE:    0.00 PKD
ROOT
HETATM    1 NA   UNL     1      -7.095  12.078  69.020  1.00  0.00    -0.076 Na 
HETATM    2 NA   UNL     2      -5.126   8.872  72.358  1.00  0.00    -0.033 Na 
HETATM    3  O   UNL     3      -6.675   9.507  71.282  1.00  0.00    -0.259 OA 
HETATM    4  C   UNL     3      -7.821   9.630  70.723  1.00  0.00     0.042 C  
HETATM    5  C   UNL     3      -8.911   8.645  71.054  1.00  0.00    -0.235 A  
HETATM    6  O   UNL     3      -8.048  10.590  69.917  1.00  0.00    -0.069 OA 
HETATM    7  C   UNL     3      -9.108   8.203  72.385  1.00  0.00    -0.215 A  
HETATM    8 CL   UNL     3      -8.118   8.832  73.685  1.00  0.00     0.110 Cl 
HETATM    9  C   UNL     3     -10.122   7.269  72.701  1.00  0.00    -0.194 A  
HETATM   10 CL   UNL     3     -10.330   6.734  74.351  1.00  0.00    -0.275 Cl 
HETATM   11  C   UNL     3     -10.967   6.772  71.698  1.00  0.00    -0.235 A  
HETATM   12  C   UNL     3     -10.794   7.201  70.373  1.00  0.00    -0.246 A  
HETATM   13 CL   UNL     3     -12.225   5.635  72.096  1.00  0.00     0.044 Cl 
HETATM   14  C   UNL     3      -9.770   8.126  70.041  1.00  0.00    -0.172 A  
HETATM   15 CL   UNL     3     -11.848   6.596  69.120  1.00  0.00     0.080 Cl 
ENDROOT
BRANCH  14  16
HETATM   16  C   UNL     3      -9.565   8.490  68.598  1.00  0.00    -0.153 A  
HETATM   17  C   UNL     3      -8.858   7.675  67.767  1.00  0.00    -0.125 A  
HETATM   18  C   UNL     3      -8.232   6.443  68.249  1.00  0.00    -0.116 C  
HETATM   19  C   UNL     3      -7.659   5.555  67.424  1.00  0.00    -0.089 C  
HETATM   20 BR   UNL     3      -6.948   3.954  68.058  1.00  0.00    -0.052 Br 
HETATM   21  C   UNL     3      -7.641   5.816  65.948  1.00  0.00    -0.086 C  
HETATM   22  O   UNL     3      -7.268   4.942  65.157  1.00  0.00    -0.062 OA 
HETATM   23  C   UNL     3      -8.139   7.142  65.474  1.00  0.00    -0.135 C  
HETATM   24  C   UNL     3      -8.725   8.002  66.340  1.00  0.00    -0.151 A  
HETATM   25 BR   UNL     3      -7.998   7.498  63.640  1.00  0.00    -0.023 Br 
HETATM   26  O   UNL     3      -9.253   9.187  65.857  1.00  0.00    -0.193 OA 
HETATM   27  C   UNL     3      -9.981  10.014  66.671  1.00  0.00    -0.216 A  
HETATM   28  C   UNL     3     -10.138   9.730  68.021  1.00  0.00    -0.204 A  
HETATM   29  C   UNL     3     -10.849  10.642  68.799  1.00  0.00    -0.269 C  
HETATM   30  C   UNL     3     -11.443  11.778  68.226  1.00  0.00    -0.307 C  
HETATM   31 BR   UNL     3     -12.400  12.898  69.459  1.00  0.00     0.086 Br 
HETATM   32  C   UNL     3     -11.370  12.082  66.844  1.00  0.00    -0.341 C  
HETATM   33  C   UNL     3     -10.581  11.158  66.097  1.00  0.00    -0.248 C  
HETATM   34  O   UNL     3     -11.969  13.086  66.321  1.00  0.00    -0.392 OA 
HETATM   35 BR   UNL     3     -10.312  11.432  64.202  1.00  0.00    -0.436 Br 
ENDBRANCH  14  16
TORSDOF 1
ENDMDL
MODEL       54
REMARK 921   NORMALIZED FREE ENERGY PREDICTED BY IDOCK:   -4.74 KCAL/MOL
REMARK 922        TOTAL FREE ENERGY PREDICTED BY IDOCK:   -5.77 KCAL/MOL
REMARK 923 INTER-LIGAND FREE ENERGY PREDICTED BY IDOCK:   -4.75 KCAL/MOL
REMARK 924 INTRA-LIGAND FREE ENERGY PREDICTED BY IDOCK:   -1.02 KCAL/MOL
REMARK 927      BINDING AFFINITY PREDICTED BY RF-SCORE:    0.00 PKD
ROOT
HETATM    1 NA   UNL     1     -12.197   7.797  69.532  1.00  0.00    -0.348 Na 
HETATM    2 NA   UNL     2     -12.660  11.826  66.556  1.00  0.00    -0.119 Na 
HETATM    3  O   UNL     3     -11.559  10.690  67.764  1.00  0.00    -0.501 OA 
HETATM    4  C   UNL     3     -10.598  10.178  68.438  1.00  0.00    -0.217 C  
HETATM    5  C   UNL     3      -9.245  10.838  68.410  1.00  0.00    -0.164 A  
HETATM    6  O   UNL     3     -10.789   9.138  69.149  1.00  0.00    -0.203 OA 
HETATM    7  C   UNL     3      -9.126  12.248  68.461  1.00  0.00    -0.076 A  
HETATM    8 CL   UNL     3     -10.550  13.255  68.610  1.00  0.00    -0.267 Cl 
HETATM    9  C   UNL     3      -7.859  12.875  68.423  1.00  0.00    -0.133 A  
HETATM   10 CL   UNL     3      -7.747  14.617  68.475  1.00  0.00    -0.119 Cl 
HETATM   11  C   UNL     3      -6.688  12.106  68.349  1.00  0.00    -0.062 A  
HETATM   12  C   UNL     3      -6.781  10.706  68.303  1.00  0.00    -0.063 A  
HETATM   13 CL   UNL     3      -5.129  12.883  68.319  1.00  0.00    -0.069 Cl 
HETATM   14  C   UNL     3      -8.049  10.066  68.326  1.00  0.00    -0.104 A  
HETATM   15 CL   UNL     3      -5.330   9.741  68.221  1.00  0.00    -0.039 Cl 
ENDROOT
BRANCH  14  16
HETATM   16  C   UNL     3      -8.106   8.571  68.186  1.00  0.00    -0.119 A  
HETATM   17  C   UNL     3      -8.187   7.988  66.958  1.00  0.00    -0.116 A  
HETATM   18  C   UNL     3      -8.270   8.785  65.733  1.00  0.00    -0.121 C  
HETATM   19  C   UNL     3      -8.203   8.237  64.511  1.00  0.00    -0.135 C  
HETATM   20 BR   UNL     3      -8.222   9.287  62.971  1.00  0.00    -0.189 Br 
HETATM   21  C   UNL     3      -8.044   6.754  64.369  1.00  0.00    -0.058 C  
HETATM   22  O   UNL     3      -7.816   6.246  63.265  1.00  0.00    -0.093 OA 
HETATM   23  C   UNL     3      -8.117   5.929  65.612  1.00  0.00    -0.124 C  
HETATM   24  C   UNL     3      -8.167   6.524  66.827  1.00  0.00    -0.110 A  
HETATM   25 BR   UNL     3      -8.036   4.069  65.404  1.00  0.00    -0.101 Br 
HETATM   26  O   UNL     3      -8.149   5.735  67.964  1.00  0.00    -0.103 OA 
HETATM   27  C   UNL     3      -8.051   6.300  69.208  1.00  0.00    -0.110 A  
HETATM   28  C   UNL     3      -8.054   7.679  69.369  1.00  0.00    -0.127 A  
HETATM   29  C   UNL     3      -8.003   8.183  70.667  1.00  0.00    -0.096 C  
HETATM   30  C   UNL     3      -7.886   7.326  71.775  1.00  0.00    -0.091 C  
HETATM   31 BR   UNL     3      -7.806   8.214  73.477  1.00  0.00    -0.224 Br 
HETATM   32  C   UNL     3      -7.813   5.916  71.664  1.00  0.00    -0.106 C  
HETATM   33  C   UNL     3      -7.934   5.441  70.324  1.00  0.00    -0.092 C  
HETATM   34  O   UNL     3      -7.643   5.148  72.675  1.00  0.00    -0.093 OA 
HETATM   35 BR   UNL     3      -7.916   3.540  69.971  1.00  0.00    -0.055 Br 
ENDBRANCH  14  16
TORSDOF 1
ENDMDL
MODEL       55
REMARK 921   NORMALIZED FREE ENERGY PREDICTED BY IDOCK:   -4.68 KCAL/MOL
REMARK 922        TOTAL FREE ENERGY PREDICTED BY IDOCK:   -5.71 KCAL/MOL
REMARK 923 INTER-LIGAND FREE ENERGY PREDICTED BY IDOCK:   -6.37 KCAL/MOL
REMARK 924 INTRA-LIGAND FREE ENERGY PREDICTED BY IDOCK:    0.66 KCAL/MOL
REMARK 927      BINDING AFFINITY PREDICTED BY RF-SCORE:    0.00 PKD
ROOT
HETATM    1 NA   UNL     1      -8.628  14.297  65.638  1.00  0.00    -0.420 Na 
HETATM    2 NA   UNL     2      -8.861  15.952  70.382  1.00  0.00    -0.062 Na 
HETATM    3  O   UNL     3      -9.386  14.633  68.987  1.00  0.00    -0.192 OA 
HETATM    4  C   UNL     3      -9.871  13.626  68.363  1.00  0.00    -0.223 C  
HETATM    5  C   UNL     3     -10.719  12.633  69.114  1.00  0.00    -0.061 A  
HETATM    6  O   UNL     3      -9.665  13.477  67.115  1.00  0.00    -0.232 OA 
HETATM    7  C   UNL     3     -11.670  13.068  70.068  1.00  0.00    -0.215 A  
HETATM    8 CL   UNL     3     -11.916  14.776  70.361  1.00  0.00    -0.340 Cl 
HETATM    9  C   UNL     3     -12.461  12.141  70.786  1.00  0.00    -0.271 A  
HETATM   10 CL   UNL     3     -13.615  12.710  71.966  1.00  0.00    -0.504 Cl 
HETATM   11  C   UNL     3     -12.328  10.764  70.552  1.00  0.00    -0.369 A  
HETATM   12  C   UNL     3     -11.396  10.310  69.606  1.00  0.00    -0.257 A  
HETATM   13 CL   UNL     3     -13.317   9.628  71.426  1.00  0.00    -0.449 Cl 
HETATM   14  C   UNL     3     -10.586  11.231  68.890  1.00  0.00    -0.239 A  
HETATM   15 CL   UNL     3     -11.232   8.600  69.301  1.00  0.00     0.127 Cl 
ENDROOT
BRANCH  14  16
HETATM   16  C   UNL     3      -9.541  10.697  67.952  1.00  0.00    -0.174 A  
HETATM   17  C   UNL     3      -8.416  10.097  68.429  1.00  0.00    -0.118 A  
HETATM   18  C   UNL     3      -8.154   9.989  69.865  1.00  0.00    -0.180 C  
HETATM   19  C   UNL     3      -7.130   9.277  70.359  1.00  0.00    -0.091 C  
HETATM   20 BR   UNL     3      -6.874   9.085  72.195  1.00  0.00     0.213 Br 
HETATM   21  C   UNL     3      -6.203   8.562  69.424  1.00  0.00    -0.037 C  
HETATM   22  O   UNL     3      -5.357   7.770  69.856  1.00  0.00    -0.023 OA 
HETATM   23  C   UNL     3      -6.378   8.799  67.960  1.00  0.00    -0.056 C  
HETATM   24  C   UNL     3      -7.435   9.511  67.504  1.00  0.00    -0.091 A  
HETATM   25 BR   UNL     3      -5.137   7.993  66.812  1.00  0.00    -0.028 Br 
HETATM   26  O   UNL     3      -7.619   9.645  66.138  1.00  0.00    -0.099 OA 
HETATM   27  C   UNL     3      -8.750  10.230  65.636  1.00  0.00    -0.162 A  
HETATM   28  C   UNL     3      -9.704  10.782  66.481  1.00  0.00    -0.236 A  
HETATM   29  C   UNL     3     -10.806  11.406  65.898  1.00  0.00    -0.292 C  
HETATM   30  C   UNL     3     -10.980  11.420  64.504  1.00  0.00    -0.277 C  
HETATM   31 BR   UNL     3     -12.573  12.307  63.898  1.00  0.00    -0.489 Br 
HETATM   32  C   UNL     3     -10.072  10.816  63.599  1.00  0.00    -0.312 C  
HETATM   33  C   UNL     3      -8.928  10.245  64.234  1.00  0.00    -0.234 C  
HETATM   34  O   UNL     3     -10.273  10.778  62.336  1.00  0.00     0.133 OA 
HETATM   35 BR   UNL     3      -7.544   9.423  63.164  1.00  0.00    -0.112 Br 
ENDBRANCH  14  16
TORSDOF 1
ENDMDL
MODEL       56
REMARK 921   NORMALIZED FREE ENERGY PREDICTED BY IDOCK:   -4.55 KCAL/MOL
REMARK 922        TOTAL FREE ENERGY PREDICTED BY IDOCK:   -5.57 KCAL/MOL
REMARK 923 INTER-LIGAND FREE ENERGY PREDICTED BY IDOCK:   -4.49 KCAL/MOL
REMARK 924 INTRA-LIGAND FREE ENERGY PREDICTED BY IDOCK:   -1.09 KCAL/MOL
REMARK 927      BINDING AFFINITY PREDICTED BY RF-SCORE:    0.00 PKD
ROOT
HETATM    1 NA   UNL     1      -5.179   9.587  67.802  1.00  0.00    -0.034 Na 
HETATM    2 NA   UNL     2      -5.132   6.885  72.045  1.00  0.00    -0.023 Na 
HETATM    3  O   UNL     3      -6.138   7.751  70.562  1.00  0.00    -0.033 OA 
HETATM    4  C   UNL     3      -7.054   8.147  69.760  1.00  0.00    -0.060 C  
HETATM    5  C   UNL     3      -8.487   7.778  70.040  1.00  0.00    -0.135 A  
HETATM    6  O   UNL     3      -6.764   8.870  68.751  1.00  0.00    -0.053 OA 
HETATM    7  C   UNL     3      -9.001   7.816  71.358  1.00  0.00    -0.133 A  
HETATM    8 CL   UNL     3      -7.992   8.341  72.689  1.00  0.00    -0.200 Cl 
HETATM    9  C   UNL     3     -10.342   7.459  71.629  1.00  0.00    -0.196 A  
HETATM   10 CL   UNL     3     -10.940   7.503  73.270  1.00  0.00    -0.424 Cl 
HETATM   11  C   UNL     3     -11.199   7.074  70.588  1.00  0.00    -0.288 A  
HETATM   12  C   UNL     3     -10.714   7.035  69.272  1.00  0.00    -0.225 A  
HETATM   13 CL   UNL     3     -12.855   6.652  70.926  1.00  0.00    -0.106 Cl 
HETATM   14  C   UNL     3      -9.365   7.377  68.989  1.00  0.00    -0.145 A  
HETATM   15 CL   UNL     3     -11.775   6.568  67.968  1.00  0.00     0.469 Cl 
ENDROOT
BRANCH  14  16
HETATM   16  C   UNL     3      -8.864   7.237  67.580  1.00  0.00    -0.119 A  
HETATM   17  C   UNL     3      -8.224   6.105  67.176  1.00  0.00    -0.106 A  
HETATM   18  C   UNL     3      -7.955   5.004  68.101  1.00  0.00    -0.087 C  
HETATM   19  C   UNL     3      -7.460   3.826  67.694  1.00  0.00    -0.067 C  
HETATM   20 BR   UNL     3      -7.211   2.411  68.882  1.00  0.00    -0.044 Br 
HETATM   21  C   UNL     3      -7.156   3.608  66.243  1.00  0.00    -0.063 C  
HETATM   22  O   UNL     3      -6.857   2.485  65.821  1.00  0.00    -0.041 OA 
HETATM   23  C   UNL     3      -7.283   4.781  65.327  1.00  0.00    -0.068 C  
HETATM   24  C   UNL     3      -7.803   5.947  65.776  1.00  0.00    -0.103 A  
HETATM   25 BR   UNL     3      -6.786   4.522  63.539  1.00  0.00    -0.043 Br 
HETATM   26  O   UNL     3      -7.988   6.990  64.884  1.00  0.00    -0.120 OA 
HETATM   27  C   UNL     3      -8.643   8.131  65.264  1.00  0.00    -0.106 A  
HETATM   28  C   UNL     3      -9.065   8.309  66.575  1.00  0.00    -0.219 A  
HETATM   29  C   UNL     3      -9.681   9.516  66.902  1.00  0.00    -0.237 C  
HETATM   30  C   UNL     3      -9.925  10.495  65.924  1.00  0.00    -0.254 C  
HETATM   31 BR   UNL     3     -10.805  12.077  66.568  1.00  0.00    -0.333 Br 
HETATM   32  C   UNL     3      -9.574  10.339  64.560  1.00  0.00    -0.316 C  
HETATM   33  C   UNL     3      -8.890   9.118  64.283  1.00  0.00    -0.100 C  
HETATM   34  O   UNL     3      -9.859  11.210  63.666  1.00  0.00    -0.277 OA 
HETATM   35 BR   UNL     3      -8.277   8.743  62.488  1.00  0.00    -0.199 Br 
ENDBRANCH  14  16
TORSDOF 1
ENDMDL
MODEL       57
REMARK 921   NORMALIZED FREE ENERGY PREDICTED BY IDOCK:   -4.49 KCAL/MOL
REMARK 922        TOTAL FREE ENERGY PREDICTED BY IDOCK:   -5.50 KCAL/MOL
REMARK 923 INTER-LIGAND FREE ENERGY PREDICTED BY IDOCK:   -5.28 KCAL/MOL
REMARK 924 INTRA-LIGAND FREE ENERGY PREDICTED BY IDOCK:   -0.23 KCAL/MOL
REMARK 927      BINDING AFFINITY PREDICTED BY RF-SCORE:    0.00 PKD
ROOT
HETATM    1 NA   UNL     1     -11.580   7.698  66.287  1.00  0.00     0.001 Na 
HETATM    2 NA   UNL     2      -9.825  10.293  62.352  1.00  0.00    -0.269 Na 
HETATM    3  O   UNL     3     -10.380  10.220  64.262  1.00  0.00    -0.198 OA 
HETATM    4  C   UNL     3     -10.616  10.501  65.488  1.00  0.00    -0.068 C  
HETATM    5  C   UNL     3     -10.340  11.894  65.991  1.00  0.00    -0.268 A  
HETATM    6  O   UNL     3     -11.106   9.623  66.270  1.00  0.00     0.344 OA 
HETATM    7  C   UNL     3     -10.662  13.025  65.204  1.00  0.00    -0.306 A  
HETATM    8 CL   UNL     3     -11.436  12.832  63.646  1.00  0.00    -0.524 Cl 
HETATM    9  C   UNL     3     -10.394  14.335  65.666  1.00  0.00    -0.336 A  
HETATM   10 CL   UNL     3     -10.791  15.709  64.664  1.00  0.00    -0.372 Cl 
HETATM   11  C   UNL     3      -9.815  14.539  66.927  1.00  0.00    -0.262 A  
HETATM   12  C   UNL     3      -9.494  13.432  67.728  1.00  0.00    -0.210 A  
HETATM   13 CL   UNL     3      -9.504  16.155  67.497  1.00  0.00    -0.222 Cl 
HETATM   14  C   UNL     3      -9.744  12.112  67.269  1.00  0.00    -0.193 A  
HETATM   15 CL   UNL     3      -8.783  13.677  69.302  1.00  0.00     0.504 Cl 
ENDROOT
BRANCH  14  16
HETATM   16  C   UNL     3      -9.303  10.955  68.120  1.00  0.00    -0.165 A  
HETATM   17  C   UNL     3      -9.951  10.656  69.281  1.00  0.00    -0.215 A  
HETATM   18  C   UNL     3     -11.063  11.471  69.770  1.00  0.00    -0.156 C  
HETATM   19  C   UNL     3     -11.806  11.114  70.828  1.00  0.00    -0.219 C  
HETATM   20 BR   UNL     3     -13.273  12.126  71.375  1.00  0.00    -0.012 Br 
HETATM   21  C   UNL     3     -11.500   9.840  71.556  1.00  0.00    -0.323 C  
HETATM   22  O   UNL     3     -12.266   9.409  72.425  1.00  0.00    -0.251 OA 
HETATM   23  C   UNL     3     -10.271   9.092  71.153  1.00  0.00    -0.314 C  
HETATM   24  C   UNL     3      -9.560   9.479  70.069  1.00  0.00    -0.238 A  
HETATM   25 BR   UNL     3      -9.838   7.568  72.152  1.00  0.00    -0.223 Br 
HETATM   26  O   UNL     3      -8.474   8.717  69.669  1.00  0.00    -0.122 OA 
HETATM   27  C   UNL     3      -7.820   8.989  68.498  1.00  0.00    -0.102 A  
HETATM   28  C   UNL     3      -8.170  10.086  67.722  1.00  0.00    -0.113 A  
HETATM   29  C   UNL     3      -7.427  10.331  66.568  1.00  0.00    -0.113 C  
HETATM   30  C   UNL     3      -6.399   9.461  66.168  1.00  0.00    -0.068 C  
HETATM   31 BR   UNL     3      -5.510   9.958  64.538  1.00  0.00    -0.093 Br 
HETATM   32  C   UNL     3      -6.043   8.293  66.887  1.00  0.00    -0.054 C  
HETATM   33  C   UNL     3      -6.785   8.116  68.092  1.00  0.00    -0.061 C  
HETATM   34  O   UNL     3      -5.148   7.473  66.479  1.00  0.00    -0.022 OA 
HETATM   35 BR   UNL     3      -6.407   6.610  69.244  1.00  0.00    -0.036 Br 
ENDBRANCH  14  16
TORSDOF 1
ENDMDL
MODEL       58
REMARK 921   NORMALIZED FREE ENERGY PREDICTED BY IDOCK:   -4.48 KCAL/MOL
REMARK 922        TOTAL FREE ENERGY PREDICTED BY IDOCK:   -5.49 KCAL/MOL
REMARK 923 INTER-LIGAND FREE ENERGY PREDICTED BY IDOCK:   -4.48 KCAL/MOL
REMARK 924 INTRA-LIGAND FREE ENERGY PREDICTED BY IDOCK:   -1.01 KCAL/MOL
REMARK 927      BINDING AFFINITY PREDICTED BY RF-SCORE:    0.00 PKD
ROOT
HETATM    1 NA   UNL     1      -6.836  11.118  70.437  1.00  0.00    -0.141 Na 
HETATM    2 NA   UNL     2      -5.327   6.599  72.052  1.00  0.00    -0.025 Na 
HETATM    3  O   UNL     3      -6.790   7.885  71.642  1.00  0.00    -0.051 OA 
HETATM    4  C   UNL     3      -7.930   8.436  71.452  1.00  0.00    -0.126 C  
HETATM    5  C   UNL     3      -9.183   7.650  71.736  1.00  0.00    -0.167 A  
HETATM    6  O   UNL     3      -8.007   9.644  71.055  1.00  0.00    -0.301 OA 
HETATM    7  C   UNL     3      -9.273   6.818  72.877  1.00  0.00    -0.134 A  
HETATM    8 CL   UNL     3      -7.945   6.721  74.013  1.00  0.00    -0.114 Cl 
HETATM    9  C   UNL     3     -10.443   6.068  73.143  1.00  0.00    -0.230 A  
HETATM   10 CL   UNL     3     -10.516   5.040  74.553  1.00  0.00    -0.312 Cl 
HETATM   11  C   UNL     3     -11.548   6.148  72.283  1.00  0.00    -0.313 A  
HETATM   12  C   UNL     3     -11.484   6.972  71.149  1.00  0.00    -0.294 A  
HETATM   13 CL   UNL     3     -12.992   5.236  72.625  1.00  0.00     0.618 Cl 
HETATM   14  C   UNL     3     -10.310   7.718  70.864  1.00  0.00    -0.208 A  
HETATM   15 CL   UNL     3     -12.859   7.087  70.080  1.00  0.00     0.510 Cl 
ENDROOT
BRANCH  14  16
HETATM   16  C   UNL     3     -10.253   8.518  69.593  1.00  0.00    -0.209 A  
HETATM   17  C   UNL     3      -9.641   8.020  68.483  1.00  0.00    -0.159 A  
HETATM   18  C   UNL     3      -8.977   6.717  68.491  1.00  0.00    -0.120 C  
HETATM   19  C   UNL     3      -8.498   6.145  67.377  1.00  0.00    -0.107 C  
HETATM   20 BR   UNL     3      -7.736   4.444  67.405  1.00  0.00    -0.085 Br 
HETATM   21  C   UNL     3      -8.631   6.852  66.063  1.00  0.00    -0.145 C  
HETATM   22  O   UNL     3      -8.348   6.277  65.005  1.00  0.00    -0.142 OA 
HETATM   23  C   UNL     3      -9.167   8.246  66.078  1.00  0.00    -0.166 C  
HETATM   24  C   UNL     3      -9.655   8.778  67.223  1.00  0.00    -0.165 A  
HETATM   25 BR   UNL     3      -9.215   9.158  64.443  1.00  0.00     0.252 Br 
HETATM   26  O   UNL     3     -10.223  10.041  67.190  1.00  0.00    -0.203 OA 
HETATM   27  C   UNL     3     -10.857  10.554  68.290  1.00  0.00    -0.248 A  
HETATM   28  C   UNL     3     -10.875   9.860  69.493  1.00  0.00    -0.274 A  
HETATM   29  C   UNL     3     -11.495  10.466  70.584  1.00  0.00    -0.438 C  
HETATM   30  C   UNL     3     -12.138  11.708  70.456  1.00  0.00    -0.366 C  
HETATM   31 BR   UNL     3     -12.955  12.364  72.068  1.00  0.00    -0.278 Br 
HETATM   32  C   UNL     3     -12.207  12.429  69.238  1.00  0.00    -0.037 C  
HETATM   33  C   UNL     3     -11.505  11.804  68.165  1.00  0.00    -0.316 C  
HETATM   34  O   UNL     3     -12.850  13.529  69.118  1.00  0.00     0.447 OA 
HETATM   35 BR   UNL     3     -11.432  12.660  66.433  1.00  0.00    -0.433 Br 
ENDBRANCH  14  16
TORSDOF 1
ENDMDL
MODEL       59
REMARK 921   NORMALIZED FREE ENERGY PREDICTED BY IDOCK:   -4.43 KCAL/MOL
REMARK 922        TOTAL FREE ENERGY PREDICTED BY IDOCK:   -5.44 KCAL/MOL
REMARK 923 INTER-LIGAND FREE ENERGY PREDICTED BY IDOCK:   -4.44 KCAL/MOL
REMARK 924 INTRA-LIGAND FREE ENERGY PREDICTED BY IDOCK:   -1.00 KCAL/MOL
REMARK 927      BINDING AFFINITY PREDICTED BY RF-SCORE:    0.00 PKD
ROOT
HETATM    1 NA   UNL     1     -10.496  11.304  70.369  1.00  0.00    -0.437 Na 
HETATM    2 NA   UNL     2     -14.005  14.871  69.857  1.00  0.00    -0.472 Na 
HETATM    3  O   UNL     3     -12.103  14.295  69.756  1.00  0.00    -0.311 OA 
HETATM    4  C   UNL     3     -10.839  14.245  69.559  1.00  0.00    -0.115 C  
HETATM    5  C   UNL     3     -10.123  15.469  69.051  1.00  0.00    -0.234 A  
HETATM    6  O   UNL     3     -10.185  13.181  69.815  1.00  0.00     0.791 OA 
HETATM    7  C   UNL     3     -10.448  16.755  69.546  1.00  0.00    -0.263 A  
HETATM    8 CL   UNL     3     -11.655  16.945  70.799  1.00  0.00     0.480 Cl 
HETATM    9  C   UNL     3      -9.788  17.910  69.065  1.00  0.00    -0.231 A  
HETATM   10 CL   UNL     3     -10.221  19.483  69.688  1.00  0.00    -0.064 Cl 
HETATM   11  C   UNL     3      -8.784  17.800  68.093  1.00  0.00    -0.266 A  
HETATM   12  C   UNL     3      -8.441  16.535  67.591  1.00  0.00    -0.173 A  
HETATM   13 CL   UNL     3      -7.963  19.224  67.516  1.00  0.00    -0.283 Cl 
HETATM   14  C   UNL     3      -9.106  15.370  68.056  1.00  0.00    -0.175 A  
HETATM   15 CL   UNL     3      -7.185  16.389  66.389  1.00  0.00    -0.129 Cl 
ENDROOT
BRANCH  14  16
HETATM   16  C   UNL     3      -8.770  14.047  67.429  1.00  0.00    -0.212 A  
HETATM   17  C   UNL     3      -7.780  13.263  67.940  1.00  0.00    -0.152 A  
HETATM   18  C   UNL     3      -6.975  13.693  69.085  1.00  0.00    -0.070 C  
HETATM   19  C   UNL     3      -6.099  12.881  69.694  1.00  0.00    -0.124 C  
HETATM   20 BR   UNL     3      -5.153  13.428  71.204  1.00  0.00    -0.167 Br 
HETATM   21  C   UNL     3      -5.916  11.479  69.198  1.00  0.00    -0.056 C  
HETATM   22  O   UNL     3      -5.241  10.666  69.840  1.00  0.00    -0.038 OA 
HETATM   23  C   UNL     3      -6.620  11.093  67.939  1.00  0.00    -0.062 C  
HETATM   24  C   UNL     3      -7.509  11.938  67.366  1.00  0.00    -0.148 A  
HETATM   25 BR   UNL     3      -6.285   9.376  67.269  1.00  0.00    -0.058 Br 
HETATM   26  O   UNL     3      -8.209  11.521  66.247  1.00  0.00    -0.142 OA 
HETATM   27  C   UNL     3      -9.219  12.284  65.725  1.00  0.00     0.032 A  
HETATM   28  C   UNL     3      -9.511  13.536  66.251  1.00  0.00    -0.199 A  
HETATM   29  C   UNL     3     -10.518  14.279  65.638  1.00  0.00    -0.336 C  
HETATM   30  C   UNL     3     -11.258  13.755  64.564  1.00  0.00    -0.373 C  
HETATM   31 BR   UNL     3     -12.618  14.924  63.873  1.00  0.00     0.737 Br 
HETATM   32  C   UNL     3     -11.045  12.460  64.031  1.00  0.00    -0.396 C  
HETATM   33  C   UNL     3      -9.964  11.759  64.645  1.00  0.00    -0.243 C  
HETATM   34  O   UNL     3     -11.767  11.967  63.095  1.00  0.00    -0.330 OA 
HETATM   35 BR   UNL     3      -9.478   9.996  64.019  1.00  0.00    -0.223 Br 
ENDBRANCH  14  16
TORSDOF 1
ENDMDL
MODEL       60
REMARK 921   NORMALIZED FREE ENERGY PREDICTED BY IDOCK:   -4.35 KCAL/MOL
REMARK 922        TOTAL FREE ENERGY PREDICTED BY IDOCK:   -5.36 KCAL/MOL
REMARK 923 INTER-LIGAND FREE ENERGY PREDICTED BY IDOCK:   -6.84 KCAL/MOL
REMARK 924 INTRA-LIGAND FREE ENERGY PREDICTED BY IDOCK:    1.48 KCAL/MOL
REMARK 927      BINDING AFFINITY PREDICTED BY RF-SCORE:    0.00 PKD
ROOT
HETATM    1 NA   UNL     1      -8.829  13.890  65.473  1.00  0.00    -0.442 Na 
HETATM    2 NA   UNL     2      -8.703  15.941  70.064  1.00  0.00    -0.243 Na 
HETATM    3  O   UNL     3      -9.378  14.546  68.816  1.00  0.00    -0.204 OA 
HETATM    4  C   UNL     3      -9.953  13.522  68.306  1.00  0.00    -0.237 C  
HETATM    5  C   UNL     3     -10.812  12.647  69.181  1.00  0.00    -0.127 A  
HETATM    6  O   UNL     3      -9.826  13.259  67.066  1.00  0.00    -0.231 OA 
HETATM    7  C   UNL     3     -11.681  13.216  70.142  1.00  0.00    -0.178 A  
HETATM    8 CL   UNL     3     -11.815  14.954  70.300  1.00  0.00    -0.331 Cl 
HETATM    9  C   UNL     3     -12.481  12.400  70.976  1.00  0.00    -0.256 A  
HETATM   10 CL   UNL     3     -13.534  13.134  72.161  1.00  0.00    -0.630 Cl 
HETATM   11  C   UNL     3     -12.439  11.004  70.854  1.00  0.00    -0.410 A  
HETATM   12  C   UNL     3     -11.589  10.417  69.904  1.00  0.00    -0.284 A  
HETATM   13 CL   UNL     3     -13.439  10.005  71.872  1.00  0.00    -0.470 Cl 
HETATM   14  C   UNL     3     -10.770  11.226  69.072  1.00  0.00    -0.257 A  
HETATM   15 CL   UNL     3     -11.538   8.681  69.738  1.00  0.00     0.227 Cl 
ENDROOT
BRANCH  14  16
HETATM   16  C   UNL     3      -9.811  10.554  68.130  1.00  0.00    -0.169 A  
HETATM   17  C   UNL     3      -9.996  10.618  66.782  1.00  0.00    -0.254 A  
HETATM   18  C   UNL     3     -11.154  11.295  66.198  1.00  0.00    -0.207 C  
HETATM   19  C   UNL     3     -11.281  11.496  64.878  1.00  0.00    -0.173 C  
HETATM   20 BR   UNL     3     -12.723  12.441  64.171  1.00  0.00    -0.363 Br 
HETATM   21  C   UNL     3     -10.212  11.011  63.947  1.00  0.00    -0.364 C  
HETATM   22  O   UNL     3     -10.225  11.327  62.751  1.00  0.00    -0.186 OA 
HETATM   23  C   UNL     3      -9.111  10.185  64.527  1.00  0.00    -0.240 C  
HETATM   24  C   UNL     3      -9.012  10.021  65.867  1.00  0.00    -0.154 A  
HETATM   25 BR   UNL     3      -7.849   9.487  63.332  1.00  0.00    -0.142 Br 
HETATM   26  O   UNL     3      -7.935   9.321  66.383  1.00  0.00    -0.106 OA 
HETATM   27  C   UNL     3      -7.720   9.259  67.733  1.00  0.00    -0.088 A  
HETATM   28  C   UNL     3      -8.621   9.822  68.627  1.00  0.00    -0.121 A  
HETATM   29  C   UNL     3      -8.365   9.676  69.989  1.00  0.00    -0.197 C  
HETATM   30  C   UNL     3      -7.199   9.036  70.444  1.00  0.00    -0.069 C  
HETATM   31 BR   UNL     3      -7.015   8.958  72.355  1.00  0.00     0.215 Br 
HETATM   32  C   UNL     3      -6.214   8.502  69.577  1.00  0.00    -0.036 C  
HETATM   33  C   UNL     3      -6.548   8.617  68.194  1.00  0.00    -0.061 C  
HETATM   34  O   UNL     3      -5.125   7.979  70.001  1.00  0.00    -0.023 OA 
HETATM   35 BR   UNL     3      -5.357   7.895  66.853  1.00  0.00    -0.032 Br 
ENDBRANCH  14  16
TORSDOF 1
ENDMDL
MODEL       61
REMARK 921   NORMALIZED FREE ENERGY PREDICTED BY IDOCK:   -4.23 KCAL/MOL
REMARK 922        TOTAL FREE ENERGY PREDICTED BY IDOCK:   -5.23 KCAL/MOL
REMARK 923 INTER-LIGAND FREE ENERGY PREDICTED BY IDOCK:   -4.19 KCAL/MOL
REMARK 924 INTRA-LIGAND FREE ENERGY PREDICTED BY IDOCK:   -1.04 KCAL/MOL
REMARK 927      BINDING AFFINITY PREDICTED BY RF-SCORE:    0.00 PKD
ROOT
HETATM    1 NA   UNL     1     -11.943   6.573  68.504  1.00  0.00    -0.535 Na 
HETATM    2 NA   UNL     2     -11.814   6.335  73.526  1.00  0.00    -0.463 Na 
HETATM    3  O   UNL     3     -11.078   5.806  71.754  1.00  0.00    -0.265 OA 
HETATM    4  C   UNL     3     -10.361   5.315  70.814  1.00  0.00    -0.239 C  
HETATM    5  C   UNL     3      -9.173   4.458  71.164  1.00  0.00    -0.199 A  
HETATM    6  O   UNL     3     -10.662   5.525  69.593  1.00  0.00    -0.322 OA 
HETATM    7  C   UNL     3      -9.250   3.507  72.210  1.00  0.00    -0.109 A  
HETATM    8 CL   UNL     3     -10.746   3.272  73.088  1.00  0.00    -0.266 Cl 
HETATM    9  C   UNL     3      -8.135   2.707  72.552  1.00  0.00    -0.055 A  
HETATM   10 CL   UNL     3      -8.259   1.553  73.856  1.00  0.00    -0.045 Cl 
HETATM   11  C   UNL     3      -6.929   2.831  71.846  1.00  0.00    -0.030 A  
HETATM   12  C   UNL     3      -6.832   3.762  70.801  1.00  0.00    -0.033 A  
HETATM   13 CL   UNL     3      -5.564   1.831  72.260  1.00  0.00    -0.004 Cl 
HETATM   14  C   UNL     3      -7.940   4.581  70.458  1.00  0.00    -0.057 A  
HETATM   15 CL   UNL     3      -5.339   3.915  69.910  1.00  0.00    -0.008 Cl 
ENDROOT
BRANCH  14  16
HETATM   16  C   UNL     3      -7.764   5.626  69.392  1.00  0.00    -0.088 A  
HETATM   17  C   UNL     3      -7.982   5.329  68.081  1.00  0.00    -0.091 A  
HETATM   18  C   UNL     3      -8.347   3.978  67.651  1.00  0.00    -0.096 C  
HETATM   19  C   UNL     3      -8.708   3.697  66.390  1.00  0.00    -0.121 C  
HETATM   20 BR   UNL     3      -9.252   1.986  65.892  1.00  0.00     0.091 Br 
HETATM   21  C   UNL     3      -8.739   4.789  65.365  1.00  0.00    -0.138 C  
HETATM   22  O   UNL     3      -9.224   4.590  64.245  1.00  0.00    -0.154 OA 
HETATM   23  C   UNL     3      -8.219   6.130  65.767  1.00  0.00    -0.138 C  
HETATM   24  C   UNL     3      -7.881   6.375  67.054  1.00  0.00    -0.104 A  
HETATM   25 BR   UNL     3      -8.154   7.450  64.439  1.00  0.00    -0.015 Br 
HETATM   26  O   UNL     3      -7.481   7.651  67.414  1.00  0.00    -0.095 OA 
HETATM   27  C   UNL     3      -7.273   7.977  68.728  1.00  0.00    -0.083 A  
HETATM   28  C   UNL     3      -7.372   7.016  69.726  1.00  0.00    -0.088 A  
HETATM   29  C   UNL     3      -7.097   7.408  71.035  1.00  0.00    -0.060 C  
HETATM   30  C   UNL     3      -6.792   8.744  71.345  1.00  0.00    -0.084 C  
HETATM   31 BR   UNL     3      -6.468   9.087  73.208  1.00  0.00     0.285 Br 
HETATM   32  C   UNL     3      -6.740   9.776  70.376  1.00  0.00    -0.123 C  
HETATM   33  C   UNL     3      -6.966   9.320  69.043  1.00  0.00    -0.059 C  
HETATM   34  O   UNL     3      -6.525  11.002  70.677  1.00  0.00    -0.327 OA 
HETATM   35 BR   UNL     3      -6.880  10.569  67.569  1.00  0.00    -0.076 Br 
ENDBRANCH  14  16
TORSDOF 1
ENDMDL
MODEL       62
REMARK 921   NORMALIZED FREE ENERGY PREDICTED BY IDOCK:   -4.22 KCAL/MOL
REMARK 922        TOTAL FREE ENERGY PREDICTED BY IDOCK:   -5.22 KCAL/MOL
REMARK 923 INTER-LIGAND FREE ENERGY PREDICTED BY IDOCK:   -4.13 KCAL/MOL
REMARK 924 INTRA-LIGAND FREE ENERGY PREDICTED BY IDOCK:   -1.09 KCAL/MOL
REMARK 927      BINDING AFFINITY PREDICTED BY RF-SCORE:    0.00 PKD
ROOT
HETATM    1 NA   UNL     1     -12.078   6.884  66.948  1.00  0.00    -0.658 Na 
HETATM    2 NA   UNL     2     -11.743   7.882  71.867  1.00  0.00    -0.250 Na 
HETATM    3  O   UNL     3     -11.103   6.901  70.258  1.00  0.00    -0.264 OA 
HETATM    4  C   UNL     3     -10.445   6.162  69.445  1.00  0.00    -0.256 C  
HETATM    5  C   UNL     3      -9.275   5.365  69.958  1.00  0.00    -0.175 A  
HETATM    6  O   UNL     3     -10.790   6.079  68.221  1.00  0.00    -0.275 OA 
HETATM    7  C   UNL     3      -9.341   4.704  71.208  1.00  0.00    -0.146 A  
HETATM    8 CL   UNL     3     -10.805   4.760  72.165  1.00  0.00    -0.154 Cl 
HETATM    9  C   UNL     3      -8.241   3.963  71.700  1.00  0.00    -0.078 A  
HETATM   10 CL   UNL     3      -8.350   3.172  73.254  1.00  0.00    -0.073 Cl 
HETATM   11  C   UNL     3      -7.063   3.855  70.947  1.00  0.00    -0.033 A  
HETATM   12  C   UNL     3      -6.977   4.496  69.701  1.00  0.00    -0.049 A  
HETATM   13 CL   UNL     3      -5.719   2.927  71.551  1.00  0.00    -0.012 Cl 
HETATM   14  C   UNL     3      -8.069   5.255  69.204  1.00  0.00    -0.089 A  
HETATM   15 CL   UNL     3      -5.519   4.357  68.753  1.00  0.00    -0.012 Cl 
ENDROOT
BRANCH  14  16
HETATM   16  C   UNL     3      -7.902   5.996  67.907  1.00  0.00    -0.105 A  
HETATM   17  C   UNL     3      -7.513   7.301  67.895  1.00  0.00    -0.102 A  
HETATM   18  C   UNL     3      -7.290   8.047  69.134  1.00  0.00    -0.086 C  
HETATM   19  C   UNL     3      -6.768   9.283  69.147  1.00  0.00    -0.050 C  
HETATM   20 BR   UNL     3      -6.412  10.173  70.745  1.00  0.00     0.037 Br 
HETATM   21  C   UNL     3      -6.399   9.947  67.856  1.00  0.00    -0.055 C  
HETATM   22  O   UNL     3      -5.769  11.011  67.850  1.00  0.00    -0.043 OA 
HETATM   23  C   UNL     3      -6.771   9.250  66.588  1.00  0.00    -0.076 C  
HETATM   24  C   UNL     3      -7.281   7.997  66.621  1.00  0.00    -0.081 A  
HETATM   25 BR   UNL     3      -6.410  10.149  64.985  1.00  0.00    -0.122 Br 
HETATM   26  O   UNL     3      -7.538   7.343  65.428  1.00  0.00    -0.085 OA 
HETATM   27  C   UNL     3      -7.913   6.026  65.416  1.00  0.00    -0.118 A  
HETATM   28  C   UNL     3      -8.130   5.334  66.600  1.00  0.00    -0.105 A  
HETATM   29  C   UNL     3      -8.560   4.012  66.512  1.00  0.00    -0.110 C  
HETATM   30  C   UNL     3      -8.707   3.378  65.267  1.00  0.00    -0.121 C  
HETATM   31 BR   UNL     3      -9.285   1.547  65.356  1.00  0.00     0.016 Br 
HETATM   32  C   UNL     3      -8.438   4.015  64.031  1.00  0.00    -0.096 C  
HETATM   33  C   UNL     3      -8.062   5.385  64.165  1.00  0.00    -0.123 C  
HETATM   34  O   UNL     3      -8.513   3.409  62.906  1.00  0.00    -0.083 OA 
HETATM   35 BR   UNL     3      -7.708   6.446  62.588  1.00  0.00    -0.099 Br 
ENDBRANCH  14  16
TORSDOF 1
ENDMDL
MODEL       63
REMARK 921   NORMALIZED FREE ENERGY PREDICTED BY IDOCK:   -4.21 KCAL/MOL
REMARK 922        TOTAL FREE ENERGY PREDICTED BY IDOCK:   -5.21 KCAL/MOL
REMARK 923 INTER-LIGAND FREE ENERGY PREDICTED BY IDOCK:   -4.92 KCAL/MOL
REMARK 924 INTRA-LIGAND FREE ENERGY PREDICTED BY IDOCK:   -0.29 KCAL/MOL
REMARK 927      BINDING AFFINITY PREDICTED BY RF-SCORE:    0.00 PKD
ROOT
HETATM    1 NA   UNL     1      -8.665   9.381  72.733  1.00  0.00    -0.000 Na 
HETATM    2 NA   UNL     2      -5.151  12.324  70.661  1.00  0.00    -0.069 Na 
HETATM    3  O   UNL     3      -6.760  11.166  70.478  1.00  0.00    -0.211 OA 
HETATM    4  C   UNL     3      -7.779  10.534  70.030  1.00  0.00     0.124 C  
HETATM    5  C   UNL     3      -8.111  10.616  68.563  1.00  0.00    -0.125 A  
HETATM    6  O   UNL     3      -8.490   9.819  70.808  1.00  0.00    -0.207 OA 
HETATM    7  C   UNL     3      -7.088  10.565  67.586  1.00  0.00    -0.084 A  
HETATM    8 CL   UNL     3      -5.416  10.355  68.060  1.00  0.00    -0.040 Cl 
HETATM    9  C   UNL     3      -7.392  10.654  66.207  1.00  0.00    -0.137 A  
HETATM   10 CL   UNL     3      -6.105  10.602  65.027  1.00  0.00    -0.077 Cl 
HETATM   11  C   UNL     3      -8.721  10.779  65.780  1.00  0.00    -0.186 A  
HETATM   12  C   UNL     3      -9.752  10.825  66.730  1.00  0.00    -0.187 A  
HETATM   13 CL   UNL     3      -9.090  10.871  64.080  1.00  0.00    -0.188 Cl 
HETATM   14  C   UNL     3      -9.459  10.752  68.118  1.00  0.00    -0.161 A  
HETATM   15 CL   UNL     3     -11.411  10.970  66.207  1.00  0.00    -0.010 Cl 
ENDROOT
BRANCH  14  16
HETATM   16  C   UNL     3     -10.584  10.894  69.103  1.00  0.00    -0.253 A  
HETATM   17  C   UNL     3     -11.095  12.119  69.408  1.00  0.00    -0.183 A  
HETATM   18  C   UNL     3     -10.543  13.345  68.831  1.00  0.00    -0.181 C  
HETATM   19  C   UNL     3     -11.119  14.544  69.001  1.00  0.00    -0.262 C  
HETATM   20 BR   UNL     3     -10.444  16.075  68.180  1.00  0.00    -0.279 Br 
HETATM   21  C   UNL     3     -12.372  14.657  69.814  1.00  0.00    -0.262 C  
HETATM   22  O   UNL     3     -13.010  15.717  69.848  1.00  0.00    -0.087 OA 
HETATM   23  C   UNL     3     -12.846  13.434  70.529  1.00  0.00    -0.024 C  
HETATM   24  C   UNL     3     -12.244  12.241  70.316  1.00  0.00    -0.262 A  
HETATM   25 BR   UNL     3     -14.345  13.623  71.636  1.00  0.00     0.392 Br 
HETATM   26  O   UNL     3     -12.756  11.109  70.927  1.00  0.00    -0.357 OA 
HETATM   27  C   UNL     3     -12.270   9.866  70.623  1.00  0.00    -0.238 A  
HETATM   28  C   UNL     3     -11.193   9.712  69.760  1.00  0.00    -0.208 A  
HETATM   29  C   UNL     3     -10.718   8.421  69.536  1.00  0.00    -0.181 C  
HETATM   30  C   UNL     3     -11.348   7.306  70.114  1.00  0.00    -0.207 C  
HETATM   31 BR   UNL     3     -10.559   5.612  69.665  1.00  0.00    -0.387 Br 
HETATM   32  C   UNL     3     -12.488   7.400  70.949  1.00  0.00    -0.173 C  
HETATM   33  C   UNL     3     -12.901   8.742  71.203  1.00  0.00    -0.111 C  
HETATM   34  O   UNL     3     -13.092   6.373  71.418  1.00  0.00     0.068 OA 
HETATM   35 BR   UNL     3     -14.405   9.084  72.368  1.00  0.00    -0.163 Br 
ENDBRANCH  14  16
TORSDOF 1
ENDMDL
MODEL       64
REMARK 921   NORMALIZED FREE ENERGY PREDICTED BY IDOCK:   -4.14 KCAL/MOL
REMARK 922        TOTAL FREE ENERGY PREDICTED BY IDOCK:   -5.14 KCAL/MOL
REMARK 923 INTER-LIGAND FREE ENERGY PREDICTED BY IDOCK:   -4.39 KCAL/MOL
REMARK 924 INTRA-LIGAND FREE ENERGY PREDICTED BY IDOCK:   -0.75 KCAL/MOL
REMARK 927      BINDING AFFINITY PREDICTED BY RF-SCORE:    0.00 PKD
ROOT
HETATM    1 NA   UNL     1     -10.171  13.720  70.193  1.00  0.00    -0.387 Na 
HETATM    2 NA   UNL     2     -12.769  10.119  67.830  1.00  0.00     0.182 Na 
HETATM    3  O   UNL     3     -11.149  11.268  67.973  1.00  0.00    -0.225 OA 
HETATM    4  C   UNL     3     -10.000  11.805  67.800  1.00  0.00    -0.190 C  
HETATM    5  C   UNL     3      -9.128  11.331  66.667  1.00  0.00    -0.187 A  
HETATM    6  O   UNL     3      -9.607  12.749  68.560  1.00  0.00    -0.198 OA 
HETATM    7  C   UNL     3      -9.684  11.047  65.397  1.00  0.00    -0.232 A  
HETATM    8 CL   UNL     3     -11.392  11.287  65.100  1.00  0.00    -0.082 Cl 
HETATM    9  C   UNL     3      -8.872  10.591  64.332  1.00  0.00    -0.197 A  
HETATM   10 CL   UNL     3      -9.591  10.235  62.780  1.00  0.00    -0.326 Cl 
HETATM   11  C   UNL     3      -7.492  10.426  64.511  1.00  0.00    -0.024 A  
HETATM   12  C   UNL     3      -6.918  10.708  65.761  1.00  0.00    -0.094 A  
HETATM   13 CL   UNL     3      -6.495   9.880  63.191  1.00  0.00    -0.117 Cl 
HETATM   14  C   UNL     3      -7.724  11.152  66.841  1.00  0.00    -0.148 A  
HETATM   15 CL   UNL     3      -5.199  10.516  65.990  1.00  0.00    -0.066 Cl 
ENDROOT
BRANCH  14  16
HETATM   16  C   UNL     3      -7.083  11.358  68.185  1.00  0.00    -0.075 A  
HETATM   17  C   UNL     3      -6.662  12.593  68.575  1.00  0.00    -0.089 A  
HETATM   18  C   UNL     3      -6.770  13.755  67.693  1.00  0.00    -0.189 C  
HETATM   19  C   UNL     3      -6.498  15.001  68.107  1.00  0.00    -0.131 C  
HETATM   20 BR   UNL     3      -6.730  16.472  66.986  1.00  0.00    -0.233 Br 
HETATM   21  C   UNL     3      -6.060  15.236  69.521  1.00  0.00    -0.125 C  
HETATM   22  O   UNL     3      -5.964  16.384  69.970  1.00  0.00    -0.201 OA 
HETATM   23  C   UNL     3      -5.801  14.036  70.372  1.00  0.00    -0.159 C  
HETATM   24  C   UNL     3      -6.104  12.798  69.920  1.00  0.00    -0.122 A  
HETATM   25 BR   UNL     3      -5.139  14.345  72.097  1.00  0.00    -0.206 Br 
HETATM   26  O   UNL     3      -5.932  11.712  70.762  1.00  0.00    -0.335 OA 
HETATM   27  C   UNL     3      -6.363  10.465  70.397  1.00  0.00    -0.127 A  
HETATM   28  C   UNL     3      -6.906  10.237  69.139  1.00  0.00    -0.062 A  
HETATM   29  C   UNL     3      -7.277   8.933  68.817  1.00  0.00    -0.075 C  
HETATM   30  C   UNL     3      -7.165   7.893  69.756  1.00  0.00    -0.066 C  
HETATM   31 BR   UNL     3      -7.750   6.173  69.130  1.00  0.00    -0.101 Br 
HETATM   32  C   UNL     3      -6.679   8.082  71.073  1.00  0.00    -0.041 C  
HETATM   33  C   UNL     3      -6.252   9.417  71.339  1.00  0.00    -0.042 C  
HETATM   34  O   UNL     3      -6.641   7.141  71.941  1.00  0.00    -0.051 OA 
HETATM   35 BR   UNL     3      -5.503   9.864  73.064  1.00  0.00     0.332 Br 
ENDBRANCH  14  16
TORSDOF 1
ENDMDL
MODEL       65
REMARK 921   NORMALIZED FREE ENERGY PREDICTED BY IDOCK:   -4.12 KCAL/MOL
REMARK 922        TOTAL FREE ENERGY PREDICTED BY IDOCK:   -5.12 KCAL/MOL
REMARK 923 INTER-LIGAND FREE ENERGY PREDICTED BY IDOCK:   -4.17 KCAL/MOL
REMARK 924 INTRA-LIGAND FREE ENERGY PREDICTED BY IDOCK:   -0.95 KCAL/MOL
REMARK 927      BINDING AFFINITY PREDICTED BY RF-SCORE:    0.00 PKD
ROOT
HETATM    1 NA   UNL     1     -12.777   6.142  67.809  1.00  0.00     0.560 Na 
HETATM    2 NA   UNL     2      -9.473   2.644  66.346  1.00  0.00    -0.144 Na 
HETATM    3  O   UNL     3      -9.996   4.556  66.524  1.00  0.00    -0.208 OA 
HETATM    4  C   UNL     3     -10.009   5.836  66.519  1.00  0.00    -0.163 C  
HETATM    5  C   UNL     3      -8.815   6.582  65.983  1.00  0.00    -0.154 A  
HETATM    6  O   UNL     3     -11.029   6.475  66.936  1.00  0.00    -0.373 OA 
HETATM    7  C   UNL     3      -8.147   6.137  64.818  1.00  0.00    -0.132 A  
HETATM    8 CL   UNL     3      -8.724   4.736  63.943  1.00  0.00    -0.140 Cl 
HETATM    9  C   UNL     3      -7.018   6.827  64.316  1.00  0.00    -0.051 A  
HETATM   10 CL   UNL     3      -6.208   6.244  62.883  1.00  0.00    -0.026 Cl 
HETATM   11  C   UNL     3      -6.546   7.980  64.960  1.00  0.00    -0.051 A  
HETATM   12  C   UNL     3      -7.197   8.443  66.114  1.00  0.00    -0.077 A  
HETATM   13 CL   UNL     3      -5.166   8.834  64.328  1.00  0.00    -0.050 Cl 
HETATM   14  C   UNL     3      -8.322   7.751  66.635  1.00  0.00    -0.126 A  
HETATM   15 CL   UNL     3      -6.624   9.883  66.915  1.00  0.00    -0.066 Cl 
ENDROOT
BRANCH  14  16
HETATM   16  C   UNL     3      -8.934   8.231  67.921  1.00  0.00    -0.134 A  
HETATM   17  C   UNL     3      -8.636   7.625  69.104  1.00  0.00    -0.139 A  
HETATM   18  C   UNL     3      -7.753   6.460  69.169  1.00  0.00    -0.101 C  
HETATM   19  C   UNL     3      -7.331   5.939  70.330  1.00  0.00    -0.087 C  
HETATM   20 BR   UNL     3      -6.136   4.510  70.380  1.00  0.00    -0.022 Br 
HETATM   21  C   UNL     3      -7.773   6.553  71.624  1.00  0.00    -0.099 C  
HETATM   22  O   UNL     3      -7.270   6.197  72.696  1.00  0.00    -0.083 OA 
HETATM   23  C   UNL     3      -8.795   7.641  71.560  1.00  0.00    -0.124 C  
HETATM   24  C   UNL     3      -9.180   8.148  70.365  1.00  0.00    -0.151 A  
HETATM   25 BR   UNL     3      -9.424   8.314  73.190  1.00  0.00    -0.176 Br 
HETATM   26  O   UNL     3     -10.066   9.212  70.340  1.00  0.00    -0.189 OA 
HETATM   27  C   UNL     3     -10.366   9.847  69.164  1.00  0.00    -0.209 A  
HETATM   28  C   UNL     3      -9.860   9.388  67.955  1.00  0.00    -0.191 A  
HETATM   29  C   UNL     3     -10.249  10.052  66.794  1.00  0.00    -0.295 C  
HETATM   30  C   UNL     3     -11.074  11.188  66.848  1.00  0.00    -0.247 C  
HETATM   31 BR   UNL     3     -11.477  11.975  65.141  1.00  0.00    -0.307 Br 
HETATM   32  C   UNL     3     -11.566  11.737  68.057  1.00  0.00    -0.316 C  
HETATM   33  C   UNL     3     -11.196  10.990  69.215  1.00  0.00    -0.257 C  
HETATM   34  O   UNL     3     -12.264  12.809  68.100  1.00  0.00    -0.198 OA 
HETATM   35 BR   UNL     3     -11.818  11.545  70.960  1.00  0.00     0.358 Br 
ENDBRANCH  14  16
TORSDOF 1
ENDMDL
MODEL       66
REMARK 921   NORMALIZED FREE ENERGY PREDICTED BY IDOCK:   -4.08 KCAL/MOL
REMARK 922        TOTAL FREE ENERGY PREDICTED BY IDOCK:   -5.08 KCAL/MOL
REMARK 923 INTER-LIGAND FREE ENERGY PREDICTED BY IDOCK:   -4.42 KCAL/MOL
REMARK 924 INTRA-LIGAND FREE ENERGY PREDICTED BY IDOCK:   -0.65 KCAL/MOL
REMARK 927      BINDING AFFINITY PREDICTED BY RF-SCORE:    0.00 PKD
ROOT
HETATM    1 NA   UNL     1      -5.828   6.750  65.987  1.00  0.00    -0.022 Na 
HETATM    2 NA   UNL     2      -5.234  10.917  63.233  1.00  0.00    -0.104 Na 
HETATM    3  O   UNL     3      -6.365   9.764  64.397  1.00  0.00    -0.101 OA 
HETATM    4  C   UNL     3      -7.312   9.294  65.119  1.00  0.00    -0.098 C  
HETATM    5  C   UNL     3      -8.590  10.078  65.261  1.00  0.00    -0.166 A  
HETATM    6  O   UNL     3      -7.188   8.162  65.690  1.00  0.00    -0.069 OA 
HETATM    7  C   UNL     3      -9.163  10.735  64.146  1.00  0.00    -0.224 A  
HETATM    8 CL   UNL     3      -8.424  10.610  62.564  1.00  0.00    -0.224 Cl 
HETATM    9  C   UNL     3     -10.357  11.483  64.275  1.00  0.00    -0.323 A  
HETATM   10 CL   UNL     3     -11.031  12.293  62.882  1.00  0.00     0.078 Cl 
HETATM   11  C   UNL     3     -11.007  11.574  65.514  1.00  0.00    -0.229 A  
HETATM   12  C   UNL     3     -10.461  10.925  66.632  1.00  0.00    -0.254 A  
HETATM   13 CL   UNL     3     -12.486  12.482  65.663  1.00  0.00    -0.326 Cl 
HETATM   14  C   UNL     3      -9.255  10.184  66.518  1.00  0.00    -0.182 A  
HETATM   15 CL   UNL     3     -11.269  11.025  68.175  1.00  0.00    -0.336 Cl 
ENDROOT
BRANCH  14  16
HETATM   16  C   UNL     3      -8.658   9.580  67.758  1.00  0.00    -0.115 A  
HETATM   17  C   UNL     3      -8.880   8.273  68.073  1.00  0.00    -0.135 A  
HETATM   18  C   UNL     3      -9.741   7.421  67.252  1.00  0.00    -0.205 C  
HETATM   19  C   UNL     3      -9.856   6.101  67.459  1.00  0.00    -0.125 C  
HETATM   20 BR   UNL     3     -10.890   5.026  66.342  1.00  0.00     0.103 Br 
HETATM   21  C   UNL     3      -9.089   5.454  68.572  1.00  0.00    -0.108 C  
HETATM   22  O   UNL     3      -9.050   4.223  68.680  1.00  0.00    -0.111 OA 
HETATM   23  C   UNL     3      -8.336   6.346  69.504  1.00  0.00    -0.126 C  
HETATM   24  C   UNL     3      -8.232   7.671  69.247  1.00  0.00    -0.133 A  
HETATM   25 BR   UNL     3      -7.482   5.532  70.958  1.00  0.00    -0.091 Br 
HETATM   26  O   UNL     3      -7.458   8.460  70.081  1.00  0.00    -0.060 OA 
HETATM   27  C   UNL     3      -7.208   9.771  69.775  1.00  0.00    -0.105 A  
HETATM   28  C   UNL     3      -7.793  10.369  68.666  1.00  0.00    -0.108 A  
HETATM   29  C   UNL     3      -7.535  11.720  68.445  1.00  0.00    -0.105 C  
HETATM   30  C   UNL     3      -6.660  12.439  69.277  1.00  0.00    -0.093 C  
HETATM   31 BR   UNL     3      -6.415  14.282  68.791  1.00  0.00    -0.096 Br 
HETATM   32  C   UNL     3      -5.986  11.862  70.382  1.00  0.00    -0.115 C  
HETATM   33  C   UNL     3      -6.329  10.496  70.610  1.00  0.00    -0.037 C  
HETATM   34  O   UNL     3      -5.142  12.509  71.094  1.00  0.00    -0.133 OA 
HETATM   35 BR   UNL     3      -5.557   9.547  72.107  1.00  0.00     0.054 Br 
ENDBRANCH  14  16
TORSDOF 1
ENDMDL
MODEL       67
REMARK 921   NORMALIZED FREE ENERGY PREDICTED BY IDOCK:   -3.90 KCAL/MOL
REMARK 922        TOTAL FREE ENERGY PREDICTED BY IDOCK:   -4.88 KCAL/MOL
REMARK 923 INTER-LIGAND FREE ENERGY PREDICTED BY IDOCK:   -6.53 KCAL/MOL
REMARK 924 INTRA-LIGAND FREE ENERGY PREDICTED BY IDOCK:    1.66 KCAL/MOL
REMARK 927      BINDING AFFINITY PREDICTED BY RF-SCORE:    0.00 PKD
ROOT
HETATM    1 NA   UNL     1      -8.856  13.142  69.175  1.00  0.00    -0.325 Na 
HETATM    2 NA   UNL     2      -5.131  10.159  70.762  1.00  0.00    -0.031 Na 
HETATM    3  O   UNL     3      -7.010  10.396  70.150  1.00  0.00    -0.148 OA 
HETATM    4  C   UNL     3      -8.216  10.200  69.770  1.00  0.00    -0.145 C  
HETATM    5  C   UNL     3      -8.761   8.796  69.742  1.00  0.00    -0.133 A  
HETATM    6  O   UNL     3      -8.960  11.182  69.445  1.00  0.00     0.079 OA 
HETATM    7  C   UNL     3      -8.467   7.884  70.784  1.00  0.00    -0.124 A  
HETATM    8 CL   UNL     3      -7.503   8.386  72.156  1.00  0.00    -0.147 Cl 
HETATM    9  C   UNL     3      -8.965   6.561  70.758  1.00  0.00    -0.144 A  
HETATM   10 CL   UNL     3      -8.572   5.457  72.053  1.00  0.00    -0.130 Cl 
HETATM   11  C   UNL     3      -9.777   6.129  69.700  1.00  0.00    -0.152 A  
HETATM   12  C   UNL     3     -10.088   7.017  68.658  1.00  0.00    -0.166 A  
HETATM   13 CL   UNL     3     -10.402   4.503  69.681  1.00  0.00    -0.023 Cl 
HETATM   14  C   UNL     3      -9.581   8.344  68.666  1.00  0.00    -0.153 A  
HETATM   15 CL   UNL     3     -11.107   6.492  67.343  1.00  0.00    -0.444 Cl 
ENDROOT
BRANCH  14  16
HETATM   16  C   UNL     3      -9.865   9.233  67.488  1.00  0.00    -0.224 A  
HETATM   17  C   UNL     3     -10.671  10.323  67.615  1.00  0.00    -0.339 A  
HETATM   18  C   UNL     3     -11.329  10.648  68.882  1.00  0.00    -0.337 C  
HETATM   19  C   UNL     3     -12.005  11.790  69.069  1.00  0.00    -0.280 C  
HETATM   20 BR   UNL     3     -12.758  12.216  70.720  1.00  0.00    -0.137 Br 
HETATM   21  C   UNL     3     -12.110  12.784  67.953  1.00  0.00    -0.132 C  
HETATM   22  O   UNL     3     -12.583  13.909  68.151  1.00  0.00     0.084 OA 
HETATM   23  C   UNL     3     -11.573  12.384  66.618  1.00  0.00    -0.385 C  
HETATM   24  C   UNL     3     -10.883  11.228  66.477  1.00  0.00    -0.265 A  
HETATM   25 BR   UNL     3     -11.819  13.589  65.206  1.00  0.00    -0.401 Br 
HETATM   26  O   UNL     3     -10.324  10.923  65.247  1.00  0.00    -0.273 OA 
HETATM   27  C   UNL     3      -9.498   9.842  65.100  1.00  0.00    -0.273 A  
HETATM   28  C   UNL     3      -9.265   8.972  66.158  1.00  0.00    -0.272 A  
HETATM   29  C   UNL     3      -8.453   7.864  65.922  1.00  0.00    -0.147 C  
HETATM   30  C   UNL     3      -7.838   7.666  64.675  1.00  0.00    -0.126 C  
HETATM   31 BR   UNL     3      -6.739   6.095  64.557  1.00  0.00    -0.043 Br 
HETATM   32  C   UNL     3      -7.989   8.555  63.582  1.00  0.00    -0.161 C  
HETATM   33  C   UNL     3      -8.877   9.640  63.846  1.00  0.00    -0.228 C  
HETATM   34  O   UNL     3      -7.372   8.400  62.470  1.00  0.00    -0.094 OA 
HETATM   35 BR   UNL     3      -9.260  10.933  62.461  1.00  0.00    -0.316 Br 
ENDBRANCH  14  16
TORSDOF 1
ENDMDL
MODEL       68
REMARK 921   NORMALIZED FREE ENERGY PREDICTED BY IDOCK:   -3.87 KCAL/MOL
REMARK 922        TOTAL FREE ENERGY PREDICTED BY IDOCK:   -4.85 KCAL/MOL
REMARK 923 INTER-LIGAND FREE ENERGY PREDICTED BY IDOCK:   -4.62 KCAL/MOL
REMARK 924 INTRA-LIGAND FREE ENERGY PREDICTED BY IDOCK:   -0.23 KCAL/MOL
REMARK 927      BINDING AFFINITY PREDICTED BY RF-SCORE:    0.00 PKD
ROOT
HETATM    1 NA   UNL     1     -11.208  12.152  70.415  1.00  0.00    -0.432 Na 
HETATM    2 NA   UNL     2     -13.262  14.809  66.671  1.00  0.00    -0.509 Na 
HETATM    3  O   UNL     3     -11.718  14.419  67.866  1.00  0.00    -0.325 OA 
HETATM    4  C   UNL     3     -10.568  14.402  68.427  1.00  0.00    -0.247 C  
HETATM    5  C   UNL     3      -9.496  15.341  67.940  1.00  0.00    -0.197 A  
HETATM    6  O   UNL     3     -10.338  13.619  69.406  1.00  0.00     0.071 OA 
HETATM    7  C   UNL     3      -9.806  16.679  67.599  1.00  0.00    -0.256 A  
HETATM    8 CL   UNL     3     -11.437  17.288  67.784  1.00  0.00     0.326 Cl 
HETATM    9  C   UNL     3      -8.806  17.562  67.130  1.00  0.00    -0.238 A  
HETATM   10 CL   UNL     3      -9.224  19.204  66.705  1.00  0.00    -0.343 Cl 
HETATM   11  C   UNL     3      -7.478  17.130  67.008  1.00  0.00    -0.188 A  
HETATM   12  C   UNL     3      -7.145  15.809  67.346  1.00  0.00    -0.203 A  
HETATM   13 CL   UNL     3      -6.247  18.228  66.445  1.00  0.00    -0.208 Cl 
HETATM   14  C   UNL     3      -8.143  14.909  67.804  1.00  0.00    -0.162 A  
HETATM   15 CL   UNL     3      -5.493  15.267  67.207  1.00  0.00     0.209 Cl 
ENDROOT
BRANCH  14  16
HETATM   16  C   UNL     3      -7.761  13.481  68.071  1.00  0.00    -0.143 A  
HETATM   17  C   UNL     3      -6.994  13.153  69.148  1.00  0.00    -0.028 A  
HETATM   18  C   UNL     3      -6.473  14.174  70.058  1.00  0.00    -0.103 C  
HETATM   19  C   UNL     3      -5.843  13.865  71.201  1.00  0.00    -0.194 C  
HETATM   20 BR   UNL     3      -5.269  15.186  72.384  1.00  0.00     0.139 Br 
HETATM   21  C   UNL     3      -5.647  12.428  71.577  1.00  0.00     0.267 C  
HETATM   22  O   UNL     3      -5.219  12.121  72.696  1.00  0.00    -0.334 OA 
HETATM   23  C   UNL     3      -6.038  11.392  70.576  1.00  0.00    -0.044 C  
HETATM   24  C   UNL     3      -6.687  11.746  69.442  1.00  0.00    -0.098 A  
HETATM   25 BR   UNL     3      -5.676   9.607  71.013  1.00  0.00    -0.077 Br 
HETATM   26  O   UNL     3      -7.112  10.757  68.572  1.00  0.00    -0.065 OA 
HETATM   27  C   UNL     3      -7.898  11.061  67.492  1.00  0.00    -0.116 A  
HETATM   28  C   UNL     3      -8.218  12.378  67.191  1.00  0.00    -0.176 A  
HETATM   29  C   UNL     3      -8.979  12.618  66.049  1.00  0.00     0.201 C  
HETATM   30  C   UNL     3      -9.461  11.558  65.262  1.00  0.00    -0.184 C  
HETATM   31 BR   UNL     3     -10.511  12.093  63.743  1.00  0.00    -0.508 Br 
HETATM   32  C   UNL     3      -9.219  10.194  65.559  1.00  0.00    -0.191 C  
HETATM   33  C   UNL     3      -8.384   9.997  66.699  1.00  0.00    -0.125 C  
HETATM   34  O   UNL     3      -9.717   9.235  64.872  1.00  0.00    -0.035 OA 
HETATM   35 BR   UNL     3      -7.891   8.207  67.234  1.00  0.00    -0.106 Br 
ENDBRANCH  14  16
TORSDOF 1
ENDMDL
MODEL       69
REMARK 921   NORMALIZED FREE ENERGY PREDICTED BY IDOCK:   -3.81 KCAL/MOL
REMARK 922        TOTAL FREE ENERGY PREDICTED BY IDOCK:   -4.79 KCAL/MOL
REMARK 923 INTER-LIGAND FREE ENERGY PREDICTED BY IDOCK:   -3.92 KCAL/MOL
REMARK 924 INTRA-LIGAND FREE ENERGY PREDICTED BY IDOCK:   -0.87 KCAL/MOL
REMARK 927      BINDING AFFINITY PREDICTED BY RF-SCORE:    0.00 PKD
ROOT
HETATM    1 NA   UNL     1     -10.202   7.935  73.535  1.00  0.00    -0.254 Na 
HETATM    2 NA   UNL     2     -13.450   9.441  70.002  1.00  0.00    -0.449 Na 
HETATM    3  O   UNL     3     -11.579   9.217  70.643  1.00  0.00    -0.266 OA 
HETATM    4  C   UNL     3     -10.302   9.185  70.733  1.00  0.00    -0.258 C  
HETATM    5  C   UNL     3      -9.470   9.678  69.579  1.00  0.00    -0.211 A  
HETATM    6  O   UNL     3      -9.739   8.767  71.797  1.00  0.00    -0.265 OA 
HETATM    7  C   UNL     3      -9.838  10.844  68.866  1.00  0.00    -0.192 A  
HETATM    8 CL   UNL     3     -11.245  11.769  69.344  1.00  0.00    -0.311 Cl 
HETATM    9  C   UNL     3      -9.068  11.305  67.774  1.00  0.00    -0.152 A  
HETATM   10 CL   UNL     3      -9.557  12.741  66.907  1.00  0.00    -0.228 Cl 
HETATM   11  C   UNL     3      -7.908  10.620  67.383  1.00  0.00    -0.110 A  
HETATM   12  C   UNL     3      -7.520   9.465  68.079  1.00  0.00    -0.080 A  
HETATM   13 CL   UNL     3      -6.953  11.203  66.048  1.00  0.00    -0.013 Cl 
HETATM   14  C   UNL     3      -8.293   8.984  69.168  1.00  0.00    -0.123 A  
HETATM   15 CL   UNL     3      -6.072   8.612  67.607  1.00  0.00    -0.047 Cl 
ENDROOT
BRANCH  14  16
HETATM   16  C   UNL     3      -7.890   7.695  69.827  1.00  0.00    -0.110 A  
HETATM   17  C   UNL     3      -7.089   7.696  70.928  1.00  0.00    -0.054 A  
HETATM   18  C   UNL     3      -6.550   8.937  71.485  1.00  0.00    -0.080 C  
HETATM   19  C   UNL     3      -5.883   8.975  72.648  1.00  0.00    -0.038 C  
HETATM   20 BR   UNL     3      -5.286  10.584  73.375  1.00  0.00     0.482 Br 
HETATM   21  C   UNL     3      -5.663   7.711  73.420  1.00  0.00    -0.048 C  
HETATM   22  O   UNL     3      -5.199   7.743  74.566  1.00  0.00    -0.064 OA 
HETATM   23  C   UNL     3      -6.075   6.427  72.777  1.00  0.00    -0.050 C  
HETATM   24  C   UNL     3      -6.761   6.436  71.611  1.00  0.00    -0.063 A  
HETATM   25 BR   UNL     3      -5.684   4.847  73.704  1.00  0.00    -0.018 Br 
HETATM   26  O   UNL     3      -7.203   5.235  71.081  1.00  0.00    -0.068 OA 
HETATM   27  C   UNL     3      -8.023   5.212  69.984  1.00  0.00    -0.082 A  
HETATM   28  C   UNL     3      -8.364   6.384  69.322  1.00  0.00    -0.122 A  
HETATM   29  C   UNL     3      -9.161   6.280  68.184  1.00  0.00    -0.110 C  
HETATM   30  C   UNL     3      -9.657   5.037  67.756  1.00  0.00    -0.146 C  
HETATM   31 BR   UNL     3     -10.757   5.106  66.181  1.00  0.00    -0.117 Br 
HETATM   32  C   UNL     3      -9.395   3.819  68.430  1.00  0.00    -0.166 C  
HETATM   33  C   UNL     3      -8.524   3.963  69.551  1.00  0.00    -0.060 C  
HETATM   34  O   UNL     3      -9.905   2.702  68.069  1.00  0.00     0.010 OA 
HETATM   35 BR   UNL     3      -7.999   2.406  70.570  1.00  0.00    -0.054 Br 
ENDBRANCH  14  16
TORSDOF 1
ENDMDL
MODEL       70
REMARK 921   NORMALIZED FREE ENERGY PREDICTED BY IDOCK:   -3.74 KCAL/MOL
REMARK 922        TOTAL FREE ENERGY PREDICTED BY IDOCK:   -4.71 KCAL/MOL
REMARK 923 INTER-LIGAND FREE ENERGY PREDICTED BY IDOCK:   -3.62 KCAL/MOL
REMARK 924 INTRA-LIGAND FREE ENERGY PREDICTED BY IDOCK:   -1.09 KCAL/MOL
REMARK 927      BINDING AFFINITY PREDICTED BY RF-SCORE:    0.00 PKD
ROOT
HETATM    1 NA   UNL     1     -11.514   7.990  68.303  1.00  0.00    -0.430 Na 
HETATM    2 NA   UNL     2     -12.659   7.755  73.195  1.00  0.00    -0.537 Na 
HETATM    3  O   UNL     3     -11.649   7.066  71.624  1.00  0.00    -0.260 OA 
HETATM    4  C   UNL     3     -10.851   6.422  70.857  1.00  0.00    -0.263 C  
HETATM    5  C   UNL     3     -10.000   5.323  71.436  1.00  0.00    -0.245 A  
HETATM    6  O   UNL     3     -10.795   6.688  69.612  1.00  0.00    -0.239 OA 
HETATM    7  C   UNL     3     -10.533   4.419  72.386  1.00  0.00    -0.149 A  
HETATM    8 CL   UNL     3     -12.211   4.528  72.872  1.00  0.00     0.196 Cl 
HETATM    9  C   UNL     3      -9.736   3.392  72.942  1.00  0.00    -0.131 A  
HETATM   10 CL   UNL     3     -10.421   2.301  74.122  1.00  0.00    -0.183 Cl 
HETATM   11  C   UNL     3      -8.399   3.239  72.549  1.00  0.00    -0.080 A  
HETATM   12  C   UNL     3      -7.850   4.120  71.604  1.00  0.00    -0.071 A  
HETATM   13 CL   UNL     3      -7.427   1.961  73.225  1.00  0.00    -0.036 Cl 
HETATM   14  C   UNL     3      -8.636   5.164  71.050  1.00  0.00    -0.130 A  
HETATM   15 CL   UNL     3      -6.190   3.930  71.101  1.00  0.00    -0.014 Cl 
ENDROOT
BRANCH  14  16
HETATM   16  C   UNL     3      -7.985   6.137  70.109  1.00  0.00    -0.107 A  
HETATM   17  C   UNL     3      -7.443   7.298  70.570  1.00  0.00    -0.083 A  
HETATM   18  C   UNL     3      -7.513   7.669  71.984  1.00  0.00    -0.075 C  
HETATM   19  C   UNL     3      -6.862   8.730  72.484  1.00  0.00     0.068 C  
HETATM   20 BR   UNL     3      -6.898   9.125  74.305  1.00  0.00     0.363 Br 
HETATM   21  C   UNL     3      -6.032   9.587  71.578  1.00  0.00    -0.030 C  
HETATM   22  O   UNL     3      -5.295  10.466  72.040  1.00  0.00    -0.275 OA 
HETATM   23  C   UNL     3      -6.087   9.300  70.113  1.00  0.00    -0.036 C  
HETATM   24  C   UNL     3      -6.742   8.209  69.653  1.00  0.00    -0.038 A  
HETATM   25 BR   UNL     3      -5.137  10.455  68.984  1.00  0.00    -0.038 Br 
HETATM   26  O   UNL     3      -6.705   7.922  68.299  1.00  0.00    -0.060 OA 
HETATM   27  C   UNL     3      -7.229   6.753  67.815  1.00  0.00    -0.091 A  
HETATM   28  C   UNL     3      -7.887   5.863  68.655  1.00  0.00    -0.102 A  
HETATM   29  C   UNL     3      -8.439   4.718  68.084  1.00  0.00    -0.102 C  
HETATM   30  C   UNL     3      -8.281   4.439  66.716  1.00  0.00    -0.102 C  
HETATM   31 BR   UNL     3      -9.095   2.801  66.127  1.00  0.00    -0.089 Br 
HETATM   32  C   UNL     3      -7.565   5.278  65.828  1.00  0.00    -0.083 C  
HETATM   33  C   UNL     3      -7.072   6.469  66.440  1.00  0.00    -0.068 C  
HETATM   34  O   UNL     3      -7.372   4.983  64.597  1.00  0.00    -0.061 OA 
HETATM   35 BR   UNL     3      -6.116   7.772  65.379  1.00  0.00    -0.038 Br 
ENDBRANCH  14  16
TORSDOF 1
ENDMDL
MODEL       71
REMARK 921   NORMALIZED FREE ENERGY PREDICTED BY IDOCK:   -3.70 KCAL/MOL
REMARK 922        TOTAL FREE ENERGY PREDICTED BY IDOCK:   -4.67 KCAL/MOL
REMARK 923 INTER-LIGAND FREE ENERGY PREDICTED BY IDOCK:   -3.61 KCAL/MOL
REMARK 924 INTRA-LIGAND FREE ENERGY PREDICTED BY IDOCK:   -1.06 KCAL/MOL
REMARK 927      BINDING AFFINITY PREDICTED BY RF-SCORE:    0.00 PKD
ROOT
HETATM    1 NA   UNL     1      -5.414   9.776  67.811  1.00  0.00    -0.038 Na 
HETATM    2 NA   UNL     2      -5.138   7.051  72.030  1.00  0.00    -0.024 Na 
HETATM    3  O   UNL     3      -6.222   7.917  70.602  1.00  0.00    -0.036 OA 
HETATM    4  C   UNL     3      -7.180   8.309  69.848  1.00  0.00    -0.059 C  
HETATM    5  C   UNL     3      -8.594   7.925  70.195  1.00  0.00    -0.134 A  
HETATM    6  O   UNL     3      -6.945   9.040  68.831  1.00  0.00    -0.063 OA 
HETATM    7  C   UNL     3      -9.043   7.951  71.537  1.00  0.00    -0.137 A  
HETATM    8 CL   UNL     3      -7.977   8.477  72.820  1.00  0.00    -0.145 Cl 
HETATM    9  C   UNL     3     -10.367   7.580  71.870  1.00  0.00    -0.193 A  
HETATM   10 CL   UNL     3     -10.886   7.609  73.538  1.00  0.00    -0.296 Cl 
HETATM   11  C   UNL     3     -11.270   7.193  70.869  1.00  0.00    -0.276 A  
HETATM   12  C   UNL     3     -10.848   7.167  69.530  1.00  0.00    -0.225 A  
HETATM   13 CL   UNL     3     -12.903   6.754  71.283  1.00  0.00    -0.335 Cl 
HETATM   14  C   UNL     3      -9.518   7.522  69.185  1.00  0.00    -0.150 A  
HETATM   15 CL   UNL     3     -11.968   6.697  68.277  1.00  0.00     1.168 Cl 
ENDROOT
BRANCH  14  16
HETATM   16  C   UNL     3      -9.084   7.395  67.752  1.00  0.00    -0.129 A  
HETATM   17  C   UNL     3      -9.280   8.414  66.871  1.00  0.00    -0.196 A  
HETATM   18  C   UNL     3      -9.958   9.650  67.264  1.00  0.00    -0.250 C  
HETATM   19  C   UNL     3     -10.032  10.719  66.459  1.00  0.00    -0.213 C  
HETATM   20 BR   UNL     3     -10.825  12.309  67.021  1.00  0.00    -0.307 Br 
HETATM   21  C   UNL     3      -9.409  10.668  65.097  1.00  0.00    -0.212 C  
HETATM   22  O   UNL     3      -9.320  11.689  64.405  1.00  0.00    -0.088 OA 
HETATM   23  C   UNL     3      -8.855   9.359  64.638  1.00  0.00    -0.200 C  
HETATM   24  C   UNL     3      -8.786   8.310  65.490  1.00  0.00    -0.140 A  
HETATM   25 BR   UNL     3      -8.188   9.283  62.890  1.00  0.00    -0.188 Br 
HETATM   26  O   UNL     3      -8.191   7.134  65.064  1.00  0.00    -0.134 OA 
HETATM   27  C   UNL     3      -7.969   6.103  65.937  1.00  0.00    -0.112 A  
HETATM   28  C   UNL     3      -8.411   6.173  67.251  1.00  0.00    -0.104 A  
HETATM   29  C   UNL     3      -8.196   5.065  68.069  1.00  0.00    -0.097 C  
HETATM   30  C   UNL     3      -7.498   3.940  67.599  1.00  0.00    -0.067 C  
HETATM   31 BR   UNL     3      -7.282   2.528  68.886  1.00  0.00    -0.044 Br 
HETATM   32  C   UNL     3      -6.969   3.842  66.289  1.00  0.00    -0.062 C  
HETATM   33  C   UNL     3      -7.267   4.970  65.467  1.00  0.00    -0.068 C  
HETATM   34  O   UNL     3      -6.278   2.840  65.892  1.00  0.00    -0.023 OA 
HETATM   35 BR   UNL     3      -6.681   5.002  63.625  1.00  0.00    -0.038 Br 
ENDBRANCH  14  16
TORSDOF 1
ENDMDL
MODEL       72
REMARK 921   NORMALIZED FREE ENERGY PREDICTED BY IDOCK:   -3.69 KCAL/MOL
REMARK 922        TOTAL FREE ENERGY PREDICTED BY IDOCK:   -4.66 KCAL/MOL
REMARK 923 INTER-LIGAND FREE ENERGY PREDICTED BY IDOCK:   -4.57 KCAL/MOL
REMARK 924 INTRA-LIGAND FREE ENERGY PREDICTED BY IDOCK:   -0.09 KCAL/MOL
REMARK 927      BINDING AFFINITY PREDICTED BY RF-SCORE:    0.00 PKD
ROOT
HETATM    1 NA   UNL     1      -9.662   9.909  72.153  1.00  0.00     0.048 Na 
HETATM    2 NA   UNL     2     -13.761  10.199  69.254  1.00  0.00    -0.365 Na 
HETATM    3  O   UNL     3     -11.781  10.228  69.450  1.00  0.00    -0.194 OA 
HETATM    4  C   UNL     3     -10.520  10.258  69.227  1.00  0.00    -0.228 C  
HETATM    5  C   UNL     3     -10.026  10.405  67.812  1.00  0.00    -0.203 A  
HETATM    6  O   UNL     3      -9.691  10.194  70.192  1.00  0.00    -0.190 OA 
HETATM    7  C   UNL     3     -10.660  11.294  66.912  1.00  0.00    -0.257 A  
HETATM    8 CL   UNL     3     -12.005  12.282  67.439  1.00  0.00    -0.311 Cl 
HETATM    9  C   UNL     3     -10.208  11.427  65.578  1.00  0.00    -0.264 A  
HETATM   10 CL   UNL     3     -11.022  12.523  64.488  1.00  0.00    -0.336 Cl 
HETATM   11  C   UNL     3      -9.106  10.688  65.125  1.00  0.00    -0.201 A  
HETATM   12  C   UNL     3      -8.457   9.804  66.002  1.00  0.00    -0.124 A  
HETATM   13 CL   UNL     3      -8.543  10.868  63.486  1.00  0.00    -0.056 Cl 
HETATM   14  C   UNL     3      -8.911   9.651  67.338  1.00  0.00    -0.141 A  
HETATM   15 CL   UNL     3      -7.079   8.889  65.449  1.00  0.00    -0.080 Cl 
ENDROOT
BRANCH  14  16
HETATM   16  C   UNL     3      -8.243   8.631  68.216  1.00  0.00    -0.122 A  
HETATM   17  C   UNL     3      -7.345   9.009  69.167  1.00  0.00    -0.072 A  
HETATM   18  C   UNL     3      -6.957  10.409  69.342  1.00  0.00    -0.091 C  
HETATM   19  C   UNL     3      -6.189  10.822  70.362  1.00  0.00    -0.127 C  
HETATM   20 BR   UNL     3      -5.785  12.624  70.609  1.00  0.00    -0.085 Br 
HETATM   21  C   UNL     3      -5.693   9.828  71.368  1.00  0.00    -0.050 C  
HETATM   22  O   UNL     3      -5.127  10.205  72.400  1.00  0.00    -0.196 OA 
HETATM   23  C   UNL     3      -5.959   8.383  71.101  1.00  0.00    -0.035 C  
HETATM   24  C   UNL     3      -6.753   8.012  70.070  1.00  0.00    -0.040 A  
HETATM   25 BR   UNL     3      -5.229   7.148  72.306  1.00  0.00    -0.037 Br 
HETATM   26  O   UNL     3      -7.050   6.671  69.897  1.00  0.00    -0.064 OA 
HETATM   27  C   UNL     3      -7.963   6.269  68.959  1.00  0.00    -0.110 A  
HETATM   28  C   UNL     3      -8.551   7.185  68.097  1.00  0.00    -0.129 A  
HETATM   29  C   UNL     3      -9.433   6.699  67.134  1.00  0.00    -0.158 C  
HETATM   30  C   UNL     3      -9.766   5.335  67.076  1.00  0.00    -0.153 C  
HETATM   31 BR   UNL     3     -11.016   4.867  65.694  1.00  0.00     0.256 Br 
HETATM   32  C   UNL     3      -9.246   4.368  67.971  1.00  0.00    -0.136 C  
HETATM   33  C   UNL     3      -8.300   4.898  68.899  1.00  0.00    -0.082 C  
HETATM   34  O   UNL     3      -9.605   3.139  67.951  1.00  0.00    -0.192 OA 
HETATM   35 BR   UNL     3      -7.433   3.725  70.167  1.00  0.00    -0.041 Br 
ENDBRANCH  14  16
TORSDOF 1
ENDMDL
MODEL       73
REMARK 921   NORMALIZED FREE ENERGY PREDICTED BY IDOCK:   -3.64 KCAL/MOL
REMARK 922        TOTAL FREE ENERGY PREDICTED BY IDOCK:   -4.61 KCAL/MOL
REMARK 923 INTER-LIGAND FREE ENERGY PREDICTED BY IDOCK:   -3.53 KCAL/MOL
REMARK 924 INTRA-LIGAND FREE ENERGY PREDICTED BY IDOCK:   -1.08 KCAL/MOL
REMARK 927      BINDING AFFINITY PREDICTED BY RF-SCORE:    0.00 PKD
ROOT
HETATM    1 NA   UNL     1     -12.248   6.836  67.129  1.00  0.00    -0.674 Na 
HETATM    2 NA   UNL     2      -8.301   7.151  64.027  1.00  0.00    -0.128 Na 
HETATM    3  O   UNL     3      -9.190   7.628  65.742  1.00  0.00    -0.065 OA 
HETATM    4  C   UNL     3      -9.451   8.082  66.911  1.00  0.00    -0.191 C  
HETATM    5  C   UNL     3      -8.417   8.909  67.628  1.00  0.00    -0.121 A  
HETATM    6  O   UNL     3     -10.584   7.862  67.452  1.00  0.00    -0.279 OA 
HETATM    7  C   UNL     3      -7.655   9.878  66.933  1.00  0.00    -0.095 A  
HETATM    8 CL   UNL     3      -7.934  10.172  65.230  1.00  0.00    -0.141 Cl 
HETATM    9  C   UNL     3      -6.674  10.649  67.598  1.00  0.00    -0.072 A  
HETATM   10 CL   UNL     3      -5.741  11.827  66.708  1.00  0.00    -0.145 Cl 
HETATM   11  C   UNL     3      -6.447  10.478  68.971  1.00  0.00    -0.054 A  
HETATM   12  C   UNL     3      -7.195   9.527  69.683  1.00  0.00    -0.076 A  
HETATM   13 CL   UNL     3      -5.249  11.442  69.789  1.00  0.00    -0.053 Cl 
HETATM   14  C   UNL     3      -8.172   8.737  69.023  1.00  0.00    -0.117 A  
HETATM   15 CL   UNL     3      -6.927   9.315  71.394  1.00  0.00    -0.032 Cl 
ENDROOT
BRANCH  14  16
HETATM   16  C   UNL     3      -8.887   7.670  69.804  1.00  0.00    -0.140 A  
HETATM   17  C   UNL     3      -8.449   6.381  69.788  1.00  0.00    -0.127 A  
HETATM   18  C   UNL     3      -7.301   5.971  68.978  1.00  0.00    -0.085 C  
HETATM   19  C   UNL     3      -6.764   4.745  69.059  1.00  0.00    -0.049 C  
HETATM   20 BR   UNL     3      -5.247   4.280  68.081  1.00  0.00    -0.008 Br 
HETATM   21  C   UNL     3      -7.348   3.738  70.002  1.00  0.00    -0.042 C  
HETATM   22  O   UNL     3      -6.774   2.664  70.214  1.00  0.00    -0.032 OA 
HETATM   23  C   UNL     3      -8.611   4.106  70.710  1.00  0.00    -0.075 C  
HETATM   24  C   UNL     3      -9.110   5.360  70.613  1.00  0.00    -0.144 A  
HETATM   25 BR   UNL     3      -9.393   2.792  71.793  1.00  0.00    -0.205 Br 
HETATM   26  O   UNL     3     -10.234   5.697  71.347  1.00  0.00    -0.198 OA 
HETATM   27  C   UNL     3     -10.683   6.989  71.391  1.00  0.00    -0.219 A  
HETATM   28  C   UNL     3     -10.075   7.982  70.634  1.00  0.00    -0.203 A  
HETATM   29  C   UNL     3     -10.617   9.265  70.689  1.00  0.00    -0.324 C  
HETATM   30  C   UNL     3     -11.702   9.560  71.531  1.00  0.00    -0.402 C  
HETATM   31 BR   UNL     3     -12.286  11.390  71.484  1.00  0.00    -0.044 Br 
HETATM   32  C   UNL     3     -12.318   8.602  72.373  1.00  0.00    -0.357 C  
HETATM   33  C   UNL     3     -11.774   7.289  72.238  1.00  0.00    -0.265 C  
HETATM   34  O   UNL     3     -13.264   8.896  73.184  1.00  0.00    -0.221 OA 
HETATM   35 BR   UNL     3     -12.519   5.828  73.260  1.00  0.00     1.850 Br 
ENDBRANCH  14  16
TORSDOF 1
ENDMDL
MODEL       74
REMARK 921   NORMALIZED FREE ENERGY PREDICTED BY IDOCK:   -3.53 KCAL/MOL
REMARK 922        TOTAL FREE ENERGY PREDICTED BY IDOCK:   -4.49 KCAL/MOL
REMARK 923 INTER-LIGAND FREE ENERGY PREDICTED BY IDOCK:   -3.76 KCAL/MOL
REMARK 924 INTRA-LIGAND FREE ENERGY PREDICTED BY IDOCK:   -0.74 KCAL/MOL
REMARK 927      BINDING AFFINITY PREDICTED BY RF-SCORE:    0.00 PKD
ROOT
HETATM    1 NA   UNL     1     -12.463  17.013  69.324  1.00  0.00     0.061 Na 
HETATM    2 NA   UNL     2     -12.110  13.345  72.746  1.00  0.00     0.084 Na 
HETATM    3  O   UNL     3     -11.752  14.036  70.915  1.00  0.00    -0.239 OA 
HETATM    4  C   UNL     3     -11.342  14.182  69.710  1.00  0.00    -0.204 C  
HETATM    5  C   UNL     3     -10.557  13.074  69.060  1.00  0.00    -0.079 A  
HETATM    6  O   UNL     3     -11.618  15.241  69.057  1.00  0.00    -0.304 OA 
HETATM    7  C   UNL     3     -10.926  11.720  69.245  1.00  0.00    -0.175 A  
HETATM    8 CL   UNL     3     -12.337  11.306  70.195  1.00  0.00    -0.365 Cl 
HETATM    9  C   UNL     3     -10.186  10.674  68.646  1.00  0.00    -0.182 A  
HETATM   10 CL   UNL     3     -10.661   9.013  68.905  1.00  0.00    -0.194 Cl 
HETATM   11  C   UNL     3      -9.075  10.961  67.841  1.00  0.00    -0.149 A  
HETATM   12  C   UNL     3      -8.694  12.296  67.638  1.00  0.00    -0.175 A  
HETATM   13 CL   UNL     3      -8.178   9.669  67.092  1.00  0.00    -0.120 Cl 
HETATM   14  C   UNL     3      -9.420  13.354  68.245  1.00  0.00    -0.209 A  
HETATM   15 CL   UNL     3      -7.319  12.663  66.628  1.00  0.00     0.375 Cl 
ENDROOT
BRANCH  14  16
HETATM   16  C   UNL     3      -8.925  14.763  68.074  1.00  0.00    -0.174 A  
HETATM   17  C   UNL     3      -9.438  15.569  67.103  1.00  0.00    -0.223 A  
HETATM   18  C   UNL     3     -10.450  15.089  66.162  1.00  0.00    -0.313 C  
HETATM   19  C   UNL     3     -11.073  15.903  65.297  1.00  0.00    -0.248 C  
HETATM   20 BR   UNL     3     -12.421  15.279  64.171  1.00  0.00     0.396 Br 
HETATM   21  C   UNL     3     -10.730  17.361  65.270  1.00  0.00     0.037 C  
HETATM   22  O   UNL     3     -11.402  18.156  64.602  1.00  0.00    -0.171 OA 
HETATM   23  C   UNL     3      -9.590  17.819  66.119  1.00  0.00    -0.187 C  
HETATM   24  C   UNL     3      -9.001  16.968  66.991  1.00  0.00    -0.221 A  
HETATM   25 BR   UNL     3      -9.099  19.622  65.983  1.00  0.00    -0.183 Br 
HETATM   26  O   UNL     3      -8.003  17.442  67.825  1.00  0.00    -0.199 OA 
HETATM   27  C   UNL     3      -7.485  16.654  68.818  1.00  0.00    -0.224 A  
HETATM   28  C   UNL     3      -7.883  15.332  68.962  1.00  0.00    -0.184 A  
HETATM   29  C   UNL     3      -7.277  14.575  69.962  1.00  0.00     0.124 C  
HETATM   30  C   UNL     3      -6.340  15.147  70.839  1.00  0.00     0.306 C  
HETATM   31 BR   UNL     3      -5.636  13.946  72.164  1.00  0.00    -0.053 Br 
HETATM   32  C   UNL     3      -5.945  16.506  70.779  1.00  0.00     0.436 C  
HETATM   33  C   UNL     3      -6.542  17.227  69.702  1.00  0.00    -0.109 C  
HETATM   34  O   UNL     3      -5.139  17.033  71.623  1.00  0.00    -0.395 OA 
HETATM   35 BR   UNL     3      -6.086  19.084  69.416  1.00  0.00    -0.295 Br 
ENDBRANCH  14  16
TORSDOF 1
ENDMDL
MODEL       75
REMARK 921   NORMALIZED FREE ENERGY PREDICTED BY IDOCK:   -3.46 KCAL/MOL
REMARK 922        TOTAL FREE ENERGY PREDICTED BY IDOCK:   -4.42 KCAL/MOL
REMARK 923 INTER-LIGAND FREE ENERGY PREDICTED BY IDOCK:   -3.41 KCAL/MOL
REMARK 924 INTRA-LIGAND FREE ENERGY PREDICTED BY IDOCK:   -1.01 KCAL/MOL
REMARK 927      BINDING AFFINITY PREDICTED BY RF-SCORE:    0.00 PKD
ROOT
HETATM    1 NA   UNL     1     -11.035  10.887  70.202  1.00  0.00    -0.222 Na 
HETATM    2 NA   UNL     2     -14.266  14.741  70.088  1.00  0.00    -0.554 Na 
HETATM    3  O   UNL     3     -12.421  14.029  69.866  1.00  0.00    -0.333 OA 
HETATM    4  C   UNL     3     -11.173  13.896  69.611  1.00  0.00    -0.140 C  
HETATM    5  C   UNL     3     -10.382  15.095  69.157  1.00  0.00    -0.249 A  
HETATM    6  O   UNL     3     -10.598  12.770  69.765  1.00  0.00     0.431 OA 
HETATM    7  C   UNL     3     -10.584  16.363  69.754  1.00  0.00    -0.288 A  
HETATM    8 CL   UNL     3     -11.724  16.555  71.068  1.00  0.00    -0.155 Cl 
HETATM    9  C   UNL     3      -9.853  17.496  69.324  1.00  0.00    -0.056 A  
HETATM   10 CL   UNL     3     -10.136  19.049  70.072  1.00  0.00     0.551 Cl 
HETATM   11  C   UNL     3      -8.898  17.379  68.304  1.00  0.00    -0.264 A  
HETATM   12  C   UNL     3      -8.676  16.131  67.703  1.00  0.00    -0.177 A  
HETATM   13 CL   UNL     3      -7.989  18.774  67.792  1.00  0.00    -0.268 Cl 
HETATM   14  C   UNL     3      -9.415  14.990  68.115  1.00  0.00    -0.196 A  
HETATM   15 CL   UNL     3      -7.482  15.975  66.440  1.00  0.00    -0.034 Cl 
ENDROOT
BRANCH  14  16
HETATM   16  C   UNL     3      -9.208  13.693  67.384  1.00  0.00    -0.222 A  
HETATM   17  C   UNL     3      -9.946  13.389  66.281  1.00  0.00    -0.298 A  
HETATM   18  C   UNL     3     -10.997  14.282  65.790  1.00  0.00    -0.305 C  
HETATM   19  C   UNL     3     -11.633  14.075  64.628  1.00  0.00    -0.392 C  
HETATM   20 BR   UNL     3     -12.904  15.277  63.986  1.00  0.00     1.293 Br 
HETATM   21  C   UNL     3     -11.277  12.888  63.787  1.00  0.00    -0.402 C  
HETATM   22  O   UNL     3     -11.729  12.766  62.642  1.00  0.00     0.319 OA 
HETATM   23  C   UNL     3     -10.319  11.896  64.361  1.00  0.00    -0.299 C  
HETATM   24  C   UNL     3      -9.687  12.153  65.530  1.00  0.00    -0.181 A  
HETATM   25 BR   UNL     3      -9.976  10.358  63.347  1.00  0.00     0.019 Br 
HETATM   26  O   UNL     3      -8.741  11.255  65.996  1.00  0.00    -0.188 OA 
HETATM   27  C   UNL     3      -7.977  11.547  67.093  1.00  0.00    -0.160 A  
HETATM   28  C   UNL     3      -8.186  12.712  67.820  1.00  0.00    -0.171 A  
HETATM   29  C   UNL     3      -7.405  12.920  68.955  1.00  0.00    -0.014 C  
HETATM   30  C   UNL     3      -6.394  12.013  69.317  1.00  0.00    -0.102 C  
HETATM   31 BR   UNL     3      -5.411  12.489  70.899  1.00  0.00    -0.116 Br 
HETATM   32  C   UNL     3      -6.094  10.843  68.576  1.00  0.00    -0.042 C  
HETATM   33  C   UNL     3      -6.959  10.637  67.460  1.00  0.00    -0.083 C  
HETATM   34  O   UNL     3      -5.129  10.058  68.879  1.00  0.00    -0.036 OA 
HETATM   35 BR   UNL     3      -6.749   9.064  66.356  1.00  0.00    -0.075 Br 
ENDBRANCH  14  16
TORSDOF 1
ENDMDL
MODEL       76
REMARK 921   NORMALIZED FREE ENERGY PREDICTED BY IDOCK:   -3.38 KCAL/MOL
REMARK 922        TOTAL FREE ENERGY PREDICTED BY IDOCK:   -4.33 KCAL/MOL
REMARK 923 INTER-LIGAND FREE ENERGY PREDICTED BY IDOCK:   -3.87 KCAL/MOL
REMARK 924 INTRA-LIGAND FREE ENERGY PREDICTED BY IDOCK:   -0.47 KCAL/MOL
REMARK 927      BINDING AFFINITY PREDICTED BY RF-SCORE:    0.00 PKD
ROOT
HETATM    1 NA   UNL     1     -11.481   9.519  65.404  1.00  0.00     0.801 Na 
HETATM    2 NA   UNL     2     -11.786  12.139  69.686  1.00  0.00    -0.219 Na 
HETATM    3  O   UNL     3     -11.220  10.506  68.699  1.00  0.00    -0.252 OA 
HETATM    4  C   UNL     3     -10.708   9.379  68.371  1.00  0.00    -0.168 C  
HETATM    5  C   UNL     3     -10.003   8.558  69.418  1.00  0.00    -0.194 A  
HETATM    6  O   UNL     3     -10.817   8.941  67.179  1.00  0.00    -0.209 OA 
HETATM    7  C   UNL     3     -10.531   8.445  70.726  1.00  0.00    -0.197 A  
HETATM    8 CL   UNL     3     -12.045   9.219  71.143  1.00  0.00    -0.370 Cl 
HETATM    9  C   UNL     3      -9.868   7.685  71.718  1.00  0.00    -0.165 A  
HETATM   10 CL   UNL     3     -10.539   7.577  73.327  1.00  0.00    -0.433 Cl 
HETATM   11  C   UNL     3      -8.675   7.012  71.416  1.00  0.00    -0.125 A  
HETATM   12  C   UNL     3      -8.136   7.104  70.124  1.00  0.00    -0.130 A  
HETATM   13 CL   UNL     3      -7.871   6.063  72.637  1.00  0.00    -0.103 Cl 
HETATM   14  C   UNL     3      -8.785   7.876  69.125  1.00  0.00    -0.138 A  
HETATM   15 CL   UNL     3      -6.658   6.261  69.737  1.00  0.00    -0.043 Cl 
ENDROOT
BRANCH  14  16
HETATM   16  C   UNL     3      -8.127   8.019  67.781  1.00  0.00    -0.128 A  
HETATM   17  C   UNL     3      -7.520   9.184  67.422  1.00  0.00    -0.084 A  
HETATM   18  C   UNL     3      -7.523  10.354  68.302  1.00  0.00    -0.090 C  
HETATM   19  C   UNL     3      -6.810  11.458  68.034  1.00  0.00    -0.067 C  
HETATM   20 BR   UNL     3      -6.763  12.897  69.217  1.00  0.00    -0.012 Br 
HETATM   21  C   UNL     3      -5.977  11.521  66.790  1.00  0.00    -0.139 C  
HETATM   22  O   UNL     3      -5.188  12.455  66.605  1.00  0.00    -0.322 OA 
HETATM   23  C   UNL     3      -6.098  10.393  65.819  1.00  0.00    -0.122 C  
HETATM   24  C   UNL     3      -6.815   9.290  66.137  1.00  0.00    -0.085 A  
HETATM   25 BR   UNL     3      -5.142  10.545  64.215  1.00  0.00    -0.154 Br 
HETATM   26  O   UNL     3      -6.840   8.225  65.253  1.00  0.00    -0.058 OA 
HETATM   27  C   UNL     3      -7.430   7.039  65.599  1.00  0.00    -0.085 A  
HETATM   28  C   UNL     3      -8.094   6.899  66.811  1.00  0.00    -0.109 A  
HETATM   29  C   UNL     3      -8.715   5.680  67.075  1.00  0.00    -0.108 C  
HETATM   30  C   UNL     3      -8.619   4.605  66.174  1.00  0.00    -0.114 C  
HETATM   31 BR   UNL     3      -9.522   3.003  66.730  1.00  0.00     0.030 Br 
HETATM   32  C   UNL     3      -7.900   4.672  64.955  1.00  0.00    -0.094 C  
HETATM   33  C   UNL     3      -7.335   5.957  64.695  1.00  0.00    -0.070 C  
HETATM   34  O   UNL     3      -7.765   3.668  64.173  1.00  0.00    -0.077 OA 
HETATM   35 BR   UNL     3      -6.364   6.267  63.053  1.00  0.00    -0.033 Br 
ENDBRANCH  14  16
TORSDOF 1
ENDMDL
MODEL       77
REMARK 921   NORMALIZED FREE ENERGY PREDICTED BY IDOCK:   -3.35 KCAL/MOL
REMARK 922        TOTAL FREE ENERGY PREDICTED BY IDOCK:   -4.30 KCAL/MOL
REMARK 923 INTER-LIGAND FREE ENERGY PREDICTED BY IDOCK:   -3.24 KCAL/MOL
REMARK 924 INTRA-LIGAND FREE ENERGY PREDICTED BY IDOCK:   -1.06 KCAL/MOL
REMARK 927      BINDING AFFINITY PREDICTED BY RF-SCORE:    0.00 PKD
ROOT
HETATM    1 NA   UNL     1     -12.365   7.010  66.965  1.00  0.00    -0.454 Na 
HETATM    2 NA   UNL     2     -10.344   9.362  63.005  1.00  0.00    -0.371 Na 
HETATM    3  O   UNL     3     -10.618   9.217  64.971  1.00  0.00     1.407 OA 
HETATM    4  C   UNL     3     -10.563   9.386  66.239  1.00  0.00     0.098 C  
HETATM    5  C   UNL     3      -9.729  10.509  66.797  1.00  0.00    -0.220 A  
HETATM    6  O   UNL     3     -11.227   8.631  67.022  1.00  0.00     0.302 OA 
HETATM    7  C   UNL     3      -9.720  11.781  66.176  1.00  0.00    -0.229 A  
HETATM    8 CL   UNL     3     -10.718  12.092  64.772  1.00  0.00    -0.335 Cl 
HETATM    9  C   UNL     3      -8.930  12.837  66.688  1.00  0.00    -0.150 A  
HETATM   10 CL   UNL     3      -8.930  14.391  65.891  1.00  0.00     0.186 Cl 
HETATM   11  C   UNL     3      -8.148  12.646  67.837  1.00  0.00    -0.165 A  
HETATM   12  C   UNL     3      -8.147  11.395  68.473  1.00  0.00    -0.149 A  
HETATM   13 CL   UNL     3      -7.191  13.955  68.473  1.00  0.00    -0.099 Cl 
HETATM   14  C   UNL     3      -8.924  10.324  67.960  1.00  0.00    -0.132 A  
HETATM   15 CL   UNL     3      -7.186  11.153  69.909  1.00  0.00     0.038 Cl 
ENDROOT
BRANCH  14  16
HETATM   16  C   UNL     3      -8.825   8.978  68.620  1.00  0.00    -0.137 A  
HETATM   17  C   UNL     3      -9.597   8.671  69.699  1.00  0.00    -0.170 A  
HETATM   18  C   UNL     3     -10.515   9.646  70.288  1.00  0.00    -0.338 C  
HETATM   19  C   UNL     3     -11.388   9.322  71.254  1.00  0.00    -0.353 C  
HETATM   20 BR   UNL     3     -12.606  10.564  71.922  1.00  0.00    -0.224 Br 
HETATM   21  C   UNL     3     -11.438   7.917  71.769  1.00  0.00    -0.269 C  
HETATM   22  O   UNL     3     -12.339   7.556  72.536  1.00  0.00    -0.145 OA 
HETATM   23  C   UNL     3     -10.397   6.963  71.280  1.00  0.00    -0.203 C  
HETATM   24  C   UNL     3      -9.547   7.327  70.292  1.00  0.00    -0.165 A  
HETATM   25 BR   UNL     3     -10.401   5.244  72.024  1.00  0.00    -0.280 Br 
HETATM   26  O   UNL     3      -8.648   6.395  69.800  1.00  0.00    -0.135 OA 
HETATM   27  C   UNL     3      -7.874   6.676  68.706  1.00  0.00    -0.111 A  
HETATM   28  C   UNL     3      -7.905   7.931  68.113  1.00  0.00    -0.127 A  
HETATM   29  C   UNL     3      -7.053   8.162  67.035  1.00  0.00    -0.079 C  
HETATM   30  C   UNL     3      -6.235   7.140  66.523  1.00  0.00    -0.039 C  
HETATM   31 BR   UNL     3      -5.152   7.650  65.020  1.00  0.00    -0.029 Br 
HETATM   32  C   UNL     3      -6.212   5.825  67.048  1.00  0.00    -0.034 C  
HETATM   33  C   UNL     3      -7.051   5.650  68.189  1.00  0.00    -0.071 C  
HETATM   34  O   UNL     3      -5.512   4.884  66.534  1.00  0.00    -0.012 OA 
HETATM   35 BR   UNL     3      -7.113   3.939  69.086  1.00  0.00    -0.047 Br 
ENDBRANCH  14  16
TORSDOF 1
ENDMDL
MODEL       78
REMARK 921   NORMALIZED FREE ENERGY PREDICTED BY IDOCK:   -3.32 KCAL/MOL
REMARK 922        TOTAL FREE ENERGY PREDICTED BY IDOCK:   -4.27 KCAL/MOL
REMARK 923 INTER-LIGAND FREE ENERGY PREDICTED BY IDOCK:   -3.80 KCAL/MOL
REMARK 924 INTRA-LIGAND FREE ENERGY PREDICTED BY IDOCK:   -0.48 KCAL/MOL
REMARK 927      BINDING AFFINITY PREDICTED BY RF-SCORE:    0.00 PKD
ROOT
HETATM    1 NA   UNL     1     -11.742  10.151  69.812  1.00  0.00    -0.221 Na 
HETATM    2 NA   UNL     2     -13.261  14.223  67.280  1.00  0.00    -0.493 Na 
HETATM    3  O   UNL     3     -11.824  13.203  68.205  1.00  0.00    -0.336 OA 
HETATM    4  C   UNL     3     -10.702  12.806  68.677  1.00  0.00    -0.246 C  
HETATM    5  C   UNL     3      -9.479  13.666  68.490  1.00  0.00    -0.143 A  
HETATM    6  O   UNL     3     -10.622  11.711  69.322  1.00  0.00    -0.163 OA 
HETATM    7  C   UNL     3      -9.554  15.072  68.636  1.00  0.00    -0.219 A  
HETATM    8 CL   UNL     3     -11.061  15.840  69.086  1.00  0.00    -0.261 Cl 
HETATM    9  C   UNL     3      -8.413  15.886  68.450  1.00  0.00    -0.176 A  
HETATM   10 CL   UNL     3      -8.542  17.620  68.624  1.00  0.00    -0.287 Cl 
HETATM   11  C   UNL     3      -7.174  15.311  68.131  1.00  0.00    -0.120 A  
HETATM   12  C   UNL     3      -7.075  13.918  67.988  1.00  0.00    -0.144 A  
HETATM   13 CL   UNL     3      -5.768  16.317  67.920  1.00  0.00    -0.129 Cl 
HETATM   14  C   UNL     3      -8.217  13.092  68.157  1.00  0.00    -0.160 A  
HETATM   15 CL   UNL     3      -5.536  13.193  67.602  1.00  0.00    -0.106 Cl 
ENDROOT
BRANCH  14  16
HETATM   16  C   UNL     3      -8.085  11.616  67.908  1.00  0.00    -0.138 A  
HETATM   17  C   UNL     3      -8.597  11.050  66.780  1.00  0.00    -0.152 A  
HETATM   18  C   UNL     3      -9.335  11.839  65.793  1.00  0.00    -0.197 C  
HETATM   19  C   UNL     3      -9.720  11.335  64.611  1.00  0.00    -0.253 C  
HETATM   20 BR   UNL     3     -10.581  12.389  63.338  1.00  0.00    -0.238 Br 
HETATM   21  C   UNL     3      -9.400   9.912  64.270  1.00  0.00    -0.253 C  
HETATM   22  O   UNL     3      -9.596   9.477  63.129  1.00  0.00     0.154 OA 
HETATM   23  C   UNL     3      -8.786   9.066  65.337  1.00  0.00    -0.197 C  
HETATM   24  C   UNL     3      -8.398   9.619  66.510  1.00  0.00    -0.120 A  
HETATM   25 BR   UNL     3      -8.502   7.259  64.932  1.00  0.00     0.142 Br 
HETATM   26  O   UNL     3      -7.756   8.828  67.447  1.00  0.00    -0.095 OA 
HETATM   27  C   UNL     3      -7.219   9.378  68.580  1.00  0.00    -0.074 A  
HETATM   28  C   UNL     3      -7.377  10.729  68.862  1.00  0.00    -0.104 A  
HETATM   29  C   UNL     3      -6.847  11.210  70.058  1.00  0.00     0.010 C  
HETATM   30  C   UNL     3      -6.120  10.371  70.920  1.00  0.00    -0.005 C  
HETATM   31 BR   UNL     3      -5.451  11.228  72.505  1.00  0.00     1.068 Br 
HETATM   32  C   UNL     3      -5.874   9.003  70.651  1.00  0.00    -0.035 C  
HETATM   33  C   UNL     3      -6.488   8.537  69.449  1.00  0.00    -0.037 C  
HETATM   34  O   UNL     3      -5.156   8.263  71.411  1.00  0.00    -0.029 OA 
HETATM   35 BR   UNL     3      -6.316   6.681  68.936  1.00  0.00    -0.036 Br 
ENDBRANCH  14  16
TORSDOF 1
ENDMDL
MODEL       79
REMARK 921   NORMALIZED FREE ENERGY PREDICTED BY IDOCK:   -3.21 KCAL/MOL
REMARK 922        TOTAL FREE ENERGY PREDICTED BY IDOCK:   -4.15 KCAL/MOL
REMARK 923 INTER-LIGAND FREE ENERGY PREDICTED BY IDOCK:   -5.58 KCAL/MOL
REMARK 924 INTRA-LIGAND FREE ENERGY PREDICTED BY IDOCK:    1.43 KCAL/MOL
REMARK 927      BINDING AFFINITY PREDICTED BY RF-SCORE:    0.00 PKD
ROOT
HETATM    1 NA   UNL     1      -9.560   9.712  72.409  1.00  0.00    -0.073 Na 
HETATM    2 NA   UNL     2      -5.132  10.225  70.078  1.00  0.00    -0.035 Na 
HETATM    3  O   UNL     3      -7.107   9.992  69.998  1.00  0.00    -0.111 OA 
HETATM    4  C   UNL     3      -8.321   9.883  69.605  1.00  0.00    -0.172 C  
HETATM    5  C   UNL     3      -8.622   9.908  68.130  1.00  0.00    -0.118 A  
HETATM    6  O   UNL     3      -9.263   9.728  70.449  1.00  0.00    -0.237 OA 
HETATM    7  C   UNL     3      -7.792   9.224  67.210  1.00  0.00    -0.099 A  
HETATM    8 CL   UNL     3      -6.422   8.291  67.773  1.00  0.00    -0.056 Cl 
HETATM    9  C   UNL     3      -8.063   9.252  65.822  1.00  0.00    -0.115 A  
HETATM   10 CL   UNL     3      -7.011   8.409  64.712  1.00  0.00    -0.071 Cl 
HETATM   11  C   UNL     3      -9.175   9.951  65.330  1.00  0.00    -0.226 A  
HETATM   12  C   UNL     3     -10.016  10.631  66.224  1.00  0.00    -0.222 A  
HETATM   13 CL   UNL     3      -9.513   9.969  63.621  1.00  0.00    -0.313 Cl 
HETATM   14  C   UNL     3      -9.746  10.622  67.618  1.00  0.00    -0.186 A  
HETATM   15 CL   UNL     3     -11.408  11.494  65.621  1.00  0.00    -0.222 Cl 
ENDROOT
BRANCH  14  16
HETATM   16  C   UNL     3     -10.621  11.436  68.529  1.00  0.00    -0.225 A  
HETATM   17  C   UNL     3     -11.459  10.831  69.416  1.00  0.00    -0.366 A  
HETATM   18  C   UNL     3     -11.580   9.374  69.486  1.00  0.00     0.237 C  
HETATM   19  C   UNL     3     -12.285   8.755  70.445  1.00  0.00     0.323 C  
HETATM   20 BR   UNL     3     -12.347   6.896  70.561  1.00  0.00    -0.024 Br 
HETATM   21  C   UNL     3     -12.989   9.566  71.489  1.00  0.00    -0.386 C  
HETATM   22  O   UNL     3     -13.505   9.019  72.472  1.00  0.00    -0.454 OA 
HETATM   23  C   UNL     3     -12.994  11.051  71.326  1.00  0.00    -0.372 C  
HETATM   24  C   UNL     3     -12.255  11.634  70.354  1.00  0.00    -0.347 A  
HETATM   25 BR   UNL     3     -13.980  12.040  72.574  1.00  0.00     0.952 Br 
HETATM   26  O   UNL     3     -12.213  13.016  70.278  1.00  0.00    -0.339 OA 
HETATM   27  C   UNL     3     -11.365  13.646  69.406  1.00  0.00    -0.245 A  
HETATM   28  C   UNL     3     -10.589  12.918  68.514  1.00  0.00    -0.270 A  
HETATM   29  C   UNL     3      -9.787  13.627  67.622  1.00  0.00    -0.228 C  
HETATM   30  C   UNL     3      -9.717  15.029  67.664  1.00  0.00    -0.215 C  
HETATM   31 BR   UNL     3      -8.538  15.818  66.368  1.00  0.00    -0.303 Br 
HETATM   32  C   UNL     3     -10.437  15.818  68.595  1.00  0.00    -0.231 C  
HETATM   33  C   UNL     3     -11.292  15.057  69.447  1.00  0.00    -0.297 C  
HETATM   34  O   UNL     3     -10.317  17.090  68.667  1.00  0.00    -0.306 OA 
HETATM   35 BR   UNL     3     -12.403  15.956  70.749  1.00  0.00    -0.233 Br 
ENDBRANCH  14  16
TORSDOF 1
ENDMDL
MODEL       80
REMARK 921   NORMALIZED FREE ENERGY PREDICTED BY IDOCK:   -3.18 KCAL/MOL
REMARK 922        TOTAL FREE ENERGY PREDICTED BY IDOCK:   -4.12 KCAL/MOL
REMARK 923 INTER-LIGAND FREE ENERGY PREDICTED BY IDOCK:   -5.15 KCAL/MOL
REMARK 924 INTRA-LIGAND FREE ENERGY PREDICTED BY IDOCK:    1.04 KCAL/MOL
REMARK 927      BINDING AFFINITY PREDICTED BY RF-SCORE:    0.00 PKD
ROOT
HETATM    1 NA   UNL     1      -8.189  14.516  65.796  1.00  0.00    -0.298 Na 
HETATM    2 NA   UNL     2      -7.463  15.964  70.558  1.00  0.00     0.034 Na 
HETATM    3  O   UNL     3      -8.539  14.992  69.195  1.00  0.00    -0.196 OA 
HETATM    4  C   UNL     3      -9.411  14.266  68.601  1.00  0.00    -0.172 C  
HETATM    5  C   UNL     3     -10.520  13.641  69.405  1.00  0.00     0.180 A  
HETATM    6  O   UNL     3      -9.360  14.096  67.340  1.00  0.00    -0.202 OA 
HETATM    7  C   UNL     3     -11.169  14.368  70.432  1.00  0.00    -0.010 A  
HETATM    8 CL   UNL     3     -10.729  16.030  70.757  1.00  0.00    -0.082 Cl 
HETATM    9  C   UNL     3     -12.203  13.782  71.199  1.00  0.00    -0.278 A  
HETATM   10 CL   UNL     3     -12.975  14.702  72.467  1.00  0.00    -0.445 Cl 
HETATM   11  C   UNL     3     -12.618  12.467  70.944  1.00  0.00    -0.246 A  
HETATM   12  C   UNL     3     -11.994  11.729  69.927  1.00  0.00    -0.332 A  
HETATM   13 CL   UNL     3     -13.904  11.756  71.880  1.00  0.00     0.115 Cl 
HETATM   14  C   UNL     3     -10.944  12.301  69.160  1.00  0.00    -0.217 A  
HETATM   15 CL   UNL     3     -12.511  10.096  69.596  1.00  0.00     0.107 Cl 
ENDROOT
BRANCH  14  16
HETATM   16  C   UNL     3     -10.244  11.446  68.142  1.00  0.00    -0.200 A  
HETATM   17  C   UNL     3      -9.434  10.422  68.528  1.00  0.00    -0.159 A  
HETATM   18  C   UNL     3      -9.174  10.141  69.941  1.00  0.00    -0.119 C  
HETATM   19  C   UNL     3      -8.501   9.054  70.346  1.00  0.00    -0.182 C  
HETATM   20 BR   UNL     3      -8.261   8.676  72.155  1.00  0.00    -0.055 Br 
HETATM   21  C   UNL     3      -7.982   8.080  69.333  1.00  0.00    -0.116 C  
HETATM   22  O   UNL     3      -7.506   6.994  69.686  1.00  0.00    -0.093 OA 
HETATM   23  C   UNL     3      -8.112   8.447  67.891  1.00  0.00    -0.123 C  
HETATM   24  C   UNL     3      -8.813   9.545  67.525  1.00  0.00    -0.125 A  
HETATM   25 BR   UNL     3      -7.351   7.276  66.643  1.00  0.00    -0.082 Br 
HETATM   26  O   UNL     3      -8.989   9.815  66.178  1.00  0.00    -0.143 OA 
HETATM   27  C   UNL     3      -9.812  10.829  65.767  1.00  0.00    -0.240 A  
HETATM   28  C   UNL     3     -10.425  11.669  66.687  1.00  0.00    -0.268 A  
HETATM   29  C   UNL     3     -11.208  12.711  66.195  1.00  0.00    -0.350 C  
HETATM   30  C   UNL     3     -11.424  12.869  64.816  1.00  0.00    -0.321 C  
HETATM   31 BR   UNL     3     -12.553  14.350  64.340  1.00  0.00    -0.025 Br 
HETATM   32  C   UNL     3     -10.876  12.004  63.837  1.00  0.00    -0.399 C  
HETATM   33  C   UNL     3     -10.031  10.991  64.380  1.00  0.00    -0.312 C  
HETATM   34  O   UNL     3     -11.132  12.118  62.588  1.00  0.00     0.413 OA 
HETATM   35 BR   UNL     3      -9.142   9.743  63.200  1.00  0.00    -0.215 Br 
ENDBRANCH  14  16
TORSDOF 1
ENDMDL
MODEL       81
REMARK 921   NORMALIZED FREE ENERGY PREDICTED BY IDOCK:   -3.02 KCAL/MOL
REMARK 922        TOTAL FREE ENERGY PREDICTED BY IDOCK:   -3.95 KCAL/MOL
REMARK 923 INTER-LIGAND FREE ENERGY PREDICTED BY IDOCK:   -4.00 KCAL/MOL
REMARK 924 INTRA-LIGAND FREE ENERGY PREDICTED BY IDOCK:    0.05 KCAL/MOL
REMARK 927      BINDING AFFINITY PREDICTED BY RF-SCORE:    0.00 PKD
ROOT
HETATM    1 NA   UNL     1      -7.812  12.861  69.079  1.00  0.00    -0.116 Na 
HETATM    2 NA   UNL     2      -5.152   9.484  71.690  1.00  0.00    -0.032 Na 
HETATM    3  O   UNL     3      -6.848  10.035  70.807  1.00  0.00    -0.286 OA 
HETATM    4  C   UNL     3      -8.033  10.063  70.322  1.00  0.00    -0.010 C  
HETATM    5  C   UNL     3      -8.931   8.868  70.503  1.00  0.00    -0.224 A  
HETATM    6  O   UNL     3      -8.459  11.100  69.717  1.00  0.00     0.445 OA 
HETATM    7  C   UNL     3      -8.969   8.170  71.733  1.00  0.00    -0.163 A  
HETATM    8 CL   UNL     3      -8.007   8.712  73.092  1.00  0.00    -0.046 Cl 
HETATM    9  C   UNL     3      -9.802   7.040  71.906  1.00  0.00    -0.163 A  
HETATM   10 CL   UNL     3      -9.815   6.193  73.434  1.00  0.00    -0.160 Cl 
HETATM   11  C   UNL     3     -10.622   6.596  70.859  1.00  0.00    -0.224 A  
HETATM   12  C   UNL     3     -10.606   7.276  69.631  1.00  0.00    -0.235 A  
HETATM   13 CL   UNL     3     -11.659   5.214  71.083  1.00  0.00     0.813 Cl 
HETATM   14  C   UNL     3      -9.763   8.403  69.442  1.00  0.00    -0.177 A  
HETATM   15 CL   UNL     3     -11.632   6.738  68.327  1.00  0.00     0.180 Cl 
ENDROOT
BRANCH  14  16
HETATM   16  C   UNL     3      -9.712   9.047  68.085  1.00  0.00    -0.172 A  
HETATM   17  C   UNL     3      -9.028   8.464  67.061  1.00  0.00    -0.161 A  
HETATM   18  C   UNL     3      -8.279   7.220  67.249  1.00  0.00    -0.115 C  
HETATM   19  C   UNL     3      -7.723   6.554  66.226  1.00  0.00    -0.095 C  
HETATM   20 BR   UNL     3      -6.852   4.927  66.484  1.00  0.00    -0.063 Br 
HETATM   21  C   UNL     3      -7.854   7.087  64.832  1.00  0.00    -0.126 C  
HETATM   22  O   UNL     3      -7.495   6.411  63.861  1.00  0.00    -0.067 OA 
HETATM   23  C   UNL     3      -8.481   8.432  64.662  1.00  0.00    -0.075 C  
HETATM   24  C   UNL     3      -9.045   9.062  65.719  1.00  0.00    -0.219 A  
HETATM   25 BR   UNL     3      -8.529   9.136  62.927  1.00  0.00    -0.199 Br 
HETATM   26  O   UNL     3      -9.694  10.269  65.516  1.00  0.00    -0.224 OA 
HETATM   27  C   UNL     3     -10.401  10.864  66.526  1.00  0.00    -0.247 A  
HETATM   28  C   UNL     3     -10.417  10.320  67.803  1.00  0.00    -0.269 A  
HETATM   29  C   UNL     3     -11.116  11.007  68.794  1.00  0.00    -0.293 C  
HETATM   30  C   UNL     3     -11.835  12.177  68.497  1.00  0.00    -0.310 C  
HETATM   31 BR   UNL     3     -12.753  12.962  69.992  1.00  0.00     0.374 Br 
HETATM   32  C   UNL     3     -11.906  12.740  67.199  1.00  0.00    -0.350 C  
HETATM   33  C   UNL     3     -11.125  12.042  66.230  1.00  0.00    -0.317 C  
HETATM   34  O   UNL     3     -12.616  13.770  66.926  1.00  0.00    -0.252 OA 
HETATM   35 BR   UNL     3     -11.045  12.687  64.410  1.00  0.00    -0.420 Br 
ENDBRANCH  14  16
TORSDOF 1
ENDMDL
MODEL       82
REMARK 921   NORMALIZED FREE ENERGY PREDICTED BY IDOCK:   -2.99 KCAL/MOL
REMARK 922        TOTAL FREE ENERGY PREDICTED BY IDOCK:   -3.91 KCAL/MOL
REMARK 923 INTER-LIGAND FREE ENERGY PREDICTED BY IDOCK:   -4.25 KCAL/MOL
REMARK 924 INTRA-LIGAND FREE ENERGY PREDICTED BY IDOCK:    0.34 KCAL/MOL
REMARK 927      BINDING AFFINITY PREDICTED BY RF-SCORE:    0.00 PKD
ROOT
HETATM    1 NA   UNL     1      -6.228  12.169  65.952  1.00  0.00    -0.341 Na 
HETATM    2 NA   UNL     2      -7.090  14.838  70.128  1.00  0.00    -0.151 Na 
HETATM    3  O   UNL     3      -7.650  13.438  68.828  1.00  0.00    -0.113 OA 
HETATM    4  C   UNL     3      -8.265  12.491  68.225  1.00  0.00    -0.168 C  
HETATM    5  C   UNL     3      -9.552  11.963  68.804  1.00  0.00    -0.024 A  
HETATM    6  O   UNL     3      -7.812  12.017  67.133  1.00  0.00    -0.161 OA 
HETATM    7  C   UNL     3     -10.515  12.845  69.351  1.00  0.00     0.384 A  
HETATM    8 CL   UNL     3     -10.252  14.575  69.323  1.00  0.00    -0.172 Cl 
HETATM    9  C   UNL     3     -11.720  12.355  69.907  1.00  0.00    -0.266 A  
HETATM   10 CL   UNL     3     -12.881  13.468  70.587  1.00  0.00    -0.249 Cl 
HETATM   11  C   UNL     3     -11.992  10.979  69.911  1.00  0.00    -0.351 A  
HETATM   12  C   UNL     3     -11.055  10.087  69.368  1.00  0.00    -0.223 A  
HETATM   13 CL   UNL     3     -13.485  10.383  70.582  1.00  0.00    -0.085 Cl 
HETATM   14  C   UNL     3      -9.835  10.566  68.821  1.00  0.00    -0.191 A  
HETATM   15 CL   UNL     3     -11.390   8.374  69.360  1.00  0.00     0.222 Cl 
ENDROOT
BRANCH  14  16
HETATM   16  C   UNL     3      -8.823   9.569  68.331  1.00  0.00    -0.124 A  
HETATM   17  C   UNL     3      -8.086   8.833  69.208  1.00  0.00    -0.110 A  
HETATM   18  C   UNL     3      -8.212   9.012  70.655  1.00  0.00    -0.207 C  
HETATM   19  C   UNL     3      -7.608   8.202  71.537  1.00  0.00    -0.083 C  
HETATM   20 BR   UNL     3      -7.859   8.401  73.373  1.00  0.00    -0.086 Br 
HETATM   21  C   UNL     3      -6.762   7.067  71.045  1.00  0.00    -0.053 C  
HETATM   22  O   UNL     3      -6.333   6.213  71.829  1.00  0.00    -0.043 OA 
HETATM   23  C   UNL     3      -6.509   6.980  69.575  1.00  0.00    -0.043 C  
HETATM   24  C   UNL     3      -7.152   7.809  68.720  1.00  0.00    -0.076 A  
HETATM   25 BR   UNL     3      -5.353   5.628  68.990  1.00  0.00    -0.004 Br 
HETATM   26  O   UNL     3      -6.962   7.650  67.358  1.00  0.00    -0.079 OA 
HETATM   27  C   UNL     3      -7.703   8.367  66.457  1.00  0.00    -0.089 A  
HETATM   28  C   UNL     3      -8.604   9.334  66.883  1.00  0.00    -0.132 A  
HETATM   29  C   UNL     3      -9.287  10.061  65.910  1.00  0.00    -0.236 C  
HETATM   30  C   UNL     3      -9.118   9.782  64.543  1.00  0.00    -0.249 C  
HETATM   31 BR   UNL     3     -10.166  10.876  63.360  1.00  0.00    -0.272 Br 
HETATM   32  C   UNL     3      -8.263   8.763  64.056  1.00  0.00    -0.161 C  
HETATM   33  C   UNL     3      -7.536   8.088  65.082  1.00  0.00    -0.098 C  
HETATM   34  O   UNL     3      -8.165   8.474  62.812  1.00  0.00    -0.177 OA 
HETATM   35 BR   UNL     3      -6.272   6.703  64.615  1.00  0.00    -0.039 Br 
ENDBRANCH  14  16
TORSDOF 1
ENDMDL
MODEL       83
REMARK 921   NORMALIZED FREE ENERGY PREDICTED BY IDOCK:   -2.87 KCAL/MOL
REMARK 922        TOTAL FREE ENERGY PREDICTED BY IDOCK:   -3.79 KCAL/MOL
REMARK 923 INTER-LIGAND FREE ENERGY PREDICTED BY IDOCK:   -4.05 KCAL/MOL
REMARK 924 INTRA-LIGAND FREE ENERGY PREDICTED BY IDOCK:    0.26 KCAL/MOL
REMARK 927      BINDING AFFINITY PREDICTED BY RF-SCORE:    0.00 PKD
ROOT
HETATM    1 NA   UNL     1      -5.208   7.981  70.924  1.00  0.00    -0.025 Na 
HETATM    2 NA   UNL     2      -8.687   4.967  72.951  1.00  0.00    -0.108 Na 
HETATM    3  O   UNL     3      -8.205   6.629  71.967  1.00  0.00    -0.106 OA 
HETATM    4  C   UNL     3      -8.242   7.726  71.309  1.00  0.00    -0.103 C  
HETATM    5  C   UNL     3      -9.576   8.356  71.002  1.00  0.00    -0.212 A  
HETATM    6  O   UNL     3      -7.164   8.297  70.940  1.00  0.00    -0.051 OA 
HETATM    7  C   UNL     3     -10.605   8.383  71.973  1.00  0.00    -0.317 A  
HETATM    8 CL   UNL     3     -10.333   7.727  73.573  1.00  0.00    -0.321 Cl 
HETATM    9  C   UNL     3     -11.863   8.962  71.687  1.00  0.00    -0.345 A  
HETATM   10 CL   UNL     3     -13.116   8.967  72.904  1.00  0.00    -0.215 Cl 
HETATM   11  C   UNL     3     -12.111   9.538  70.433  1.00  0.00    -0.004 A  
HETATM   12  C   UNL     3     -11.103   9.529  69.456  1.00  0.00    -0.142 A  
HETATM   13 CL   UNL     3     -13.656  10.265  70.092  1.00  0.00     0.437 Cl 
HETATM   14  C   UNL     3      -9.841   8.937  69.727  1.00  0.00    -0.186 A  
HETATM   15 CL   UNL     3     -11.399  10.253  67.897  1.00  0.00    -0.293 Cl 
ENDROOT
BRANCH  14  16
HETATM   16  C   UNL     3      -8.823   8.871  68.624  1.00  0.00    -0.137 A  
HETATM   17  C   UNL     3      -8.244  10.005  68.139  1.00  0.00    -0.109 A  
HETATM   18  C   UNL     3      -8.620  11.330  68.633  1.00  0.00    -0.139 C  
HETATM   19  C   UNL     3      -7.964  12.444  68.278  1.00  0.00    -0.160 C  
HETATM   20 BR   UNL     3      -8.409  14.107  68.992  1.00  0.00     0.174 Br 
HETATM   21  C   UNL     3      -6.802  12.354  67.336  1.00  0.00    -0.147 C  
HETATM   22  O   UNL     3      -6.083  13.337  67.124  1.00  0.00    -0.288 OA 
HETATM   23  C   UNL     3      -6.519  11.026  66.712  1.00  0.00    -0.124 C  
HETATM   24  C   UNL     3      -7.195   9.924  67.113  1.00  0.00    -0.086 A  
HETATM   25 BR   UNL     3      -5.140  10.958  65.447  1.00  0.00    -0.080 Br 
HETATM   26  O   UNL     3      -6.853   8.693  66.579  1.00  0.00    -0.069 OA 
HETATM   27  C   UNL     3      -7.410   7.540  67.062  1.00  0.00    -0.094 A  
HETATM   28  C   UNL     3      -8.395   7.577  68.040  1.00  0.00    -0.124 A  
HETATM   29  C   UNL     3      -8.952   6.367  68.448  1.00  0.00    -0.120 C  
HETATM   30  C   UNL     3      -8.490   5.144  67.934  1.00  0.00    -0.104 C  
HETATM   31 BR   UNL     3      -9.369   3.587  68.640  1.00  0.00    -0.216 Br 
HETATM   32  C   UNL     3      -7.444   5.044  66.983  1.00  0.00    -0.087 C  
HETATM   33  C   UNL     3      -6.947   6.308  66.547  1.00  0.00    -0.067 C  
HETATM   34  O   UNL     3      -6.987   3.922  66.570  1.00  0.00    -0.057 OA 
HETATM   35 BR   UNL     3      -5.555   6.384  65.207  1.00  0.00    -0.022 Br 
ENDBRANCH  14  16
TORSDOF 1
ENDMDL
MODEL       84
REMARK 921   NORMALIZED FREE ENERGY PREDICTED BY IDOCK:   -2.80 KCAL/MOL
REMARK 922        TOTAL FREE ENERGY PREDICTED BY IDOCK:   -3.72 KCAL/MOL
REMARK 923 INTER-LIGAND FREE ENERGY PREDICTED BY IDOCK:   -5.50 KCAL/MOL
REMARK 924 INTRA-LIGAND FREE ENERGY PREDICTED BY IDOCK:    1.79 KCAL/MOL
REMARK 927      BINDING AFFINITY PREDICTED BY RF-SCORE:    0.00 PKD
ROOT
HETATM    1 NA   UNL     1      -9.497   9.544  72.521  1.00  0.00    -0.126 Na 
HETATM    2 NA   UNL     2      -5.141  10.029  70.055  1.00  0.00    -0.034 Na 
HETATM    3  O   UNL     3      -7.123   9.849  70.037  1.00  0.00    -0.092 OA 
HETATM    4  C   UNL     3      -8.352   9.786  69.684  1.00  0.00    -0.173 C  
HETATM    5  C   UNL     3      -8.703   9.872  68.222  1.00  0.00    -0.119 A  
HETATM    6  O   UNL     3      -9.268   9.624  70.555  1.00  0.00    -0.249 OA 
HETATM    7  C   UNL     3      -7.924   9.201  67.249  1.00  0.00    -0.102 A  
HETATM    8 CL   UNL     3      -6.561   8.214  67.730  1.00  0.00    -0.056 Cl 
HETATM    9  C   UNL     3      -8.242   9.288  65.874  1.00  0.00    -0.116 A  
HETATM   10 CL   UNL     3      -7.251   8.459  64.698  1.00  0.00    -0.080 Cl 
HETATM   11  C   UNL     3      -9.351  10.032  65.447  1.00  0.00    -0.229 A  
HETATM   12  C   UNL     3     -10.142  10.700  66.394  1.00  0.00    -0.225 A  
HETATM   13 CL   UNL     3      -9.747  10.121  63.753  1.00  0.00    -0.303 Cl 
HETATM   14  C   UNL     3      -9.824  10.633  67.776  1.00  0.00    -0.187 A  
HETATM   15 CL   UNL     3     -11.530  11.620  65.872  1.00  0.00    -0.275 Cl 
ENDROOT
BRANCH  14  16
HETATM   16  C   UNL     3     -10.645  11.435  68.746  1.00  0.00    -0.235 A  
HETATM   17  C   UNL     3     -10.620  12.797  68.722  1.00  0.00    -0.216 A  
HETATM   18  C   UNL     3      -9.763  13.533  67.792  1.00  0.00    -0.226 C  
HETATM   19  C   UNL     3      -9.830  14.864  67.651  1.00  0.00    -0.217 C  
HETATM   20 BR   UNL     3      -8.789  15.764  66.394  1.00  0.00    -0.384 Br 
HETATM   21  C   UNL     3     -10.807  15.650  68.471  1.00  0.00    -0.282 C  
HETATM   22  O   UNL     3     -11.002  16.850  68.243  1.00  0.00    -0.364 OA 
HETATM   23  C   UNL     3     -11.567  14.920  69.529  1.00  0.00    -0.303 C  
HETATM   24  C   UNL     3     -11.482  13.572  69.625  1.00  0.00    -0.217 A  
HETATM   25 BR   UNL     3     -12.694  15.939  70.624  1.00  0.00     0.125 Br 
HETATM   26  O   UNL     3     -12.263  12.913  70.560  1.00  0.00    -0.368 OA 
HETATM   27  C   UNL     3     -12.316  11.546  70.591  1.00  0.00    -0.364 A  
HETATM   28  C   UNL     3     -11.525  10.781  69.744  1.00  0.00    -0.386 A  
HETATM   29  C   UNL     3     -11.593   9.394  69.866  1.00  0.00     0.028 C  
HETATM   30  C   UNL     3     -12.481   8.787  70.770  1.00  0.00     0.090 C  
HETATM   31 BR   UNL     3     -12.444   6.866  70.771  1.00  0.00    -0.115 Br 
HETATM   32  C   UNL     3     -13.357   9.517  71.611  1.00  0.00    -0.407 C  
HETATM   33  C   UNL     3     -13.208  10.932  71.499  1.00  0.00    -0.319 C  
HETATM   34  O   UNL     3     -14.207   8.954  72.384  1.00  0.00    -0.466 OA 
HETATM   35 BR   UNL     3     -14.275  12.103  72.607  1.00  0.00     1.490 Br 
ENDBRANCH  14  16
TORSDOF 1
ENDMDL
MODEL       85
REMARK 921   NORMALIZED FREE ENERGY PREDICTED BY IDOCK:   -2.80 KCAL/MOL
REMARK 922        TOTAL FREE ENERGY PREDICTED BY IDOCK:   -3.71 KCAL/MOL
REMARK 923 INTER-LIGAND FREE ENERGY PREDICTED BY IDOCK:   -3.61 KCAL/MOL
REMARK 924 INTRA-LIGAND FREE ENERGY PREDICTED BY IDOCK:   -0.10 KCAL/MOL
REMARK 927      BINDING AFFINITY PREDICTED BY RF-SCORE:    0.00 PKD
ROOT
HETATM    1 NA   UNL     1      -5.131   7.933  71.221  1.00  0.00    -0.025 Na 
HETATM    2 NA   UNL     2      -8.689   4.907  73.086  1.00  0.00    -0.104 Na 
HETATM    3  O   UNL     3      -8.167   6.581  72.144  1.00  0.00    -0.107 OA 
HETATM    4  C   UNL     3      -8.177   7.689  71.502  1.00  0.00    -0.103 C  
HETATM    5  C   UNL     3      -9.497   8.330  71.160  1.00  0.00    -0.206 A  
HETATM    6  O   UNL     3      -7.085   8.259  71.178  1.00  0.00    -0.050 OA 
HETATM    7  C   UNL     3     -10.557   8.347  72.098  1.00  0.00    -0.329 A  
HETATM    8 CL   UNL     3     -10.342   7.666  73.695  1.00  0.00    -0.328 Cl 
HETATM    9  C   UNL     3     -11.802   8.937  71.779  1.00  0.00    -0.358 A  
HETATM   10 CL   UNL     3     -13.095   8.930  72.953  1.00  0.00    -0.215 Cl 
HETATM   11  C   UNL     3     -12.006   9.534  70.526  1.00  0.00    -0.134 A  
HETATM   12  C   UNL     3     -10.966   9.535  69.583  1.00  0.00    -0.212 A  
HETATM   13 CL   UNL     3     -13.536  10.274  70.146  1.00  0.00     0.280 Cl 
HETATM   14  C   UNL     3      -9.717   8.932  69.886  1.00  0.00    -0.185 A  
HETATM   15 CL   UNL     3     -11.207  10.284  68.026  1.00  0.00    -0.339 Cl 
ENDROOT
BRANCH  14  16
HETATM   16  C   UNL     3      -8.663   8.877  68.817  1.00  0.00    -0.137 A  
HETATM   17  C   UNL     3      -8.330   7.697  68.225  1.00  0.00    -0.125 A  
HETATM   18  C   UNL     3      -8.944   6.433  68.634  1.00  0.00    -0.125 C  
HETATM   19  C   UNL     3      -8.741   5.286  67.970  1.00  0.00    -0.102 C  
HETATM   20 BR   UNL     3      -9.606   3.710  68.462  1.00  0.00    -0.086 Br 
HETATM   21  C   UNL     3      -7.850   5.272  66.765  1.00  0.00    -0.100 C  
HETATM   22  O   UNL     3      -7.779   4.269  66.044  1.00  0.00    -0.088 OA 
HETATM   23  C   UNL     3      -7.103   6.524  66.443  1.00  0.00    -0.068 C  
HETATM   24  C   UNL     3      -7.351   7.664  67.129  1.00  0.00    -0.091 A  
HETATM   25 BR   UNL     3      -5.904   6.453  65.005  1.00  0.00    -0.023 Br 
HETATM   26  O   UNL     3      -6.706   8.830  66.753  1.00  0.00    -0.067 OA 
HETATM   27  C   UNL     3      -7.036  10.030  67.322  1.00  0.00    -0.085 A  
HETATM   28  C   UNL     3      -7.965  10.100  68.352  1.00  0.00    -0.102 A  
HETATM   29  C   UNL     3      -8.215  11.349  68.919  1.00  0.00    -0.054 C  
HETATM   30  C   UNL     3      -7.596  12.509  68.423  1.00  0.00    -0.129 C  
HETATM   31 BR   UNL     3      -8.089  14.134  69.322  1.00  0.00     0.337 Br 
HETATM   32  C   UNL     3      -6.691  12.504  67.334  1.00  0.00    -0.147 C  
HETATM   33  C   UNL     3      -6.415  11.199  66.826  1.00  0.00    -0.127 C  
HETATM   34  O   UNL     3      -6.182  13.574  66.849  1.00  0.00     0.111 OA 
HETATM   35 BR   UNL     3      -5.159  10.976  65.374  1.00  0.00     0.016 Br 
ENDBRANCH  14  16
TORSDOF 1
ENDMDL
MODEL       86
REMARK 921   NORMALIZED FREE ENERGY PREDICTED BY IDOCK:   -2.67 KCAL/MOL
REMARK 922        TOTAL FREE ENERGY PREDICTED BY IDOCK:   -3.58 KCAL/MOL
REMARK 923 INTER-LIGAND FREE ENERGY PREDICTED BY IDOCK:   -4.47 KCAL/MOL
REMARK 924 INTRA-LIGAND FREE ENERGY PREDICTED BY IDOCK:    0.89 KCAL/MOL
REMARK 927      BINDING AFFINITY PREDICTED BY RF-SCORE:    0.00 PKD
ROOT
HETATM    1 NA   UNL     1      -8.631  11.500  70.543  1.00  0.00     0.648 Na 
HETATM    2 NA   UNL     2      -5.135   8.813  72.963  1.00  0.00    -0.039 Na 
HETATM    3  O   UNL     3      -6.894   8.921  72.038  1.00  0.00    -0.230 OA 
HETATM    4  C   UNL     3      -8.017   8.645  71.488  1.00  0.00    -0.136 C  
HETATM    5  C   UNL     3      -8.510   7.222  71.496  1.00  0.00    -0.113 A  
HETATM    6  O   UNL     3      -8.724   9.565  70.963  1.00  0.00    -0.260 OA 
HETATM    7  C   UNL     3      -8.365   6.412  72.647  1.00  0.00    -0.122 A  
HETATM    8 CL   UNL     3      -7.653   7.063  74.108  1.00  0.00    -0.115 Cl 
HETATM    9  C   UNL     3      -8.816   5.071  72.657  1.00  0.00    -0.122 A  
HETATM   10 CL   UNL     3      -8.610   4.094  74.091  1.00  0.00    -0.097 Cl 
HETATM   11  C   UNL     3      -9.432   4.520  71.524  1.00  0.00    -0.153 A  
HETATM   12  C   UNL     3      -9.592   5.307  70.373  1.00  0.00    -0.179 A  
HETATM   13 CL   UNL     3      -9.999   2.874  71.548  1.00  0.00    -0.190 Cl 
HETATM   14  C   UNL     3      -9.130   6.649  70.346  1.00  0.00    -0.152 A  
HETATM   15 CL   UNL     3     -10.367   4.633  68.962  1.00  0.00    -0.033 Cl 
ENDROOT
BRANCH  14  16
HETATM   16  C   UNL     3      -9.242   7.426  69.065  1.00  0.00    -0.146 A  
HETATM   17  C   UNL     3     -10.140   8.442  68.941  1.00  0.00    -0.209 A  
HETATM   18  C   UNL     3     -11.062   8.788  70.024  1.00  0.00    -0.169 C  
HETATM   19  C   UNL     3     -11.850   9.872  69.980  1.00  0.00    -0.067 C  
HETATM   20 BR   UNL     3     -12.949  10.335  71.412  1.00  0.00    -0.563 Br 
HETATM   21  C   UNL     3     -11.808  10.774  68.785  1.00  0.00    -0.179 C  
HETATM   22  O   UNL     3     -12.398  11.861  68.792  1.00  0.00    -0.264 OA 
HETATM   23  C   UNL     3     -10.985  10.337  67.617  1.00  0.00    -0.294 C  
HETATM   24  C   UNL     3     -10.191   9.245  67.711  1.00  0.00    -0.218 A  
HETATM   25 BR   UNL     3     -11.038  11.417  66.087  1.00  0.00    -0.197 Br 
HETATM   26  O   UNL     3      -9.375   8.912  66.642  1.00  0.00    -0.159 OA 
HETATM   27  C   UNL     3      -8.454   7.905  66.750  1.00  0.00    -0.129 A  
HETATM   28  C   UNL     3      -8.369   7.135  67.902  1.00  0.00    -0.118 A  
HETATM   29  C   UNL     3      -7.442   6.094  67.922  1.00  0.00    -0.085 C  
HETATM   30  C   UNL     3      -6.576   5.872  66.839  1.00  0.00    -0.056 C  
HETATM   31 BR   UNL     3      -5.355   4.406  67.069  1.00  0.00    -0.013 Br 
HETATM   32  C   UNL     3      -6.575   6.667  65.666  1.00  0.00    -0.050 C  
HETATM   33  C   UNL     3      -7.581   7.679  65.661  1.00  0.00    -0.090 C  
HETATM   34  O   UNL     3      -5.738   6.496  64.712  1.00  0.00    -0.028 OA 
HETATM   35 BR   UNL     3      -7.779   8.833  64.124  1.00  0.00    -0.138 Br 
ENDBRANCH  14  16
TORSDOF 1
ENDMDL
MODEL       87
REMARK 921   NORMALIZED FREE ENERGY PREDICTED BY IDOCK:   -2.32 KCAL/MOL
REMARK 922        TOTAL FREE ENERGY PREDICTED BY IDOCK:   -3.21 KCAL/MOL
REMARK 923 INTER-LIGAND FREE ENERGY PREDICTED BY IDOCK:   -3.54 KCAL/MOL
REMARK 924 INTRA-LIGAND FREE ENERGY PREDICTED BY IDOCK:    0.33 KCAL/MOL
REMARK 927      BINDING AFFINITY PREDICTED BY RF-SCORE:    0.00 PKD
ROOT
HETATM    1 NA   UNL     1     -10.971  10.007  64.971  1.00  0.00    -0.189 Na 
HETATM    2 NA   UNL     2     -12.648  13.084  68.579  1.00  0.00    -0.284 Na 
HETATM    3  O   UNL     3     -11.851  11.346  68.026  1.00  0.00    -0.570 OA 
HETATM    4  C   UNL     3     -11.315  10.183  68.016  1.00  0.00    -0.078 C  
HETATM    5  C   UNL     3     -11.073   9.473  69.322  1.00  0.00    -0.109 A  
HETATM    6  O   UNL     3     -11.014   9.619  66.914  1.00  0.00    -0.103 OA 
HETATM    7  C   UNL     3     -12.037   9.511  70.356  1.00  0.00    -0.004 A  
HETATM    8 CL   UNL     3     -13.558  10.345  70.123  1.00  0.00     0.471 Cl 
HETATM    9  C   UNL     3     -11.811   8.855  71.589  1.00  0.00    -0.345 A  
HETATM   10 CL   UNL     3     -13.017   8.933  72.851  1.00  0.00    -0.193 Cl 
HETATM   11  C   UNL     3     -10.626   8.138  71.805  1.00  0.00    -0.250 A  
HETATM   12  C   UNL     3      -9.657   8.081  70.790  1.00  0.00    -0.162 A  
HETATM   13 CL   UNL     3     -10.360   7.318  73.319  1.00  0.00    -0.347 Cl 
HETATM   14  C   UNL     3      -9.867   8.747  69.554  1.00  0.00    -0.180 A  
HETATM   15 CL   UNL     3      -8.184   7.181  71.046  1.00  0.00    -0.108 Cl 
ENDROOT
BRANCH  14  16
HETATM   16  C   UNL     3      -8.767   8.734  68.530  1.00  0.00    -0.135 A  
HETATM   17  C   UNL     3      -8.402   7.576  67.914  1.00  0.00    -0.123 A  
HETATM   18  C   UNL     3      -9.026   6.296  68.252  1.00  0.00    -0.115 C  
HETATM   19  C   UNL     3      -8.788   5.173  67.559  1.00  0.00    -0.105 C  
HETATM   20 BR   UNL     3      -9.665   3.578  67.958  1.00  0.00     0.043 Br 
HETATM   21  C   UNL     3      -7.846   5.204  66.394  1.00  0.00    -0.103 C  
HETATM   22  O   UNL     3      -7.738   4.228  65.643  1.00  0.00    -0.088 OA 
HETATM   23  C   UNL     3      -7.093   6.470  66.147  1.00  0.00    -0.067 C  
HETATM   24  C   UNL     3      -7.377   7.585  66.860  1.00  0.00    -0.093 A  
HETATM   25 BR   UNL     3      -5.833   6.454  64.762  1.00  0.00    -0.023 Br 
HETATM   26  O   UNL     3      -6.723   8.766  66.553  1.00  0.00    -0.069 OA 
HETATM   27  C   UNL     3      -7.084   9.944  67.148  1.00  0.00    -0.085 A  
HETATM   28  C   UNL     3      -8.058   9.975  68.138  1.00  0.00    -0.108 A  
HETATM   29  C   UNL     3      -8.339  11.202  68.736  1.00  0.00    -0.136 C  
HETATM   30  C   UNL     3      -7.705  12.381  68.308  1.00  0.00    -0.140 C  
HETATM   31 BR   UNL     3      -8.247  13.972  69.240  1.00  0.00     0.461 Br 
HETATM   32  C   UNL     3      -6.754  12.417  67.259  1.00  0.00    -0.133 C  
HETATM   33  C   UNL     3      -6.449  11.132  66.719  1.00  0.00    -0.127 C  
HETATM   34  O   UNL     3      -6.231  13.506  66.834  1.00  0.00     0.111 OA 
HETATM   35 BR   UNL     3      -5.130  10.964  65.317  1.00  0.00    -0.057 Br 
ENDBRANCH  14  16
TORSDOF 1
ENDMDL
MODEL       88
REMARK 921   NORMALIZED FREE ENERGY PREDICTED BY IDOCK:   -2.27 KCAL/MOL
REMARK 922        TOTAL FREE ENERGY PREDICTED BY IDOCK:   -3.16 KCAL/MOL
REMARK 923 INTER-LIGAND FREE ENERGY PREDICTED BY IDOCK:   -2.46 KCAL/MOL
REMARK 924 INTRA-LIGAND FREE ENERGY PREDICTED BY IDOCK:   -0.70 KCAL/MOL
REMARK 927      BINDING AFFINITY PREDICTED BY RF-SCORE:    0.00 PKD
ROOT
HETATM    1 NA   UNL     1     -11.785  13.618  70.638  1.00  0.00    -0.270 Na 
HETATM    2 NA   UNL     2     -13.265  17.785  68.242  1.00  0.00     1.627 Na 
HETATM    3  O   UNL     3     -11.809  16.590  68.888  1.00  0.00    -0.113 OA 
HETATM    4  C   UNL     3     -10.675  16.045  69.122  1.00  0.00    -0.272 C  
HETATM    5  C   UNL     3      -9.421  16.702  68.608  1.00  0.00    -0.249 A  
HETATM    6  O   UNL     3     -10.602  14.972  69.805  1.00  0.00    -0.247 OA 
HETATM    7  C   UNL     3      -9.263  18.107  68.671  1.00  0.00    -0.282 A  
HETATM    8 CL   UNL     3     -10.502  19.109  69.395  1.00  0.00     0.213 Cl 
HETATM    9  C   UNL     3      -8.093  18.732  68.180  1.00  0.00    -0.299 A  
HETATM   10 CL   UNL     3      -7.934  20.470  68.261  1.00  0.00     0.043 Cl 
HETATM   11  C   UNL     3      -7.055  17.965  67.631  1.00  0.00    -0.196 A  
HETATM   12  C   UNL     3      -7.188  16.570  67.563  1.00  0.00    -0.143 A  
HETATM   13 CL   UNL     3      -5.610  18.739  67.042  1.00  0.00    -0.148 Cl 
HETATM   14  C   UNL     3      -8.363  15.933  68.040  1.00  0.00    -0.161 A  
HETATM   15 CL   UNL     3      -5.897  15.606  66.892  1.00  0.00     0.476 Cl 
ENDROOT
BRANCH  14  16
HETATM   16  C   UNL     3      -8.500  14.446  67.868  1.00  0.00    -0.165 A  
HETATM   17  C   UNL     3      -9.295  13.927  66.891  1.00  0.00    -0.265 A  
HETATM   18  C   UNL     3     -10.081  14.786  66.004  1.00  0.00    -0.327 C  
HETATM   19  C   UNL     3     -10.752  14.306  64.947  1.00  0.00    -0.432 C  
HETATM   20 BR   UNL     3     -11.672  15.435  63.784  1.00  0.00     0.838 Br 
HETATM   21  C   UNL     3     -10.716  12.839  64.646  1.00  0.00    -0.337 C  
HETATM   22  O   UNL     3     -11.187  12.398  63.591  1.00  0.00    -0.407 OA 
HETATM   23  C   UNL     3     -10.044  11.946  65.638  1.00  0.00    -0.243 C  
HETATM   24  C   UNL     3      -9.364  12.474  66.682  1.00  0.00    -0.236 A  
HETATM   25 BR   UNL     3     -10.112  10.104  65.307  1.00  0.00    -0.260 Br 
HETATM   26  O   UNL     3      -8.681  11.626  67.538  1.00  0.00    -0.147 OA 
HETATM   27  C   UNL     3      -7.864  12.126  68.516  1.00  0.00    -0.122 A  
HETATM   28  C   UNL     3      -7.764  13.494  68.733  1.00  0.00    -0.044 A  
HETATM   29  C   UNL     3      -6.953  13.929  69.780  1.00  0.00     0.139 C  
HETATM   30  C   UNL     3      -6.209  13.018  70.549  1.00  0.00     0.135 C  
HETATM   31 BR   UNL     3      -5.133  13.816  71.927  1.00  0.00    -0.197 Br 
HETATM   32  C   UNL     3      -6.223  11.619  70.329  1.00  0.00    -0.068 C  
HETATM   33  C   UNL     3      -7.114  11.212  69.292  1.00  0.00    -0.123 C  
HETATM   34  O   UNL     3      -5.492  10.804  70.994  1.00  0.00    -0.104 OA 
HETATM   35 BR   UNL     3      -7.319   9.335  68.878  1.00  0.00    -0.074 Br 
ENDBRANCH  14  16
TORSDOF 1
ENDMDL
MODEL       89
REMARK 921   NORMALIZED FREE ENERGY PREDICTED BY IDOCK:   -2.14 KCAL/MOL
REMARK 922        TOTAL FREE ENERGY PREDICTED BY IDOCK:   -3.02 KCAL/MOL
REMARK 923 INTER-LIGAND FREE ENERGY PREDICTED BY IDOCK:   -2.67 KCAL/MOL
REMARK 924 INTRA-LIGAND FREE ENERGY PREDICTED BY IDOCK:   -0.35 KCAL/MOL
REMARK 927      BINDING AFFINITY PREDICTED BY RF-SCORE:    0.00 PKD
ROOT
HETATM    1 NA   UNL     1      -5.295  11.460  65.625  1.00  0.00    -0.109 Na 
HETATM    2 NA   UNL     2      -5.679  14.670  69.479  1.00  0.00    -0.089 Na 
HETATM    3  O   UNL     3      -6.488  13.286  68.298  1.00  0.00    -0.079 OA 
HETATM    4  C   UNL     3      -7.273  12.428  67.764  1.00  0.00    -0.119 C  
HETATM    5  C   UNL     3      -8.654  12.238  68.334  1.00  0.00    -0.136 A  
HETATM    6  O   UNL     3      -6.903  11.760  66.744  1.00  0.00    -0.127 OA 
HETATM    7  C   UNL     3      -9.425  13.350  68.750  1.00  0.00     0.068 A  
HETATM    8 CL   UNL     3      -8.807  14.978  68.565  1.00  0.00    -0.173 Cl 
HETATM    9  C   UNL     3     -10.718  13.178  69.297  1.00  0.00     0.067 A  
HETATM   10 CL   UNL     3     -11.637  14.570  69.814  1.00  0.00    -0.323 Cl 
HETATM   11  C   UNL     3     -11.270  11.895  69.423  1.00  0.00    -0.211 A  
HETATM   12  C   UNL     3     -10.527  10.778  69.011  1.00  0.00    -0.215 A  
HETATM   13 CL   UNL     3     -12.869  11.691  70.082  1.00  0.00     0.058 Cl 
HETATM   14  C   UNL     3      -9.222  10.938  68.474  1.00  0.00    -0.181 A  
HETATM   15 CL   UNL     3     -11.211   9.179  69.155  1.00  0.00     0.047 Cl 
ENDROOT
BRANCH  14  16
HETATM   16  C   UNL     3      -8.428   9.710  68.128  1.00  0.00    -0.118 A  
HETATM   17  C   UNL     3      -8.332   9.281  66.839  1.00  0.00    -0.123 A  
HETATM   18  C   UNL     3      -9.030   9.964  65.749  1.00  0.00    -0.189 C  
HETATM   19  C   UNL     3      -8.834   9.651  64.460  1.00  0.00    -0.223 C  
HETATM   20 BR   UNL     3      -9.671  10.597  63.090  1.00  0.00    -0.352 Br 
HETATM   21  C   UNL     3      -7.873   8.560  64.099  1.00  0.00    -0.144 C  
HETATM   22  O   UNL     3      -7.553   8.365  62.920  1.00  0.00    -0.107 OA 
HETATM   23  C   UNL     3      -7.281   7.762  65.214  1.00  0.00    -0.068 C  
HETATM   24  C   UNL     3      -7.492   8.123  66.501  1.00  0.00    -0.088 A  
HETATM   25 BR   UNL     3      -6.176   6.326  64.739  1.00  0.00    -0.031 Br 
HETATM   26  O   UNL     3      -6.863   7.416  67.511  1.00  0.00    -0.072 OA 
HETATM   27  C   UNL     3      -6.933   7.838  68.812  1.00  0.00    -0.067 A  
HETATM   28  C   UNL     3      -7.706   8.935  69.166  1.00  0.00    -0.092 A  
HETATM   29  C   UNL     3      -7.770   9.277  70.516  1.00  0.00    -0.160 C  
HETATM   30  C   UNL     3      -7.027   8.574  71.479  1.00  0.00    -0.082 C  
HETATM   31 BR   UNL     3      -7.232   9.213  73.280  1.00  0.00     0.874 Br 
HETATM   32  C   UNL     3      -6.173   7.489  71.165  1.00  0.00    -0.035 C  
HETATM   33  C   UNL     3      -6.186   7.133  69.783  1.00  0.00    -0.031 C  
HETATM   34  O   UNL     3      -5.451   6.897  72.042  1.00  0.00    -0.035 OA 
HETATM   35 BR   UNL     3      -5.128   5.638  69.163  1.00  0.00    -0.004 Br 
ENDBRANCH  14  16
TORSDOF 1
ENDMDL
MODEL       90
REMARK 921   NORMALIZED FREE ENERGY PREDICTED BY IDOCK:   -2.12 KCAL/MOL
REMARK 922        TOTAL FREE ENERGY PREDICTED BY IDOCK:   -3.00 KCAL/MOL
REMARK 923 INTER-LIGAND FREE ENERGY PREDICTED BY IDOCK:   -2.03 KCAL/MOL
REMARK 924 INTRA-LIGAND FREE ENERGY PREDICTED BY IDOCK:   -0.97 KCAL/MOL
REMARK 927      BINDING AFFINITY PREDICTED BY RF-SCORE:    0.00 PKD
ROOT
HETATM    1 NA   UNL     1     -10.911   8.000  72.331  1.00  0.00    -0.209 Na 
HETATM    2 NA   UNL     2     -12.694   9.744  67.963  1.00  0.00     0.672 Na 
HETATM    3  O   UNL     3     -11.159   9.189  69.102  1.00  0.00    -0.098 OA 
HETATM    4  C   UNL     3      -9.994   8.884  69.538  1.00  0.00    -0.191 C  
HETATM    5  C   UNL     3      -8.804   9.032  68.627  1.00  0.00    -0.137 A  
HETATM    6  O   UNL     3      -9.837   8.486  70.738  1.00  0.00    -0.170 OA 
HETATM    7  C   UNL     3      -8.682  10.154  67.773  1.00  0.00    -0.121 A  
HETATM    8 CL   UNL     3      -9.889  11.422  67.793  1.00  0.00    -0.180 Cl 
HETATM    9  C   UNL     3      -7.573  10.294  66.906  1.00  0.00    -0.105 A  
HETATM   10 CL   UNL     3      -7.458  11.684  65.855  1.00  0.00     0.413 Cl 
HETATM   11  C   UNL     3      -6.560   9.324  66.888  1.00  0.00    -0.068 A  
HETATM   12  C   UNL     3      -6.657   8.206  67.731  1.00  0.00    -0.057 A  
HETATM   13 CL   UNL     3      -5.188   9.509  65.831  1.00  0.00    -0.035 Cl 
HETATM   14  C   UNL     3      -7.773   8.048  68.594  1.00  0.00    -0.105 A  
HETATM   15 CL   UNL     3      -5.396   7.000  67.723  1.00  0.00    -0.015 Cl 
ENDROOT
BRANCH  14  16
HETATM   16  C   UNL     3      -7.880   6.794  69.414  1.00  0.00    -0.113 A  
HETATM   17  C   UNL     3      -8.482   5.681  68.912  1.00  0.00    -0.102 A  
HETATM   18  C   UNL     3      -9.090   5.672  67.580  1.00  0.00    -0.106 C  
HETATM   19  C   UNL     3      -9.557   4.552  67.009  1.00  0.00    -0.190 C  
HETATM   20 BR   UNL     3     -10.244   4.556  65.277  1.00  0.00    -0.137 Br 
HETATM   21  C   UNL     3      -9.470   3.250  67.746  1.00  0.00    -0.164 C  
HETATM   22  O   UNL     3      -9.740   2.184  67.179  1.00  0.00     0.133 OA 
HETATM   23  C   UNL     3      -8.995   3.287  69.161  1.00  0.00    -0.120 C  
HETATM   24  C   UNL     3      -8.517   4.436  69.693  1.00  0.00    -0.068 A  
HETATM   25 BR   UNL     3      -9.006   1.668  70.105  1.00  0.00    -0.145 Br 
HETATM   26  O   UNL     3      -8.005   4.421  70.979  1.00  0.00    -0.069 OA 
HETATM   27  C   UNL     3      -7.380   5.523  71.499  1.00  0.00    -0.086 A  
HETATM   28  C   UNL     3      -7.318   6.712  70.784  1.00  0.00    -0.079 A  
HETATM   29  C   UNL     3      -6.711   7.808  71.396  1.00  0.00    -0.045 C  
HETATM   30  C   UNL     3      -6.124   7.697  72.667  1.00  0.00    -0.044 C  
HETATM   31 BR   UNL     3      -5.318   9.311  73.328  1.00  0.00    -0.048 Br 
HETATM   32  C   UNL     3      -6.102   6.492  73.413  1.00  0.00    -0.062 C  
HETATM   33  C   UNL     3      -6.788   5.415  72.778  1.00  0.00    -0.077 C  
HETATM   34  O   UNL     3      -5.508   6.386  74.542  1.00  0.00    -0.051 OA 
HETATM   35 BR   UNL     3      -6.919   3.701  73.662  1.00  0.00    -0.047 Br 
ENDBRANCH  14  16
TORSDOF 1
ENDMDL
MODEL       91
REMARK 921   NORMALIZED FREE ENERGY PREDICTED BY IDOCK:   -1.67 KCAL/MOL
REMARK 922        TOTAL FREE ENERGY PREDICTED BY IDOCK:   -2.53 KCAL/MOL
REMARK 923 INTER-LIGAND FREE ENERGY PREDICTED BY IDOCK:   -3.09 KCAL/MOL
REMARK 924 INTRA-LIGAND FREE ENERGY PREDICTED BY IDOCK:    0.57 KCAL/MOL
REMARK 927      BINDING AFFINITY PREDICTED BY RF-SCORE:    0.00 PKD
ROOT
HETATM    1 NA   UNL     1     -13.252  10.258  67.647  1.00  0.00     2.019 Na 
HETATM    2 NA   UNL     2     -12.623  11.381  72.509  1.00  0.00    -0.297 Na 
HETATM    3  O   UNL     3     -11.904  10.668  70.796  1.00  0.00    -0.323 OA 
HETATM    4  C   UNL     3     -11.145  10.198  69.878  1.00  0.00    -0.293 C  
HETATM    5  C   UNL     3      -9.710   9.875  70.202  1.00  0.00    -0.255 A  
HETATM    6  O   UNL     3     -11.602   9.980  68.709  1.00  0.00    -0.062 OA 
HETATM    7  C   UNL     3      -9.367   9.252  71.426  1.00  0.00    -0.067 A  
HETATM    8 CL   UNL     3     -10.611   8.799  72.571  1.00  0.00    -0.226 Cl 
HETATM    9  C   UNL     3      -8.021   8.956  71.742  1.00  0.00     0.033 A  
HETATM   10 CL   UNL     3      -7.630   8.200  73.268  1.00  0.00    -0.191 Cl 
HETATM   11  C   UNL     3      -6.995   9.262  70.836  1.00  0.00    -0.104 A  
HETATM   12  C   UNL     3      -7.312   9.873  69.613  1.00  0.00    -0.115 A  
HETATM   13 CL   UNL     3      -5.340   8.879  71.223  1.00  0.00    -0.034 Cl 
HETATM   14  C   UNL     3      -8.658  10.188  69.291  1.00  0.00    -0.180 A  
HETATM   15 CL   UNL     3      -6.043  10.247  68.475  1.00  0.00    -0.044 Cl 
ENDROOT
BRANCH  14  16
HETATM   16  C   UNL     3      -8.943  10.922  68.011  1.00  0.00    -0.145 A  
HETATM   17  C   UNL     3      -8.699  10.340  66.804  1.00  0.00    -0.132 A  
HETATM   18  C   UNL     3      -8.109   9.004  66.701  1.00  0.00    -0.107 C  
HETATM   19  C   UNL     3      -7.996   8.355  65.534  1.00  0.00    -0.115 C  
HETATM   20 BR   UNL     3      -7.323   6.619  65.446  1.00  0.00    -0.080 Br 
HETATM   21  C   UNL     3      -8.479   9.004  64.272  1.00  0.00    -0.170 C  
HETATM   22  O   UNL     3      -8.537   8.365  63.215  1.00  0.00    -0.066 OA 
HETATM   23  C   UNL     3      -8.935  10.424  64.356  1.00  0.00    -0.223 C  
HETATM   24  C   UNL     3      -9.049  11.036  65.558  1.00  0.00    -0.207 A  
HETATM   25 BR   UNL     3      -9.422  11.257  62.751  1.00  0.00    -0.277 Br 
HETATM   26  O   UNL     3      -9.555  12.324  65.612  1.00  0.00    -0.224 OA 
HETATM   27  C   UNL     3      -9.823  12.922  66.814  1.00  0.00    -0.241 A  
HETATM   28  C   UNL     3      -9.517  12.289  68.012  1.00  0.00    -0.206 A  
HETATM   29  C   UNL     3      -9.771  12.979  69.195  1.00  0.00     0.489 C  
HETATM   30  C   UNL     3     -10.376  14.246  69.182  1.00  0.00    -0.125 C  
HETATM   31 BR   UNL     3     -10.665  15.021  70.917  1.00  0.00     0.195 Br 
HETATM   32  C   UNL     3     -10.769  14.910  67.994  1.00  0.00    -0.253 C  
HETATM   33  C   UNL     3     -10.433  14.197  66.804  1.00  0.00    -0.277 C  
HETATM   34  O   UNL     3     -11.378  16.036  67.996  1.00  0.00    -0.340 OA 
HETATM   35 BR   UNL     3     -10.834  14.964  65.076  1.00  0.00    -0.449 Br 
ENDBRANCH  14  16
TORSDOF 1
ENDMDL
MODEL       92
REMARK 921   NORMALIZED FREE ENERGY PREDICTED BY IDOCK:   -1.34 KCAL/MOL
REMARK 922        TOTAL FREE ENERGY PREDICTED BY IDOCK:   -2.17 KCAL/MOL
REMARK 923 INTER-LIGAND FREE ENERGY PREDICTED BY IDOCK:   -1.38 KCAL/MOL
REMARK 924 INTRA-LIGAND FREE ENERGY PREDICTED BY IDOCK:   -0.79 KCAL/MOL
REMARK 927      BINDING AFFINITY PREDICTED BY RF-SCORE:    0.00 PKD
ROOT
HETATM    1 NA   UNL     1     -12.061   8.949  68.832  1.00  0.00    -0.090 Na 
HETATM    2 NA   UNL     2     -10.565   4.185  69.432  1.00  0.00    -0.157 Na 
HETATM    3  O   UNL     3     -10.584   5.867  68.368  1.00  0.00    -0.216 OA 
HETATM    4  C   UNL     3     -10.366   6.772  67.488  1.00  0.00    -0.210 C  
HETATM    5  C   UNL     3      -9.467   6.463  66.320  1.00  0.00    -0.133 A  
HETATM    6  O   UNL     3     -10.925   7.913  67.583  1.00  0.00    -0.104 OA 
HETATM    7  C   UNL     3      -9.537   5.210  65.665  1.00  0.00    -0.087 A  
HETATM    8 CL   UNL     3     -10.707   4.009  66.167  1.00  0.00     0.597 Cl 
HETATM    9  C   UNL     3      -8.688   4.909  64.574  1.00  0.00    -0.148 A  
HETATM   10 CL   UNL     3      -8.790   3.349  63.796  1.00  0.00    -0.093 Cl 
HETATM   11  C   UNL     3      -7.765   5.858  64.110  1.00  0.00    -0.106 A  
HETATM   12  C   UNL     3      -7.683   7.109  64.741  1.00  0.00    -0.115 A  
HETATM   13 CL   UNL     3      -6.734   5.488  62.756  1.00  0.00    -0.025 Cl 
HETATM   14  C   UNL     3      -8.520   7.417  65.845  1.00  0.00    -0.155 A  
HETATM   15 CL   UNL     3      -6.545   8.299  64.163  1.00  0.00    -0.066 Cl 
ENDROOT
BRANCH  14  16
HETATM   16  C   UNL     3      -8.337   8.734  66.546  1.00  0.00    -0.112 A  
HETATM   17  C   UNL     3      -7.666   8.808  67.728  1.00  0.00    -0.102 A  
HETATM   18  C   UNL     3      -7.140   7.612  68.389  1.00  0.00    -0.081 C  
HETATM   19  C   UNL     3      -6.353   7.675  69.473  1.00  0.00    -0.031 C  
HETATM   20 BR   UNL     3      -5.626   6.140  70.239  1.00  0.00    -0.014 Br 
HETATM   21  C   UNL     3      -5.992   9.009  70.052  1.00  0.00    -0.031 C  
HETATM   22  O   UNL     3      -5.141   9.100  70.945  1.00  0.00    -0.027 OA 
HETATM   23  C   UNL     3      -6.654  10.217  69.474  1.00  0.00    -0.060 C  
HETATM   24  C   UNL     3      -7.427  10.109  68.369  1.00  0.00    -0.086 A  
HETATM   25 BR   UNL     3      -6.282  11.862  70.288  1.00  0.00     0.099 Br 
HETATM   26  O   UNL     3      -7.959  11.257  67.805  1.00  0.00    -0.111 OA 
HETATM   27  C   UNL     3      -8.623  11.208  66.608  1.00  0.00    -0.165 A  
HETATM   28  C   UNL     3      -8.856   9.997  65.969  1.00  0.00    -0.164 A  
HETATM   29  C   UNL     3      -9.582  10.019  64.780  1.00  0.00    -0.374 C  
HETATM   30  C   UNL     3     -10.010  11.230  64.212  1.00  0.00    -0.297 C  
HETATM   31 BR   UNL     3     -10.974  11.051  62.559  1.00  0.00     1.662 Br 
HETATM   32  C   UNL     3      -9.744  12.498  64.787  1.00  0.00     0.049 C  
HETATM   33  C   UNL     3      -9.055  12.425  66.034  1.00  0.00     0.030 C  
HETATM   34  O   UNL     3     -10.082  13.599  64.228  1.00  0.00    -0.313 OA 
HETATM   35 BR   UNL     3      -8.650  14.047  67.006  1.00  0.00    -0.149 Br 
ENDBRANCH  14  16
TORSDOF 1
ENDMDL
MODEL       93
REMARK 921   NORMALIZED FREE ENERGY PREDICTED BY IDOCK:   -1.33 KCAL/MOL
REMARK 922        TOTAL FREE ENERGY PREDICTED BY IDOCK:   -2.16 KCAL/MOL
REMARK 923 INTER-LIGAND FREE ENERGY PREDICTED BY IDOCK:   -1.17 KCAL/MOL
REMARK 924 INTRA-LIGAND FREE ENERGY PREDICTED BY IDOCK:   -0.99 KCAL/MOL
REMARK 927      BINDING AFFINITY PREDICTED BY RF-SCORE:    0.00 PKD
ROOT
HETATM    1 NA   UNL     1     -12.719  11.724  66.215  1.00  0.00    -0.037 Na 
HETATM    2 NA   UNL     2      -9.729  15.396  64.518  1.00  0.00    -0.178 Na 
HETATM    3  O   UNL     3     -10.127  13.971  65.850  1.00  0.00    -0.300 OA 
HETATM    4  C   UNL     3     -10.064  13.141  66.822  1.00  0.00    -0.253 C  
HETATM    5  C   UNL     3      -8.867  13.165  67.736  1.00  0.00    -0.191 A  
HETATM    6  O   UNL     3     -11.016  12.321  67.035  1.00  0.00    -0.246 OA 
HETATM    7  C   UNL     3      -8.304  14.393  68.160  1.00  0.00    -0.158 A  
HETATM    8 CL   UNL     3      -9.020  15.913  67.671  1.00  0.00    -0.189 Cl 
HETATM    9  C   UNL     3      -7.173  14.422  69.008  1.00  0.00    -0.129 A  
HETATM   10 CL   UNL     3      -6.495  15.954  69.502  1.00  0.00    -0.176 Cl 
HETATM   11  C   UNL     3      -6.593  13.228  69.460  1.00  0.00    -0.040 A  
HETATM   12  C   UNL     3      -7.137  11.999  69.057  1.00  0.00    -0.077 A  
HETATM   13 CL   UNL     3      -5.210  13.271  70.517  1.00  0.00    -0.114 Cl 
HETATM   14  C   UNL     3      -8.264  11.957  68.194  1.00  0.00    -0.158 A  
HETATM   15 CL   UNL     3      -6.429  10.508  69.624  1.00  0.00    -0.070 Cl 
ENDROOT
BRANCH  14  16
HETATM   16  C   UNL     3      -8.760  10.620  67.718  1.00  0.00    -0.129 A  
HETATM   17  C   UNL     3      -8.252  10.048  66.592  1.00  0.00    -0.122 A  
HETATM   18  C   UNL     3      -7.243  10.725  65.775  1.00  0.00    -0.057 C  
HETATM   19  C   UNL     3      -6.625  10.123  64.749  1.00  0.00    -0.124 C  
HETATM   20 BR   UNL     3      -5.281  10.980  63.783  1.00  0.00     0.330 Br 
HETATM   21  C   UNL     3      -6.967   8.706  64.403  1.00  0.00    -0.081 C  
HETATM   22  O   UNL     3      -6.298   8.079  63.573  1.00  0.00    -0.069 OA 
HETATM   23  C   UNL     3      -8.104   8.071  65.135  1.00  0.00    -0.143 C  
HETATM   24  C   UNL     3      -8.689   8.708  66.175  1.00  0.00    -0.156 A  
HETATM   25 BR   UNL     3      -8.596   6.342  64.606  1.00  0.00     0.279 Br 
HETATM   26  O   UNL     3      -9.684   8.061  66.888  1.00  0.00    -0.186 OA 
HETATM   27  C   UNL     3     -10.197   8.610  68.033  1.00  0.00    -0.210 A  
HETATM   28  C   UNL     3      -9.798   9.868  68.463  1.00  0.00    -0.168 A  
HETATM   29  C   UNL     3     -10.400  10.385  69.608  1.00  0.00    -0.261 C  
HETATM   30  C   UNL     3     -11.334   9.633  70.341  1.00  0.00    -0.277 C  
HETATM   31 BR   UNL     3     -12.031  10.511  71.902  1.00  0.00     0.724 Br 
HETATM   32  C   UNL     3     -11.729   8.320  69.984  1.00  0.00     0.316 C  
HETATM   33  C   UNL     3     -11.137   7.855  68.772  1.00  0.00     0.310 C  
HETATM   34  O   UNL     3     -12.531   7.619  70.695  1.00  0.00    -0.063 OA 
HETATM   35 BR   UNL     3     -11.594   6.107  68.085  1.00  0.00     1.232 Br 
ENDBRANCH  14  16
TORSDOF 1
ENDMDL
MODEL       94
REMARK 921   NORMALIZED FREE ENERGY PREDICTED BY IDOCK:   -1.29 KCAL/MOL
REMARK 922        TOTAL FREE ENERGY PREDICTED BY IDOCK:   -2.11 KCAL/MOL
REMARK 923 INTER-LIGAND FREE ENERGY PREDICTED BY IDOCK:   -3.57 KCAL/MOL
REMARK 924 INTRA-LIGAND FREE ENERGY PREDICTED BY IDOCK:    1.46 KCAL/MOL
REMARK 927      BINDING AFFINITY PREDICTED BY RF-SCORE:    0.00 PKD
ROOT
HETATM    1 NA   UNL     1      -7.910  14.003  71.349  1.00  0.00     0.691 Na 
HETATM    2 NA   UNL     2      -5.930  15.415  66.946  1.00  0.00    -0.107 Na 
HETATM    3  O   UNL     3      -6.864  14.057  68.062  1.00  0.00    -0.110 OA 
HETATM    4  C   UNL     3      -7.484  13.015  68.474  1.00  0.00    -0.123 C  
HETATM    5  C   UNL     3      -7.747  11.886  67.512  1.00  0.00    -0.151 A  
HETATM    6  O   UNL     3      -7.850  12.919  69.690  1.00  0.00     0.780 OA 
HETATM    7  C   UNL     3      -6.758  11.480  66.585  1.00  0.00    -0.077 A  
HETATM    8 CL   UNL     3      -5.186  12.250  66.568  1.00  0.00     0.325 Cl 
HETATM    9  C   UNL     3      -7.004  10.429  65.671  1.00  0.00    -0.132 A  
HETATM   10 CL   UNL     3      -5.767   9.961  64.530  1.00  0.00    -0.088 Cl 
HETATM   11  C   UNL     3      -8.233   9.754  65.678  1.00  0.00    -0.130 A  
HETATM   12  C   UNL     3      -9.226  10.135  66.593  1.00  0.00    -0.155 A  
HETATM   13 CL   UNL     3      -8.523   8.449  64.562  1.00  0.00    -0.124 Cl 
HETATM   14  C   UNL     3      -8.997  11.199  67.505  1.00  0.00    -0.139 A  
HETATM   15 CL   UNL     3     -10.755   9.295  66.616  1.00  0.00    -0.154 Cl 
ENDROOT
BRANCH  14  16
HETATM   16  C   UNL     3     -10.118  11.632  68.407  1.00  0.00    -0.207 A  
HETATM   17  C   UNL     3     -10.672  10.764  69.298  1.00  0.00    -0.268 A  
HETATM   18  C   UNL     3     -10.237   9.369  69.382  1.00  0.00    -0.214 C  
HETATM   19  C   UNL     3     -10.663   8.539  70.345  1.00  0.00    -0.228 C  
HETATM   20 BR   UNL     3     -10.022   6.794  70.480  1.00  0.00    -0.200 Br 
HETATM   21  C   UNL     3     -11.625   9.034  71.381  1.00  0.00    -0.326 C  
HETATM   22  O   UNL     3     -11.903   8.341  72.368  1.00  0.00    -0.364 OA 
HETATM   23  C   UNL     3     -12.187  10.406  71.204  1.00  0.00    -0.394 C  
HETATM   24  C   UNL     3     -11.717  11.217  70.227  1.00  0.00    -0.341 A  
HETATM   25 BR   UNL     3     -13.479  10.963  72.440  1.00  0.00     0.550 Br 
HETATM   26  O   UNL     3     -12.196  12.513  70.139  1.00  0.00    -0.302 OA 
HETATM   27  C   UNL     3     -11.643  13.407  69.262  1.00  0.00    -0.310 A  
HETATM   28  C   UNL     3     -10.646  13.017  68.378  1.00  0.00    -0.264 A  
HETATM   29  C   UNL     3     -10.165  13.968  67.480  1.00  0.00    -0.244 C  
HETATM   30  C   UNL     3     -10.627  15.295  67.509  1.00  0.00    -0.273 C  
HETATM   31 BR   UNL     3      -9.824  16.458  66.208  1.00  0.00    -0.359 Br 
HETATM   32  C   UNL     3     -11.595  15.762  68.432  1.00  0.00    -0.338 C  
HETATM   33  C   UNL     3     -12.106  14.743  69.289  1.00  0.00    -0.261 C  
HETATM   34  O   UNL     3     -11.962  16.987  68.492  1.00  0.00     0.608 OA 
HETATM   35 BR   UNL     3     -13.480  15.169  70.581  1.00  0.00    -0.145 Br 
ENDBRANCH  14  16
TORSDOF 1
ENDMDL
MODEL       95
REMARK 921   NORMALIZED FREE ENERGY PREDICTED BY IDOCK:   -1.14 KCAL/MOL
REMARK 922        TOTAL FREE ENERGY PREDICTED BY IDOCK:   -1.96 KCAL/MOL
REMARK 923 INTER-LIGAND FREE ENERGY PREDICTED BY IDOCK:   -0.90 KCAL/MOL
REMARK 924 INTRA-LIGAND FREE ENERGY PREDICTED BY IDOCK:   -1.06 KCAL/MOL
REMARK 927      BINDING AFFINITY PREDICTED BY RF-SCORE:    0.00 PKD
ROOT
HETATM    1 NA   UNL     1     -12.054   8.955  68.831  1.00  0.00    -0.090 Na 
HETATM    2 NA   UNL     2     -10.542   4.184  69.328  1.00  0.00    -0.130 Na 
HETATM    3  O   UNL     3     -10.567   5.888  68.300  1.00  0.00    -0.213 OA 
HETATM    4  C   UNL     3     -10.353   6.812  67.440  1.00  0.00    -0.223 C  
HETATM    5  C   UNL     3      -9.454   6.530  66.264  1.00  0.00    -0.126 A  
HETATM    6  O   UNL     3     -10.915   7.949  67.559  1.00  0.00    -0.141 OA 
HETATM    7  C   UNL     3      -9.521   5.292  65.582  1.00  0.00    -0.081 A  
HETATM    8 CL   UNL     3     -10.687   4.077  66.059  1.00  0.00     0.487 Cl 
HETATM    9  C   UNL     3      -8.671   5.017  64.485  1.00  0.00    -0.132 A  
HETATM   10 CL   UNL     3      -8.770   3.473  63.674  1.00  0.00    -0.093 Cl 
HETATM   11  C   UNL     3      -7.752   5.978  64.041  1.00  0.00    -0.105 A  
HETATM   12  C   UNL     3      -7.673   7.216  64.698  1.00  0.00    -0.112 A  
HETATM   13 CL   UNL     3      -6.720   5.640  62.679  1.00  0.00    -0.028 Cl 
HETATM   14  C   UNL     3      -8.510   7.498  65.809  1.00  0.00    -0.151 A  
HETATM   15 CL   UNL     3      -6.539   8.422  64.144  1.00  0.00    -0.070 Cl 
ENDROOT
BRANCH  14  16
HETATM   16  C   UNL     3      -8.330   8.800  66.537  1.00  0.00    -0.112 A  
HETATM   17  C   UNL     3      -8.951   9.932  66.106  1.00  0.00    -0.177 A  
HETATM   18  C   UNL     3      -9.775   9.942  64.896  1.00  0.00    -0.332 C  
HETATM   19  C   UNL     3     -10.511  11.004  64.534  1.00  0.00    -0.342 C  
HETATM   20 BR   UNL     3     -11.619  10.955  63.037  1.00  0.00     1.831 Br 
HETATM   21  C   UNL     3     -10.499  12.239  65.382  1.00  0.00    -0.269 C  
HETATM   22  O   UNL     3     -11.290  13.164  65.161  1.00  0.00    -0.291 OA 
HETATM   23  C   UNL     3      -9.541  12.284  66.527  1.00  0.00    -0.238 C  
HETATM   24  C   UNL     3      -8.830  11.184  66.866  1.00  0.00    -0.157 A  
HETATM   25 BR   UNL     3      -9.455  13.881  67.502  1.00  0.00    -0.224 Br 
HETATM   26  O   UNL     3      -8.012  11.229  67.983  1.00  0.00    -0.109 OA 
HETATM   27  C   UNL     3      -7.391  10.099  68.445  1.00  0.00    -0.081 A  
HETATM   28  C   UNL     3      -7.495   8.897  67.758  1.00  0.00    -0.093 A  
HETATM   29  C   UNL     3      -6.795   7.800  68.258  1.00  0.00    -0.067 C  
HETATM   30  C   UNL     3      -6.061   7.890  69.453  1.00  0.00    -0.034 C  
HETATM   31 BR   UNL     3      -5.188   6.264  69.989  1.00  0.00    -0.014 Br 
HETATM   32  C   UNL     3      -5.975   9.073  70.227  1.00  0.00    -0.034 C  
HETATM   33  C   UNL     3      -6.652  10.187  69.646  1.00  0.00    -0.069 C  
HETATM   34  O   UNL     3      -5.357   9.127  71.347  1.00  0.00    -0.037 OA 
HETATM   35 BR   UNL     3      -6.604  11.909  70.523  1.00  0.00     1.160 Br 
ENDBRANCH  14  16
TORSDOF 1
ENDMDL
MODEL       96
REMARK 921   NORMALIZED FREE ENERGY PREDICTED BY IDOCK:   -1.00 KCAL/MOL
REMARK 922        TOTAL FREE ENERGY PREDICTED BY IDOCK:   -1.81 KCAL/MOL
REMARK 923 INTER-LIGAND FREE ENERGY PREDICTED BY IDOCK:   -4.70 KCAL/MOL
REMARK 924 INTRA-LIGAND FREE ENERGY PREDICTED BY IDOCK:    2.89 KCAL/MOL
REMARK 927      BINDING AFFINITY PREDICTED BY RF-SCORE:    0.00 PKD
ROOT
HETATM    1 NA   UNL     1      -9.821  16.437  69.756  1.00  0.00    -0.224 Na 
HETATM    2 NA   UNL     2     -13.997  13.722  69.057  1.00  0.00     1.106 Na 
HETATM    3  O   UNL     3     -12.145  14.209  68.516  1.00  0.00    -0.342 OA 
HETATM    4  C   UNL     3     -11.001  14.259  67.943  1.00  0.00    -0.267 C  
HETATM    5  C   UNL     3     -10.715  13.338  66.786  1.00  0.00    -0.279 A  
HETATM    6  O   UNL     3     -10.121  15.096  68.328  1.00  0.00    -0.218 OA 
HETATM    7  C   UNL     3     -11.698  13.090  65.799  1.00  0.00    -0.382 A  
HETATM    8 CL   UNL     3     -13.254  13.889  65.874  1.00  0.00    -0.083 Cl 
HETATM    9  C   UNL     3     -11.441  12.217  64.716  1.00  0.00    -0.322 A  
HETATM   10 CL   UNL     3     -12.681  11.922  63.521  1.00  0.00    -0.641 Cl 
HETATM   11  C   UNL     3     -10.193  11.589  64.592  1.00  0.00    -0.285 A  
HETATM   12  C   UNL     3      -9.201  11.824  65.556  1.00  0.00    -0.057 A  
HETATM   13 CL   UNL     3      -9.876  10.528  63.247  1.00  0.00    -0.353 Cl 
HETATM   14  C   UNL     3      -9.453  12.687  66.655  1.00  0.00    -0.244 A  
HETATM   15 CL   UNL     3      -7.642  11.056  65.403  1.00  0.00     0.138 Cl 
ENDROOT
BRANCH  14  16
HETATM   16  C   UNL     3      -8.394  12.842  67.710  1.00  0.00    -0.177 A  
HETATM   17  C   UNL     3      -7.810  14.050  67.940  1.00  0.00    -0.161 A  
HETATM   18  C   UNL     3      -8.150  15.231  67.145  1.00  0.00    -0.248 C  
HETATM   19  C   UNL     3      -7.699  16.457  67.448  1.00  0.00    -0.154 C  
HETATM   20 BR   UNL     3      -8.220  17.955  66.470  1.00  0.00    -0.295 Br 
HETATM   21  C   UNL     3      -6.806  16.649  68.636  1.00  0.00    -0.168 C  
HETATM   22  O   UNL     3      -6.513  17.784  69.030  1.00  0.00    -0.213 OA 
HETATM   23  C   UNL     3      -6.335  15.425  69.352  1.00  0.00    -0.134 C  
HETATM   24  C   UNL     3      -6.829  14.208  69.024  1.00  0.00    -0.110 A  
HETATM   25 BR   UNL     3      -5.126  15.675  70.760  1.00  0.00    -0.168 Br 
HETATM   26  O   UNL     3      -6.439  13.102  69.759  1.00  0.00    -0.097 OA 
HETATM   27  C   UNL     3      -7.024  11.881  69.556  1.00  0.00     0.058 A  
HETATM   28  C   UNL     3      -7.963  11.699  68.550  1.00  0.00    -0.144 A  
HETATM   29  C   UNL     3      -8.480  10.417  68.367  1.00  0.00    -0.124 C  
HETATM   30  C   UNL     3      -8.112   9.358  69.214  1.00  0.00    -0.105 C  
HETATM   31 BR   UNL     3      -8.952   7.676  68.815  1.00  0.00    -0.132 Br 
HETATM   32  C   UNL     3      -7.209   9.503  70.295  1.00  0.00    -0.118 C  
HETATM   33  C   UNL     3      -6.656  10.814  70.406  1.00  0.00    -0.021 C  
HETATM   34  O   UNL     3      -6.930   8.547  71.100  1.00  0.00    -0.056 OA 
HETATM   35 BR   UNL     3      -5.357  11.199  71.786  1.00  0.00     0.319 Br 
ENDBRANCH  14  16
TORSDOF 1
ENDMDL
MODEL       97
REMARK 921   NORMALIZED FREE ENERGY PREDICTED BY IDOCK:   -0.71 KCAL/MOL
REMARK 922        TOTAL FREE ENERGY PREDICTED BY IDOCK:   -1.50 KCAL/MOL
REMARK 923 INTER-LIGAND FREE ENERGY PREDICTED BY IDOCK:   -4.59 KCAL/MOL
REMARK 924 INTRA-LIGAND FREE ENERGY PREDICTED BY IDOCK:    3.09 KCAL/MOL
REMARK 927      BINDING AFFINITY PREDICTED BY RF-SCORE:    0.00 PKD
ROOT
HETATM    1 NA   UNL     1      -5.627   9.458  67.067  1.00  0.00    -0.036 Na 
HETATM    2 NA   UNL     2      -6.793  10.786  62.358  1.00  0.00    -0.121 Na 
HETATM    3  O   UNL     3      -7.255  10.703  64.292  1.00  0.00     0.050 OA 
HETATM    4  C   UNL     3      -7.825  10.841  65.430  1.00  0.00    -0.001 C  
HETATM    5  C   UNL     3      -9.150  11.553  65.509  1.00  0.00    -0.101 A  
HETATM    6  O   UNL     3      -7.293  10.358  66.483  1.00  0.00    -0.107 OA 
HETATM    7  C   UNL     3     -10.150  11.331  64.533  1.00  0.00    -0.295 A  
HETATM    8 CL   UNL     3      -9.888  10.184  63.237  1.00  0.00    -0.129 Cl 
HETATM    9  C   UNL     3     -11.392  12.005  64.595  1.00  0.00    -0.318 A  
HETATM   10 CL   UNL     3     -12.601  11.719  63.367  1.00  0.00    -0.612 Cl 
HETATM   11  C   UNL     3     -11.663  12.900  65.640  1.00  0.00    -0.387 A  
HETATM   12  C   UNL     3     -10.688  13.131  66.623  1.00  0.00    -0.279 A  
HETATM   13 CL   UNL     3     -13.200  13.715  65.721  1.00  0.00    -0.070 Cl 
HETATM   14  C   UNL     3      -9.432  12.471  66.563  1.00  0.00    -0.240 A  
HETATM   15 CL   UNL     3     -11.021  14.235  67.933  1.00  0.00    -0.269 Cl 
ENDROOT
BRANCH  14  16
HETATM   16  C   UNL     3      -8.386  12.815  67.586  1.00  0.00    -0.175 A  
HETATM   17  C   UNL     3      -7.900  14.083  67.688  1.00  0.00    -0.185 A  
HETATM   18  C   UNL     3      -8.335  15.147  66.783  1.00  0.00    -0.225 C  
HETATM   19  C   UNL     3      -7.982  16.429  66.956  1.00  0.00    -0.205 C  
HETATM   20 BR   UNL     3      -8.624  17.775  65.839  1.00  0.00     0.247 Br 
HETATM   21  C   UNL     3      -7.105  16.809  68.110  1.00  0.00    -0.159 C  
HETATM   22  O   UNL     3      -6.902  17.998  68.385  1.00  0.00    -0.210 OA 
HETATM   23  C   UNL     3      -6.536  15.705  68.939  1.00  0.00    -0.113 C  
HETATM   24  C   UNL     3      -6.932  14.426  68.740  1.00  0.00    -0.100 A  
HETATM   25 BR   UNL     3      -5.346  16.190  70.302  1.00  0.00    -0.172 Br 
HETATM   26  O   UNL     3      -6.452  13.434  69.578  1.00  0.00    -0.111 OA 
HETATM   27  C   UNL     3      -6.939  12.156  69.504  1.00  0.00     0.113 A  
HETATM   28  C   UNL     3      -7.863  11.800  68.531  1.00  0.00    -0.144 A  
HETATM   29  C   UNL     3      -8.276  10.470  68.484  1.00  0.00    -0.123 C  
HETATM   30  C   UNL     3      -7.823   9.533  69.428  1.00  0.00    -0.097 C  
HETATM   31 BR   UNL     3      -8.527   7.759  69.208  1.00  0.00    -0.138 Br 
HETATM   32  C   UNL     3      -6.931   9.857  70.480  1.00  0.00    -0.111 C  
HETATM   33  C   UNL     3      -6.484  11.212  70.453  1.00  0.00     0.064 C  
HETATM   34  O   UNL     3      -6.574   9.012  71.373  1.00  0.00    -0.083 OA 
HETATM   35 BR   UNL     3      -5.217  11.836  71.773  1.00  0.00     0.247 Br 
ENDBRANCH  14  16
TORSDOF 1
ENDMDL
MODEL       98
REMARK 921   NORMALIZED FREE ENERGY PREDICTED BY IDOCK:   -0.62 KCAL/MOL
REMARK 922        TOTAL FREE ENERGY PREDICTED BY IDOCK:   -1.41 KCAL/MOL
REMARK 923 INTER-LIGAND FREE ENERGY PREDICTED BY IDOCK:   -2.48 KCAL/MOL
REMARK 924 INTRA-LIGAND FREE ENERGY PREDICTED BY IDOCK:    1.07 KCAL/MOL
REMARK 927      BINDING AFFINITY PREDICTED BY RF-SCORE:    0.00 PKD
ROOT
HETATM    1 NA   UNL     1      -7.276  12.591  71.037  1.00  0.00     0.517 Na 
HETATM    2 NA   UNL     2      -5.434  14.252  66.661  1.00  0.00     0.472 Na 
HETATM    3  O   UNL     3      -6.463  12.900  67.699  1.00  0.00    -0.129 OA 
HETATM    4  C   UNL     3      -7.187  11.903  68.047  1.00  0.00    -0.090 C  
HETATM    5  C   UNL     3      -7.666  10.937  66.995  1.00  0.00    -0.129 A  
HETATM    6  O   UNL     3      -7.478  11.712  69.273  1.00  0.00    -0.050 OA 
HETATM    7  C   UNL     3      -6.807  10.522  65.950  1.00  0.00    -0.132 A  
HETATM    8 CL   UNL     3      -5.151  11.085  65.884  1.00  0.00    -0.126 Cl 
HETATM    9  C   UNL     3      -7.254   9.624  64.952  1.00  0.00    -0.118 A  
HETATM   10 CL   UNL     3      -6.173   9.142  63.667  1.00  0.00    -0.088 Cl 
HETATM   11  C   UNL     3      -8.559   9.114  64.990  1.00  0.00    -0.180 A  
HETATM   12  C   UNL     3      -9.427   9.506  66.021  1.00  0.00    -0.233 A  
HETATM   13 CL   UNL     3      -9.099   7.996  63.768  1.00  0.00     1.001 Cl 
HETATM   14  C   UNL     3      -8.994  10.418  67.020  1.00  0.00    -0.150 A  
HETATM   15 CL   UNL     3     -11.049   8.868  66.082  1.00  0.00     1.413 Cl 
ENDROOT
BRANCH  14  16
HETATM   16  C   UNL     3      -9.981  10.880  68.054  1.00  0.00    -0.188 A  
HETATM   17  C   UNL     3     -10.339  12.191  68.141  1.00  0.00    -0.214 A  
HETATM   18  C   UNL     3      -9.746  13.208  67.272  1.00  0.00    -0.230 C  
HETATM   19  C   UNL     3     -10.187  14.474  67.240  1.00  0.00    -0.255 C  
HETATM   20 BR   UNL     3      -9.472  15.725  66.058  1.00  0.00    -0.389 Br 
HETATM   21  C   UNL     3     -11.323  14.888  68.125  1.00  0.00    -0.312 C  
HETATM   22  O   UNL     3     -11.853  15.998  67.995  1.00  0.00    -0.126 OA 
HETATM   23  C   UNL     3     -11.822  13.893  69.121  1.00  0.00    -0.358 C  
HETATM   24  C   UNL     3     -11.361  12.620  69.107  1.00  0.00    -0.282 A  
HETATM   25 BR   UNL     3     -13.161  14.466  70.298  1.00  0.00     0.355 Br 
HETATM   26  O   UNL     3     -11.902  11.698  69.986  1.00  0.00    -0.320 OA 
HETATM   27  C   UNL     3     -11.570  10.372  69.906  1.00  0.00    -0.284 A  
HETATM   28  C   UNL     3     -10.617   9.929  68.997  1.00  0.00    -0.240 A  
HETATM   29  C   UNL     3     -10.292   8.574  69.006  1.00  0.00    -0.229 C  
HETATM   30  C   UNL     3     -10.951   7.674  69.860  1.00  0.00    -0.200 C  
HETATM   31 BR   UNL     3     -10.378   5.846  69.704  1.00  0.00    -0.346 Br 
HETATM   32  C   UNL     3     -11.975   8.061  70.759  1.00  0.00    -0.121 C  
HETATM   33  C   UNL     3     -12.231   9.464  70.763  1.00  0.00    -0.162 C  
HETATM   34  O   UNL     3     -12.614   7.222  71.486  1.00  0.00    -0.345 OA 
HETATM   35 BR   UNL     3     -13.555  10.199  71.966  1.00  0.00    -0.212 Br 
ENDBRANCH  14  16
TORSDOF 1
ENDMDL
MODEL       99
REMARK 921   NORMALIZED FREE ENERGY PREDICTED BY IDOCK:   -0.56 KCAL/MOL
REMARK 922        TOTAL FREE ENERGY PREDICTED BY IDOCK:   -1.34 KCAL/MOL
REMARK 923 INTER-LIGAND FREE ENERGY PREDICTED BY IDOCK:   -1.96 KCAL/MOL
REMARK 924 INTRA-LIGAND FREE ENERGY PREDICTED BY IDOCK:    0.62 KCAL/MOL
REMARK 927      BINDING AFFINITY PREDICTED BY RF-SCORE:    0.00 PKD
ROOT
HETATM    1 NA   UNL     1     -14.411  10.226  68.432  1.00  0.00     2.810 Na 
HETATM    2 NA   UNL     2     -13.463  10.911  73.325  1.00  0.00    -0.157 Na 
HETATM    3  O   UNL     3     -12.848  10.393  71.504  1.00  0.00    -0.389 OA 
HETATM    4  C   UNL     3     -12.144  10.044  70.493  1.00  0.00    -0.251 C  
HETATM    5  C   UNL     3     -10.679   9.750  70.684  1.00  0.00    -0.394 A  
HETATM    6  O   UNL     3     -12.678   9.918  69.344  1.00  0.00     0.584 OA 
HETATM    7  C   UNL     3     -10.225   9.030  71.815  1.00  0.00    -0.319 A  
HETATM    8 CL   UNL     3     -11.365   8.420  72.995  1.00  0.00    -0.062 Cl 
HETATM    9  C   UNL     3      -8.850   8.761  72.005  1.00  0.00    -0.121 A  
HETATM   10 CL   UNL     3      -8.322   7.881  73.419  1.00  0.00    -0.232 Cl 
HETATM   11  C   UNL     3      -7.905   9.192  71.063  1.00  0.00    -0.116 A  
HETATM   12  C   UNL     3      -8.332   9.903  69.930  1.00  0.00    -0.183 A  
HETATM   13 CL   UNL     3      -6.214   8.844  71.294  1.00  0.00    -0.055 Cl 
HETATM   14  C   UNL     3      -9.708  10.191  69.736  1.00  0.00    -0.232 A  
HETATM   15 CL   UNL     3      -7.164  10.434  68.747  1.00  0.00    -0.080 Cl 
ENDROOT
BRANCH  14  16
HETATM   16  C   UNL     3     -10.111  11.030  68.556  1.00  0.00    -0.198 A  
HETATM   17  C   UNL     3     -10.655  12.266  68.731  1.00  0.00    -0.223 A  
HETATM   18  C   UNL     3     -10.912  12.809  70.066  1.00  0.00     0.613 C  
HETATM   19  C   UNL     3     -11.308  14.075  70.265  1.00  0.00     0.010 C  
HETATM   20 BR   UNL     3     -11.543  14.764  71.980  1.00  0.00    -0.009 Br 
HETATM   21  C   UNL     3     -11.507  14.984  69.091  1.00  0.00    -0.301 C  
HETATM   22  O   UNL     3     -11.710  16.193  69.255  1.00  0.00    -0.313 OA 
HETATM   23  C   UNL     3     -11.395  14.387  67.726  1.00  0.00    -0.312 C  
HETATM   24  C   UNL     3     -10.976  13.109  67.571  1.00  0.00    -0.263 A  
HETATM   25 BR   UNL     3     -11.764  15.510  66.273  1.00  0.00     0.484 Br 
HETATM   26  O   UNL     3     -10.801  12.609  66.292  1.00  0.00    -0.265 OA 
HETATM   27  C   UNL     3     -10.242  11.375  66.092  1.00  0.00    -0.239 A  
HETATM   28  C   UNL     3      -9.914  10.557  67.165  1.00  0.00    -0.234 A  
HETATM   29  C   UNL     3      -9.395   9.294  66.885  1.00  0.00    -0.193 C  
HETATM   30  C   UNL     3      -9.151   8.886  65.563  1.00  0.00    -0.190 C  
HETATM   31 BR   UNL     3      -8.411   7.121  65.387  1.00  0.00    -0.089 Br 
HETATM   32  C   UNL     3      -9.406   9.704  64.435  1.00  0.00    -0.148 C  
HETATM   33  C   UNL     3      -9.995  10.962  64.763  1.00  0.00    -0.307 C  
HETATM   34  O   UNL     3      -9.120   9.347  63.239  1.00  0.00    -0.204 OA 
HETATM   35 BR   UNL     3     -10.472  12.199  63.356  1.00  0.00    -0.385 Br 
ENDBRANCH  14  16
TORSDOF 1
ENDMDL
MODEL      100
REMARK 921   NORMALIZED FREE ENERGY PREDICTED BY IDOCK:   -0.12 KCAL/MOL
REMARK 922        TOTAL FREE ENERGY PREDICTED BY IDOCK:   -0.88 KCAL/MOL
REMARK 923 INTER-LIGAND FREE ENERGY PREDICTED BY IDOCK:   -3.04 KCAL/MOL
REMARK 924 INTRA-LIGAND FREE ENERGY PREDICTED BY IDOCK:    2.16 KCAL/MOL
REMARK 927      BINDING AFFINITY PREDICTED BY RF-SCORE:    0.00 PKD
ROOT
HETATM    1 NA   UNL     1      -5.134   5.199  69.642  1.00  0.00     0.000 Na 
HETATM    2 NA   UNL     2      -8.895   3.642  72.597  1.00  0.00    -0.084 Na 
HETATM    3  O   UNL     3      -8.127   4.985  71.345  1.00  0.00    -0.107 OA 
HETATM    4  C   UNL     3      -7.951   5.989  70.570  1.00  0.00    -0.111 C  
HETATM    5  C   UNL     3      -9.053   7.005  70.419  1.00  0.00    -0.156 A  
HETATM    6  O   UNL     3      -6.847   6.146  69.954  1.00  0.00    -0.053 OA 
HETATM    7  C   UNL     3      -9.802   7.432  71.541  1.00  0.00    -0.173 A  
HETATM    8 CL   UNL     3      -9.431   6.825  73.141  1.00  0.00    -0.159 Cl 
HETATM    9  C   UNL     3     -10.846   8.377  71.405  1.00  0.00    -0.244 A  
HETATM   10 CL   UNL     3     -11.761   8.873  72.808  1.00  0.00     0.056 Cl 
HETATM   11  C   UNL     3     -11.150   8.922  70.149  1.00  0.00    -0.201 A  
HETATM   12  C   UNL     3     -10.416   8.519  69.023  1.00  0.00    -0.200 A  
HETATM   13 CL   UNL     3     -12.426  10.098  69.990  1.00  0.00    -0.101 Cl 
HETATM   14  C   UNL     3      -9.376   7.560  69.146  1.00  0.00    -0.147 A  
HETATM   15 CL   UNL     3     -10.780   9.201  67.459  1.00  0.00    -0.313 Cl 
ENDROOT
BRANCH  14  16
HETATM   16  C   UNL     3      -8.675   7.091  67.902  1.00  0.00    -0.125 A  
HETATM   17  C   UNL     3      -8.059   7.977  67.072  1.00  0.00    -0.116 A  
HETATM   18  C   UNL     3      -8.092   9.418  67.326  1.00  0.00    -0.110 C  
HETATM   19  C   UNL     3      -7.373  10.293  66.608  1.00  0.00    -0.109 C  
HETATM   20 BR   UNL     3      -7.366  12.112  67.012  1.00  0.00    -0.014 Br 
HETATM   21  C   UNL     3      -6.500   9.800  65.494  1.00  0.00    -0.084 C  
HETATM   22  O   UNL     3      -5.707  10.562  64.928  1.00  0.00    -0.133 OA 
HETATM   23  C   UNL     3      -6.588   8.353  65.135  1.00  0.00    -0.063 C  
HETATM   24  C   UNL     3      -7.313   7.502  65.898  1.00  0.00    -0.074 A  
HETATM   25 BR   UNL     3      -5.581   7.779  63.664  1.00  0.00    -0.049 Br 
HETATM   26  O   UNL     3      -7.308   6.151  65.591  1.00  0.00    -0.076 OA 
HETATM   27  C   UNL     3      -7.907   5.241  66.420  1.00  0.00    -0.103 A  
HETATM   28  C   UNL     3      -8.609   5.653  67.545  1.00  0.00    -0.108 A  
HETATM   29  C   UNL     3      -9.236   4.676  68.314  1.00  0.00    -0.166 C  
HETATM   30  C   UNL     3      -9.109   3.312  68.001  1.00  0.00    -0.167 C  
HETATM   31 BR   UNL     3     -10.027   2.120  69.196  1.00  0.00     0.741 Br 
HETATM   32  C   UNL     3      -8.352   2.832  66.904  1.00  0.00    -0.094 C  
HETATM   33  C   UNL     3      -7.781   3.868  66.107  1.00  0.00    -0.089 C  
HETATM   34  O   UNL     3      -8.190   1.585  66.665  1.00  0.00    -0.072 OA 
HETATM   35 BR   UNL     3      -6.758   3.418  64.530  1.00  0.00    -0.037 Br 
ENDBRANCH  14  16
TORSDOF 1
ENDMDL
MODEL      101
REMARK 921   NORMALIZED FREE ENERGY PREDICTED BY IDOCK:    0.16 KCAL/MOL
REMARK 922        TOTAL FREE ENERGY PREDICTED BY IDOCK:   -0.58 KCAL/MOL
REMARK 923 INTER-LIGAND FREE ENERGY PREDICTED BY IDOCK:   -2.58 KCAL/MOL
REMARK 924 INTRA-LIGAND FREE ENERGY PREDICTED BY IDOCK:    2.00 KCAL/MOL
REMARK 927      BINDING AFFINITY PREDICTED BY RF-SCORE:    0.00 PKD
ROOT
HETATM    1 NA   UNL     1      -5.141   4.617  69.219  1.00  0.00     0.000 Na 
HETATM    2 NA   UNL     2      -8.642   2.692  72.275  1.00  0.00    -0.059 Na 
HETATM    3  O   UNL     3      -7.998   4.163  71.099  1.00  0.00    -0.068 OA 
HETATM    4  C   UNL     3      -7.902   5.237  70.408  1.00  0.00    -0.076 C  
HETATM    5  C   UNL     3      -9.035   6.229  70.426  1.00  0.00    -0.154 A  
HETATM    6  O   UNL     3      -6.849   5.480  69.733  1.00  0.00    -0.055 OA 
HETATM    7  C   UNL     3      -9.712   6.532  71.632  1.00  0.00    -0.163 A  
HETATM    8 CL   UNL     3      -9.213   5.797  73.140  1.00  0.00    -0.137 Cl 
HETATM    9  C   UNL     3     -10.785   7.453  71.654  1.00  0.00    -0.214 A  
HETATM   10 CL   UNL     3     -11.608   7.796  73.157  1.00  0.00    -0.198 Cl 
HETATM   11  C   UNL     3     -11.191   8.099  70.478  1.00  0.00    -0.247 A  
HETATM   12  C   UNL     3     -10.530   7.819  69.271  1.00  0.00    -0.217 A  
HETATM   13 CL   UNL     3     -12.502   9.246  70.514  1.00  0.00     0.033 Cl 
HETATM   14  C   UNL     3      -9.462   6.885  69.234  1.00  0.00    -0.147 A  
HETATM   15 CL   UNL     3     -11.021   8.626  67.804  1.00  0.00    -0.056 Cl 
ENDROOT
BRANCH  14  16
HETATM   16  C   UNL     3      -8.841   6.549  67.907  1.00  0.00    -0.114 A  
HETATM   17  C   UNL     3      -8.830   5.267  67.447  1.00  0.00    -0.105 A  
HETATM   18  C   UNL     3      -9.373   4.162  68.238  1.00  0.00    -0.214 C  
HETATM   19  C   UNL     3      -9.506   2.922  67.747  1.00  0.00    -0.135 C  
HETATM   20 BR   UNL     3     -10.283   1.556  68.748  1.00  0.00     1.176 Br 
HETATM   21  C   UNL     3      -9.081   2.630  66.340  1.00  0.00    -0.112 C  
HETATM   22  O   UNL     3      -9.344   1.542  65.813  1.00  0.00    -0.046 OA 
HETATM   23  C   UNL     3      -8.385   3.717  65.588  1.00  0.00    -0.105 C  
HETATM   24  C   UNL     3      -8.288   4.960  66.115  1.00  0.00    -0.112 A  
HETATM   25 BR   UNL     3      -7.756   3.298  63.874  1.00  0.00    -0.077 Br 
HETATM   26  O   UNL     3      -7.713   5.968  65.361  1.00  0.00    -0.082 OA 
HETATM   27  C   UNL     3      -7.727   7.266  65.797  1.00  0.00    -0.099 A  
HETATM   28  C   UNL     3      -8.243   7.595  67.044  1.00  0.00    -0.117 A  
HETATM   29  C   UNL     3      -8.179   8.929  67.443  1.00  0.00    -0.108 C  
HETATM   30  C   UNL     3      -7.669   9.919  66.587  1.00  0.00    -0.106 C  
HETATM   31 BR   UNL     3      -7.689  11.700  67.311  1.00  0.00    -0.161 Br 
HETATM   32  C   UNL     3      -7.190   9.650  65.281  1.00  0.00    -0.113 C  
HETATM   33  C   UNL     3      -7.215   8.265  64.938  1.00  0.00    -0.081 C  
HETATM   34  O   UNL     3      -6.788  10.569  64.486  1.00  0.00    -0.051 OA 
HETATM   35 BR   UNL     3      -6.549   7.686  63.218  1.00  0.00    -0.059 Br 
ENDBRANCH  14  16
TORSDOF 1
ENDMDL
MODEL      102
REMARK 921   NORMALIZED FREE ENERGY PREDICTED BY IDOCK:    0.29 KCAL/MOL
REMARK 922        TOTAL FREE ENERGY PREDICTED BY IDOCK:   -0.44 KCAL/MOL
REMARK 923 INTER-LIGAND FREE ENERGY PREDICTED BY IDOCK:   -5.38 KCAL/MOL
REMARK 924 INTRA-LIGAND FREE ENERGY PREDICTED BY IDOCK:    4.94 KCAL/MOL
REMARK 927      BINDING AFFINITY PREDICTED BY RF-SCORE:    0.00 PKD
ROOT
HETATM    1 NA   UNL     1      -8.888  10.209  71.411  1.00  0.00    -0.021 Na 
HETATM    2 NA   UNL     2      -5.147   6.963  72.288  1.00  0.00    -0.026 Na 
HETATM    3  O   UNL     3      -6.948   7.359  71.539  1.00  0.00    -0.054 OA 
HETATM    4  C   UNL     3      -8.077   7.287  70.938  1.00  0.00    -0.106 C  
HETATM    5  C   UNL     3      -8.490   5.986  70.302  1.00  0.00    -0.124 A  
HETATM    6  O   UNL     3      -8.856   8.294  70.902  1.00  0.00    -0.137 OA 
HETATM    7  C   UNL     3      -8.252   4.753  70.954  1.00  0.00    -0.087 A  
HETATM    8 CL   UNL     3      -7.514   4.715  72.541  1.00  0.00    -0.082 Cl 
HETATM    9  C   UNL     3      -8.627   3.527  70.357  1.00  0.00    -0.062 A  
HETATM   10 CL   UNL     3      -8.306   2.021  71.182  1.00  0.00    -0.063 Cl 
HETATM   11  C   UNL     3      -9.261   3.512  69.106  1.00  0.00    -0.158 A  
HETATM   12  C   UNL     3      -9.513   4.723  68.443  1.00  0.00    -0.144 A  
HETATM   13 CL   UNL     3      -9.736   2.000  68.382  1.00  0.00    -0.133 Cl 
HETATM   14  C   UNL     3      -9.128   5.958  69.026  1.00  0.00    -0.123 A  
HETATM   15 CL   UNL     3     -10.311   4.714  66.891  1.00  0.00    -0.199 Cl 
ENDROOT
BRANCH  14  16
HETATM   16  C   UNL     3      -9.338   7.224  68.244  1.00  0.00    -0.135 A  
HETATM   17  C   UNL     3      -8.817   7.365  66.993  1.00  0.00    -0.132 A  
HETATM   18  C   UNL     3      -7.997   6.319  66.381  1.00  0.00    -0.109 C  
HETATM   19  C   UNL     3      -7.598   6.374  65.101  1.00  0.00    -0.089 C  
HETATM   20 BR   UNL     3      -6.629   4.985  64.324  1.00  0.00    -0.043 Br 
HETATM   21  C   UNL     3      -7.989   7.543  64.250  1.00  0.00    -0.109 C  
HETATM   22  O   UNL     3      -7.775   7.537  63.032  1.00  0.00    -0.111 OA 
HETATM   23  C   UNL     3      -8.691   8.680  64.917  1.00  0.00    -0.090 C  
HETATM   24  C   UNL     3      -9.090   8.576  66.206  1.00  0.00    -0.185 A  
HETATM   25 BR   UNL     3      -9.066  10.183  63.864  1.00  0.00    -0.318 Br 
HETATM   26  O   UNL     3      -9.813   9.612  66.773  1.00  0.00    -0.186 OA 
HETATM   27  C   UNL     3     -10.360   9.485  68.022  1.00  0.00    -0.214 A  
HETATM   28  C   UNL     3     -10.133   8.350  68.789  1.00  0.00    -0.209 A  
HETATM   29  C   UNL     3     -10.679   8.312  70.070  1.00  0.00    -0.239 C  
HETATM   30  C   UNL     3     -11.485   9.358  70.548  1.00  0.00    -0.262 C  
HETATM   31 BR   UNL     3     -12.163   9.106  72.329  1.00  0.00    -0.275 Br 
HETATM   32  C   UNL     3     -11.802  10.508  69.785  1.00  0.00    -0.257 C  
HETATM   33  C   UNL     3     -11.172  10.536  68.505  1.00  0.00    -0.274 C  
HETATM   34  O   UNL     3     -12.591  11.425  70.206  1.00  0.00    -0.231 OA 
HETATM   35 BR   UNL     3     -11.434  12.053  67.335  1.00  0.00    -0.397 Br 
ENDBRANCH  14  16
TORSDOF 1
ENDMDL
MODEL      103
REMARK 921   NORMALIZED FREE ENERGY PREDICTED BY IDOCK:    0.92 KCAL/MOL
REMARK 922        TOTAL FREE ENERGY PREDICTED BY IDOCK:    0.22 KCAL/MOL
REMARK 923 INTER-LIGAND FREE ENERGY PREDICTED BY IDOCK:   -0.87 KCAL/MOL
REMARK 924 INTRA-LIGAND FREE ENERGY PREDICTED BY IDOCK:    1.09 KCAL/MOL
REMARK 927      BINDING AFFINITY PREDICTED BY RF-SCORE:    0.00 PKD
ROOT
HETATM    1 NA   UNL     1     -10.954   7.819  64.772  1.00  0.00     2.759 Na 
HETATM    2 NA   UNL     2      -9.394  12.029  62.503  1.00  0.00    -0.334 Na 
HETATM    3  O   UNL     3      -9.787  11.009  64.167  1.00  0.00    -0.254 OA 
HETATM    4  C   UNL     3      -9.901  10.636  65.386  1.00  0.00    -0.267 C  
HETATM    5  C   UNL     3      -9.502  11.584  66.487  1.00  0.00    -0.220 A  
HETATM    6  O   UNL     3     -10.372   9.487  65.670  1.00  0.00    -0.130 OA 
HETATM    7  C   UNL     3      -9.824  12.961  66.408  1.00  0.00    -0.268 A  
HETATM    8 CL   UNL     3     -10.738  13.583  65.052  1.00  0.00    -0.338 Cl 
HETATM    9  C   UNL     3      -9.442  13.858  67.432  1.00  0.00    -0.226 A  
HETATM   10 CL   UNL     3      -9.842  15.553  67.299  1.00  0.00    -0.223 Cl 
HETATM   11  C   UNL     3      -8.746  13.396  68.559  1.00  0.00    -0.071 A  
HETATM   12  C   UNL     3      -8.422  12.034  68.661  1.00  0.00    -0.022 A  
HETATM   13 CL   UNL     3      -8.293  14.503  69.825  1.00  0.00     0.354 Cl 
HETATM   14  C   UNL     3      -8.787  11.126  67.633  1.00  0.00    -0.136 A  
HETATM   15 CL   UNL     3      -7.566  11.448  70.064  1.00  0.00     0.741 Cl 
ENDROOT
BRANCH  14  16
HETATM   16  C   UNL     3      -8.343   9.695  67.741  1.00  0.00    -0.121 A  
HETATM   17  C   UNL     3      -8.762   8.910  68.772  1.00  0.00    -0.137 A  
HETATM   18  C   UNL     3      -9.617   9.436  69.838  1.00  0.00    -0.234 C  
HETATM   19  C   UNL     3     -10.159   8.650  70.780  1.00  0.00    -0.198 C  
HETATM   20 BR   UNL     3     -11.315   9.333  72.072  1.00  0.00    -0.066 Br 
HETATM   21  C   UNL     3      -9.887   7.176  70.765  1.00  0.00    -0.178 C  
HETATM   22  O   UNL     3     -10.503   6.413  71.518  1.00  0.00    -0.211 OA 
HETATM   23  C   UNL     3      -8.893   6.666  69.773  1.00  0.00    -0.144 C  
HETATM   24  C   UNL     3      -8.383   7.491  68.830  1.00  0.00    -0.129 A  
HETATM   25 BR   UNL     3      -8.477   4.841  69.848  1.00  0.00    -0.093 Br 
HETATM   26  O   UNL     3      -7.528   6.972  67.872  1.00  0.00    -0.094 OA 
HETATM   27  C   UNL     3      -7.107   7.738  66.818  1.00  0.00    -0.080 A  
HETATM   28  C   UNL     3      -7.457   9.079  66.725  1.00  0.00    -0.086 A  
HETATM   29  C   UNL     3      -6.951   9.809  65.651  1.00  0.00    -0.101 C  
HETATM   30  C   UNL     3      -6.167   9.196  64.660  1.00  0.00    -0.070 C  
HETATM   31 BR   UNL     3      -5.587  10.366  63.250  1.00  0.00    -0.152 Br 
HETATM   32  C   UNL     3      -5.835   7.819  64.671  1.00  0.00    -0.041 C  
HETATM   33  C   UNL     3      -6.318   7.123  65.819  1.00  0.00    -0.044 C  
HETATM   34  O   UNL     3      -5.174   7.256  63.729  1.00  0.00    -0.028 OA 
HETATM   35 BR   UNL     3      -5.920   5.246  66.047  1.00  0.00    -0.023 Br 
ENDBRANCH  14  16
TORSDOF 1
ENDMDL
MODEL      104
REMARK 921   NORMALIZED FREE ENERGY PREDICTED BY IDOCK:    0.95 KCAL/MOL
REMARK 922        TOTAL FREE ENERGY PREDICTED BY IDOCK:    0.25 KCAL/MOL
REMARK 923 INTER-LIGAND FREE ENERGY PREDICTED BY IDOCK:   -5.03 KCAL/MOL
REMARK 924 INTRA-LIGAND FREE ENERGY PREDICTED BY IDOCK:    5.28 KCAL/MOL
REMARK 927      BINDING AFFINITY PREDICTED BY RF-SCORE:    0.00 PKD
ROOT
HETATM    1 NA   UNL     1      -7.720   8.219  71.303  1.00  0.00    -0.064 Na 
HETATM    2 NA   UNL     2     -12.276  10.133  72.240  1.00  0.00    -0.357 Na 
HETATM    3  O   UNL     3     -10.727   9.884  71.015  1.00  0.00    -0.309 OA 
HETATM    4  C   UNL     3      -9.943   9.888  70.003  1.00  0.00    -0.254 C  
HETATM    5  C   UNL     3     -10.373  10.589  68.741  1.00  0.00    -0.208 A  
HETATM    6  O   UNL     3      -8.799   9.331  70.069  1.00  0.00    -0.161 OA 
HETATM    7  C   UNL     3     -11.037  11.838  68.796  1.00  0.00    -0.241 A  
HETATM    8 CL   UNL     3     -11.330  12.620  70.334  1.00  0.00     0.300 Cl 
HETATM    9  C   UNL     3     -11.454  12.495  67.615  1.00  0.00    -0.334 A  
HETATM   10 CL   UNL     3     -12.284  14.029  67.719  1.00  0.00    -0.307 Cl 
HETATM   11  C   UNL     3     -11.201  11.926  66.359  1.00  0.00    -0.331 A  
HETATM   12  C   UNL     3     -10.538  10.691  66.279  1.00  0.00    -0.161 A  
HETATM   13 CL   UNL     3     -11.702  12.748  64.907  1.00  0.00    -0.371 Cl 
HETATM   14  C   UNL     3     -10.128  10.015  67.458  1.00  0.00    -0.243 A  
HETATM   15 CL   UNL     3     -10.210   9.981  64.720  1.00  0.00    -0.171 Cl 
ENDROOT
BRANCH  14  16
HETATM   16  C   UNL     3      -9.501   8.656  67.331  1.00  0.00    -0.187 A  
HETATM   17  C   UNL     3      -8.518   8.424  66.417  1.00  0.00    -0.127 A  
HETATM   18  C   UNL     3      -8.066   9.466  65.495  1.00  0.00    -0.116 C  
HETATM   19  C   UNL     3      -7.004   9.305  64.691  1.00  0.00    -0.092 C  
HETATM   20 BR   UNL     3      -6.399  10.683  63.591  1.00  0.00     0.215 Br 
HETATM   21  C   UNL     3      -6.241   8.016  64.716  1.00  0.00    -0.049 C  
HETATM   22  O   UNL     3      -5.169   7.905  64.110  1.00  0.00    -0.036 OA 
HETATM   23  C   UNL     3      -6.795   6.901  65.541  1.00  0.00    -0.052 C  
HETATM   24  C   UNL     3      -7.859   7.111  66.350  1.00  0.00    -0.109 A  
HETATM   25 BR   UNL     3      -5.895   5.260  65.467  1.00  0.00    -0.022 Br 
HETATM   26  O   UNL     3      -8.298   6.083  67.166  1.00  0.00    -0.106 OA 
HETATM   27  C   UNL     3      -9.274   6.298  68.103  1.00  0.00    -0.110 A  
HETATM   28  C   UNL     3      -9.909   7.528  68.203  1.00  0.00    -0.179 A  
HETATM   29  C   UNL     3     -10.928   7.660  69.145  1.00  0.00     0.002 C  
HETATM   30  C   UNL     3     -11.259   6.603  70.009  1.00  0.00    -0.369 C  
HETATM   31 BR   UNL     3     -12.673   6.989  71.253  1.00  0.00    -0.342 Br 
HETATM   32  C   UNL     3     -10.600   5.349  69.995  1.00  0.00    -0.284 C  
HETATM   33  C   UNL     3      -9.609   5.236  68.974  1.00  0.00    -0.144 C  
HETATM   34  O   UNL     3     -10.865   4.415  70.830  1.00  0.00     0.425 OA 
HETATM   35 BR   UNL     3      -8.636   3.580  68.754  1.00  0.00    -0.134 Br 
ENDBRANCH  14  16
TORSDOF 1
ENDMDL
MODEL      105
REMARK 921   NORMALIZED FREE ENERGY PREDICTED BY IDOCK:    1.22 KCAL/MOL
REMARK 922        TOTAL FREE ENERGY PREDICTED BY IDOCK:    0.53 KCAL/MOL
REMARK 923 INTER-LIGAND FREE ENERGY PREDICTED BY IDOCK:    1.36 KCAL/MOL
REMARK 924 INTRA-LIGAND FREE ENERGY PREDICTED BY IDOCK:   -0.82 KCAL/MOL
REMARK 927      BINDING AFFINITY PREDICTED BY RF-SCORE:    0.00 PKD
ROOT
HETATM    1 NA   UNL     1     -11.126  14.671  70.107  1.00  0.00    -0.225 Na 
HETATM    2 NA   UNL     2     -12.039   9.728  69.946  1.00  0.00    -0.299 Na 
HETATM    3  O   UNL     3     -11.059  11.324  69.274  1.00  0.00    -0.226 OA 
HETATM    4  C   UNL     3     -10.256  12.109  68.658  1.00  0.00    -0.174 C  
HETATM    5  C   UNL     3      -9.314  11.540  67.630  1.00  0.00    -0.171 A  
HETATM    6  O   UNL     3     -10.271  13.362  68.890  1.00  0.00    -0.164 OA 
HETATM    7  C   UNL     3      -9.748  10.544  66.723  1.00  0.00    -0.179 A  
HETATM    8 CL   UNL     3     -11.407   9.985  66.745  1.00  0.00     0.370 Cl 
HETATM    9  C   UNL     3      -8.866   9.997  65.763  1.00  0.00    -0.150 A  
HETATM   10 CL   UNL     3      -9.429   8.759  64.667  1.00  0.00     0.465 Cl 
HETATM   11  C   UNL     3      -7.540  10.446  65.680  1.00  0.00    -0.150 A  
HETATM   12  C   UNL     3      -7.089  11.438  66.564  1.00  0.00    -0.058 A  
HETATM   13 CL   UNL     3      -6.462   9.781  64.484  1.00  0.00    -0.105 Cl 
HETATM   14  C   UNL     3      -7.962  11.984  67.542  1.00  0.00    -0.159 A  
HETATM   15 CL   UNL     3      -5.444  12.010  66.462  1.00  0.00     0.094 Cl 
ENDROOT
BRANCH  14  16
HETATM   16  C   UNL     3      -7.413  12.979  68.526  1.00  0.00    -0.123 A  
HETATM   17  C   UNL     3      -7.521  14.317  68.298  1.00  0.00    -0.125 A  
HETATM   18  C   UNL     3      -8.127  14.841  67.073  1.00  0.00    -0.177 C  
HETATM   19  C   UNL     3      -8.376  16.146  66.893  1.00  0.00    -0.236 C  
HETATM   20 BR   UNL     3      -9.230  16.773  65.360  1.00  0.00     1.157 Br 
HETATM   21  C   UNL     3      -8.022  17.125  67.971  1.00  0.00    -0.212 C  
HETATM   22  O   UNL     3      -8.389  18.304  67.899  1.00  0.00    -0.241 OA 
HETATM   23  C   UNL     3      -7.263  16.611  69.150  1.00  0.00    -0.220 C  
HETATM   24  C   UNL     3      -7.049  15.283  69.300  1.00  0.00    -0.177 A  
HETATM   25 BR   UNL     3      -6.725  17.869  70.430  1.00  0.00     1.485 Br 
HETATM   26  O   UNL     3      -6.417  14.828  70.444  1.00  0.00    -0.175 OA 
HETATM   27  C   UNL     3      -6.312  13.487  70.702  1.00  0.00     0.187 A  
HETATM   28  C   UNL     3      -6.759  12.546  69.783  1.00  0.00     0.146 A  
HETATM   29  C   UNL     3      -6.573  11.199  70.090  1.00  0.00    -0.048 C  
HETATM   30  C   UNL     3      -6.012  10.803  71.315  1.00  0.00     0.283 C  
HETATM   31 BR   UNL     3      -5.863   8.903  71.559  1.00  0.00    -0.062 Br 
HETATM   32  C   UNL     3      -5.599  11.718  72.315  1.00  0.00     1.053 C  
HETATM   33  C   UNL     3      -5.747  13.086  71.934  1.00  0.00     0.507 C  
HETATM   34  O   UNL     3      -5.148  11.346  73.454  1.00  0.00    -0.324 OA 
HETATM   35 BR   UNL     3      -5.186  14.488  73.140  1.00  0.00    -0.206 Br 
ENDBRANCH  14  16
TORSDOF 1
ENDMDL
MODEL      106
REMARK 921   NORMALIZED FREE ENERGY PREDICTED BY IDOCK:    1.81 KCAL/MOL
REMARK 922        TOTAL FREE ENERGY PREDICTED BY IDOCK:    1.16 KCAL/MOL
REMARK 923 INTER-LIGAND FREE ENERGY PREDICTED BY IDOCK:    0.72 KCAL/MOL
REMARK 924 INTRA-LIGAND FREE ENERGY PREDICTED BY IDOCK:    0.44 KCAL/MOL
REMARK 927      BINDING AFFINITY PREDICTED BY RF-SCORE:    0.00 PKD
ROOT
HETATM    1 NA   UNL     1     -12.340  14.742  69.897  1.00  0.00    -0.261 Na 
HETATM    2 NA   UNL     2     -13.125  18.943  67.245  1.00  0.00     2.332 Na 
HETATM    3  O   UNL     3     -11.876  17.640  68.084  1.00  0.00     1.010 OA 
HETATM    4  C   UNL     3     -10.834  16.998  68.461  1.00  0.00    -0.310 C  
HETATM    5  C   UNL     3      -9.472  17.517  68.081  1.00  0.00    -0.291 A  
HETATM    6  O   UNL     3     -10.944  15.949  69.175  1.00  0.00    -0.245 OA 
HETATM    7  C   UNL     3      -9.185  18.902  68.128  1.00  0.00    -0.320 A  
HETATM    8 CL   UNL     3     -10.395  20.041  68.679  1.00  0.00    -0.496 Cl 
HETATM    9  C   UNL     3      -7.912  19.397  67.761  1.00  0.00    -0.286 A  
HETATM   10 CL   UNL     3      -7.595  21.113  67.817  1.00  0.00    -0.063 Cl 
HETATM   11  C   UNL     3      -6.899  18.516  67.355  1.00  0.00    -0.203 A  
HETATM   12  C   UNL     3      -7.158  17.138  67.306  1.00  0.00    -0.165 A  
HETATM   13 CL   UNL     3      -5.327  19.129  66.920  1.00  0.00    -0.163 Cl 
HETATM   14  C   UNL     3      -8.437  16.631  67.659  1.00  0.00    -0.200 A  
HETATM   15 CL   UNL     3      -5.899  16.034  66.813  1.00  0.00     0.331 Cl 
ENDROOT
BRANCH  14  16
HETATM   16  C   UNL     3      -8.697  15.159  67.508  1.00  0.00    -0.188 A  
HETATM   17  C   UNL     3      -8.043  14.251  68.284  1.00  0.00    -0.143 A  
HETATM   18  C   UNL     3      -7.031  14.662  69.258  1.00  0.00    -0.147 C  
HETATM   19  C   UNL     3      -6.482  13.805  70.131  1.00  0.00     0.009 C  
HETATM   20 BR   UNL     3      -5.261  14.375  71.418  1.00  0.00    -0.170 Br 
HETATM   21  C   UNL     3      -6.901  12.367  70.124  1.00  0.00     0.732 C  
HETATM   22  O   UNL     3      -6.535  11.598  71.021  1.00  0.00     0.189 OA 
HETATM   23  C   UNL     3      -7.815  11.918  69.031  1.00  0.00     0.101 C  
HETATM   24  C   UNL     3      -8.359  12.820  68.181  1.00  0.00    -0.172 A  
HETATM   25 BR   UNL     3      -8.233  10.093  68.968  1.00  0.00    -0.143 Br 
HETATM   26  O   UNL     3      -9.269  12.386  67.231  1.00  0.00    -0.176 OA 
HETATM   27  C   UNL     3      -9.950  13.282  66.452  1.00  0.00    -0.288 A  
HETATM   28  C   UNL     3      -9.686  14.643  66.531  1.00  0.00    -0.297 A  
HETATM   29  C   UNL     3     -10.381  15.491  65.671  1.00  0.00    -0.407 C  
HETATM   30  C   UNL     3     -11.363  14.995  64.798  1.00  0.00    -0.406 C  
HETATM   31 BR   UNL     3     -12.226  16.326  63.712  1.00  0.00     2.489 Br 
HETATM   32  C   UNL     3     -11.718  13.625  64.722  1.00  0.00    -0.377 C  
HETATM   33  C   UNL     3     -10.938  12.785  65.572  1.00  0.00    -0.280 C  
HETATM   34  O   UNL     3     -12.659  13.192  63.969  1.00  0.00    -0.635 OA 
HETATM   35 BR   UNL     3     -11.232  10.874  65.570  1.00  0.00     0.358 Br 
ENDBRANCH  14  16
TORSDOF 1
ENDMDL
MODEL      107
REMARK 921   NORMALIZED FREE ENERGY PREDICTED BY IDOCK:    2.49 KCAL/MOL
REMARK 922        TOTAL FREE ENERGY PREDICTED BY IDOCK:    1.88 KCAL/MOL
REMARK 923 INTER-LIGAND FREE ENERGY PREDICTED BY IDOCK:    0.83 KCAL/MOL
REMARK 924 INTRA-LIGAND FREE ENERGY PREDICTED BY IDOCK:    1.05 KCAL/MOL
REMARK 927      BINDING AFFINITY PREDICTED BY RF-SCORE:    0.00 PKD
ROOT
HETATM    1 NA   UNL     1      -6.665  12.790  68.340  1.00  0.00    -0.063 Na 
HETATM    2 NA   UNL     2      -7.431   8.050  66.841  1.00  0.00    -0.075 Na 
HETATM    3  O   UNL     3      -7.998   9.639  67.898  1.00  0.00    -0.097 OA 
HETATM    4  C   UNL     3      -8.643  10.462  68.636  1.00  0.00    -0.133 C  
HETATM    5  C   UNL     3      -9.950  10.033  69.249  1.00  0.00    -0.226 A  
HETATM    6  O   UNL     3      -8.174  11.622  68.874  1.00  0.00    -0.096 OA 
HETATM    7  C   UNL     3     -10.104   8.733  69.789  1.00  0.00    -0.196 A  
HETATM    8 CL   UNL     3      -8.761   7.611  69.799  1.00  0.00    -0.139 Cl 
HETATM    9  C   UNL     3     -11.332   8.320  70.355  1.00  0.00    -0.175 A  
HETATM   10 CL   UNL     3     -11.494   6.704  71.000  1.00  0.00    -0.359 Cl 
HETATM   11  C   UNL     3     -12.422   9.200  70.408  1.00  0.00     0.371 A  
HETATM   12  C   UNL     3     -12.291  10.496  69.885  1.00  0.00    -0.178 A  
HETATM   13 CL   UNL     3     -13.927   8.691  71.122  1.00  0.00    -0.207 Cl 
HETATM   14  C   UNL     3     -11.067  10.917  69.300  1.00  0.00    -0.305 A  
HETATM   15 CL   UNL     3     -13.638  11.602  69.955  1.00  0.00     1.917 Cl 
ENDROOT
BRANCH  14  16
HETATM   16  C   UNL     3     -10.998  12.281  68.673  1.00  0.00    -0.276 A  
HETATM   17  C   UNL     3     -10.765  12.425  67.339  1.00  0.00    -0.257 A  
HETATM   18  C   UNL     3     -10.526  11.271  66.473  1.00  0.00    -0.299 C  
HETATM   19  C   UNL     3     -10.440  11.377  65.139  1.00  0.00    -0.295 C  
HETATM   20 BR   UNL     3     -10.224   9.876  64.054  1.00  0.00     1.315 Br 
HETATM   21  C   UNL     3     -10.585  12.719  64.489  1.00  0.00    -0.360 C  
HETATM   22  O   UNL     3     -10.674  12.820  63.260  1.00  0.00    -0.235 OA 
HETATM   23  C   UNL     3     -10.672  13.914  65.382  1.00  0.00    -0.325 C  
HETATM   24  C   UNL     3     -10.773  13.760  66.722  1.00  0.00    -0.276 A  
HETATM   25 BR   UNL     3     -10.732  15.592  64.553  1.00  0.00     0.283 Br 
HETATM   26  O   UNL     3     -10.937  14.881  67.518  1.00  0.00    -0.285 OA 
HETATM   27  C   UNL     3     -11.189  14.759  68.859  1.00  0.00    -0.266 A  
HETATM   28  C   UNL     3     -11.201  13.513  69.473  1.00  0.00    -0.194 A  
HETATM   29  C   UNL     3     -11.414  13.469  70.849  1.00  0.00     0.711 C  
HETATM   30  C   UNL     3     -11.671  14.639  71.583  1.00  0.00    -0.177 C  
HETATM   31 BR   UNL     3     -11.963  14.366  73.463  1.00  0.00     0.434 Br 
HETATM   32  C   UNL     3     -11.735  15.928  70.997  1.00  0.00    -0.432 C  
HETATM   33  C   UNL     3     -11.448  15.935  69.599  1.00  0.00    -0.346 C  
HETATM   34  O   UNL     3     -12.034  16.979  71.663  1.00  0.00     0.531 OA 
HETATM   35 BR   UNL     3     -11.428  17.606  68.628  1.00  0.00     1.544 Br 
ENDBRANCH  14  16
TORSDOF 1
ENDMDL
MODEL      108
REMARK 921   NORMALIZED FREE ENERGY PREDICTED BY IDOCK:    2.94 KCAL/MOL
REMARK 922        TOTAL FREE ENERGY PREDICTED BY IDOCK:    2.36 KCAL/MOL
REMARK 923 INTER-LIGAND FREE ENERGY PREDICTED BY IDOCK:    1.45 KCAL/MOL
REMARK 924 INTRA-LIGAND FREE ENERGY PREDICTED BY IDOCK:    0.91 KCAL/MOL
REMARK 927      BINDING AFFINITY PREDICTED BY RF-SCORE:    0.00 PKD
ROOT
HETATM    1 NA   UNL     1     -13.553  13.745  69.480  1.00  0.00    -0.037 Na 
HETATM    2 NA   UNL     2     -12.523  18.523  68.293  1.00  0.00     0.909 Na 
HETATM    3  O   UNL     3     -11.906  16.678  68.714  1.00  0.00     0.006 OA 
HETATM    4  C   UNL     3     -11.199  15.628  68.903  1.00  0.00    -0.311 C  
HETATM    5  C   UNL     3      -9.702  15.712  68.760  1.00  0.00    -0.212 A  
HETATM    6  O   UNL     3     -11.749  14.528  69.237  1.00  0.00    -0.275 OA 
HETATM    7  C   UNL     3      -8.989  16.828  69.261  1.00  0.00    -0.008 A  
HETATM    8 CL   UNL     3      -9.827  18.113  70.104  1.00  0.00     1.142 Cl 
HETATM    9  C   UNL     3      -7.584  16.919  69.119  1.00  0.00    -0.157 A  
HETATM   10 CL   UNL     3      -6.736  18.315  69.737  1.00  0.00    -0.017 Cl 
HETATM   11  C   UNL     3      -6.866  15.892  68.490  1.00  0.00    -0.124 A  
HETATM   12  C   UNL     3      -7.551  14.773  67.991  1.00  0.00    -0.125 A  
HETATM   13 CL   UNL     3      -5.135  16.002  68.334  1.00  0.00    -0.094 Cl 
HETATM   14  C   UNL     3      -8.962  14.678  68.114  1.00  0.00    -0.179 A  
HETATM   15 CL   UNL     3      -6.664  13.486  67.216  1.00  0.00    -0.023 Cl 
ENDROOT
BRANCH  14  16
HETATM   16  C   UNL     3      -9.665  13.506  67.488  1.00  0.00    -0.228 A  
HETATM   17  C   UNL     3     -10.551  13.686  66.470  1.00  0.00    -0.282 A  
HETATM   18  C   UNL     3     -10.892  15.021  65.977  1.00  0.00    -0.334 C  
HETATM   19  C   UNL     3     -11.646  15.214  64.885  1.00  0.00    -0.336 C  
HETATM   20 BR   UNL     3     -11.990  16.924  64.229  1.00  0.00     2.762 Br 
HETATM   21  C   UNL     3     -12.175  14.033  64.129  1.00  0.00    -0.396 C  
HETATM   22  O   UNL     3     -12.730  14.182  63.033  1.00  0.00    -0.494 OA 
HETATM   23  C   UNL     3     -11.958  12.679  64.720  1.00  0.00    -0.402 C  
HETATM   24  C   UNL     3     -11.176  12.528  65.815  1.00  0.00    -0.320 A  
HETATM   25 BR   UNL     3     -12.729  11.226  63.825  1.00  0.00     1.275 Br 
HETATM   26  O   UNL     3     -10.923  11.253  66.291  1.00  0.00    -0.270 OA 
HETATM   27  C   UNL     3     -10.024  11.047  67.303  1.00  0.00    -0.181 A  
HETATM   28  C   UNL     3      -9.405  12.117  67.936  1.00  0.00    -0.192 A  
HETATM   29  C   UNL     3      -8.539  11.835  68.992  1.00  0.00     0.228 C  
HETATM   30  C   UNL     3      -8.252  10.510  69.361  1.00  0.00    -0.119 C  
HETATM   31 BR   UNL     3      -7.016  10.330  70.822  1.00  0.00     0.493 Br 
HETATM   32  C   UNL     3      -8.804   9.381  68.708  1.00  0.00    -0.132 C  
HETATM   33  C   UNL     3      -9.733   9.716  67.677  1.00  0.00    -0.149 C  
HETATM   34  O   UNL     3      -8.486   8.179  69.010  1.00  0.00    -0.127 OA 
HETATM   35 BR   UNL     3     -10.639   8.313  66.704  1.00  0.00     0.162 Br 
ENDBRANCH  14  16
TORSDOF 1
ENDMDL
MODEL      109
REMARK 921   NORMALIZED FREE ENERGY PREDICTED BY IDOCK:    3.14 KCAL/MOL
REMARK 922        TOTAL FREE ENERGY PREDICTED BY IDOCK:    2.57 KCAL/MOL
REMARK 923 INTER-LIGAND FREE ENERGY PREDICTED BY IDOCK:    2.77 KCAL/MOL
REMARK 924 INTRA-LIGAND FREE ENERGY PREDICTED BY IDOCK:   -0.19 KCAL/MOL
REMARK 927      BINDING AFFINITY PREDICTED BY RF-SCORE:    0.00 PKD
ROOT
HETATM    1 NA   UNL     1     -12.125   7.847  71.567  1.00  0.00    -0.265 Na 
HETATM    2 NA   UNL     2     -13.041  10.231  67.234  1.00  0.00     2.476 Na 
HETATM    3  O   UNL     3     -11.751   9.489  68.557  1.00  0.00     0.444 OA 
HETATM    4  C   UNL     3     -10.691   9.103  69.162  1.00  0.00    -0.172 C  
HETATM    5  C   UNL     3      -9.348   9.357  68.529  1.00  0.00    -0.139 A  
HETATM    6  O   UNL     3     -10.766   8.535  70.300  1.00  0.00    -0.223 OA 
HETATM    7  C   UNL     3      -9.072  10.587  67.885  1.00  0.00    -0.136 A  
HETATM    8 CL   UNL     3     -10.271  11.861  67.853  1.00  0.00    -0.195 Cl 
HETATM    9  C   UNL     3      -7.817  10.827  67.279  1.00  0.00    -0.113 A  
HETATM   10 CL   UNL     3      -7.513  12.350  66.480  1.00  0.00     0.337 Cl 
HETATM   11  C   UNL     3      -6.811   9.851  67.318  1.00  0.00    -0.083 A  
HETATM   12  C   UNL     3      -7.060   8.626  67.956  1.00  0.00    -0.082 A  
HETATM   13 CL   UNL     3      -5.262  10.158  66.584  1.00  0.00    -0.040 Cl 
HETATM   14  C   UNL     3      -8.321   8.368  68.556  1.00  0.00    -0.131 A  
HETATM   15 CL   UNL     3      -5.810   7.410  68.019  1.00  0.00    -0.030 Cl 
ENDROOT
BRANCH  14  16
HETATM   16  C   UNL     3      -8.574   7.011  69.151  1.00  0.00    -0.133 A  
HETATM   17  C   UNL     3      -8.516   6.818  70.497  1.00  0.00    -0.138 A  
HETATM   18  C   UNL     3      -8.160   7.902  71.414  1.00  0.00    -0.108 C  
HETATM   19  C   UNL     3      -8.238   7.774  72.746  1.00  0.00    -0.126 C  
HETATM   20 BR   UNL     3      -7.864   9.200  73.886  1.00  0.00     1.342 Br 
HETATM   21  C   UNL     3      -8.699   6.479  73.342  1.00  0.00    -0.123 C  
HETATM   22  O   UNL     3      -8.937   6.390  74.553  1.00  0.00    -0.144 OA 
HETATM   23  C   UNL     3      -8.912   5.327  72.415  1.00  0.00    -0.131 C  
HETATM   24  C   UNL     3      -8.838   5.506  71.075  1.00  0.00    -0.140 A  
HETATM   25 BR   UNL     3      -9.372   3.685  73.190  1.00  0.00    -0.131 Br 
HETATM   26  O   UNL     3      -9.123   4.440  70.238  1.00  0.00    -0.087 OA 
HETATM   27  C   UNL     3      -9.203   4.615  68.882  1.00  0.00    -0.129 A  
HETATM   28  C   UNL     3      -8.917   5.844  68.303  1.00  0.00    -0.112 A  
HETATM   29  C   UNL     3      -8.970   5.936  66.913  1.00  0.00    -0.115 C  
HETATM   30  C   UNL     3      -9.361   4.839  66.127  1.00  0.00    -0.152 C  
HETATM   31 BR   UNL     3      -9.394   5.173  64.235  1.00  0.00     0.416 Br 
HETATM   32  C   UNL     3      -9.725   3.582  66.669  1.00  0.00    -0.016 C  
HETATM   33  C   UNL     3      -9.596   3.514  68.089  1.00  0.00    -0.100 C  
HETATM   34  O   UNL     3     -10.142   2.610  65.949  1.00  0.00     0.607 OA 
HETATM   35 BR   UNL     3      -9.992   1.863  69.013  1.00  0.00     0.638 Br 
ENDBRANCH  14  16
TORSDOF 1
ENDMDL
MODEL      110
REMARK 921   NORMALIZED FREE ENERGY PREDICTED BY IDOCK:    3.23 KCAL/MOL
REMARK 922        TOTAL FREE ENERGY PREDICTED BY IDOCK:    2.66 KCAL/MOL
REMARK 923 INTER-LIGAND FREE ENERGY PREDICTED BY IDOCK:   -1.07 KCAL/MOL
REMARK 924 INTRA-LIGAND FREE ENERGY PREDICTED BY IDOCK:    3.73 KCAL/MOL
REMARK 927      BINDING AFFINITY PREDICTED BY RF-SCORE:    0.00 PKD
ROOT
HETATM    1 NA   UNL     1      -7.047  15.846  71.063  1.00  0.00     0.431 Na 
HETATM    2 NA   UNL     2      -5.155  15.068  66.468  1.00  0.00     0.571 Na 
HETATM    3  O   UNL     3      -6.470  14.615  67.892  1.00  0.00    -0.136 OA 
HETATM    4  C   UNL     3      -7.442  14.116  68.558  1.00  0.00    -0.123 C  
HETATM    5  C   UNL     3      -8.295  13.047  67.928  1.00  0.00    -0.170 A  
HETATM    6  O   UNL     3      -7.672  14.498  69.752  1.00  0.00     0.037 OA 
HETATM    7  C   UNL     3      -7.709  12.017  67.153  1.00  0.00    -0.161 A  
HETATM    8 CL   UNL     3      -5.972  11.936  66.952  1.00  0.00    -0.146 Cl 
HETATM    9  C   UNL     3      -8.505  11.016  66.548  1.00  0.00    -0.161 A  
HETATM   10 CL   UNL     3      -7.752   9.767  65.587  1.00  0.00    -0.111 Cl 
HETATM   11  C   UNL     3      -9.897  11.017  66.719  1.00  0.00    -0.197 A  
HETATM   12  C   UNL     3     -10.500  12.025  67.488  1.00  0.00    -0.212 A  
HETATM   13 CL   UNL     3     -10.871   9.773  65.986  1.00  0.00     0.208 Cl 
HETATM   14  C   UNL     3      -9.712  13.043  68.088  1.00  0.00    -0.228 A  
HETATM   15 CL   UNL     3     -12.230  12.027  67.715  1.00  0.00     0.069 Cl 
ENDROOT
BRANCH  14  16
HETATM   16  C   UNL     3     -10.406  14.151  68.829  1.00  0.00    -0.230 A  
HETATM   17  C   UNL     3     -11.330  13.875  69.791  1.00  0.00    -0.219 A  
HETATM   18  C   UNL     3     -11.720  12.501  70.109  1.00  0.00    -0.255 C  
HETATM   19  C   UNL     3     -12.514  12.200  71.147  1.00  0.00    -0.234 C  
HETATM   20 BR   UNL     3     -12.922  10.434  71.581  1.00  0.00    -0.589 Br 
HETATM   21  C   UNL     3     -13.039  13.296  72.023  1.00  0.00    -0.377 C  
HETATM   22  O   UNL     3     -13.634  13.034  73.075  1.00  0.00    -0.354 OA 
HETATM   23  C   UNL     3     -12.769  14.705  71.606  1.00  0.00    -0.331 C  
HETATM   24  C   UNL     3     -11.948  14.963  70.562  1.00  0.00    -0.309 A  
HETATM   25 BR   UNL     3     -13.534  16.062  72.646  1.00  0.00    -0.270 Br 
HETATM   26  O   UNL     3     -11.649  16.279  70.250  1.00  0.00    -0.306 OA 
HETATM   27  C   UNL     3     -10.711  16.579  69.298  1.00  0.00    -0.331 A  
HETATM   28  C   UNL     3     -10.097  15.575  68.559  1.00  0.00    -0.211 A  
HETATM   29  C   UNL     3      -9.191  15.957  67.573  1.00  0.00    -0.210 C  
HETATM   30  C   UNL     3      -8.858  17.308  67.374  1.00  0.00    -0.218 C  
HETATM   31 BR   UNL     3      -7.571  17.627  65.983  1.00  0.00    -0.174 Br 
HETATM   32  C   UNL     3      -9.405  18.366  68.142  1.00  0.00    -0.317 C  
HETATM   33  C   UNL     3     -10.375  17.937  69.096  1.00  0.00    -0.111 C  
HETATM   34  O   UNL     3      -9.047  19.586  67.996  1.00  0.00    -0.311 OA 
HETATM   35 BR   UNL     3     -11.279  19.238  70.203  1.00  0.00     4.619 Br 
ENDBRANCH  14  16
TORSDOF 1
ENDMDL
MODEL      111
REMARK 921   NORMALIZED FREE ENERGY PREDICTED BY IDOCK:    3.50 KCAL/MOL
REMARK 922        TOTAL FREE ENERGY PREDICTED BY IDOCK:    2.95 KCAL/MOL
REMARK 923 INTER-LIGAND FREE ENERGY PREDICTED BY IDOCK:    0.71 KCAL/MOL
REMARK 924 INTRA-LIGAND FREE ENERGY PREDICTED BY IDOCK:    2.23 KCAL/MOL
REMARK 927      BINDING AFFINITY PREDICTED BY RF-SCORE:    0.00 PKD
ROOT
HETATM    1 NA   UNL     1      -8.933   7.096  62.949  1.00  0.00    -0.358 Na 
HETATM    2 NA   UNL     2     -12.788   4.995  65.402  1.00  0.00     0.680 Na 
HETATM    3  O   UNL     3     -10.965   5.792  65.413  1.00  0.00     1.066 OA 
HETATM    4  C   UNL     3      -9.830   6.270  65.765  1.00  0.00     0.431 C  
HETATM    5  C   UNL     3      -9.450   6.265  67.222  1.00  0.00    -0.126 A  
HETATM    6  O   UNL     3      -9.019   6.720  64.892  1.00  0.00     0.284 OA 
HETATM    7  C   UNL     3      -9.737   5.147  68.042  1.00  0.00    -0.146 A  
HETATM    8 CL   UNL     3     -10.500   3.724  67.367  1.00  0.00     0.990 Cl 
HETATM    9  C   UNL     3      -9.393   5.141  69.414  1.00  0.00    -0.126 A  
HETATM   10 CL   UNL     3      -9.775   3.751  70.401  1.00  0.00    -0.260 Cl 
HETATM   11  C   UNL     3      -8.742   6.242  69.988  1.00  0.00    -0.141 A  
HETATM   12  C   UNL     3      -8.441   7.359  69.193  1.00  0.00    -0.133 A  
HETATM   13 CL   UNL     3      -8.305   6.222  71.674  1.00  0.00    -0.128 Cl 
HETATM   14  C   UNL     3      -8.795   7.383  67.818  1.00  0.00    -0.128 A  
HETATM   15 CL   UNL     3      -7.621   8.729  69.896  1.00  0.00    -0.062 Cl 
ENDROOT
BRANCH  14  16
HETATM   16  C   UNL     3      -8.533   8.633  67.026  1.00  0.00    -0.110 A  
HETATM   17  C   UNL     3      -7.637   8.634  66.000  1.00  0.00    -0.093 A  
HETATM   18  C   UNL     3      -6.862   7.441  65.657  1.00  0.00    -0.056 C  
HETATM   19  C   UNL     3      -6.086   7.376  64.564  1.00  0.00    -0.038 C  
HETATM   20 BR   UNL     3      -5.180   5.813  64.105  1.00  0.00    -0.017 Br 
HETATM   21  C   UNL     3      -5.990   8.559  63.650  1.00  0.00    -0.072 C  
HETATM   22  O   UNL     3      -5.417   8.468  62.558  1.00  0.00    -0.070 OA 
HETATM   23  C   UNL     3      -6.656   9.824  64.083  1.00  0.00    -0.120 C  
HETATM   24  C   UNL     3      -7.442   9.841  65.184  1.00  0.00    -0.122 A  
HETATM   25 BR   UNL     3      -6.424  11.325  62.986  1.00  0.00     1.137 Br 
HETATM   26  O   UNL     3      -8.114  11.006  65.513  1.00  0.00    -0.083 OA 
HETATM   27  C   UNL     3      -9.031  11.023  66.530  1.00  0.00    -0.173 A  
HETATM   28  C   UNL     3      -9.250   9.898  67.314  1.00  0.00    -0.156 A  
HETATM   29  C   UNL     3     -10.160  10.004  68.364  1.00  0.00    -0.186 C  
HETATM   30  C   UNL     3     -10.882  11.189  68.583  1.00  0.00    -0.209 C  
HETATM   31 BR   UNL     3     -12.106  11.127  70.064  1.00  0.00    -0.447 Br 
HETATM   32  C   UNL     3     -10.746  12.345  67.775  1.00  0.00    -0.221 C  
HETATM   33  C   UNL     3      -9.758  12.215  66.754  1.00  0.00    -0.207 C  
HETATM   34  O   UNL     3     -11.455  13.398  67.944  1.00  0.00    -0.279 OA 
HETATM   35 BR   UNL     3      -9.383  13.705  65.581  1.00  0.00     0.391 Br 
ENDBRANCH  14  16
TORSDOF 1
ENDMDL
MODEL      112
REMARK 921   NORMALIZED FREE ENERGY PREDICTED BY IDOCK:    3.60 KCAL/MOL
REMARK 922        TOTAL FREE ENERGY PREDICTED BY IDOCK:    3.06 KCAL/MOL
REMARK 923 INTER-LIGAND FREE ENERGY PREDICTED BY IDOCK:    2.17 KCAL/MOL
REMARK 924 INTRA-LIGAND FREE ENERGY PREDICTED BY IDOCK:    0.89 KCAL/MOL
REMARK 927      BINDING AFFINITY PREDICTED BY RF-SCORE:    0.00 PKD
ROOT
HETATM    1 NA   UNL     1      -6.662   7.697  70.463  1.00  0.00    -0.038 Na 
HETATM    2 NA   UNL     2     -11.247   5.881  71.453  1.00  0.00    -0.230 Na 
HETATM    3  O   UNL     3     -10.060   7.409  70.987  1.00  0.00    -0.191 OA 
HETATM    4  C   UNL     3      -9.601   8.559  70.659  1.00  0.00    -0.173 C  
HETATM    5  C   UNL     3     -10.556   9.712  70.494  1.00  0.00    -0.369 A  
HETATM    6  O   UNL     3      -8.350   8.735  70.500  1.00  0.00    -0.119 OA 
HETATM    7  C   UNL     3     -11.628   9.900  71.399  1.00  0.00    -0.352 A  
HETATM    8 CL   UNL     3     -11.839   8.822  72.762  1.00  0.00    -0.125 Cl 
HETATM    9  C   UNL     3     -12.534  10.975  71.243  1.00  0.00    -0.370 A  
HETATM   10 CL   UNL     3     -13.854  11.171  72.370  1.00  0.00     0.230 Cl 
HETATM   11  C   UNL     3     -12.378  11.889  70.191  1.00  0.00    -0.171 A  
HETATM   12  C   UNL     3     -11.318  11.726  69.285  1.00  0.00    -0.286 A  
HETATM   13 CL   UNL     3     -13.487  13.219  70.014  1.00  0.00     1.304 Cl 
HETATM   14  C   UNL     3     -10.411  10.643  69.423  1.00  0.00    -0.234 A  
HETATM   15 CL   UNL     3     -11.110  12.865  67.979  1.00  0.00    -0.266 Cl 
ENDROOT
BRANCH  14  16
HETATM   16  C   UNL     3      -9.345  10.456  68.380  1.00  0.00    -0.150 A  
HETATM   17  C   UNL     3      -9.329   9.347  67.590  1.00  0.00    -0.146 A  
HETATM   18  C   UNL     3     -10.312   8.275  67.751  1.00  0.00    -0.296 C  
HETATM   19  C   UNL     3     -10.405   7.248  66.893  1.00  0.00    -0.288 C  
HETATM   20 BR   UNL     3     -11.725   5.945  67.075  1.00  0.00     2.080 Br 
HETATM   21  C   UNL     3      -9.474   7.171  65.722  1.00  0.00     0.318 C  
HETATM   22  O   UNL     3      -9.646   6.330  64.832  1.00  0.00     0.863 OA 
HETATM   23  C   UNL     3      -8.374   8.179  65.646  1.00  0.00    -0.143 C  
HETATM   24  C   UNL     3      -8.327   9.208  66.523  1.00  0.00    -0.118 A  
HETATM   25 BR   UNL     3      -7.148   7.995  64.241  1.00  0.00    -0.082 Br 
HETATM   26  O   UNL     3      -7.345  10.173  66.377  1.00  0.00    -0.100 OA 
HETATM   27  C   UNL     3      -7.351  11.304  67.149  1.00  0.00    -0.130 A  
HETATM   28  C   UNL     3      -8.291  11.474  68.158  1.00  0.00    -0.152 A  
HETATM   29  C   UNL     3      -8.206  12.626  68.938  1.00  0.00     0.241 C  
HETATM   30  C   UNL     3      -7.242  13.614  68.672  1.00  0.00    -0.110 C  
HETATM   31 BR   UNL     3      -7.304  15.137  69.843  1.00  0.00     0.046 Br 
HETATM   32  C   UNL     3      -6.302  13.522  67.616  1.00  0.00    -0.147 C  
HETATM   33  C   UNL     3      -6.383  12.299  66.885  1.00  0.00     0.074 C  
HETATM   34  O   UNL     3      -5.471  14.456  67.343  1.00  0.00    -0.338 OA 
HETATM   35 BR   UNL     3      -5.146  11.958  65.439  1.00  0.00     2.133 Br 
ENDBRANCH  14  16
TORSDOF 1
ENDMDL
MODEL      113
REMARK 921   NORMALIZED FREE ENERGY PREDICTED BY IDOCK:    3.71 KCAL/MOL
REMARK 922        TOTAL FREE ENERGY PREDICTED BY IDOCK:    3.17 KCAL/MOL
REMARK 923 INTER-LIGAND FREE ENERGY PREDICTED BY IDOCK:   -1.18 KCAL/MOL
REMARK 924 INTRA-LIGAND FREE ENERGY PREDICTED BY IDOCK:    4.35 KCAL/MOL
REMARK 927      BINDING AFFINITY PREDICTED BY RF-SCORE:    0.00 PKD
ROOT
HETATM    1 NA   UNL     1      -9.797  11.293  64.625  1.00  0.00    -0.202 Na 
HETATM    2 NA   UNL     2      -9.893  15.998  66.400  1.00  0.00    -0.220 Na 
HETATM    3  O   UNL     3     -10.337  14.068  66.602  1.00  0.00    -0.271 OA 
HETATM    4  C   UNL     3     -10.727  12.933  67.047  1.00  0.00    -0.257 C  
HETATM    5  C   UNL     3     -11.372  12.857  68.406  1.00  0.00    -0.329 A  
HETATM    6  O   UNL     3     -10.598  11.882  66.340  1.00  0.00    -0.233 OA 
HETATM    7  C   UNL     3     -12.298  13.843  68.824  1.00  0.00    -0.021 A  
HETATM    8 CL   UNL     3     -12.752  15.148  67.749  1.00  0.00     1.059 Cl 
HETATM    9  C   UNL     3     -12.899  13.784  70.103  1.00  0.00     0.041 A  
HETATM   10 CL   UNL     3     -14.027  15.024  70.593  1.00  0.00    -0.023 Cl 
HETATM   11  C   UNL     3     -12.598  12.733  70.981  1.00  0.00    -0.271 A  
HETATM   12  C   UNL     3     -11.687  11.740  70.586  1.00  0.00     0.089 A  
HETATM   13 CL   UNL     3     -13.353  12.656  72.548  1.00  0.00    -0.432 Cl 
HETATM   14  C   UNL     3     -11.067  11.797  69.310  1.00  0.00    -0.278 A  
HETATM   15 CL   UNL     3     -11.316  10.423  71.667  1.00  0.00     0.337 Cl 
ENDROOT
BRANCH  14  16
HETATM   16  C   UNL     3     -10.033  10.763  68.962  1.00  0.00    -0.214 A  
HETATM   17  C   UNL     3     -10.281   9.438  69.150  1.00  0.00    -0.209 A  
HETATM   18  C   UNL     3     -11.536   8.967  69.738  1.00  0.00     0.257 C  
HETATM   19  C   UNL     3     -11.861   7.668  69.798  1.00  0.00     0.531 C  
HETATM   20 BR   UNL     3     -13.505   7.105  70.472  1.00  0.00     1.245 Br 
HETATM   21  C   UNL     3     -10.917   6.640  69.253  1.00  0.00    -0.295 C  
HETATM   22  O   UNL     3     -11.263   5.457  69.147  1.00  0.00     0.143 OA 
HETATM   23  C   UNL     3      -9.573   7.107  68.797  1.00  0.00    -0.144 C  
HETATM   24  C   UNL     3      -9.293   8.430  68.738  1.00  0.00    -0.143 A  
HETATM   25 BR   UNL     3      -8.363   5.795  68.232  1.00  0.00    -0.106 Br 
HETATM   26  O   UNL     3      -8.071   8.838  68.232  1.00  0.00    -0.111 OA 
HETATM   27  C   UNL     3      -7.806  10.164  68.019  1.00  0.00    -0.096 A  
HETATM   28  C   UNL     3      -8.721  11.142  68.385  1.00  0.00    -0.157 A  
HETATM   29  C   UNL     3      -8.364  12.474  68.185  1.00  0.00    -0.175 C  
HETATM   30  C   UNL     3      -7.145  12.816  67.576  1.00  0.00    -0.148 C  
HETATM   31 BR   UNL     3      -6.847  14.703  67.367  1.00  0.00     0.054 Br 
HETATM   32  C   UNL     3      -6.204  11.858  67.125  1.00  0.00    -0.154 C  
HETATM   33  C   UNL     3      -6.581  10.511  67.406  1.00  0.00    -0.067 C  
HETATM   34  O   UNL     3      -5.126  12.178  66.513  1.00  0.00    -0.337 OA 
HETATM   35 BR   UNL     3      -5.401   9.059  66.920  1.00  0.00    -0.040 Br 
ENDBRANCH  14  16
TORSDOF 1
ENDMDL
MODEL      114
REMARK 921   NORMALIZED FREE ENERGY PREDICTED BY IDOCK:    3.81 KCAL/MOL
REMARK 922        TOTAL FREE ENERGY PREDICTED BY IDOCK:    3.28 KCAL/MOL
REMARK 923 INTER-LIGAND FREE ENERGY PREDICTED BY IDOCK:   -3.16 KCAL/MOL
REMARK 924 INTRA-LIGAND FREE ENERGY PREDICTED BY IDOCK:    6.44 KCAL/MOL
REMARK 927      BINDING AFFINITY PREDICTED BY RF-SCORE:    0.00 PKD
ROOT
HETATM    1 NA   UNL     1      -9.870  11.455  64.909  1.00  0.00    -0.204 Na 
HETATM    2 NA   UNL     2      -9.475  16.125  66.735  1.00  0.00    -0.202 Na 
HETATM    3  O   UNL     3     -10.134  14.255  66.907  1.00  0.00    -0.256 OA 
HETATM    4  C   UNL     3     -10.656  13.166  67.333  1.00  0.00    -0.242 C  
HETATM    5  C   UNL     3     -11.330  13.150  68.680  1.00  0.00    -0.327 A  
HETATM    6  O   UNL     3     -10.631  12.113  66.617  1.00  0.00    -0.226 OA 
HETATM    7  C   UNL     3     -12.148  14.229  69.093  1.00  0.00    -0.302 A  
HETATM    8 CL   UNL     3     -12.434  15.586  68.025  1.00  0.00     0.657 Cl 
HETATM    9  C   UNL     3     -12.774  14.226  70.361  1.00  0.00    -0.295 A  
HETATM   10 CL   UNL     3     -13.766  15.579  70.846  1.00  0.00    -0.373 Cl 
HETATM   11  C   UNL     3     -12.608  13.140  71.232  1.00  0.00    -0.290 A  
HETATM   12  C   UNL     3     -11.807  12.055  70.842  1.00  0.00     0.314 A  
HETATM   13 CL   UNL     3     -13.395  13.133  72.786  1.00  0.00    -0.369 Cl 
HETATM   14  C   UNL     3     -11.161  12.054  69.577  1.00  0.00    -0.140 A  
HETATM   15 CL   UNL     3     -11.603  10.695  71.915  1.00  0.00     0.900 Cl 
ENDROOT
BRANCH  14  16
HETATM   16  C   UNL     3     -10.242  10.915  69.236  1.00  0.00    -0.190 A  
HETATM   17  C   UNL     3      -9.026  11.146  68.667  1.00  0.00    -0.162 A  
HETATM   18  C   UNL     3      -8.584  12.498  68.322  1.00  0.00    -0.173 C  
HETATM   19  C   UNL     3      -7.340  12.762  67.899  1.00  0.00    -0.120 C  
HETATM   20 BR   UNL     3      -6.779  14.505  67.551  1.00  0.00    -0.042 Br 
HETATM   21  C   UNL     3      -6.349  11.647  67.760  1.00  0.00    -0.067 C  
HETATM   22  O   UNL     3      -5.157  11.885  67.532  1.00  0.00    -0.058 OA 
HETATM   23  C   UNL     3      -6.845  10.252  67.962  1.00  0.00    -0.070 C  
HETATM   24  C   UNL     3      -8.104  10.032  68.406  1.00  0.00    -0.101 A  
HETATM   25 BR   UNL     3      -5.622   8.864  67.668  1.00  0.00    -0.039 Br 
HETATM   26  O   UNL     3      -8.509   8.733  68.664  1.00  0.00    -0.127 OA 
HETATM   27  C   UNL     3      -9.720   8.479  69.251  1.00  0.00    -0.173 A  
HETATM   28  C   UNL     3     -10.611   9.509  69.524  1.00  0.00    -0.238 A  
HETATM   29  C   UNL     3     -11.846   9.171  70.075  1.00  0.00     0.227 C  
HETATM   30  C   UNL     3     -12.155   7.840  70.404  1.00  0.00     0.201 C  
HETATM   31 BR   UNL     3     -13.896   7.584  71.176  1.00  0.00    -0.137 Br 
HETATM   32  C   UNL     3     -11.259   6.761  70.207  1.00  0.00    -0.334 C  
HETATM   33  C   UNL     3     -10.034   7.142  69.583  1.00  0.00    -0.174 C  
HETATM   34  O   UNL     3     -11.526   5.562  70.570  1.00  0.00     0.085 OA 
HETATM   35 BR   UNL     3      -8.702   5.801  69.177  1.00  0.00    -0.113 Br 
ENDBRANCH  14  16
TORSDOF 1
ENDMDL
MODEL      115
REMARK 921   NORMALIZED FREE ENERGY PREDICTED BY IDOCK:    3.91 KCAL/MOL
REMARK 922        TOTAL FREE ENERGY PREDICTED BY IDOCK:    3.39 KCAL/MOL
REMARK 923 INTER-LIGAND FREE ENERGY PREDICTED BY IDOCK:    0.94 KCAL/MOL
REMARK 924 INTRA-LIGAND FREE ENERGY PREDICTED BY IDOCK:    2.44 KCAL/MOL
REMARK 927      BINDING AFFINITY PREDICTED BY RF-SCORE:    0.00 PKD
ROOT
HETATM    1 NA   UNL     1      -8.305  11.694  71.377  1.00  0.00     3.777 Na 
HETATM    2 NA   UNL     2     -12.885  13.750  71.069  1.00  0.00    -0.277 Na 
HETATM    3  O   UNL     3     -11.302  12.924  70.190  1.00  0.00    -0.012 OA 
HETATM    4  C   UNL     3     -10.489  12.413  69.343  1.00  0.00     0.350 C  
HETATM    5  C   UNL     3     -10.882  12.349  67.891  1.00  0.00    -0.253 A  
HETATM    6  O   UNL     3      -9.348  11.987  69.717  1.00  0.00     1.419 OA 
HETATM    7  C   UNL     3     -11.547  13.435  67.272  1.00  0.00    -0.360 A  
HETATM    8 CL   UNL     3     -11.884  14.898  68.172  1.00  0.00    -0.339 Cl 
HETATM    9  C   UNL     3     -11.930  13.377  65.912  1.00  0.00    -0.409 A  
HETATM   10 CL   UNL     3     -12.761  14.729  65.183  1.00  0.00    -0.089 Cl 
HETATM   11  C   UNL     3     -11.641  12.241  65.141  1.00  0.00    -0.351 A  
HETATM   12  C   UNL     3     -10.977  11.155  65.731  1.00  0.00    -0.091 A  
HETATM   13 CL   UNL     3     -12.100  12.182  63.462  1.00  0.00    -0.628 Cl 
HETATM   14  C   UNL     3     -10.601  11.196  67.100  1.00  0.00    -0.286 A  
HETATM   15 CL   UNL     3     -10.604   9.743  64.777  1.00  0.00     0.987 Cl 
ENDROOT
BRANCH  14  16
HETATM   16  C   UNL     3      -9.971   9.977  67.713  1.00  0.00    -0.203 A  
HETATM   17  C   UNL     3      -8.847   9.428  67.176  1.00  0.00    -0.138 A  
HETATM   18  C   UNL     3      -8.235   9.966  65.960  1.00  0.00    -0.119 C  
HETATM   19  C   UNL     3      -7.052   9.535  65.498  1.00  0.00    -0.090 C  
HETATM   20 BR   UNL     3      -6.256  10.301  63.997  1.00  0.00    -0.071 Br 
HETATM   21  C   UNL     3      -6.314   8.458  66.233  1.00  0.00    -0.053 C  
HETATM   22  O   UNL     3      -5.154   8.162  65.923  1.00  0.00    -0.024 OA 
HETATM   23  C   UNL     3      -7.010   7.803  67.381  1.00  0.00    -0.078 C  
HETATM   24  C   UNL     3      -8.196   8.281  67.825  1.00  0.00    -0.127 A  
HETATM   25 BR   UNL     3      -6.122   6.379  68.214  1.00  0.00    -0.029 Br 
HETATM   26  O   UNL     3      -8.777   7.707  68.944  1.00  0.00    -0.135 OA 
HETATM   27  C   UNL     3      -9.898   8.253  69.510  1.00  0.00    -0.181 A  
HETATM   28  C   UNL     3     -10.532   9.344  68.931  1.00  0.00    -0.236 A  
HETATM   29  C   UNL     3     -11.697   9.815  69.534  1.00  0.00     0.106 C  
HETATM   30  C   UNL     3     -12.179   9.246  70.725  1.00  0.00    -0.134 C  
HETATM   31 BR   UNL     3     -13.783  10.052  71.411  1.00  0.00    -0.046 Br 
HETATM   32  C   UNL     3     -11.536   8.175  71.393  1.00  0.00    -0.278 C  
HETATM   33  C   UNL     3     -10.385   7.683  70.708  1.00  0.00    -0.203 C  
HETATM   34  O   UNL     3     -11.948   7.708  72.511  1.00  0.00    -0.288 OA 
HETATM   35 BR   UNL     3      -9.402   6.184  71.431  1.00  0.00    -0.165 Br 
ENDBRANCH  14  16
TORSDOF 1
ENDMDL
MODEL      116
REMARK 921   NORMALIZED FREE ENERGY PREDICTED BY IDOCK:    3.94 KCAL/MOL
REMARK 922        TOTAL FREE ENERGY PREDICTED BY IDOCK:    3.41 KCAL/MOL
REMARK 923 INTER-LIGAND FREE ENERGY PREDICTED BY IDOCK:   -1.25 KCAL/MOL
REMARK 924 INTRA-LIGAND FREE ENERGY PREDICTED BY IDOCK:    4.67 KCAL/MOL
REMARK 927      BINDING AFFINITY PREDICTED BY RF-SCORE:    0.00 PKD
ROOT
HETATM    1 NA   UNL     1      -5.721  10.913  67.690  1.00  0.00    -0.042 Na 
HETATM    2 NA   UNL     2      -6.911  11.446  62.832  1.00  0.00    -0.351 Na 
HETATM    3  O   UNL     3      -7.415  11.558  64.754  1.00  0.00     1.153 OA 
HETATM    4  C   UNL     3      -8.030  11.768  65.857  1.00  0.00     0.499 C  
HETATM    5  C   UNL     3      -9.437  12.304  65.825  1.00  0.00    -0.128 A  
HETATM    6  O   UNL     3      -7.471  11.502  66.971  1.00  0.00    -0.137 OA 
HETATM    7  C   UNL     3     -10.372  11.827  64.876  1.00  0.00    -0.289 A  
HETATM    8 CL   UNL     3      -9.927  10.564  63.749  1.00  0.00    -0.371 Cl 
HETATM    9  C   UNL     3     -11.692  12.334  64.833  1.00  0.00    -0.352 A  
HETATM   10 CL   UNL     3     -12.817  11.733  63.640  1.00  0.00    -0.499 Cl 
HETATM   11  C   UNL     3     -12.105  13.316  65.746  1.00  0.00    -0.441 A  
HETATM   12  C   UNL     3     -11.197  13.800  66.700  1.00  0.00    -0.318 A  
HETATM   13 CL   UNL     3     -13.736  13.925  65.699  1.00  0.00     1.081 Cl 
HETATM   14  C   UNL     3      -9.866  13.308  66.743  1.00  0.00    -0.264 A  
HETATM   15 CL   UNL     3     -11.706  15.013  67.846  1.00  0.00    -0.349 Cl 
ENDROOT
BRANCH  14  16
HETATM   16  C   UNL     3      -8.902  13.917  67.722  1.00  0.00    -0.189 A  
HETATM   17  C   UNL     3      -8.267  13.146  68.648  1.00  0.00    -0.000 A  
HETATM   18  C   UNL     3      -8.529  11.711  68.761  1.00  0.00    -0.027 C  
HETATM   19  C   UNL     3      -7.813  10.909  69.563  1.00  0.00     0.027 C  
HETATM   20 BR   UNL     3      -8.112   9.070  69.619  1.00  0.00    -0.110 Br 
HETATM   21  C   UNL     3      -6.702  11.483  70.387  1.00  0.00     0.624 C  
HETATM   22  O   UNL     3      -5.926  10.743  71.004  1.00  0.00    -0.324 OA 
HETATM   23  C   UNL     3      -6.538  12.967  70.390  1.00  0.00     0.572 C  
HETATM   24  C   UNL     3      -7.271  13.738  69.553  1.00  0.00     0.194 A  
HETATM   25 BR   UNL     3      -5.222  13.676  71.518  1.00  0.00    -0.206 Br 
HETATM   26  O   UNL     3      -7.038  15.102  69.516  1.00  0.00    -0.168 OA 
HETATM   27  C   UNL     3      -7.653  15.894  68.583  1.00  0.00    -0.161 A  
HETATM   28  C   UNL     3      -8.590  15.366  67.704  1.00  0.00    -0.176 A  
HETATM   29  C   UNL     3      -9.212  16.241  66.815  1.00  0.00    -0.253 C  
HETATM   30  C   UNL     3      -8.858  17.599  66.765  1.00  0.00    -0.258 C  
HETATM   31 BR   UNL     3      -9.812  18.634  65.456  1.00  0.00     0.902 Br 
HETATM   32  C   UNL     3      -7.863  18.177  67.592  1.00  0.00    -0.224 C  
HETATM   33  C   UNL     3      -7.298  17.261  68.529  1.00  0.00    -0.235 C  
HETATM   34  O   UNL     3      -7.503  19.401  67.493  1.00  0.00    -0.235 OA 
HETATM   35 BR   UNL     3      -5.963  17.871  69.787  1.00  0.00    -0.199 Br 
ENDBRANCH  14  16
TORSDOF 1
ENDMDL
MODEL      117
REMARK 921   NORMALIZED FREE ENERGY PREDICTED BY IDOCK:    3.95 KCAL/MOL
REMARK 922        TOTAL FREE ENERGY PREDICTED BY IDOCK:    3.42 KCAL/MOL
REMARK 923 INTER-LIGAND FREE ENERGY PREDICTED BY IDOCK:    1.18 KCAL/MOL
REMARK 924 INTRA-LIGAND FREE ENERGY PREDICTED BY IDOCK:    2.24 KCAL/MOL
REMARK 927      BINDING AFFINITY PREDICTED BY RF-SCORE:    0.00 PKD
ROOT
HETATM    1 NA   UNL     1     -10.602  14.522  71.974  1.00  0.00    -0.431 Na 
HETATM    2 NA   UNL     2     -10.813   9.961  69.864  1.00  0.00    -0.188 Na 
HETATM    3  O   UNL     3     -10.817  11.944  69.692  1.00  0.00    -0.040 OA 
HETATM    4  C   UNL     3     -10.813  13.142  69.240  1.00  0.00    -0.006 C  
HETATM    5  C   UNL     3     -10.877  13.368  67.753  1.00  0.00    -0.267 A  
HETATM    6  O   UNL     3     -10.785  14.134  70.039  1.00  0.00     0.096 OA 
HETATM    7  C   UNL     3     -11.729  12.586  66.937  1.00  0.00    -0.377 A  
HETATM    8 CL   UNL     3     -12.767  11.369  67.647  1.00  0.00     2.280 Cl 
HETATM    9  C   UNL     3     -11.784  12.786  65.538  1.00  0.00    -0.395 A  
HETATM   10 CL   UNL     3     -12.836  11.794  64.558  1.00  0.00     0.138 Cl 
HETATM   11  C   UNL     3     -11.003  13.779  64.931  1.00  0.00    -0.375 A  
HETATM   12  C   UNL     3     -10.155  14.572  65.721  1.00  0.00    -0.342 A  
HETATM   13 CL   UNL     3     -11.088  14.032  63.209  1.00  0.00     1.472 Cl 
HETATM   14  C   UNL     3     -10.080  14.370  67.124  1.00  0.00    -0.253 A  
HETATM   15 CL   UNL     3      -9.187  15.817  64.975  1.00  0.00     0.982 Cl 
ENDROOT
BRANCH  14  16
HETATM   16  C   UNL     3      -9.095  15.181  67.918  1.00  0.00    -0.179 A  
HETATM   17  C   UNL     3      -9.126  16.542  67.889  1.00  0.00    -0.206 A  
HETATM   18  C   UNL     3     -10.081  17.270  67.053  1.00  0.00    -0.303 C  
HETATM   19  C   UNL     3     -10.228  18.601  67.119  1.00  0.00    -0.379 C  
HETATM   20 BR   UNL     3     -11.514  19.490  66.105  1.00  0.00     1.219 Br 
HETATM   21  C   UNL     3      -9.388  19.395  68.072  1.00  0.00    -0.336 C  
HETATM   22  O   UNL     3      -9.618  20.594  68.269  1.00  0.00    -0.021 OA 
HETATM   23  C   UNL     3      -8.309  18.672  68.810  1.00  0.00    -0.263 C  
HETATM   24  C   UNL     3      -8.207  17.325  68.727  1.00  0.00    -0.231 A  
HETATM   25 BR   UNL     3      -7.192  19.701  69.907  1.00  0.00     0.220 Br 
HETATM   26  O   UNL     3      -7.251  16.674  69.488  1.00  0.00    -0.196 OA 
HETATM   27  C   UNL     3      -7.211  15.307  69.545  1.00  0.00    -0.205 A  
HETATM   28  C   UNL     3      -8.073  14.535  68.776  1.00  0.00    -0.146 A  
HETATM   29  C   UNL     3      -7.942  13.149  68.847  1.00  0.00     0.159 C  
HETATM   30  C   UNL     3      -7.013  12.550  69.715  1.00  0.00     0.381 C  
HETATM   31 BR   UNL     3      -7.003  10.628  69.684  1.00  0.00    -0.136 Br 
HETATM   32  C   UNL     3      -6.156  13.288  70.568  1.00  0.00    -0.039 C  
HETATM   33  C   UNL     3      -6.278  14.701  70.417  1.00  0.00    -0.168 C  
HETATM   34  O   UNL     3      -5.359  12.731  71.401  1.00  0.00    -0.270 OA 
HETATM   35 BR   UNL     3      -5.151  15.882  71.453  1.00  0.00    -0.010 Br 
ENDBRANCH  14  16
TORSDOF 1
ENDMDL
MODEL      118
REMARK 921   NORMALIZED FREE ENERGY PREDICTED BY IDOCK:    3.98 KCAL/MOL
REMARK 922        TOTAL FREE ENERGY PREDICTED BY IDOCK:    3.46 KCAL/MOL
REMARK 923 INTER-LIGAND FREE ENERGY PREDICTED BY IDOCK:    4.49 KCAL/MOL
REMARK 924 INTRA-LIGAND FREE ENERGY PREDICTED BY IDOCK:   -1.03 KCAL/MOL
REMARK 927      BINDING AFFINITY PREDICTED BY RF-SCORE:    0.00 PKD
ROOT
HETATM    1 NA   UNL     1     -11.181  14.689  70.129  1.00  0.00    -0.223 Na 
HETATM    2 NA   UNL     2     -11.814   9.752  69.403  1.00  0.00    -0.345 Na 
HETATM    3  O   UNL     3     -10.912  11.463  68.935  1.00  0.00    -0.200 OA 
HETATM    4  C   UNL     3     -10.143  12.353  68.429  1.00  0.00    -0.217 C  
HETATM    5  C   UNL     3      -9.152  11.953  67.368  1.00  0.00    -0.178 A  
HETATM    6  O   UNL     3     -10.232  13.570  68.796  1.00  0.00    -0.216 OA 
HETATM    7  C   UNL     3      -9.513  11.042  66.347  1.00  0.00    -0.193 A  
HETATM    8 CL   UNL     3     -11.138  10.396  66.266  1.00  0.00     0.088 Cl 
HETATM    9  C   UNL     3      -8.583  10.653  65.354  1.00  0.00    -0.179 A  
HETATM   10 CL   UNL     3      -9.056   9.515  64.116  1.00  0.00    -0.251 Cl 
HETATM   11  C   UNL     3      -7.283  11.178  65.354  1.00  0.00     0.442 A  
HETATM   12  C   UNL     3      -6.905  12.089  66.353  1.00  0.00     0.518 A  
HETATM   13 CL   UNL     3      -6.148  10.709  64.119  1.00  0.00    -0.006 Cl 
HETATM   14  C   UNL     3      -7.825  12.475  67.363  1.00  0.00    -0.175 A  
HETATM   15 CL   UNL     3      -5.292  12.756  66.354  1.00  0.00     1.449 Cl 
ENDROOT
BRANCH  14  16
HETATM   16  C   UNL     3      -7.351  13.383  68.463  1.00  0.00    -0.111 A  
HETATM   17  C   UNL     3      -6.954  12.877  69.663  1.00  0.00     0.276 A  
HETATM   18  C   UNL     3      -7.015  11.443  69.950  1.00  0.00     0.119 C  
HETATM   19  C   UNL     3      -6.495  10.909  71.064  1.00  0.00     0.741 C  
HETATM   20 BR   UNL     3      -6.510   9.069  71.360  1.00  0.00    -0.062 Br 
HETATM   21  C   UNL     3      -5.827  11.794  72.071  1.00  0.00     1.467 C  
HETATM   22  O   UNL     3      -5.199  11.310  73.020  1.00  0.00    -0.237 OA 
HETATM   23  C   UNL     3      -5.903  13.270  71.853  1.00  0.00     0.555 C  
HETATM   24  C   UNL     3      -6.422  13.766  70.706  1.00  0.00     0.292 A  
HETATM   25 BR   UNL     3      -5.167  14.365  73.183  1.00  0.00    -0.273 Br 
HETATM   26  O   UNL     3      -6.402  15.134  70.494  1.00  0.00    -0.088 OA 
HETATM   27  C   UNL     3      -6.782  15.664  69.290  1.00  0.00    -0.158 A  
HETATM   28  C   UNL     3      -7.277  14.852  68.277  1.00  0.00    -0.114 A  
HETATM   29  C   UNL     3      -7.691  15.466  67.097  1.00  0.00    -0.246 C  
HETATM   30  C   UNL     3      -7.553  16.852  66.911  1.00  0.00    -0.215 C  
HETATM   31 BR   UNL     3      -8.159  17.502  65.207  1.00  0.00     2.537 Br 
HETATM   32  C   UNL     3      -6.995  17.717  67.884  1.00  0.00    -0.187 C  
HETATM   33  C   UNL     3      -6.644  17.057  69.100  1.00  0.00    -0.230 C  
HETATM   34  O   UNL     3      -6.814  18.967  67.679  1.00  0.00    -0.210 OA 
HETATM   35 BR   UNL     3      -5.918  18.077  70.574  1.00  0.00     0.323 Br 
ENDBRANCH  14  16
TORSDOF 1
ENDMDL
MODEL      119
REMARK 921   NORMALIZED FREE ENERGY PREDICTED BY IDOCK:    4.55 KCAL/MOL
REMARK 922        TOTAL FREE ENERGY PREDICTED BY IDOCK:    4.06 KCAL/MOL
REMARK 923 INTER-LIGAND FREE ENERGY PREDICTED BY IDOCK:    3.19 KCAL/MOL
REMARK 924 INTRA-LIGAND FREE ENERGY PREDICTED BY IDOCK:    0.87 KCAL/MOL
REMARK 927      BINDING AFFINITY PREDICTED BY RF-SCORE:    0.00 PKD
ROOT
HETATM    1 NA   UNL     1     -13.504  13.013  68.889  1.00  0.00     0.951 Na 
HETATM    2 NA   UNL     2     -12.576  17.871  67.971  1.00  0.00     1.051 Na 
HETATM    3  O   UNL     3     -11.923  16.040  68.398  1.00  0.00    -0.220 OA 
HETATM    4  C   UNL     3     -11.192  15.015  68.629  1.00  0.00    -0.278 C  
HETATM    5  C   UNL     3      -9.694  15.169  68.651  1.00  0.00    -0.216 A  
HETATM    6  O   UNL     3     -11.723  13.881  68.866  1.00  0.00    -0.291 OA 
HETATM    7  C   UNL     3      -9.091  16.295  69.261  1.00  0.00    -0.185 A  
HETATM    8 CL   UNL     3     -10.073  17.511  70.048  1.00  0.00     0.544 Cl 
HETATM    9  C   UNL     3      -7.685  16.451  69.275  1.00  0.00    -0.171 A  
HETATM   10 CL   UNL     3      -6.973  17.859  70.024  1.00  0.00     0.529 Cl 
HETATM   11  C   UNL     3      -6.857  15.480  68.695  1.00  0.00    -0.115 A  
HETATM   12  C   UNL     3      -7.432  14.351  68.090  1.00  0.00    -0.128 A  
HETATM   13 CL   UNL     3      -5.125  15.669  68.730  1.00  0.00    -0.098 Cl 
HETATM   14  C   UNL     3      -8.842  14.191  68.057  1.00  0.00    -0.182 A  
HETATM   15 CL   UNL     3      -6.409  13.132  67.375  1.00  0.00    -0.140 Cl 
ENDROOT
BRANCH  14  16
HETATM   16  C   UNL     3      -9.419  13.013  67.322  1.00  0.00    -0.224 A  
HETATM   17  C   UNL     3      -9.165  11.741  67.736  1.00  0.00    -0.181 A  
HETATM   18  C   UNL     3      -8.289  11.464  68.875  1.00  0.00    -0.042 C  
HETATM   19  C   UNL     3      -8.143  10.234  69.389  1.00  0.00    -0.163 C  
HETATM   20 BR   UNL     3      -7.089   9.927  70.895  1.00  0.00     0.282 Br 
HETATM   21  C   UNL     3      -8.889   9.083  68.786  1.00  0.00    -0.137 C  
HETATM   22  O   UNL     3      -8.899   7.977  69.339  1.00  0.00    -0.142 OA 
HETATM   23  C   UNL     3      -9.658   9.339  67.531  1.00  0.00    -0.149 C  
HETATM   24  C   UNL     3      -9.793  10.599  67.056  1.00  0.00    -0.185 A  
HETATM   25 BR   UNL     3     -10.486   7.864  66.725  1.00  0.00    -0.186 Br 
HETATM   26  O   UNL     3     -10.582  10.816  65.939  1.00  0.00    -0.225 OA 
HETATM   27  C   UNL     3     -10.863  12.088  65.515  1.00  0.00    -0.292 A  
HETATM   28  C   UNL     3     -10.297  13.191  66.141  1.00  0.00    -0.287 A  
HETATM   29  C   UNL     3     -10.588  14.452  65.625  1.00  0.00    -0.339 C  
HETATM   30  C   UNL     3     -11.475  14.608  64.546  1.00  0.00    -0.335 C  
HETATM   31 BR   UNL     3     -11.765  16.427  63.997  1.00  0.00     1.262 Br 
HETATM   32  C   UNL     3     -12.130  13.524  63.913  1.00  0.00    -0.438 C  
HETATM   33  C   UNL     3     -11.755  12.248  64.431  1.00  0.00    -0.365 C  
HETATM   34  O   UNL     3     -12.986  13.682  62.973  1.00  0.00    -0.205 OA 
HETATM   35 BR   UNL     3     -12.497  10.639  63.659  1.00  0.00     4.493 Br 
ENDBRANCH  14  16
TORSDOF 1
ENDMDL
MODEL      120
REMARK 921   NORMALIZED FREE ENERGY PREDICTED BY IDOCK:    4.85 KCAL/MOL
REMARK 922        TOTAL FREE ENERGY PREDICTED BY IDOCK:    4.38 KCAL/MOL
REMARK 923 INTER-LIGAND FREE ENERGY PREDICTED BY IDOCK:   -1.72 KCAL/MOL
REMARK 924 INTRA-LIGAND FREE ENERGY PREDICTED BY IDOCK:    6.10 KCAL/MOL
REMARK 927      BINDING AFFINITY PREDICTED BY RF-SCORE:    0.00 PKD
ROOT
HETATM    1 NA   UNL     1     -10.153  13.993  65.461  1.00  0.00    -0.257 Na 
HETATM    2 NA   UNL     2     -11.107  16.480  69.727  1.00  0.00    -0.254 Na 
HETATM    3  O   UNL     3     -11.027  14.774  68.705  1.00  0.00    -0.240 OA 
HETATM    4  C   UNL     3     -11.049  13.541  68.361  1.00  0.00    -0.271 C  
HETATM    5  C   UNL     3     -11.427  12.499  69.381  1.00  0.00    -0.327 A  
HETATM    6  O   UNL     3     -10.784  13.199  67.163  1.00  0.00    -0.253 OA 
HETATM    7  C   UNL     3     -12.485  12.728  70.292  1.00  0.00    -0.105 A  
HETATM    8 CL   UNL     3     -13.413  14.210  70.222  1.00  0.00     0.360 Cl 
HETATM    9  C   UNL     3     -12.837  11.758  71.260  1.00  0.00    -0.308 A  
HETATM   10 CL   UNL     3     -14.140  12.077  72.379  1.00  0.00     0.264 Cl 
HETATM   11  C   UNL     3     -12.150  10.537  71.324  1.00  0.00    -0.332 A  
HETATM   12  C   UNL     3     -11.101  10.285  70.426  1.00  0.00    -0.319 A  
HETATM   13 CL   UNL     3     -12.599   9.340  72.507  1.00  0.00    -0.337 Cl 
HETATM   14  C   UNL     3     -10.729  11.257  69.460  1.00  0.00    -0.147 A  
HETATM   15 CL   UNL     3     -10.248   8.765  70.492  1.00  0.00    -0.225 Cl 
ENDROOT
BRANCH  14  16
HETATM   16  C   UNL     3      -9.544  10.983  68.578  1.00  0.00    -0.187 A  
HETATM   17  C   UNL     3      -9.380   9.766  67.989  1.00  0.00    -0.138 A  
HETATM   18  C   UNL     3     -10.316   8.666  68.227  1.00  0.00    -0.252 C  
HETATM   19  C   UNL     3     -10.256   7.511  67.548  1.00  0.00    -0.223 C  
HETATM   20 BR   UNL     3     -11.516   6.162  67.809  1.00  0.00     0.852 Br 
HETATM   21  C   UNL     3      -9.197   7.314  66.507  1.00  0.00    -0.157 C  
HETATM   22  O   UNL     3      -9.223   6.331  65.757  1.00  0.00    -0.090 OA 
HETATM   23  C   UNL     3      -8.151   8.372  66.376  1.00  0.00    -0.104 C  
HETATM   24  C   UNL     3      -8.259   9.530  67.069  1.00  0.00    -0.113 A  
HETATM   25 BR   UNL     3      -6.767   8.054  65.154  1.00  0.00    -0.051 Br 
HETATM   26  O   UNL     3      -7.320  10.527  66.864  1.00  0.00    -0.101 OA 
HETATM   27  C   UNL     3      -7.474  11.763  67.432  1.00  0.00    -0.143 A  
HETATM   28  C   UNL     3      -8.528  12.025  68.297  1.00  0.00    -0.167 A  
HETATM   29  C   UNL     3      -8.594  13.290  68.878  1.00  0.00     0.261 C  
HETATM   30  C   UNL     3      -7.661  14.289  68.551  1.00  0.00    -0.137 C  
HETATM   31 BR   UNL     3      -7.936  15.972  69.438  1.00  0.00    -0.055 Br 
HETATM   32  C   UNL     3      -6.605  14.096  67.627  1.00  0.00    -0.155 C  
HETATM   33  C   UNL     3      -6.537  12.770  67.105  1.00  0.00     0.056 C  
HETATM   34  O   UNL     3      -5.800  15.032  67.287  1.00  0.00    -0.318 OA 
HETATM   35 BR   UNL     3      -5.129  12.291  65.871  1.00  0.00     2.257 Br 
ENDBRANCH  14  16
TORSDOF 1
ENDMDL
MODEL      121
REMARK 921   NORMALIZED FREE ENERGY PREDICTED BY IDOCK:    4.94 KCAL/MOL
REMARK 922        TOTAL FREE ENERGY PREDICTED BY IDOCK:    4.47 KCAL/MOL
REMARK 923 INTER-LIGAND FREE ENERGY PREDICTED BY IDOCK:    2.72 KCAL/MOL
REMARK 924 INTRA-LIGAND FREE ENERGY PREDICTED BY IDOCK:    1.76 KCAL/MOL
REMARK 927      BINDING AFFINITY PREDICTED BY RF-SCORE:    0.00 PKD
ROOT
HETATM    1 NA   UNL     1     -11.119  14.919  72.004  1.00  0.00    -0.346 Na 
HETATM    2 NA   UNL     2     -11.399  10.314  70.000  1.00  0.00    -0.198 Na 
HETATM    3  O   UNL     3     -11.308  12.290  69.778  1.00  0.00    -0.194 OA 
HETATM    4  C   UNL     3     -11.227  13.474  69.298  1.00  0.00    -0.231 C  
HETATM    5  C   UNL     3     -11.193  13.662  67.804  1.00  0.00    -0.310 A  
HETATM    6  O   UNL     3     -11.204  14.486  70.072  1.00  0.00    -0.247 OA 
HETATM    7  C   UNL     3     -12.028  12.894  66.958  1.00  0.00    -0.325 A  
HETATM    8 CL   UNL     3     -13.157  11.740  67.635  1.00  0.00     4.138 Cl 
HETATM    9  C   UNL     3     -11.993  13.057  65.554  1.00  0.00    -0.424 A  
HETATM   10 CL   UNL     3     -13.026  12.083  64.537  1.00  0.00    -0.093 Cl 
HETATM   11  C   UNL     3     -11.135  14.001  64.970  1.00  0.00    -0.363 A  
HETATM   12  C   UNL     3     -10.303  14.779  65.790  1.00  0.00    -0.340 A  
HETATM   13 CL   UNL     3     -11.108  14.210  63.241  1.00  0.00     1.681 Cl 
HETATM   14  C   UNL     3     -10.319  14.613  67.200  1.00  0.00    -0.265 A  
HETATM   15 CL   UNL     3      -9.241  15.963  65.073  1.00  0.00     1.048 Cl 
ENDROOT
BRANCH  14  16
HETATM   16  C   UNL     3      -9.349  15.404  68.031  1.00  0.00    -0.196 A  
HETATM   17  C   UNL     3      -8.434  14.777  68.821  1.00  0.00    -0.170 A  
HETATM   18  C   UNL     3      -8.387  13.318  68.932  1.00  0.00     0.225 C  
HETATM   19  C   UNL     3      -7.407  12.677  69.585  1.00  0.00     0.658 C  
HETATM   20 BR   UNL     3      -7.325  10.816  69.633  1.00  0.00    -0.057 Br 
HETATM   21  C   UNL     3      -6.312  13.462  70.240  1.00  0.00     0.055 C  
HETATM   22  O   UNL     3      -5.317  12.893  70.703  1.00  0.00    -0.123 OA 
HETATM   23  C   UNL     3      -6.445  14.950  70.260  1.00  0.00    -0.124 C  
HETATM   24  C   UNL     3      -7.441  15.557  69.574  1.00  0.00    -0.200 A  
HETATM   25 BR   UNL     3      -5.130  15.909  71.187  1.00  0.00    -0.097 Br 
HETATM   26  O   UNL     3      -7.490  16.940  69.541  1.00  0.00    -0.096 OA 
HETATM   27  C   UNL     3      -8.391  17.592  68.741  1.00  0.00    -0.219 A  
HETATM   28  C   UNL     3      -9.335  16.886  68.007  1.00  0.00    -0.238 A  
HETATM   29  C   UNL     3     -10.252  17.617  67.255  1.00  0.00    -0.343 C  
HETATM   30  C   UNL     3     -10.185  19.019  67.189  1.00  0.00    -0.388 C  
HETATM   31 BR   UNL     3     -11.522  19.841  66.080  1.00  0.00     1.284 Br 
HETATM   32  C   UNL     3      -9.203  19.785  67.865  1.00  0.00    -0.340 C  
HETATM   33  C   UNL     3      -8.325  19.002  68.673  1.00  0.00    -0.361 C  
HETATM   34  O   UNL     3      -9.111  21.056  67.747  1.00  0.00    -0.043 OA 
HETATM   35 BR   UNL     3      -6.951  19.869  69.721  1.00  0.00    -0.042 Br 
ENDBRANCH  14  16
TORSDOF 1
ENDMDL
MODEL      122
REMARK 921   NORMALIZED FREE ENERGY PREDICTED BY IDOCK:    4.95 KCAL/MOL
REMARK 922        TOTAL FREE ENERGY PREDICTED BY IDOCK:    4.49 KCAL/MOL
REMARK 923 INTER-LIGAND FREE ENERGY PREDICTED BY IDOCK:    4.27 KCAL/MOL
REMARK 924 INTRA-LIGAND FREE ENERGY PREDICTED BY IDOCK:    0.22 KCAL/MOL
REMARK 927      BINDING AFFINITY PREDICTED BY RF-SCORE:    0.00 PKD
ROOT
HETATM    1 NA   UNL     1      -5.681   9.266  68.257  1.00  0.00    -0.035 Na 
HETATM    2 NA   UNL     2      -7.300   5.515  71.192  1.00  0.00    -0.062 Na 
HETATM    3  O   UNL     3      -7.626   7.249  70.270  1.00  0.00    -0.086 OA 
HETATM    4  C   UNL     3      -8.160   8.312  69.796  1.00  0.00    -0.118 C  
HETATM    5  C   UNL     3      -9.600   8.617  70.113  1.00  0.00    -0.181 A  
HETATM    6  O   UNL     3      -7.475   9.119  69.087  1.00  0.00    -0.070 OA 
HETATM    7  C   UNL     3     -10.117   8.399  71.413  1.00  0.00    -0.215 A  
HETATM    8 CL   UNL     3      -9.079   7.815  72.695  1.00  0.00    -0.208 Cl 
HETATM    9  C   UNL     3     -11.472   8.672  71.714  1.00  0.00    -0.324 A  
HETATM   10 CL   UNL     3     -12.082   8.379  73.324  1.00  0.00     0.652 Cl 
HETATM   11  C   UNL     3     -12.329   9.182  70.729  1.00  0.00    -0.053 A  
HETATM   12  C   UNL     3     -11.837   9.413  69.435  1.00  0.00     0.649 A  
HETATM   13 CL   UNL     3     -13.992   9.533  71.110  1.00  0.00    -0.144 Cl 
HETATM   14  C   UNL     3     -10.483   9.128  69.117  1.00  0.00    -0.230 A  
HETATM   15 CL   UNL     3     -12.894  10.058  68.205  1.00  0.00     4.295 Cl 
ENDROOT
BRANCH  14  16
HETATM   16  C   UNL     3     -10.021   9.306  67.698  1.00  0.00    -0.245 A  
HETATM   17  C   UNL     3      -9.939  10.547  67.141  1.00  0.00    -0.234 A  
HETATM   18  C   UNL     3     -10.340  11.746  67.877  1.00  0.00    -0.209 C  
HETATM   19  C   UNL     3     -10.131  12.984  67.405  1.00  0.00    -0.231 C  
HETATM   20 BR   UNL     3     -10.572  14.494  68.404  1.00  0.00    -0.253 Br 
HETATM   21  C   UNL     3      -9.471  13.170  66.073  1.00  0.00    -0.089 C  
HETATM   22  O   UNL     3      -9.121  14.294  65.693  1.00  0.00     0.186 OA 
HETATM   23  C   UNL     3      -9.206  11.948  65.256  1.00  0.00     0.094 C  
HETATM   24  C   UNL     3      -9.416  10.717  65.778  1.00  0.00    -0.204 A  
HETATM   25 BR   UNL     3      -8.490  12.208  63.545  1.00  0.00     2.538 Br 
HETATM   26  O   UNL     3      -9.081   9.602  65.029  1.00  0.00    -0.203 OA 
HETATM   27  C   UNL     3      -9.140   8.347  65.574  1.00  0.00    -0.049 A  
HETATM   28  C   UNL     3      -9.617   8.150  66.863  1.00  0.00    -0.269 A  
HETATM   29  C   UNL     3      -9.697   6.841  67.333  1.00  0.00    -0.164 C  
HETATM   30  C   UNL     3      -9.248   5.760  66.555  1.00  0.00    -0.143 C  
HETATM   31 BR   UNL     3      -9.419   4.038  67.390  1.00  0.00    -0.227 Br 
HETATM   32  C   UNL     3      -8.693   5.910  65.260  1.00  0.00    -0.072 C  
HETATM   33  C   UNL     3      -8.690   7.258  64.793  1.00  0.00     0.360 C  
HETATM   34  O   UNL     3      -8.228   4.926  64.586  1.00  0.00    -0.111 OA 
HETATM   35 BR   UNL     3      -8.024   7.663  63.024  1.00  0.00    -0.073 Br 
ENDBRANCH  14  16
TORSDOF 1
ENDMDL
MODEL      123
REMARK 921   NORMALIZED FREE ENERGY PREDICTED BY IDOCK:    5.05 KCAL/MOL
REMARK 922        TOTAL FREE ENERGY PREDICTED BY IDOCK:    4.59 KCAL/MOL
REMARK 923 INTER-LIGAND FREE ENERGY PREDICTED BY IDOCK:    0.97 KCAL/MOL
REMARK 924 INTRA-LIGAND FREE ENERGY PREDICTED BY IDOCK:    3.62 KCAL/MOL
REMARK 927      BINDING AFFINITY PREDICTED BY RF-SCORE:    0.00 PKD
ROOT
HETATM    1 NA   UNL     1     -10.552  11.799  71.888  1.00  0.00     2.450 Na 
HETATM    2 NA   UNL     2      -6.491  10.423  69.257  1.00  0.00    -0.042 Na 
HETATM    3  O   UNL     3      -8.358  11.112  69.315  1.00  0.00    -0.043 OA 
HETATM    4  C   UNL     3      -9.506  11.590  69.010  1.00  0.00     0.086 C  
HETATM    5  C   UNL     3      -9.833  11.851  67.563  1.00  0.00    -0.194 A  
HETATM    6  O   UNL     3     -10.374  11.817  69.914  1.00  0.00     0.581 OA 
HETATM    7  C   UNL     3      -9.450  10.932  66.557  1.00  0.00    -0.185 A  
HETATM    8 CL   UNL     3      -8.628   9.446  66.978  1.00  0.00    -0.127 Cl 
HETATM    9  C   UNL     3      -9.744  11.177  65.195  1.00  0.00    -0.250 A  
HETATM   10 CL   UNL     3      -9.244  10.030  63.976  1.00  0.00    -0.298 Cl 
HETATM   11  C   UNL     3     -10.439  12.335  64.816  1.00  0.00    -0.296 A  
HETATM   12  C   UNL     3     -10.836  13.257  65.797  1.00  0.00    -0.274 A  
HETATM   13 CL   UNL     3     -10.813  12.623  63.139  1.00  0.00    -0.105 Cl 
HETATM   14  C   UNL     3     -10.533  13.029  67.165  1.00  0.00    -0.243 A  
HETATM   15 CL   UNL     3     -11.711  14.694  65.336  1.00  0.00    -0.348 Cl 
ENDROOT
BRANCH  14  16
HETATM   16  C   UNL     3     -10.898  14.083  68.172  1.00  0.00    -0.260 A  
HETATM   17  C   UNL     3     -11.754  13.806  69.194  1.00  0.00    -0.379 A  
HETATM   18  C   UNL     3     -12.390  12.495  69.328  1.00  0.00     0.083 C  
HETATM   19  C   UNL     3     -13.118  12.154  70.402  1.00  0.00     0.611 C  
HETATM   20 BR   UNL     3     -13.841  10.447  70.586  1.00  0.00     1.242 Br 
HETATM   21  C   UNL     3     -13.308  13.140  71.514  1.00  0.00    -0.222 C  
HETATM   22  O   UNL     3     -13.832  12.796  72.580  1.00  0.00    -0.515 OA 
HETATM   23  C   UNL     3     -12.792  14.526  71.306  1.00  0.00    -0.332 C  
HETATM   24  C   UNL     3     -12.047  14.822  70.215  1.00  0.00    -0.322 A  
HETATM   25 BR   UNL     3     -13.142  15.776  72.656  1.00  0.00    -0.599 Br 
HETATM   26  O   UNL     3     -11.511  16.093  70.090  1.00  0.00    -0.340 OA 
HETATM   27  C   UNL     3     -10.635  16.389  69.080  1.00  0.00    -0.308 A  
HETATM   28  C   UNL     3     -10.326  15.450  68.105  1.00  0.00    -0.239 A  
HETATM   29  C   UNL     3      -9.466  15.837  67.079  1.00  0.00    -0.235 C  
HETATM   30  C   UNL     3      -8.880  17.114  67.065  1.00  0.00    -0.229 C  
HETATM   31 BR   UNL     3      -7.705  17.447  65.582  1.00  0.00     0.783 Br 
HETATM   32  C   UNL     3      -9.109  18.087  68.069  1.00  0.00    -0.272 C  
HETATM   33  C   UNL     3     -10.044  17.672  69.064  1.00  0.00    -0.300 C  
HETATM   34  O   UNL     3      -8.520  19.223  68.081  1.00  0.00    -0.304 OA 
HETATM   35 BR   UNL     3     -10.534  18.882  70.489  1.00  0.00     2.399 Br 
ENDBRANCH  14  16
TORSDOF 1
ENDMDL
MODEL      124
REMARK 921   NORMALIZED FREE ENERGY PREDICTED BY IDOCK:    5.55 KCAL/MOL
REMARK 922        TOTAL FREE ENERGY PREDICTED BY IDOCK:    5.12 KCAL/MOL
REMARK 923 INTER-LIGAND FREE ENERGY PREDICTED BY IDOCK:    0.11 KCAL/MOL
REMARK 924 INTRA-LIGAND FREE ENERGY PREDICTED BY IDOCK:    5.01 KCAL/MOL
REMARK 927      BINDING AFFINITY PREDICTED BY RF-SCORE:    0.00 PKD
ROOT
HETATM    1 NA   UNL     1      -6.498   5.574  72.236  1.00  0.00    -0.037 Na 
HETATM    2 NA   UNL     2     -11.122   4.236  73.696  1.00  0.00    -0.157 Na 
HETATM    3  O   UNL     3      -9.911   5.489  72.735  1.00  0.00    -0.162 OA 
HETATM    4  C   UNL     3      -9.435   6.439  72.020  1.00  0.00    -0.151 C  
HETATM    5  C   UNL     3     -10.376   7.449  71.416  1.00  0.00    -0.208 A  
HETATM    6  O   UNL     3      -8.178   6.548  71.843  1.00  0.00    -0.108 OA 
HETATM    7  C   UNL     3     -11.470   7.953  72.159  1.00  0.00    -0.324 A  
HETATM    8 CL   UNL     3     -11.726   7.451  73.816  1.00  0.00     1.479 Cl 
HETATM    9  C   UNL     3     -12.364   8.892  71.594  1.00  0.00    -0.343 A  
HETATM   10 CL   UNL     3     -13.712   9.485  72.533  1.00  0.00    -0.439 Cl 
HETATM   11  C   UNL     3     -12.172   9.356  70.285  1.00  0.00     0.218 A  
HETATM   12  C   UNL     3     -11.090   8.875  69.531  1.00  0.00    -0.001 A  
HETATM   13 CL   UNL     3     -13.266  10.526  69.600  1.00  0.00     0.598 Cl 
HETATM   14  C   UNL     3     -10.195   7.921  70.083  1.00  0.00    -0.202 A  
HETATM   15 CL   UNL     3     -10.838   9.455  67.905  1.00  0.00    -0.264 Cl 
ENDROOT
BRANCH  14  16
HETATM   16  C   UNL     3      -9.103   7.367  69.212  1.00  0.00    -0.135 A  
HETATM   17  C   UNL     3      -8.881   6.025  69.140  1.00  0.00    -0.119 A  
HETATM   18  C   UNL     3      -9.657   5.075  69.937  1.00  0.00    -0.246 C  
HETATM   19  C   UNL     3      -9.557   3.747  69.774  1.00  0.00    -0.183 C  
HETATM   20 BR   UNL     3     -10.623   2.564  70.742  1.00  0.00     2.171 Br 
HETATM   21  C   UNL     3      -8.616   3.193  68.748  1.00  0.00    -0.081 C  
HETATM   22  O   UNL     3      -8.626   1.989  68.467  1.00  0.00    -0.061 OA 
HETATM   23  C   UNL     3      -7.713   4.155  68.047  1.00  0.00    -0.071 C  
HETATM   24  C   UNL     3      -7.860   5.488  68.229  1.00  0.00    -0.089 A  
HETATM   25 BR   UNL     3      -6.461   3.432  66.856  1.00  0.00    -0.037 Br 
HETATM   26  O   UNL     3      -7.065   6.358  67.502  1.00  0.00    -0.075 OA 
HETATM   27  C   UNL     3      -7.281   7.709  67.546  1.00  0.00    -0.087 A  
HETATM   28  C   UNL     3      -8.246   8.251  68.386  1.00  0.00    -0.132 A  
HETATM   29  C   UNL     3      -8.376   9.638  68.417  1.00  0.00    -0.117 C  
HETATM   30  C   UNL     3      -7.602  10.459  67.580  1.00  0.00    -0.094 C  
HETATM   31 BR   UNL     3      -7.947  12.342  67.753  1.00  0.00    -0.171 Br 
HETATM   32  C   UNL     3      -6.651   9.957  66.658  1.00  0.00    -0.072 C  
HETATM   33  C   UNL     3      -6.505   8.538  66.705  1.00  0.00    -0.060 C  
HETATM   34  O   UNL     3      -5.998  10.709  65.854  1.00  0.00    -0.107 OA 
HETATM   35 BR   UNL     3      -5.213   7.664  65.563  1.00  0.00    -0.029 Br 
ENDBRANCH  14  16
TORSDOF 1
ENDMDL
MODEL      125
REMARK 921   NORMALIZED FREE ENERGY PREDICTED BY IDOCK:    5.93 KCAL/MOL
REMARK 922        TOTAL FREE ENERGY PREDICTED BY IDOCK:    5.52 KCAL/MOL
REMARK 923 INTER-LIGAND FREE ENERGY PREDICTED BY IDOCK:   -1.29 KCAL/MOL
REMARK 924 INTRA-LIGAND FREE ENERGY PREDICTED BY IDOCK:    6.82 KCAL/MOL
REMARK 927      BINDING AFFINITY PREDICTED BY RF-SCORE:    0.00 PKD
ROOT
HETATM    1 NA   UNL     1      -8.070   5.866  65.887  1.00  0.00    -0.094 Na 
HETATM    2 NA   UNL     2     -11.281   2.235  67.231  1.00  0.00     2.416 Na 
HETATM    3  O   UNL     3     -10.013   3.687  67.726  1.00  0.00    -0.020 OA 
HETATM    4  C   UNL     3      -9.314   4.549  68.365  1.00  0.00    -0.142 C  
HETATM    5  C   UNL     3      -9.388   4.588  69.869  1.00  0.00    -0.218 A  
HETATM    6  O   UNL     3      -8.541   5.346  67.740  1.00  0.00    -0.106 OA 
HETATM    7  C   UNL     3      -9.422   3.392  70.624  1.00  0.00    -0.173 A  
HETATM    8 CL   UNL     3      -9.327   1.836  69.827  1.00  0.00    -0.170 Cl 
HETATM    9  C   UNL     3      -9.504   3.422  72.035  1.00  0.00    -0.133 A  
HETATM   10 CL   UNL     3      -9.558   1.927  72.937  1.00  0.00    -0.119 Cl 
HETATM   11  C   UNL     3      -9.539   4.646  72.718  1.00  0.00    -0.134 A  
HETATM   12  C   UNL     3      -9.500   5.846  71.991  1.00  0.00    -0.150 A  
HETATM   13 CL   UNL     3      -9.623   4.678  74.458  1.00  0.00    -0.144 Cl 
HETATM   14  C   UNL     3      -9.432   5.828  70.573  1.00  0.00    -0.201 A  
HETATM   15 CL   UNL     3      -9.531   7.374  72.833  1.00  0.00    -0.198 Cl 
ENDROOT
BRANCH  14  16
HETATM   16  C   UNL     3      -9.482   7.133  69.830  1.00  0.00    -0.153 A  
HETATM   17  C   UNL     3      -8.525   7.452  68.915  1.00  0.00    -0.129 A  
HETATM   18  C   UNL     3      -7.390   6.567  68.651  1.00  0.00    -0.087 C  
HETATM   19  C   UNL     3      -6.519   6.790  67.655  1.00  0.00    -0.049 C  
HETATM   20 BR   UNL     3      -5.135   5.597  67.288  1.00  0.00    -0.005 Br 
HETATM   21  C   UNL     3      -6.692   7.987  66.771  1.00  0.00    -0.064 C  
HETATM   22  O   UNL     3      -6.005   8.123  65.752  1.00  0.00    -0.040 OA 
HETATM   23  C   UNL     3      -7.755   8.970  67.138  1.00  0.00    -0.099 C  
HETATM   24  C   UNL     3      -8.622   8.697  68.140  1.00  0.00    -0.141 A  
HETATM   25 BR   UNL     3      -7.877  10.519  66.092  1.00  0.00    -0.148 Br 
HETATM   26  O   UNL     3      -9.649   9.588  68.403  1.00  0.00    -0.140 OA 
HETATM   27  C   UNL     3     -10.631   9.281  69.306  1.00  0.00    -0.222 A  
HETATM   28  C   UNL     3     -10.578   8.107  70.047  1.00  0.00    -0.239 A  
HETATM   29  C   UNL     3     -11.584   7.885  70.985  1.00  0.00    -0.299 C  
HETATM   30  C   UNL     3     -12.653   8.785  71.132  1.00  0.00    -0.168 C  
HETATM   31 BR   UNL     3     -13.950   8.288  72.460  1.00  0.00    -0.074 Br 
HETATM   32  C   UNL     3     -12.791   9.963  70.358  1.00  0.00     0.054 C  
HETATM   33  C   UNL     3     -11.707  10.185  69.457  1.00  0.00    -0.061 C  
HETATM   34  O   UNL     3     -13.801  10.743  70.455  1.00  0.00     0.728 OA 
HETATM   35 BR   UNL     3     -11.682  11.771  68.352  1.00  0.00    -0.371 Br 
ENDBRANCH  14  16
TORSDOF 1
ENDMDL
MODEL      126
REMARK 921   NORMALIZED FREE ENERGY PREDICTED BY IDOCK:    6.68 KCAL/MOL
REMARK 922        TOTAL FREE ENERGY PREDICTED BY IDOCK:    6.31 KCAL/MOL
REMARK 923 INTER-LIGAND FREE ENERGY PREDICTED BY IDOCK:   -0.12 KCAL/MOL
REMARK 924 INTRA-LIGAND FREE ENERGY PREDICTED BY IDOCK:    6.43 KCAL/MOL
REMARK 927      BINDING AFFINITY PREDICTED BY RF-SCORE:    0.00 PKD
ROOT
HETATM    1 NA   UNL     1      -7.552  10.141  65.695  1.00  0.00    -0.103 Na 
HETATM    2 NA   UNL     2      -6.386  10.751  70.549  1.00  0.00    -0.078 Na 
HETATM    3  O   UNL     3      -7.481   9.879  69.134  1.00  0.00    -0.075 OA 
HETATM    4  C   UNL     3      -8.303   9.134  68.495  1.00  0.00    -0.123 C  
HETATM    5  C   UNL     3      -9.173   8.173  69.261  1.00  0.00    -0.151 A  
HETATM    6  O   UNL     3      -8.408   9.224  67.229  1.00  0.00    -0.123 OA 
HETATM    7  C   UNL     3      -9.774   8.556  70.484  1.00  0.00    -0.177 A  
HETATM    8 CL   UNL     3      -9.559  10.177  71.109  1.00  0.00     1.099 Cl 
HETATM    9  C   UNL     3     -10.582   7.654  71.214  1.00  0.00    -0.219 A  
HETATM   10 CL   UNL     3     -11.298   8.154  72.727  1.00  0.00    -0.454 Cl 
HETATM   11  C   UNL     3     -10.818   6.359  70.729  1.00  0.00    -0.267 A  
HETATM   12  C   UNL     3     -10.238   5.959  69.515  1.00  0.00    -0.225 A  
HETATM   13 CL   UNL     3     -11.828   5.258  71.624  1.00  0.00     0.610 Cl 
HETATM   14  C   UNL     3      -9.412   6.851  68.781  1.00  0.00    -0.135 A  
HETATM   15 CL   UNL     3     -10.534   4.354  68.899  1.00  0.00     0.366 Cl 
ENDROOT
BRANCH  14  16
HETATM   16  C   UNL     3      -8.741   6.352  67.533  1.00  0.00    -0.113 A  
HETATM   17  C   UNL     3      -8.881   7.016  66.352  1.00  0.00    -0.158 A  
HETATM   18  C   UNL     3      -9.725   8.207  66.236  1.00  0.00    -0.223 C  
HETATM   19  C   UNL     3      -9.762   8.957  65.126  1.00  0.00     0.472 C  
HETATM   20 BR   UNL     3     -10.778  10.517  65.039  1.00  0.00     0.218 Br 
HETATM   21  C   UNL     3      -8.923   8.579  63.944  1.00  0.00     0.555 C  
HETATM   22  O   UNL     3      -8.815   9.340  62.976  1.00  0.00    -0.225 OA 
HETATM   23  C   UNL     3      -8.185   7.281  64.007  1.00  0.00     0.065 C  
HETATM   24  C   UNL     3      -8.160   6.563  65.154  1.00  0.00    -0.133 A  
HETATM   25 BR   UNL     3      -7.237   6.767  62.475  1.00  0.00    -0.057 Br 
HETATM   26  O   UNL     3      -7.400   5.408  65.209  1.00  0.00    -0.066 OA 
HETATM   27  C   UNL     3      -7.231   4.734  66.389  1.00  0.00    -0.077 A  
HETATM   28  C   UNL     3      -7.886   5.141  67.543  1.00  0.00    -0.096 A  
HETATM   29  C   UNL     3      -7.708   4.378  68.695  1.00  0.00    -0.071 C  
HETATM   30  C   UNL     3      -6.843   3.270  68.707  1.00  0.00    -0.045 C  
HETATM   31 BR   UNL     3      -6.714   2.364  70.397  1.00  0.00    -0.033 Br 
HETATM   32  C   UNL     3      -6.100   2.850  67.576  1.00  0.00    -0.028 C  
HETATM   33  C   UNL     3      -6.361   3.620  66.403  1.00  0.00    -0.033 C  
HETATM   34  O   UNL     3      -5.266   1.880  67.615  1.00  0.00    -0.011 OA 
HETATM   35 BR   UNL     3      -5.487   3.167  64.739  1.00  0.00    -0.010 Br 
ENDBRANCH  14  16
TORSDOF 1
ENDMDL
MODEL      127
REMARK 921   NORMALIZED FREE ENERGY PREDICTED BY IDOCK:    7.29 KCAL/MOL
REMARK 922        TOTAL FREE ENERGY PREDICTED BY IDOCK:    6.97 KCAL/MOL
REMARK 923 INTER-LIGAND FREE ENERGY PREDICTED BY IDOCK:    0.82 KCAL/MOL
REMARK 924 INTRA-LIGAND FREE ENERGY PREDICTED BY IDOCK:    6.15 KCAL/MOL
REMARK 927      BINDING AFFINITY PREDICTED BY RF-SCORE:    0.00 PKD
ROOT
HETATM    1 NA   UNL     1      -7.048  17.570  65.080  1.00  0.00    -0.205 Na 
HETATM    2 NA   UNL     2     -11.910  17.960  63.852  1.00  0.00     0.704 Na 
HETATM    3  O   UNL     3     -10.418  16.946  64.695  1.00  0.00    -0.358 OA 
HETATM    4  C   UNL     3      -9.720  16.082  65.333  1.00  0.00     0.002 C  
HETATM    5  C   UNL     3     -10.397  14.862  65.900  1.00  0.00    -0.330 A  
HETATM    6  O   UNL     3      -8.462  16.236  65.463  1.00  0.00     0.032 OA 
HETATM    7  C   UNL     3     -11.390  14.176  65.161  1.00  0.00    -0.336 A  
HETATM    8 CL   UNL     3     -11.820  14.702  63.548  1.00  0.00     0.513 Cl 
HETATM    9  C   UNL     3     -12.038  13.037  65.693  1.00  0.00    -0.454 A  
HETATM   10 CL   UNL     3     -13.270  12.220  64.761  1.00  0.00     0.241 Cl 
HETATM   11  C   UNL     3     -11.695  12.553  66.964  1.00  0.00    -0.367 A  
HETATM   12  C   UNL     3     -10.708  13.214  67.712  1.00  0.00    -0.240 A  
HETATM   13 CL   UNL     3     -12.484  11.140  67.607  1.00  0.00     1.372 Cl 
HETATM   14  C   UNL     3     -10.062  14.367  67.195  1.00  0.00    -0.253 A  
HETATM   15 CL   UNL     3     -10.267  12.613  69.290  1.00  0.00     0.251 Cl 
ENDROOT
BRANCH  14  16
HETATM   16  C   UNL     3      -9.075  15.094  68.065  1.00  0.00    -0.180 A  
HETATM   17  C   UNL     3      -9.105  16.452  68.170  1.00  0.00    -0.201 A  
HETATM   18  C   UNL     3     -10.060  17.259  67.409  1.00  0.00    -0.307 C  
HETATM   19  C   UNL     3     -10.205  18.578  67.606  1.00  0.00    -0.387 C  
HETATM   20 BR   UNL     3     -11.491  19.564  66.686  1.00  0.00     0.986 Br 
HETATM   21  C   UNL     3      -9.364  19.273  68.633  1.00  0.00    -0.392 C  
HETATM   22  O   UNL     3      -9.593  20.447  68.947  1.00  0.00     0.108 OA 
HETATM   23  C   UNL     3      -8.285  18.481  69.295  1.00  0.00     0.189 C  
HETATM   24  C   UNL     3      -8.185  17.148  69.080  1.00  0.00    -0.010 A  
HETATM   25 BR   UNL     3      -7.168  19.396  70.488  1.00  0.00     1.079 Br 
HETATM   26  O   UNL     3      -7.229  16.424  69.772  1.00  0.00    -0.071 OA 
HETATM   27  C   UNL     3      -7.191  15.058  69.694  1.00  0.00    -0.192 A  
HETATM   28  C   UNL     3      -8.053  14.366  68.854  1.00  0.00    -0.095 A  
HETATM   29  C   UNL     3      -7.924  12.980  68.788  1.00  0.00     0.058 C  
HETATM   30  C   UNL     3      -6.995  12.298  69.592  1.00  0.00     0.230 C  
HETATM   31 BR   UNL     3      -6.987  10.388  69.373  1.00  0.00    -0.106 Br 
HETATM   32  C   UNL     3      -6.137  12.947  70.513  1.00  0.00     0.020 C  
HETATM   33  C   UNL     3      -6.258  14.369  70.502  1.00  0.00    -0.164 C  
HETATM   34  O   UNL     3      -5.340  12.310  71.287  1.00  0.00    -0.277 OA 
HETATM   35 BR   UNL     3      -5.130  15.440  71.649  1.00  0.00    -0.041 Br 
ENDBRANCH  14  16
TORSDOF 1
ENDMDL
MODEL      128
REMARK 921   NORMALIZED FREE ENERGY PREDICTED BY IDOCK:    7.45 KCAL/MOL
REMARK 922        TOTAL FREE ENERGY PREDICTED BY IDOCK:    7.13 KCAL/MOL
REMARK 923 INTER-LIGAND FREE ENERGY PREDICTED BY IDOCK:   -1.20 KCAL/MOL
REMARK 924 INTRA-LIGAND FREE ENERGY PREDICTED BY IDOCK:    8.33 KCAL/MOL
REMARK 927      BINDING AFFINITY PREDICTED BY RF-SCORE:    0.00 PKD
ROOT
HETATM    1 NA   UNL     1      -6.059   7.960  66.464  1.00  0.00    -0.036 Na 
HETATM    2 NA   UNL     2      -7.753   3.453  67.916  1.00  0.00    -0.062 Na 
HETATM    3  O   UNL     3      -7.832   5.439  68.014  1.00  0.00    -0.091 OA 
HETATM    4  C   UNL     3      -8.161   6.648  68.275  1.00  0.00    -0.111 C  
HETATM    5  C   UNL     3      -9.307   6.913  69.216  1.00  0.00    -0.144 A  
HETATM    6  O   UNL     3      -7.509   7.620  67.770  1.00  0.00    -0.102 OA 
HETATM    7  C   UNL     3      -9.473   6.140  70.390  1.00  0.00    -0.161 A  
HETATM    8 CL   UNL     3      -8.319   4.891  70.802  1.00  0.00    -0.100 Cl 
HETATM    9  C   UNL     3     -10.554   6.375  71.271  1.00  0.00    -0.230 A  
HETATM   10 CL   UNL     3     -10.738   5.395  72.705  1.00  0.00    -0.273 Cl 
HETATM   11  C   UNL     3     -11.479   7.395  71.004  1.00  0.00    -0.282 A  
HETATM   12  C   UNL     3     -11.331   8.178  69.848  1.00  0.00     0.065 A  
HETATM   13 CL   UNL     3     -12.799   7.691  72.101  1.00  0.00    -0.213 Cl 
HETATM   14  C   UNL     3     -10.258   7.942  68.949  1.00  0.00    -0.215 A  
HETATM   15 CL   UNL     3     -12.471   9.456  69.514  1.00  0.00     1.170 Cl 
ENDROOT
BRANCH  14  16
HETATM   16  C   UNL     3     -10.188   8.744  67.681  1.00  0.00    -0.298 A  
HETATM   17  C   UNL     3     -10.488  10.073  67.678  1.00  0.00    -0.297 A  
HETATM   18  C   UNL     3     -10.936  10.761  68.890  1.00  0.00    -0.289 C  
HETATM   19  C   UNL     3     -11.095  12.091  68.945  1.00  0.00    -0.247 C  
HETATM   20 BR   UNL     3     -11.580  12.949  70.527  1.00  0.00     0.473 Br 
HETATM   21  C   UNL     3     -10.818  12.924  67.731  1.00  0.00    -0.229 C  
HETATM   22  O   UNL     3     -10.798  14.159  67.803  1.00  0.00    -0.248 OA 
HETATM   23  C   UNL     3     -10.514  12.208  66.456  1.00  0.00    -0.225 C  
HETATM   24  C   UNL     3     -10.345  10.865  66.449  1.00  0.00    -0.251 A  
HETATM   25 BR   UNL     3     -10.288  13.260  64.923  1.00  0.00    -0.355 Br 
HETATM   26  O   UNL     3      -9.981  10.239  65.269  1.00  0.00    -0.290 OA 
HETATM   27  C   UNL     3      -9.659   8.908  65.252  1.00  0.00     0.186 A  
HETATM   28  C   UNL     3      -9.770   8.131  66.397  1.00  0.00    -0.275 A  
HETATM   29  C   UNL     3      -9.474   6.773  66.293  1.00  0.00    -0.116 C  
HETATM   30  C   UNL     3      -9.016   6.220  65.086  1.00  0.00     0.235 C  
HETATM   31 BR   UNL     3      -8.638   4.337  65.154  1.00  0.00    -0.127 Br 
HETATM   32  C   UNL     3      -8.822   6.978  63.905  1.00  0.00     0.954 C  
HETATM   33  C   UNL     3      -9.197   8.348  64.038  1.00  0.00     1.186 C  
HETATM   34  O   UNL     3      -8.342   6.477  62.829  1.00  0.00    -0.057 OA 
HETATM   35 BR   UNL     3      -9.061   9.537  62.520  1.00  0.00    -0.146 Br 
ENDBRANCH  14  16
TORSDOF 1
ENDMDL
MODEL      129
REMARK 921   NORMALIZED FREE ENERGY PREDICTED BY IDOCK:    7.63 KCAL/MOL
REMARK 922        TOTAL FREE ENERGY PREDICTED BY IDOCK:    7.33 KCAL/MOL
REMARK 923 INTER-LIGAND FREE ENERGY PREDICTED BY IDOCK:    2.13 KCAL/MOL
REMARK 924 INTRA-LIGAND FREE ENERGY PREDICTED BY IDOCK:    5.20 KCAL/MOL
REMARK 927      BINDING AFFINITY PREDICTED BY RF-SCORE:    0.00 PKD
ROOT
HETATM    1 NA   UNL     1      -7.093  17.348  64.933  1.00  0.00     0.079 Na 
HETATM    2 NA   UNL     2     -11.871  17.410  63.364  1.00  0.00     0.960 Na 
HETATM    3  O   UNL     3     -10.413  16.562  64.420  1.00  0.00    -0.156 OA 
HETATM    4  C   UNL     3      -9.736  15.811  65.206  1.00  0.00     0.030 C  
HETATM    5  C   UNL     3     -10.416  14.649  65.881  1.00  0.00    -0.325 A  
HETATM    6  O   UNL     3      -8.494  16.024  65.394  1.00  0.00     0.542 OA 
HETATM    7  C   UNL     3     -11.339  13.841  65.175  1.00  0.00    -0.311 A  
HETATM    8 CL   UNL     3     -11.674  14.144  63.484  1.00  0.00     0.196 Cl 
HETATM    9  C   UNL     3     -11.990  12.755  65.807  1.00  0.00    -0.449 A  
HETATM   10 CL   UNL     3     -13.134  11.786  64.911  1.00  0.00     1.176 Cl 
HETATM   11  C   UNL     3     -11.719  12.448  67.148  1.00  0.00    -0.345 A  
HETATM   12  C   UNL     3     -10.802  13.232  67.866  1.00  0.00    -0.243 A  
HETATM   13 CL   UNL     3     -12.511  11.100  67.915  1.00  0.00     0.999 Cl 
HETATM   14  C   UNL     3     -10.154  14.333  67.247  1.00  0.00    -0.252 A  
HETATM   15 CL   UNL     3     -10.451  12.850  69.532  1.00  0.00     0.350 Cl 
ENDROOT
BRANCH  14  16
HETATM   16  C   UNL     3      -9.248  15.198  68.077  1.00  0.00    -0.185 A  
HETATM   17  C   UNL     3      -8.313  14.643  68.897  1.00  0.00    -0.142 A  
HETATM   18  C   UNL     3      -8.183  13.193  69.043  1.00  0.00     0.360 C  
HETATM   19  C   UNL     3      -7.180  12.625  69.729  1.00  0.00     0.694 C  
HETATM   20 BR   UNL     3      -6.991  10.773  69.822  1.00  0.00    -0.114 Br 
HETATM   21  C   UNL     3      -6.146  13.488  70.384  1.00  0.00    -0.092 C  
HETATM   22  O   UNL     3      -5.128  12.989  70.878  1.00  0.00    -0.113 OA 
HETATM   23  C   UNL     3      -6.366  14.965  70.367  1.00  0.00    -0.105 C  
HETATM   24  C   UNL     3      -7.382  15.497  69.648  1.00  0.00    -0.163 A  
HETATM   25 BR   UNL     3      -5.126  16.021  71.293  1.00  0.00    -0.042 Br 
HETATM   26  O   UNL     3      -7.511  16.874  69.582  1.00  0.00     0.040 OA 
HETATM   27  C   UNL     3      -8.432  17.453  68.751  1.00  0.00    -0.225 A  
HETATM   28  C   UNL     3      -9.320  16.677  68.017  1.00  0.00    -0.227 A  
HETATM   29  C   UNL     3     -10.264  17.336  67.232  1.00  0.00    -0.320 C  
HETATM   30  C   UNL     3     -10.277  18.738  67.134  1.00  0.00    -0.386 C  
HETATM   31 BR   UNL     3     -11.638  19.454  65.982  1.00  0.00     1.890 Br 
HETATM   32  C   UNL     3      -9.354  19.574  67.809  1.00  0.00    -0.324 C  
HETATM   33  C   UNL     3      -8.448  18.863  68.651  1.00  0.00    -0.346 C  
HETATM   34  O   UNL     3      -9.334  20.846  67.662  1.00  0.00    -0.265 OA 
HETATM   35 BR   UNL     3      -7.147  19.832  69.702  1.00  0.00    -0.058 Br 
ENDBRANCH  14  16
TORSDOF 1
ENDMDL
MODEL      130
REMARK 921   NORMALIZED FREE ENERGY PREDICTED BY IDOCK:    8.44 KCAL/MOL
REMARK 922        TOTAL FREE ENERGY PREDICTED BY IDOCK:    8.18 KCAL/MOL
REMARK 923 INTER-LIGAND FREE ENERGY PREDICTED BY IDOCK:    0.67 KCAL/MOL
REMARK 924 INTRA-LIGAND FREE ENERGY PREDICTED BY IDOCK:    7.51 KCAL/MOL
REMARK 927      BINDING AFFINITY PREDICTED BY RF-SCORE:    0.00 PKD
ROOT
HETATM    1 NA   UNL     1     -13.356  14.546  67.302  1.00  0.00    -0.371 Na 
HETATM    2 NA   UNL     2     -13.456  14.781  72.325  1.00  0.00    -0.301 Na 
HETATM    3  O   UNL     3     -13.117  13.758  70.652  1.00  0.00    -0.182 OA 
HETATM    4  C   UNL     3     -12.785  12.859  69.802  1.00  0.00     0.470 C  
HETATM    5  C   UNL     3     -12.288  11.526  70.296  1.00  0.00    -0.355 A  
HETATM    6  O   UNL     3     -12.899  13.078  68.552  1.00  0.00     0.866 OA 
HETATM    7  C   UNL     3     -12.900  10.890  71.403  1.00  0.00    -0.449 A  
HETATM    8 CL   UNL     3     -14.282  11.617  72.192  1.00  0.00     0.663 Cl 
HETATM    9  C   UNL     3     -12.430   9.644  71.879  1.00  0.00    -0.377 A  
HETATM   10 CL   UNL     3     -13.199   8.892  73.255  1.00  0.00     0.591 Cl 
HETATM   11  C   UNL     3     -11.352   9.004  71.250  1.00  0.00    -0.319 A  
HETATM   12  C   UNL     3     -10.734   9.613  70.147  1.00  0.00    -0.275 A  
HETATM   13 CL   UNL     3     -10.789   7.461  71.830  1.00  0.00    -0.248 Cl 
HETATM   14  C   UNL     3     -11.187  10.871  69.669  1.00  0.00    -0.348 A  
HETATM   15 CL   UNL     3      -9.400   8.818  69.351  1.00  0.00    -0.156 Cl 
ENDROOT
BRANCH  14  16
HETATM   16  C   UNL     3     -10.441  11.527  68.542  1.00  0.00    -0.228 A  
HETATM   17  C   UNL     3     -10.172  12.862  68.568  1.00  0.00    -0.210 A  
HETATM   18  C   UNL     3     -10.635  13.718  69.661  1.00  0.00     0.271 C  
HETATM   19  C   UNL     3     -10.259  14.999  69.782  1.00  0.00    -0.125 C  
HETATM   20 BR   UNL     3     -10.794  16.039  71.233  1.00  0.00     0.447 Br 
HETATM   21  C   UNL     3      -9.335  15.601  68.767  1.00  0.00    -0.213 C  
HETATM   22  O   UNL     3      -8.846  16.723  68.945  1.00  0.00    -0.258 OA 
HETATM   23  C   UNL     3      -8.989  14.776  67.571  1.00  0.00    -0.187 C  
HETATM   24  C   UNL     3      -9.377  13.481  67.498  1.00  0.00    -0.220 A  
HETATM   25 BR   UNL     3      -7.932  15.587  66.255  1.00  0.00     0.747 Br 
HETATM   26  O   UNL     3      -8.970  12.717  66.417  1.00  0.00    -0.167 OA 
HETATM   27  C   UNL     3      -9.216  11.370  66.378  1.00  0.00    -0.197 A  
HETATM   28  C   UNL     3      -9.953  10.750  67.379  1.00  0.00    -0.214 A  
HETATM   29  C   UNL     3     -10.207   9.386  67.247  1.00  0.00    -0.308 C  
HETATM   30  C   UNL     3      -9.681   8.648  66.173  1.00  0.00    -0.222 C  
HETATM   31 BR   UNL     3     -10.123   6.778  66.184  1.00  0.00     0.392 Br 
HETATM   32  C   UNL     3      -8.870   9.217  65.161  1.00  0.00    -0.198 C  
HETATM   33  C   UNL     3      -8.688  10.626  65.299  1.00  0.00    -0.187 C  
HETATM   34  O   UNL     3      -8.343   8.525  64.222  1.00  0.00    -0.160 OA 
HETATM   35 BR   UNL     3      -7.658  11.598  63.983  1.00  0.00     2.700 Br 
ENDBRANCH  14  16
TORSDOF 1
ENDMDL
MODEL      131
REMARK 921   NORMALIZED FREE ENERGY PREDICTED BY IDOCK:    8.48 KCAL/MOL
REMARK 922        TOTAL FREE ENERGY PREDICTED BY IDOCK:    8.22 KCAL/MOL
REMARK 923 INTER-LIGAND FREE ENERGY PREDICTED BY IDOCK:    6.83 KCAL/MOL
REMARK 924 INTRA-LIGAND FREE ENERGY PREDICTED BY IDOCK:    1.39 KCAL/MOL
REMARK 927      BINDING AFFINITY PREDICTED BY RF-SCORE:    0.00 PKD
ROOT
HETATM    1 NA   UNL     1     -11.517  17.753  69.253  1.00  0.00    -0.132 Na 
HETATM    2 NA   UNL     2     -13.431  13.241  70.383  1.00  0.00    -0.070 Na 
HETATM    3  O   UNL     3     -12.144  14.362  69.359  1.00  0.00    -0.306 OA 
HETATM    4  C   UNL     3     -11.200  14.771  68.597  1.00  0.00    -0.273 C  
HETATM    5  C   UNL     3     -10.399  13.766  67.812  1.00  0.00    -0.241 A  
HETATM    6  O   UNL     3     -10.955  16.016  68.481  1.00  0.00    -0.290 OA 
HETATM    7  C   UNL     3     -11.033  12.666  67.186  1.00  0.00    -0.261 A  
HETATM    8 CL   UNL     3     -12.771  12.476  67.270  1.00  0.00     1.324 Cl 
HETATM    9  C   UNL     3     -10.285  11.711  66.457  1.00  0.00    -0.214 A  
HETATM   10 CL   UNL     3     -11.096  10.358  65.708  1.00  0.00     0.259 Cl 
HETATM   11  C   UNL     3      -8.896  11.847  66.327  1.00  0.00    -0.111 A  
HETATM   12  C   UNL     3      -8.246  12.933  66.934  1.00  0.00    -0.002 A  
HETATM   13 CL   UNL     3      -7.983  10.678  65.414  1.00  0.00    -0.126 Cl 
HETATM   14  C   UNL     3      -8.984  13.889  67.681  1.00  0.00    -0.192 A  
HETATM   15 CL   UNL     3      -6.519  13.116  66.768  1.00  0.00     0.921 Cl 
ENDROOT
BRANCH  14  16
HETATM   16  C   UNL     3      -8.239  14.987  68.387  1.00  0.00    -0.151 A  
HETATM   17  C   UNL     3      -8.348  16.281  67.976  1.00  0.00    -0.165 A  
HETATM   18  C   UNL     3      -9.151  16.651  66.810  1.00  0.00    -0.261 C  
HETATM   19  C   UNL     3      -9.391  17.927  66.476  1.00  0.00    -0.280 C  
HETATM   20 BR   UNL     3     -10.490  18.368  65.037  1.00  0.00     1.901 Br 
HETATM   21  C   UNL     3      -8.819  19.033  67.310  1.00  0.00    -0.281 C  
HETATM   22  O   UNL     3      -9.160  20.207  67.121  1.00  0.00    -0.343 OA 
HETATM   23  C   UNL     3      -7.875  18.657  68.404  1.00  0.00    -0.319 C  
HETATM   24  C   UNL     3      -7.675  17.356  68.718  1.00  0.00    -0.258 A  
HETATM   25 BR   UNL     3      -7.078  20.058  69.359  1.00  0.00    -0.086 Br 
HETATM   26  O   UNL     3      -6.859  17.040  69.791  1.00  0.00    -0.101 OA 
HETATM   27  C   UNL     3      -6.748  15.748  70.232  1.00  0.00     0.251 A  
HETATM   28  C   UNL     3      -7.380  14.708  69.562  1.00  0.00    -0.107 A  
HETATM   29  C   UNL     3      -7.181  13.413  70.037  1.00  0.00     0.869 C  
HETATM   30  C   UNL     3      -6.418  13.172  71.192  1.00  0.00     1.449 C  
HETATM   31 BR   UNL     3      -6.282  11.323  71.698  1.00  0.00     2.089 Br 
HETATM   32  C   UNL     3      -5.805  14.200  71.950  1.00  0.00    -0.050 C  
HETATM   33  C   UNL     3      -5.981  15.502  71.393  1.00  0.00     0.638 C  
HETATM   34  O   UNL     3      -5.166  13.975  73.036  1.00  0.00    -0.213 OA 
HETATM   35 BR   UNL     3      -5.171  17.034  72.251  1.00  0.00     1.959 Br 
ENDBRANCH  14  16
TORSDOF 1
ENDMDL
MODEL      132
REMARK 921   NORMALIZED FREE ENERGY PREDICTED BY IDOCK:    9.45 KCAL/MOL
REMARK 922        TOTAL FREE ENERGY PREDICTED BY IDOCK:    9.25 KCAL/MOL
REMARK 923 INTER-LIGAND FREE ENERGY PREDICTED BY IDOCK:    2.95 KCAL/MOL
REMARK 924 INTRA-LIGAND FREE ENERGY PREDICTED BY IDOCK:    6.30 KCAL/MOL
REMARK 927      BINDING AFFINITY PREDICTED BY RF-SCORE:    0.00 PKD
ROOT
HETATM    1 NA   UNL     1      -8.132   7.248  72.436  1.00  0.00    -0.093 Na 
HETATM    2 NA   UNL     2     -13.126   7.449  73.000  1.00  0.00    -0.457 Na 
HETATM    3  O   UNL     3     -11.444   8.191  72.237  1.00  0.00    -0.318 OA 
HETATM    4  C   UNL     3     -10.587   8.881  71.583  1.00  0.00    -0.352 C  
HETATM    5  C   UNL     3     -11.058  10.042  70.747  1.00  0.00    -0.407 A  
HETATM    6  O   UNL     3      -9.344   8.609  71.658  1.00  0.00    -0.214 OA 
HETATM    7  C   UNL     3     -12.065  10.916  71.224  1.00  0.00    -0.217 A  
HETATM    8 CL   UNL     3     -12.749  10.695  72.820  1.00  0.00     1.351 Cl 
HETATM    9  C   UNL     3     -12.520  12.000  70.440  1.00  0.00    -0.153 A  
HETATM   10 CL   UNL     3     -13.773  13.052  71.052  1.00  0.00     0.505 Cl 
HETATM   11  C   UNL     3     -11.969  12.241  69.173  1.00  0.00    -0.249 A  
HETATM   12  C   UNL     3     -10.966  11.392  68.682  1.00  0.00    -0.220 A  
HETATM   13 CL   UNL     3     -12.523  13.589  68.218  1.00  0.00     0.091 Cl 
HETATM   14  C   UNL     3     -10.511  10.291  69.454  1.00  0.00    -0.259 A  
HETATM   15 CL   UNL     3     -10.267  11.691  67.111  1.00  0.00    -0.233 Cl 
ENDROOT
BRANCH  14  16
HETATM   16  C   UNL     3      -9.499   9.356  68.854  1.00  0.00    -0.154 A  
HETATM   17  C   UNL     3      -9.648   8.006  68.957  1.00  0.00    -0.156 A  
HETATM   18  C   UNL     3     -10.765   7.412  69.693  1.00  0.00    -0.245 C  
HETATM   19  C   UNL     3     -11.012   6.094  69.685  1.00  0.00    -0.389 C  
HETATM   20 BR   UNL     3     -12.494   5.376  70.558  1.00  0.00     5.363 Br 
HETATM   21  C   UNL     3     -10.121   5.175  68.906  1.00  0.00    -0.167 C  
HETATM   22  O   UNL     3     -10.422   3.986  68.748  1.00  0.00     0.602 OA 
HETATM   23  C   UNL     3      -8.895   5.762  68.286  1.00  0.00    -0.109 C  
HETATM   24  C   UNL     3      -8.693   7.100  68.304  1.00  0.00    -0.128 A  
HETATM   25 BR   UNL     3      -7.731   4.579  67.418  1.00  0.00    -0.089 Br 
HETATM   26  O   UNL     3      -7.592   7.624  67.648  1.00  0.00    -0.104 OA 
HETATM   27  C   UNL     3      -7.430   8.977  67.518  1.00  0.00    -0.081 A  
HETATM   28  C   UNL     3      -8.320   9.863  68.112  1.00  0.00    -0.110 A  
HETATM   29  C   UNL     3      -8.065  11.226  67.980  1.00  0.00    -0.128 C  
HETATM   30  C   UNL     3      -6.980  11.693  67.218  1.00  0.00    -0.131 C  
HETATM   31 BR   UNL     3      -6.813  13.606  67.137  1.00  0.00     0.629 Br 
HETATM   32  C   UNL     3      -6.081  10.836  66.537  1.00  0.00    -0.103 C  
HETATM   33  C   UNL     3      -6.340   9.449  66.751  1.00  0.00    -0.066 C  
HETATM   34  O   UNL     3      -5.135  11.272  65.793  1.00  0.00    -0.240 OA 
HETATM   35 BR   UNL     3      -5.187   8.118  65.954  1.00  0.00    -0.024 Br 
ENDBRANCH  14  16
TORSDOF 1
ENDMDL
MODEL      133
REMARK 921   NORMALIZED FREE ENERGY PREDICTED BY IDOCK:    9.75 KCAL/MOL
REMARK 922        TOTAL FREE ENERGY PREDICTED BY IDOCK:    9.57 KCAL/MOL
REMARK 923 INTER-LIGAND FREE ENERGY PREDICTED BY IDOCK:    0.58 KCAL/MOL
REMARK 924 INTRA-LIGAND FREE ENERGY PREDICTED BY IDOCK:    8.99 KCAL/MOL
REMARK 927      BINDING AFFINITY PREDICTED BY RF-SCORE:    0.00 PKD
ROOT
HETATM    1 NA   UNL     1      -5.261  12.433  68.379  1.00  0.00    -0.049 Na 
HETATM    2 NA   UNL     2      -6.499  11.688  63.561  1.00  0.00    -0.100 Na 
HETATM    3  O   UNL     3      -7.008  12.214  65.413  1.00  0.00     2.012 OA 
HETATM    4  C   UNL     3      -7.638  12.629  66.447  1.00  0.00     0.939 C  
HETATM    5  C   UNL     3      -9.086  13.022  66.319  1.00  0.00    -0.005 A  
HETATM    6  O   UNL     3      -7.057  12.684  67.579  1.00  0.00    -0.128 OA 
HETATM    7  C   UNL     3      -9.977  12.255  65.531  1.00  0.00    -0.244 A  
HETATM    8 CL   UNL     3      -9.426  10.802  64.727  1.00  0.00    -0.267 Cl 
HETATM    9  C   UNL     3     -11.336  12.626  65.397  1.00  0.00    -0.313 A  
HETATM   10 CL   UNL     3     -12.407  11.665  64.407  1.00  0.00    -0.088 Cl 
HETATM   11  C   UNL     3     -11.832  13.758  66.059  1.00  0.00    -0.390 A  
HETATM   12  C   UNL     3     -10.967  14.531  66.851  1.00  0.00    -0.316 A  
HETATM   13 CL   UNL     3     -13.509  14.200  65.904  1.00  0.00     0.611 Cl 
HETATM   14  C   UNL     3      -9.599  14.177  66.981  1.00  0.00    -0.264 A  
HETATM   15 CL   UNL     3     -11.578  15.935  67.686  1.00  0.00    -0.074 Cl 
ENDROOT
BRANCH  14  16
HETATM   16  C   UNL     3      -8.690  15.081  67.766  1.00  0.00    -0.167 A  
HETATM   17  C   UNL     3      -8.697  16.427  67.560  1.00  0.00    -0.188 A  
HETATM   18  C   UNL     3      -9.547  17.043  66.540  1.00  0.00    -0.295 C  
HETATM   19  C   UNL     3      -9.678  18.372  66.419  1.00  0.00    -0.339 C  
HETATM   20 BR   UNL     3     -10.837  19.126  65.169  1.00  0.00     1.270 Br 
HETATM   21  C   UNL     3      -8.932  19.280  67.348  1.00  0.00    -0.296 C  
HETATM   22  O   UNL     3      -9.163  20.495  67.364  1.00  0.00    -0.376 OA 
HETATM   23  C   UNL     3      -7.948  18.657  68.283  1.00  0.00    -0.312 C  
HETATM   24  C   UNL     3      -7.859  17.310  68.384  1.00  0.00    -0.254 A  
HETATM   25 BR   UNL     3      -6.938  19.816  69.352  1.00  0.00    -0.264 Br 
HETATM   26  O   UNL     3      -6.999  16.760  69.319  1.00  0.00    -0.226 OA 
HETATM   27  C   UNL     3      -6.987  15.411  69.554  1.00  0.00    -0.188 A  
HETATM   28  C   UNL     3      -7.775  14.548  68.803  1.00  0.00    -0.140 A  
HETATM   29  C   UNL     3      -7.674  13.183  69.064  1.00  0.00     0.178 C  
HETATM   30  C   UNL     3      -6.851  12.699  70.095  1.00  0.00     0.733 C  
HETATM   31 BR   UNL     3      -6.868  10.789  70.312  1.00  0.00     0.189 Br 
HETATM   32  C   UNL     3      -6.077  13.538  70.933  1.00  0.00     0.041 C  
HETATM   33  C   UNL     3      -6.161  14.921  70.591  1.00  0.00    -0.074 C  
HETATM   34  O   UNL     3      -5.382  13.092  71.911  1.00  0.00    -0.333 OA 
HETATM   35 BR   UNL     3      -5.131  16.223  71.582  1.00  0.00     0.295 Br 
ENDBRANCH  14  16
TORSDOF 1
ENDMDL
MODEL      134
REMARK 921   NORMALIZED FREE ENERGY PREDICTED BY IDOCK:    9.98 KCAL/MOL
REMARK 922        TOTAL FREE ENERGY PREDICTED BY IDOCK:    9.81 KCAL/MOL
REMARK 923 INTER-LIGAND FREE ENERGY PREDICTED BY IDOCK:   10.28 KCAL/MOL
REMARK 924 INTRA-LIGAND FREE ENERGY PREDICTED BY IDOCK:   -0.48 KCAL/MOL
REMARK 927      BINDING AFFINITY PREDICTED BY RF-SCORE:    0.00 PKD
ROOT
HETATM    1 NA   UNL     1     -12.526   9.298  66.834  1.00  0.00     1.858 Na 
HETATM    2 NA   UNL     2     -12.226   7.961  71.674  1.00  0.00    -0.263 Na 
HETATM    3  O   UNL     3     -11.436   8.846  70.076  1.00  0.00    -0.131 OA 
HETATM    4  C   UNL     3     -10.683   9.508  69.279  1.00  0.00    -0.222 C  
HETATM    5  C   UNL     3      -9.385  10.074  69.793  1.00  0.00    -0.233 A  
HETATM    6  O   UNL     3     -11.012   9.664  68.058  1.00  0.00    -0.227 OA 
HETATM    7  C   UNL     3      -8.561   9.321  70.664  1.00  0.00    -0.225 A  
HETATM    8 CL   UNL     3      -9.011   7.693  71.125  1.00  0.00    -0.138 Cl 
HETATM    9  C   UNL     3      -7.347   9.851  71.159  1.00  0.00     0.616 A  
HETATM   10 CL   UNL     3      -6.360   8.901  72.243  1.00  0.00    -0.051 Cl 
HETATM   11  C   UNL     3      -6.926  11.134  70.781  1.00  0.00     1.569 A  
HETATM   12  C   UNL     3      -7.723  11.896  69.913  1.00  0.00     1.428 A  
HETATM   13 CL   UNL     3      -5.421  11.774  71.380  1.00  0.00     0.036 Cl 
HETATM   14  C   UNL     3      -8.951  11.380  69.421  1.00  0.00     0.523 A  
HETATM   15 CL   UNL     3      -7.201  13.489  69.429  1.00  0.00     0.095 Cl 
ENDROOT
BRANCH  14  16
HETATM   16  C   UNL     3      -9.815  12.264  68.566  1.00  0.00    -0.157 A  
HETATM   17  C   UNL     3     -10.621  13.206  69.127  1.00  0.00    -0.004 A  
HETATM   18  C   UNL     3     -10.718  13.367  70.579  1.00  0.00     1.988 C  
HETATM   19  C   UNL     3     -11.390  14.379  71.148  1.00  0.00     0.237 C  
HETATM   20 BR   UNL     3     -11.422  14.608  72.997  1.00  0.00     0.785 Br 
HETATM   21  C   UNL     3     -12.080  15.391  70.286  1.00  0.00    -0.369 C  
HETATM   22  O   UNL     3     -12.562  16.417  70.779  1.00  0.00     0.168 OA 
HETATM   23  C   UNL     3     -12.112  15.139  68.813  1.00  0.00    -0.165 C  
HETATM   24  C   UNL     3     -11.406  14.115  68.280  1.00  0.00    -0.291 A  
HETATM   25 BR   UNL     3     -13.080  16.351  67.764  1.00  0.00     5.199 Br 
HETATM   26  O   UNL     3     -11.386  13.956  66.904  1.00  0.00    -0.306 OA 
HETATM   27  C   UNL     3     -10.570  13.026  66.317  1.00  0.00    -0.271 A  
HETATM   28  C   UNL     3      -9.805  12.160  67.087  1.00  0.00    -0.205 A  
HETATM   29  C   UNL     3      -9.037  11.205  66.422  1.00  0.00    -0.198 C  
HETATM   30  C   UNL     3      -8.987  11.162  65.019  1.00  0.00    -0.068 C  
HETATM   31 BR   UNL     3      -7.852   9.791  64.293  1.00  0.00    -0.141 Br 
HETATM   32  C   UNL     3      -9.695  12.063  64.186  1.00  0.00    -0.098 C  
HETATM   33  C   UNL     3     -10.517  12.981  64.905  1.00  0.00    -0.339 C  
HETATM   34  O   UNL     3      -9.592  12.056  62.909  1.00  0.00    -0.332 OA 
HETATM   35 BR   UNL     3     -11.608  14.255  63.945  1.00  0.00     0.217 Br 
ENDBRANCH  14  16
TORSDOF 1
ENDMDL
MODEL      135
REMARK 921   NORMALIZED FREE ENERGY PREDICTED BY IDOCK:   10.16 KCAL/MOL
REMARK 922        TOTAL FREE ENERGY PREDICTED BY IDOCK:   10.00 KCAL/MOL
REMARK 923 INTER-LIGAND FREE ENERGY PREDICTED BY IDOCK:    9.49 KCAL/MOL
REMARK 924 INTRA-LIGAND FREE ENERGY PREDICTED BY IDOCK:    0.51 KCAL/MOL
REMARK 927      BINDING AFFINITY PREDICTED BY RF-SCORE:    0.00 PKD
ROOT
HETATM    1 NA   UNL     1     -10.186  11.922  65.361  1.00  0.00    -0.220 Na 
HETATM    2 NA   UNL     2     -14.189  14.947  65.709  1.00  0.00    -0.349 Na 
HETATM    3  O   UNL     3     -12.604  14.079  66.544  1.00  0.00    -0.393 OA 
HETATM    4  C   UNL     3     -11.675  13.724  67.350  1.00  0.00    -0.382 C  
HETATM    5  C   UNL     3     -11.665  14.276  68.751  1.00  0.00    -0.378 A  
HETATM    6  O   UNL     3     -10.783  12.891  66.983  1.00  0.00    -0.253 OA 
HETATM    7  C   UNL     3     -12.868  14.408  69.486  1.00  0.00     0.388 A  
HETATM    8 CL   UNL     3     -14.390  13.885  68.799  1.00  0.00     9.844 Cl 
HETATM    9  C   UNL     3     -12.867  14.937  70.798  1.00  0.00    -0.372 A  
HETATM   10 CL   UNL     3     -14.370  15.099  71.672  1.00  0.00    -0.637 Cl 
HETATM   11  C   UNL     3     -11.665  15.328  71.405  1.00  0.00    -0.389 A  
HETATM   12  C   UNL     3     -10.459  15.200  70.698  1.00  0.00     0.067 A  
HETATM   13 CL   UNL     3     -11.667  15.962  73.027  1.00  0.00    -0.498 Cl 
HETATM   14  C   UNL     3     -10.449  14.685  69.375  1.00  0.00    -0.175 A  
HETATM   15 CL   UNL     3      -8.957  15.674  71.450  1.00  0.00     3.571 Cl 
ENDROOT
BRANCH  14  16
HETATM   16  C   UNL     3      -9.148  14.648  68.623  1.00  0.00    -0.189 A  
HETATM   17  C   UNL     3      -8.502  13.469  68.406  1.00  0.00    -0.143 A  
HETATM   18  C   UNL     3      -9.015  12.203  68.931  1.00  0.00     0.237 C  
HETATM   19  C   UNL     3      -8.477  11.018  68.607  1.00  0.00    -0.157 C  
HETATM   20 BR   UNL     3      -9.208   9.417  69.221  1.00  0.00    -0.170 Br 
HETATM   21  C   UNL     3      -7.302  10.964  67.680  1.00  0.00    -0.094 C  
HETATM   22  O   UNL     3      -6.894   9.883  67.239  1.00  0.00    -0.080 OA 
HETATM   23  C   UNL     3      -6.684  12.261  67.270  1.00  0.00    -0.143 C  
HETATM   24  C   UNL     3      -7.269  13.434  67.606  1.00  0.00    -0.161 A  
HETATM   25 BR   UNL     3      -5.143  12.171  66.208  1.00  0.00     1.006 Br 
HETATM   26  O   UNL     3      -6.721  14.617  67.141  1.00  0.00    -0.233 OA 
HETATM   27  C   UNL     3      -7.362  15.811  67.334  1.00  0.00    -0.197 A  
HETATM   28  C   UNL     3      -8.535  15.880  68.074  1.00  0.00    -0.162 A  
HETATM   29  C   UNL     3      -9.106  17.136  68.273  1.00  0.00    -0.259 C  
HETATM   30  C   UNL     3      -8.549  18.287  67.690  1.00  0.00    -0.255 C  
HETATM   31 BR   UNL     3      -9.496  19.918  68.061  1.00  0.00    -0.446 Br 
HETATM   32  C   UNL     3      -7.392  18.266  66.873  1.00  0.00    -0.208 C  
HETATM   33  C   UNL     3      -6.805  16.971  66.749  1.00  0.00    -0.230 C  
HETATM   34  O   UNL     3      -6.931  19.311  66.295  1.00  0.00    -0.207 OA 
HETATM   35 BR   UNL     3      -5.184  16.743  65.721  1.00  0.00     1.765 Br 
ENDBRANCH  14  16
TORSDOF 1
ENDMDL
MODEL      136
REMARK 921   NORMALIZED FREE ENERGY PREDICTED BY IDOCK:   10.49 KCAL/MOL
REMARK 922        TOTAL FREE ENERGY PREDICTED BY IDOCK:   10.35 KCAL/MOL
REMARK 923 INTER-LIGAND FREE ENERGY PREDICTED BY IDOCK:   -0.45 KCAL/MOL
REMARK 924 INTRA-LIGAND FREE ENERGY PREDICTED BY IDOCK:   10.80 KCAL/MOL
REMARK 927      BINDING AFFINITY PREDICTED BY RF-SCORE:    0.00 PKD
ROOT
HETATM    1 NA   UNL     1      -8.760   7.477  73.077  1.00  0.00    -0.113 Na 
HETATM    2 NA   UNL     2     -13.753   8.001  73.388  1.00  0.00    -0.359 Na 
HETATM    3  O   UNL     3     -11.994   8.614  72.687  1.00  0.00    -0.340 OA 
HETATM    4  C   UNL     3     -11.064   9.229  72.055  1.00  0.00    -0.103 C  
HETATM    5  C   UNL     3     -11.422  10.388  71.163  1.00  0.00    -0.223 A  
HETATM    6  O   UNL     3      -9.847   8.883  72.200  1.00  0.00    -0.312 OA 
HETATM    7  C   UNL     3     -12.393  11.337  71.564  1.00  0.00    -0.117 A  
HETATM    8 CL   UNL     3     -13.165  11.211  73.130  1.00  0.00     3.018 Cl 
HETATM    9  C   UNL     3     -12.742  12.422  70.726  1.00  0.00    -0.123 A  
HETATM   10 CL   UNL     3     -13.954  13.568  71.245  1.00  0.00     0.136 Cl 
HETATM   11  C   UNL     3     -12.118  12.587  69.482  1.00  0.00    -0.187 A  
HETATM   12  C   UNL     3     -11.148  11.662  69.066  1.00  0.00    -0.241 A  
HETATM   13 CL   UNL     3     -12.540  13.934  68.461  1.00  0.00     0.267 Cl 
HETATM   14  C   UNL     3     -10.800  10.561  69.892  1.00  0.00    -0.334 A  
HETATM   15 CL   UNL     3     -10.358  11.866  67.523  1.00  0.00    -0.213 Cl 
ENDROOT
BRANCH  14  16
HETATM   16  C   UNL     3      -9.821   9.547  69.370  1.00  0.00    -0.194 A  
HETATM   17  C   UNL     3      -8.776   9.926  68.584  1.00  0.00    -0.124 A  
HETATM   18  C   UNL     3      -8.588  11.319  68.177  1.00  0.00    -0.150 C  
HETATM   19  C   UNL     3      -7.491  11.738  67.528  1.00  0.00    -0.131 C  
HETATM   20 BR   UNL     3      -7.239  13.534  67.100  1.00  0.00     0.363 Br 
HETATM   21  C   UNL     3      -6.407  10.760  67.192  1.00  0.00    -0.072 C  
HETATM   22  O   UNL     3      -5.322  11.149  66.745  1.00  0.00    -0.066 OA 
HETATM   23  C   UNL     3      -6.669   9.315  67.469  1.00  0.00    -0.069 C  
HETATM   24  C   UNL     3      -7.782   8.938  68.141  1.00  0.00    -0.100 A  
HETATM   25 BR   UNL     3      -5.353   8.095  66.933  1.00  0.00    -0.033 Br 
HETATM   26  O   UNL     3      -7.957   7.602  68.457  1.00  0.00    -0.119 OA 
HETATM   27  C   UNL     3      -8.991   7.200  69.259  1.00  0.00    -0.138 A  
HETATM   28  C   UNL     3      -9.942   8.108  69.707  1.00  0.00    -0.191 A  
HETATM   29  C   UNL     3     -10.995   7.620  70.478  1.00  0.00    -0.259 C  
HETATM   30  C   UNL     3     -11.060   6.265  70.845  1.00  0.00    -0.306 C  
HETATM   31 BR   UNL     3     -12.574   5.794  71.930  1.00  0.00     0.983 Br 
HETATM   32  C   UNL     3     -10.084   5.309  70.471  1.00  0.00    -0.245 C  
HETATM   33  C   UNL     3      -9.059   5.838  69.630  1.00  0.00    -0.135 C  
HETATM   34  O   UNL     3     -10.118   4.091  70.864  1.00  0.00    -0.149 OA 
HETATM   35 BR   UNL     3      -7.664   4.677  68.964  1.00  0.00    -0.071 Br 
ENDBRANCH  14  16
TORSDOF 1
ENDMDL
MODEL      137
REMARK 921   NORMALIZED FREE ENERGY PREDICTED BY IDOCK:   10.49 KCAL/MOL
REMARK 922        TOTAL FREE ENERGY PREDICTED BY IDOCK:   10.35 KCAL/MOL
REMARK 923 INTER-LIGAND FREE ENERGY PREDICTED BY IDOCK:   -0.91 KCAL/MOL
REMARK 924 INTRA-LIGAND FREE ENERGY PREDICTED BY IDOCK:   11.25 KCAL/MOL
REMARK 927      BINDING AFFINITY PREDICTED BY RF-SCORE:    0.00 PKD
ROOT
HETATM    1 NA   UNL     1      -9.870   8.737  64.833  1.00  0.00    -0.430 Na 
HETATM    2 NA   UNL     2      -8.386  13.510  64.275  1.00  0.00     1.791 Na 
HETATM    3  O   UNL     3      -9.432  12.132  65.259  1.00  0.00    -0.125 OA 
HETATM    4  C   UNL     3     -10.162  11.513  66.109  1.00  0.00    -0.232 C  
HETATM    5  C   UNL     3     -10.768  12.279  67.256  1.00  0.00    -0.263 A  
HETATM    6  O   UNL     3     -10.398  10.268  65.974  1.00  0.00    -0.237 OA 
HETATM    7  C   UNL     3     -11.312  13.570  67.056  1.00  0.00    -0.324 A  
HETATM    8 CL   UNL     3     -11.337  14.287  65.460  1.00  0.00    -0.318 Cl 
HETATM    9  C   UNL     3     -11.872  14.300  68.131  1.00  0.00    -0.339 A  
HETATM   10 CL   UNL     3     -12.522  15.897  67.854  1.00  0.00     1.047 Cl 
HETATM   11  C   UNL     3     -11.913  13.747  69.419  1.00  0.00    -0.347 A  
HETATM   12  C   UNL     3     -11.385  12.465  69.640  1.00  0.00    -0.123 A  
HETATM   13 CL   UNL     3     -12.619  14.643  70.736  1.00  0.00    -0.391 Cl 
HETATM   14  C   UNL     3     -10.808  11.730  68.571  1.00  0.00    -0.261 A  
HETATM   15 CL   UNL     3     -11.442  11.765  71.237  1.00  0.00     1.362 Cl 
ENDROOT
BRANCH  14  16
HETATM   16  C   UNL     3     -10.176  10.399  68.869  1.00  0.00    -0.220 A  
HETATM   17  C   UNL     3     -10.696   9.577  69.822  1.00  0.00    -0.259 A  
HETATM   18  C   UNL     3     -11.854   9.971  70.626  1.00  0.00    -0.411 C  
HETATM   19  C   UNL     3     -12.470   9.124  71.464  1.00  0.00    -0.346 C  
HETATM   20 BR   UNL     3     -13.997   9.626  72.407  1.00  0.00    -0.022 Br 
HETATM   21  C   UNL     3     -11.967   7.720  71.604  1.00  0.00    -0.297 C  
HETATM   22  O   UNL     3     -12.613   6.878  72.240  1.00  0.00    -0.159 OA 
HETATM   23  C   UNL     3     -10.696   7.367  70.904  1.00  0.00    -0.235 C  
HETATM   24  C   UNL     3     -10.116   8.247  70.055  1.00  0.00    -0.196 A  
HETATM   25 BR   UNL     3     -10.019   5.644  71.187  1.00  0.00    -0.256 Br 
HETATM   26  O   UNL     3      -8.985   7.862  69.356  1.00  0.00    -0.144 OA 
HETATM   27  C   UNL     3      -8.455   8.665  68.381  1.00  0.00    -0.131 A  
HETATM   28  C   UNL     3      -8.984   9.923  68.126  1.00  0.00    -0.118 A  
HETATM   29  C   UNL     3      -8.363  10.706  67.156  1.00  0.00    -0.125 C  
HETATM   30  C   UNL     3      -7.275  10.215  66.413  1.00  0.00    -0.108 C  
HETATM   31 BR   UNL     3      -6.573  11.436  65.106  1.00  0.00     1.587 Br 
HETATM   32  C   UNL     3      -6.736   8.916  66.587  1.00  0.00    -0.072 C  
HETATM   33  C   UNL     3      -7.361   8.174  67.633  1.00  0.00    -0.093 C  
HETATM   34  O   UNL     3      -5.787   8.456  65.861  1.00  0.00    -0.042 OA 
HETATM   35 BR   UNL     3      -6.729   6.398  68.064  1.00  0.00    -0.071 Br 
ENDBRANCH  14  16
TORSDOF 1
ENDMDL
MODEL      138
REMARK 921   NORMALIZED FREE ENERGY PREDICTED BY IDOCK:   11.67 KCAL/MOL
REMARK 922        TOTAL FREE ENERGY PREDICTED BY IDOCK:   11.60 KCAL/MOL
REMARK 923 INTER-LIGAND FREE ENERGY PREDICTED BY IDOCK:    5.65 KCAL/MOL
REMARK 924 INTRA-LIGAND FREE ENERGY PREDICTED BY IDOCK:    5.95 KCAL/MOL
REMARK 927      BINDING AFFINITY PREDICTED BY RF-SCORE:    0.00 PKD
ROOT
HETATM    1 NA   UNL     1     -11.955   9.883  64.043  1.00  0.00     1.467 Na 
HETATM    2 NA   UNL     2     -11.578  13.574  67.439  1.00  0.00    -0.258 Na 
HETATM    3  O   UNL     3     -11.467  11.643  66.969  1.00  0.00    -0.418 OA 
HETATM    4  C   UNL     3     -11.278  10.377  66.996  1.00  0.00     0.063 C  
HETATM    5  C   UNL     3     -10.834   9.725  68.278  1.00  0.00    -0.256 A  
HETATM    6  O   UNL     3     -11.491   9.670  65.957  1.00  0.00     1.549 OA 
HETATM    7  C   UNL     3     -11.386  10.120  69.520  1.00  0.00    -0.206 A  
HETATM    8 CL   UNL     3     -12.636  11.344  69.588  1.00  0.00    -0.103 Cl 
HETATM    9  C   UNL     3     -10.964   9.520  70.730  1.00  0.00    -0.321 A  
HETATM   10 CL   UNL     3     -11.655  10.040  72.247  1.00  0.00     0.838 Cl 
HETATM   11  C   UNL     3      -9.996   8.505  70.719  1.00  0.00    -0.191 A  
HETATM   12  C   UNL     3      -9.439   8.093  69.499  1.00  0.00    -0.156 A  
HETATM   13 CL   UNL     3      -9.493   7.758  72.210  1.00  0.00    -0.208 Cl 
HETATM   14  C   UNL     3      -9.844   8.698  68.280  1.00  0.00    -0.186 A  
HETATM   15 CL   UNL     3      -8.243   6.823  69.475  1.00  0.00    -0.129 Cl 
ENDROOT
BRANCH  14  16
HETATM   16  C   UNL     3      -9.159   8.288  67.007  1.00  0.00    -0.172 A  
HETATM   17  C   UNL     3      -8.732   9.221  66.112  1.00  0.00    -0.169 A  
HETATM   18  C   UNL     3      -8.963  10.651  66.325  1.00  0.00    -0.180 C  
HETATM   19  C   UNL     3      -8.427  11.592  65.535  1.00  0.00     0.380 C  
HETATM   20 BR   UNL     3      -8.665  13.407  65.884  1.00  0.00     1.184 Br 
HETATM   21  C   UNL     3      -7.561  11.189  64.381  1.00  0.00     0.901 C  
HETATM   22  O   UNL     3      -6.925  12.036  63.742  1.00  0.00     3.360 OA 
HETATM   23  C   UNL     3      -7.454   9.731  64.072  1.00  0.00    -0.130 C  
HETATM   24  C   UNL     3      -7.998   8.814  64.906  1.00  0.00    -0.135 A  
HETATM   25 BR   UNL     3      -6.465   9.253  62.555  1.00  0.00    -0.092 Br 
HETATM   26  O   UNL     3      -7.811   7.468  64.640  1.00  0.00    -0.118 OA 
HETATM   27  C   UNL     3      -8.217   6.513  65.533  1.00  0.00    -0.138 A  
HETATM   28  C   UNL     3      -8.903   6.862  66.689  1.00  0.00    -0.140 A  
HETATM   29  C   UNL     3      -9.330   5.834  67.527  1.00  0.00    -0.111 C  
HETATM   30  C   UNL     3      -9.022   4.493  67.246  1.00  0.00    -0.117 C  
HETATM   31 BR   UNL     3      -9.678   3.227  68.535  1.00  0.00     0.163 Br 
HETATM   32  C   UNL     3      -8.270   4.086  66.117  1.00  0.00    -0.105 C  
HETATM   33  C   UNL     3      -7.908   5.163  65.253  1.00  0.00    -0.090 C  
HETATM   34  O   UNL     3      -7.939   2.867  65.905  1.00  0.00    -0.081 OA 
HETATM   35 BR   UNL     3      -6.927   4.805  63.626  1.00  0.00    -0.048 Br 
ENDBRANCH  14  16
TORSDOF 1
ENDMDL
MODEL      139
REMARK 921   NORMALIZED FREE ENERGY PREDICTED BY IDOCK:   12.50 KCAL/MOL
REMARK 922        TOTAL FREE ENERGY PREDICTED BY IDOCK:   12.47 KCAL/MOL
REMARK 923 INTER-LIGAND FREE ENERGY PREDICTED BY IDOCK:   12.38 KCAL/MOL
REMARK 924 INTRA-LIGAND FREE ENERGY PREDICTED BY IDOCK:    0.09 KCAL/MOL
REMARK 927      BINDING AFFINITY PREDICTED BY RF-SCORE:    0.00 PKD
ROOT
HETATM    1 NA   UNL     1     -11.830  17.329  71.220  1.00  0.00    -0.583 Na 
HETATM    2 NA   UNL     2     -11.065  13.141  73.898  1.00  0.00     3.343 Na 
HETATM    3  O   UNL     3     -11.236  14.058  72.140  1.00  0.00     1.608 OA 
HETATM    4  C   UNL     3     -11.253  14.333  70.889  1.00  0.00     0.352 C  
HETATM    5  C   UNL     3     -10.991  13.236  69.891  1.00  0.00     0.335 A  
HETATM    6  O   UNL     3     -11.515  15.514  70.490  1.00  0.00    -0.283 OA 
HETATM    7  C   UNL     3     -11.542  11.945  70.071  1.00  0.00    -0.220 A  
HETATM    8 CL   UNL     3     -12.584  11.608  71.437  1.00  0.00    -0.433 Cl 
HETATM    9  C   UNL     3     -11.290  10.908  69.143  1.00  0.00    -0.283 A  
HETATM   10 CL   UNL     3     -11.975   9.322  69.403  1.00  0.00     0.697 Cl 
HETATM   11  C   UNL     3     -10.497  11.145  68.012  1.00  0.00    -0.188 A  
HETATM   12  C   UNL     3      -9.945  12.419  67.808  1.00  0.00    -0.205 A  
HETATM   13 CL   UNL     3     -10.205   9.868  66.863  1.00  0.00    -0.289 Cl 
HETATM   14  C   UNL     3     -10.179  13.464  68.740  1.00  0.00    -0.128 A  
HETATM   15 CL   UNL     3      -8.966  12.726  66.397  1.00  0.00    -0.106 Cl 
ENDROOT
BRANCH  14  16
HETATM   16  C   UNL     3      -9.496  14.786  68.530  1.00  0.00    -0.214 A  
HETATM   17  C   UNL     3      -8.507  15.202  69.368  1.00  0.00    -0.190 A  
HETATM   18  C   UNL     3      -8.102  14.410  70.530  1.00  0.00     1.932 C  
HETATM   19  C   UNL     3      -7.037  14.726  71.281  1.00  0.00     1.553 C  
HETATM   20 BR   UNL     3      -6.492  13.648  72.701  1.00  0.00     2.974 Br 
HETATM   21  C   UNL     3      -6.221  15.936  70.943  1.00  0.00     0.646 C  
HETATM   22  O   UNL     3      -5.147  16.155  71.516  1.00  0.00    -0.206 OA 
HETATM   23  C   UNL     3      -6.726  16.829  69.856  1.00  0.00     0.182 C  
HETATM   24  C   UNL     3      -7.795  16.462  69.111  1.00  0.00    -0.214 A  
HETATM   25 BR   UNL     3      -5.759  18.399  69.527  1.00  0.00    -0.256 Br 
HETATM   26  O   UNL     3      -8.189  17.268  68.057  1.00  0.00    -0.210 OA 
HETATM   27  C   UNL     3      -9.170  16.862  67.191  1.00  0.00    -0.229 A  
HETATM   28  C   UNL     3      -9.855  15.672  67.396  1.00  0.00    -0.225 A  
HETATM   29  C   UNL     3     -10.875  15.347  66.504  1.00  0.00    -0.298 C  
HETATM   30  C   UNL     3     -11.159  16.164  65.397  1.00  0.00    -0.122 C  
HETATM   31 BR   UNL     3     -12.584  15.532  64.272  1.00  0.00     0.670 Br 
HETATM   32  C   UNL     3     -10.449  17.354  65.104  1.00  0.00     0.307 C  
HETATM   33  C   UNL     3      -9.457  17.682  66.076  1.00  0.00    -0.066 C  
HETATM   34  O   UNL     3     -10.672  18.056  64.057  1.00  0.00     2.597 OA 
HETATM   35 BR   UNL     3      -8.418  19.301  65.885  1.00  0.00     0.137 Br 
ENDBRANCH  14  16
TORSDOF 1
ENDMDL
MODEL      140
REMARK 921   NORMALIZED FREE ENERGY PREDICTED BY IDOCK:   12.76 KCAL/MOL
REMARK 922        TOTAL FREE ENERGY PREDICTED BY IDOCK:   12.75 KCAL/MOL
REMARK 923 INTER-LIGAND FREE ENERGY PREDICTED BY IDOCK:   12.37 KCAL/MOL
REMARK 924 INTRA-LIGAND FREE ENERGY PREDICTED BY IDOCK:    0.38 KCAL/MOL
REMARK 927      BINDING AFFINITY PREDICTED BY RF-SCORE:    0.00 PKD
ROOT
HETATM    1 NA   UNL     1     -13.862  14.065  69.040  1.00  0.00     0.615 Na 
HETATM    2 NA   UNL     2     -11.668  17.770  71.640  1.00  0.00    -0.394 Na 
HETATM    3  O   UNL     3     -11.540  16.058  70.633  1.00  0.00    -0.365 OA 
HETATM    4  C   UNL     3     -11.115  15.010  70.032  1.00  0.00    -0.263 C  
HETATM    5  C   UNL     3      -9.639  14.711  70.027  1.00  0.00     0.591 A  
HETATM    6  O   UNL     3     -11.933  14.212  69.469  1.00  0.00    -0.301 OA 
HETATM    7  C   UNL     3      -8.857  14.908  71.190  1.00  0.00     3.290 A  
HETATM    8 CL   UNL     3      -9.598  15.457  72.677  1.00  0.00     5.406 Cl 
HETATM    9  C   UNL     3      -7.468  14.640  71.188  1.00  0.00     2.128 A  
HETATM   10 CL   UNL     3      -6.528  14.906  72.636  1.00  0.00     1.257 Cl 
HETATM   11  C   UNL     3      -6.839  14.158  70.031  1.00  0.00     0.072 A  
HETATM   12  C   UNL     3      -7.596  13.949  68.867  1.00  0.00    -0.060 A  
HETATM   13 CL   UNL     3      -5.132  13.814  70.039  1.00  0.00    -0.089 Cl 
HETATM   14  C   UNL     3      -8.989  14.228  68.853  1.00  0.00    -0.025 A  
HETATM   15 CL   UNL     3      -6.825  13.338  67.427  1.00  0.00    -0.152 Cl 
ENDROOT
BRANCH  14  16
HETATM   16  C   UNL     3      -9.743  14.074  67.563  1.00  0.00    -0.232 A  
HETATM   17  C   UNL     3     -10.263  15.160  66.925  1.00  0.00    -0.259 A  
HETATM   18  C   UNL     3     -10.152  16.506  67.487  1.00  0.00    -0.267 C  
HETATM   19  C   UNL     3     -10.525  17.602  66.810  1.00  0.00    -0.289 C  
HETATM   20 BR   UNL     3     -10.290  19.310  67.518  1.00  0.00    -0.581 Br 
HETATM   21  C   UNL     3     -11.085  17.467  65.427  1.00  0.00     0.312 C  
HETATM   22  O   UNL     3     -11.281  18.465  64.724  1.00  0.00    -0.344 OA 
HETATM   23  C   UNL     3     -11.342  16.086  64.917  1.00  0.00    -0.229 C  
HETATM   24  C   UNL     3     -10.934  15.008  65.626  1.00  0.00    -0.354 A  
HETATM   25 BR   UNL     3     -12.153  15.938  63.235  1.00  0.00     3.659 Br 
HETATM   26  O   UNL     3     -11.110  13.744  65.090  1.00  0.00    -0.307 OA 
HETATM   27  C   UNL     3     -10.582  12.641  65.706  1.00  0.00    -0.272 A  
HETATM   28  C   UNL     3      -9.930  12.748  66.927  1.00  0.00    -0.232 A  
HETATM   29  C   UNL     3      -9.463  11.577  67.520  1.00  0.00    -0.173 C  
HETATM   30  C   UNL     3      -9.588  10.335  66.874  1.00  0.00    -0.173 C  
HETATM   31 BR   UNL     3      -8.859   8.844  67.842  1.00  0.00    -0.135 Br 
HETATM   32  C   UNL     3     -10.186  10.177  65.599  1.00  0.00    -0.218 C  
HETATM   33  C   UNL     3     -10.707  11.391  65.058  1.00  0.00    -0.277 C  
HETATM   34  O   UNL     3     -10.237   9.052  64.991  1.00  0.00     0.839 OA 
HETATM   35 BR   UNL     3     -11.612  11.373  63.350  1.00  0.00     0.196 Br 
ENDBRANCH  14  16
TORSDOF 1
ENDMDL
MODEL      141
REMARK 921   NORMALIZED FREE ENERGY PREDICTED BY IDOCK:   12.89 KCAL/MOL
REMARK 922        TOTAL FREE ENERGY PREDICTED BY IDOCK:   12.89 KCAL/MOL
REMARK 923 INTER-LIGAND FREE ENERGY PREDICTED BY IDOCK:    4.39 KCAL/MOL
REMARK 924 INTRA-LIGAND FREE ENERGY PREDICTED BY IDOCK:    8.50 KCAL/MOL
REMARK 927      BINDING AFFINITY PREDICTED BY RF-SCORE:    0.00 PKD
ROOT
HETATM    1 NA   UNL     1     -11.702  10.549  73.331  1.00  0.00     2.463 Na 
HETATM    2 NA   UNL     2      -6.940   8.932  73.444  1.00  0.00    -0.124 Na 
HETATM    3  O   UNL     3      -8.551   9.484  72.413  1.00  0.00     0.678 OA 
HETATM    4  C   UNL     3      -9.369   9.804  71.481  1.00  0.00     1.337 C  
HETATM    5  C   UNL     3      -8.916   9.726  70.047  1.00  0.00    -0.255 A  
HETATM    6  O   UNL     3     -10.561  10.157  71.759  1.00  0.00     0.853 OA 
HETATM    7  C   UNL     3      -8.124   8.643  69.595  1.00  0.00    -0.112 A  
HETATM    8 CL   UNL     3      -7.694   7.342  70.684  1.00  0.00    -0.090 Cl 
HETATM    9  C   UNL     3      -7.686   8.571  68.252  1.00  0.00    -0.102 A  
HETATM   10 CL   UNL     3      -6.699   7.228  67.730  1.00  0.00    -0.062 Cl 
HETATM   11  C   UNL     3      -8.044   9.568  67.333  1.00  0.00    -0.110 A  
HETATM   12  C   UNL     3      -8.834  10.648  67.757  1.00  0.00    -0.133 A  
HETATM   13 CL   UNL     3      -7.515   9.465  65.677  1.00  0.00    -0.094 Cl 
HETATM   14  C   UNL     3      -9.267  10.740  69.106  1.00  0.00    -0.131 A  
HETATM   15 CL   UNL     3      -9.292  11.889  66.619  1.00  0.00    -0.201 Cl 
ENDROOT
BRANCH  14  16
HETATM   16  C   UNL     3     -10.036  11.957  69.537  1.00  0.00     0.760 A  
HETATM   17  C   UNL     3     -11.211  11.836  70.215  1.00  0.00     0.295 A  
HETATM   18  C   UNL     3     -11.796  10.527  70.509  1.00  0.00    -0.442 C  
HETATM   19  C   UNL     3     -12.870  10.379  71.298  1.00  0.00    -0.433 C  
HETATM   20 BR   UNL     3     -13.540   8.694  71.726  1.00  0.00    -0.461 Br 
HETATM   21  C   UNL     3     -13.516  11.586  71.907  1.00  0.00    -0.171 C  
HETATM   22  O   UNL     3     -14.400  11.465  72.764  1.00  0.00     1.074 OA 
HETATM   23  C   UNL     3     -13.015  12.928  71.483  1.00  0.00    -0.294 C  
HETATM   24  C   UNL     3     -11.917  13.031  70.698  1.00  0.00    -0.138 A  
HETATM   25 BR   UNL     3     -13.913  14.425  72.162  1.00  0.00    -0.647 Br 
HETATM   26  O   UNL     3     -11.426  14.288  70.389  1.00  0.00    -0.229 OA 
HETATM   27  C   UNL     3     -10.238  14.433  69.723  1.00  0.00     0.308 A  
HETATM   28  C   UNL     3      -9.537  13.326  69.264  1.00  0.00     0.693 A  
HETATM   29  C   UNL     3      -8.362  13.551  68.550  1.00  0.00    -0.097 C  
HETATM   30  C   UNL     3      -7.868  14.852  68.355  1.00  0.00    -0.121 C  
HETATM   31 BR   UNL     3      -6.222  14.951  67.367  1.00  0.00     0.258 Br 
HETATM   32  C   UNL     3      -8.507  16.012  68.858  1.00  0.00    -0.232 C  
HETATM   33  C   UNL     3      -9.738  15.740  69.527  1.00  0.00    -0.276 C  
HETATM   34  O   UNL     3      -8.015  17.186  68.731  1.00  0.00    -0.260 OA 
HETATM   35 BR   UNL     3     -10.792  17.199  70.234  1.00  0.00     0.882 Br 
ENDBRANCH  14  16
TORSDOF 1
ENDMDL
MODEL      142
REMARK 921   NORMALIZED FREE ENERGY PREDICTED BY IDOCK:   14.12 KCAL/MOL
REMARK 922        TOTAL FREE ENERGY PREDICTED BY IDOCK:   14.19 KCAL/MOL
REMARK 923 INTER-LIGAND FREE ENERGY PREDICTED BY IDOCK:    2.73 KCAL/MOL
REMARK 924 INTRA-LIGAND FREE ENERGY PREDICTED BY IDOCK:   11.46 KCAL/MOL
REMARK 927      BINDING AFFINITY PREDICTED BY RF-SCORE:    0.00 PKD
ROOT
HETATM    1 NA   UNL     1     -10.343  17.225  66.102  1.00  0.00    -0.269 Na 
HETATM    2 NA   UNL     2     -11.609  18.430  70.818  1.00  0.00     0.943 Na 
HETATM    3  O   UNL     3     -11.359  17.062  69.394  1.00  0.00     0.148 OA 
HETATM    4  C   UNL     3     -11.269  15.963  68.742  1.00  0.00    -0.359 C  
HETATM    5  C   UNL     3     -11.581  14.665  69.439  1.00  0.00    -0.342 A  
HETATM    6  O   UNL     3     -10.945  15.968  67.510  1.00  0.00    -0.321 OA 
HETATM    7  C   UNL     3     -12.677  14.567  70.329  1.00  0.00    -0.272 A  
HETATM    8 CL   UNL     3     -13.725  15.942  70.603  1.00  0.00     0.587 Cl 
HETATM    9  C   UNL     3     -12.969  13.354  70.996  1.00  0.00    -0.184 A  
HETATM   10 CL   UNL     3     -14.321  13.270  72.099  1.00  0.00    -0.260 Cl 
HETATM   11  C   UNL     3     -12.182  12.215  70.773  1.00  0.00    -0.271 A  
HETATM   12  C   UNL     3     -11.094  12.287  69.889  1.00  0.00     0.267 A  
HETATM   13 CL   UNL     3     -12.557  10.719  71.584  1.00  0.00    -0.487 Cl 
HETATM   14  C   UNL     3     -10.783  13.503  69.226  1.00  0.00    -0.039 A  
HETATM   15 CL   UNL     3     -10.117  10.871  69.598  1.00  0.00    -0.064 Cl 
ENDROOT
BRANCH  14  16
HETATM   16  C   UNL     3      -9.558  13.559  68.358  1.00  0.00    -0.196 A  
HETATM   17  C   UNL     3      -8.803  14.690  68.288  1.00  0.00    -0.176 A  
HETATM   18  C   UNL     3      -9.175  15.907  69.011  1.00  0.00    -0.242 C  
HETATM   19  C   UNL     3      -8.375  16.981  69.074  1.00  0.00    -0.125 C  
HETATM   20 BR   UNL     3      -8.836  18.482  70.077  1.00  0.00     2.037 Br 
HETATM   21  C   UNL     3      -7.047  16.960  68.380  1.00  0.00    -0.187 C  
HETATM   22  O   UNL     3      -6.226  17.867  68.559  1.00  0.00    -0.180 OA 
HETATM   23  C   UNL     3      -6.737  15.781  67.515  1.00  0.00    -0.190 C  
HETATM   24  C   UNL     3      -7.566  14.712  67.494  1.00  0.00    -0.194 A  
HETATM   25 BR   UNL     3      -5.126  15.827  66.561  1.00  0.00     1.883 Br 
HETATM   26  O   UNL     3      -7.212  13.600  66.749  1.00  0.00     0.342 OA 
HETATM   27  C   UNL     3      -7.946  12.446  66.817  1.00  0.00     0.046 A  
HETATM   28  C   UNL     3      -9.114  12.386  67.567  1.00  0.00    -0.185 A  
HETATM   29  C   UNL     3      -9.837  11.195  67.549  1.00  0.00    -0.197 C  
HETATM   30  C   UNL     3      -9.369  10.071  66.849  1.00  0.00    -0.159 C  
HETATM   31 BR   UNL     3     -10.496   8.519  66.967  1.00  0.00    -0.309 Br 
HETATM   32  C   UNL     3      -8.153  10.057  66.121  1.00  0.00    -0.122 C  
HETATM   33  C   UNL     3      -7.478  11.314  66.113  1.00  0.00     0.045 C  
HETATM   34  O   UNL     3      -7.704   9.008  65.540  1.00  0.00    -0.088 OA 
HETATM   35 BR   UNL     3      -5.828  11.514  65.127  1.00  0.00     1.852 Br 
ENDBRANCH  14  16
TORSDOF 1
ENDMDL
MODEL      143
REMARK 921   NORMALIZED FREE ENERGY PREDICTED BY IDOCK:   14.68 KCAL/MOL
REMARK 922        TOTAL FREE ENERGY PREDICTED BY IDOCK:   14.78 KCAL/MOL
REMARK 923 INTER-LIGAND FREE ENERGY PREDICTED BY IDOCK:   15.76 KCAL/MOL
REMARK 924 INTRA-LIGAND FREE ENERGY PREDICTED BY IDOCK:   -0.99 KCAL/MOL
REMARK 927      BINDING AFFINITY PREDICTED BY RF-SCORE:    0.00 PKD
ROOT
HETATM    1 NA   UNL     1     -13.833  15.518  69.480  1.00  0.00    -0.116 Na 
HETATM    2 NA   UNL     2     -11.232  17.343  73.379  1.00  0.00    -0.304 Na 
HETATM    3  O   UNL     3     -11.292  16.327  71.668  1.00  0.00    -0.312 OA 
HETATM    4  C   UNL     3     -10.984  15.674  70.611  1.00  0.00    -0.340 C  
HETATM    5  C   UNL     3      -9.543  15.316  70.360  1.00  0.00     0.555 A  
HETATM    6  O   UNL     3     -11.888  15.306  69.792  1.00  0.00    -0.292 OA 
HETATM    7  C   UNL     3      -8.713  14.871  71.417  1.00  0.00     4.036 A  
HETATM    8 CL   UNL     3      -9.358  14.681  73.033  1.00  0.00     6.821 Cl 
HETATM    9  C   UNL     3      -7.356  14.544  71.191  1.00  0.00     1.982 A  
HETATM   10 CL   UNL     3      -6.355  14.012  72.520  1.00  0.00     0.918 Cl 
HETATM   11  C   UNL     3      -6.807  14.640  69.904  1.00  0.00    -0.136 A  
HETATM   12  C   UNL     3      -7.613  15.072  68.839  1.00  0.00    -0.144 A  
HETATM   13 CL   UNL     3      -5.140  14.219  69.628  1.00  0.00    -0.091 Cl 
HETATM   14  C   UNL     3      -8.973  15.417  69.057  1.00  0.00    -0.230 A  
HETATM   15 CL   UNL     3      -6.942  15.183  67.232  1.00  0.00    -0.193 Cl 
ENDROOT
BRANCH  14  16
HETATM   16  C   UNL     3      -9.774  15.959  67.906  1.00  0.00    -0.216 A  
HETATM   17  C   UNL     3      -9.789  17.293  67.634  1.00  0.00    -0.279 A  
HETATM   18  C   UNL     3      -9.071  18.256  68.470  1.00  0.00    -0.328 C  
HETATM   19  C   UNL     3      -8.952  19.549  68.138  1.00  0.00    -0.329 C  
HETATM   20 BR   UNL     3      -7.956  20.733  69.178  1.00  0.00     1.764 Br 
HETATM   21  C   UNL     3      -9.575  20.053  66.872  1.00  0.00    -0.412 C  
HETATM   22  O   UNL     3      -9.341  21.196  66.464  1.00  0.00     0.388 OA 
HETATM   23  C   UNL     3     -10.437  19.106  66.101  1.00  0.00    -0.477 C  
HETATM   24  C   UNL     3     -10.515  17.805  66.463  1.00  0.00    -0.297 A  
HETATM   25 BR   UNL     3     -11.303  19.786  64.586  1.00  0.00     3.445 Br 
HETATM   26  O   UNL     3     -11.255  16.933  65.681  1.00  0.00     0.098 OA 
HETATM   27  C   UNL     3     -11.241  15.586  65.927  1.00  0.00    -0.120 A  
HETATM   28  C   UNL     3     -10.555  15.066  67.017  1.00  0.00    -0.293 A  
HETATM   29  C   UNL     3     -10.626  13.691  67.235  1.00  0.00    -0.267 C  
HETATM   30  C   UNL     3     -11.315  12.850  66.345  1.00  0.00    -0.319 C  
HETATM   31 BR   UNL     3     -11.277  10.984  66.806  1.00  0.00    -0.047 Br 
HETATM   32  C   UNL     3     -11.977  13.318  65.183  1.00  0.00    -0.381 C  
HETATM   33  C   UNL     3     -11.933  14.736  65.034  1.00  0.00    -0.318 C  
HETATM   34  O   UNL     3     -12.547  12.535  64.346  1.00  0.00    -0.574 OA 
HETATM   35 BR   UNL     3     -12.827  15.576  63.540  1.00  0.00     2.571 Br 
ENDBRANCH  14  16
TORSDOF 1
ENDMDL
MODEL      144
REMARK 921   NORMALIZED FREE ENERGY PREDICTED BY IDOCK:   14.69 KCAL/MOL
REMARK 922        TOTAL FREE ENERGY PREDICTED BY IDOCK:   14.80 KCAL/MOL
REMARK 923 INTER-LIGAND FREE ENERGY PREDICTED BY IDOCK:   15.45 KCAL/MOL
REMARK 924 INTRA-LIGAND FREE ENERGY PREDICTED BY IDOCK:   -0.65 KCAL/MOL
REMARK 927      BINDING AFFINITY PREDICTED BY RF-SCORE:    0.00 PKD
ROOT
HETATM    1 NA   UNL     1     -12.562   9.543  67.899  1.00  0.00     0.878 Na 
HETATM    2 NA   UNL     2     -13.467   4.595  67.901  1.00  0.00    10.360 Na 
HETATM    3  O   UNL     3     -12.285   6.133  67.455  1.00  0.00     2.458 OA 
HETATM    4  C   UNL     3     -11.305   6.866  67.077  1.00  0.00     0.159 C  
HETATM    5  C   UNL     3     -10.082   6.214  66.488  1.00  0.00    -0.179 A  
HETATM    6  O   UNL     3     -11.372   8.135  67.172  1.00  0.00     0.486 OA 
HETATM    7  C   UNL     3     -10.203   5.131  65.585  1.00  0.00     0.027 A  
HETATM    8 CL   UNL     3     -11.782   4.556  65.095  1.00  0.00     0.942 Cl 
HETATM    9  C   UNL     3      -9.058   4.507  65.037  1.00  0.00    -0.152 A  
HETATM   10 CL   UNL     3      -9.242   3.163  63.936  1.00  0.00    -0.101 Cl 
HETATM   11  C   UNL     3      -7.774   4.963  65.368  1.00  0.00    -0.086 A  
HETATM   12  C   UNL     3      -7.630   6.040  66.256  1.00  0.00    -0.090 A  
HETATM   13 CL   UNL     3      -6.368   4.201  64.676  1.00  0.00    -0.033 Cl 
HETATM   14  C   UNL     3      -8.771   6.665  66.824  1.00  0.00    -0.121 A  
HETATM   15 CL   UNL     3      -6.036   6.621  66.664  1.00  0.00    -0.032 Cl 
ENDROOT
BRANCH  14  16
HETATM   16  C   UNL     3      -8.569   7.756  67.837  1.00  0.00    -0.122 A  
HETATM   17  C   UNL     3      -8.326   7.459  69.143  1.00  0.00    -0.132 A  
HETATM   18  C   UNL     3      -8.299   6.076  69.624  1.00  0.00    -0.119 C  
HETATM   19  C   UNL     3      -7.920   5.754  70.869  1.00  0.00    -0.111 C  
HETATM   20 BR   UNL     3      -7.811   3.979  71.425  1.00  0.00    -0.073 Br 
HETATM   21  C   UNL     3      -7.509   6.833  71.824  1.00  0.00    -0.087 C  
HETATM   22  O   UNL     3      -7.001   6.551  72.915  1.00  0.00    -0.072 OA 
HETATM   23  C   UNL     3      -7.685   8.250  71.384  1.00  0.00    -0.097 C  
HETATM   24  C   UNL     3      -8.055   8.530  70.113  1.00  0.00    -0.111 A  
HETATM   25 BR   UNL     3      -7.280   9.585  72.633  1.00  0.00     1.670 Br 
HETATM   26  O   UNL     3      -8.129   9.853  69.709  1.00  0.00    -0.145 OA 
HETATM   27  C   UNL     3      -8.355  10.174  68.397  1.00  0.00    -0.113 A  
HETATM   28  C   UNL     3      -8.602   9.187  67.452  1.00  0.00    -0.115 A  
HETATM   29  C   UNL     3      -8.875   9.591  66.147  1.00  0.00    -0.177 C  
HETATM   30  C   UNL     3      -8.838  10.948  65.783  1.00  0.00    -0.191 C  
HETATM   31 BR   UNL     3      -9.217  11.298  63.932  1.00  0.00    -0.020 Br 
HETATM   32  C   UNL     3      -8.528  11.990  66.691  1.00  0.00    -0.117 C  
HETATM   33  C   UNL     3      -8.319  11.538  68.028  1.00  0.00    -0.146 C  
HETATM   34  O   UNL     3      -8.433  13.216  66.335  1.00  0.00     0.150 OA 
HETATM   35 BR   UNL     3      -7.940  12.816  69.429  1.00  0.00     1.060 Br 
ENDBRANCH  14  16
TORSDOF 1
ENDMDL
MODEL      145
REMARK 921   NORMALIZED FREE ENERGY PREDICTED BY IDOCK:   14.69 KCAL/MOL
REMARK 922        TOTAL FREE ENERGY PREDICTED BY IDOCK:   14.80 KCAL/MOL
REMARK 923 INTER-LIGAND FREE ENERGY PREDICTED BY IDOCK:    3.41 KCAL/MOL
REMARK 924 INTRA-LIGAND FREE ENERGY PREDICTED BY IDOCK:   11.39 KCAL/MOL
REMARK 927      BINDING AFFINITY PREDICTED BY RF-SCORE:    0.00 PKD
ROOT
HETATM    1 NA   UNL     1      -5.619  16.928  66.199  1.00  0.00    -0.157 Na 
HETATM    2 NA   UNL     2      -9.620  19.893  65.495  1.00  0.00    -0.345 Na 
HETATM    3  O   UNL     3      -8.830  18.075  65.677  1.00  0.00    -0.307 OA 
HETATM    4  C   UNL     3      -8.658  16.811  65.784  1.00  0.00     0.204 C  
HETATM    5  C   UNL     3      -9.851  15.896  65.704  1.00  0.00    -0.337 A  
HETATM    6  O   UNL     3      -7.488  16.328  65.929  1.00  0.00     0.334 OA 
HETATM    7  C   UNL     3     -10.880  16.129  64.760  1.00  0.00    -0.262 A  
HETATM    8 CL   UNL     3     -10.763  17.459  63.629  1.00  0.00     5.648 Cl 
HETATM    9  C   UNL     3     -12.009  15.280  64.687  1.00  0.00    -0.233 A  
HETATM   10 CL   UNL     3     -13.267  15.603  63.519  1.00  0.00     2.123 Cl 
HETATM   11  C   UNL     3     -12.124  14.176  65.544  1.00  0.00    -0.414 A  
HETATM   12  C   UNL     3     -11.113  13.922  66.484  1.00  0.00    -0.308 A  
HETATM   13 CL   UNL     3     -13.508  13.124  65.439  1.00  0.00     0.706 Cl 
HETATM   14  C   UNL     3      -9.982  14.775  66.576  1.00  0.00    -0.283 A  
HETATM   15 CL   UNL     3     -11.242  12.544  67.547  1.00  0.00    -0.317 Cl 
ENDROOT
BRANCH  14  16
HETATM   16  C   UNL     3      -8.968  14.518  67.655  1.00  0.00    -0.193 A  
HETATM   17  C   UNL     3      -8.676  13.247  68.049  1.00  0.00    -0.186 A  
HETATM   18  C   UNL     3      -9.364  12.089  67.478  1.00  0.00    -0.179 C  
HETATM   19  C   UNL     3      -8.993  10.828  67.742  1.00  0.00    -0.137 C  
HETATM   20 BR   UNL     3      -9.832   9.375  66.930  1.00  0.00    -0.283 Br 
HETATM   21  C   UNL     3      -7.836  10.570  68.658  1.00  0.00    -0.116 C  
HETATM   22  O   UNL     3      -7.373   9.431  68.786  1.00  0.00    -0.073 OA 
HETATM   23  C   UNL     3      -7.235  11.744  69.361  1.00  0.00     0.076 C  
HETATM   24  C   UNL     3      -7.629  13.001  69.051  1.00  0.00     0.142 A  
HETATM   25 BR   UNL     3      -5.869  11.390  70.592  1.00  0.00    -0.024 Br 
HETATM   26  O   UNL     3      -6.996  14.073  69.657  1.00  0.00    -0.073 OA 
HETATM   27  C   UNL     3      -7.263  15.358  69.266  1.00  0.00    -0.186 A  
HETATM   28  C   UNL     3      -8.236  15.627  68.312  1.00  0.00    -0.142 A  
HETATM   29  C   UNL     3      -8.489  16.961  67.999  1.00  0.00    -0.213 C  
HETATM   30  C   UNL     3      -7.741  17.998  68.581  1.00  0.00    -0.296 C  
HETATM   31 BR   UNL     3      -8.225  19.766  68.003  1.00  0.00    -0.312 Br 
HETATM   32  C   UNL     3      -6.694  17.778  69.510  1.00  0.00    -0.100 C  
HETATM   33  C   UNL     3      -6.512  16.404  69.849  1.00  0.00    -0.069 C  
HETATM   34  O   UNL     3      -5.976  18.725  69.985  1.00  0.00    -0.255 OA 
HETATM   35 BR   UNL     3      -5.168  15.901  71.145  1.00  0.00    -0.023 Br 
ENDBRANCH  14  16
TORSDOF 1
ENDMDL
MODEL      146
REMARK 921   NORMALIZED FREE ENERGY PREDICTED BY IDOCK:   15.73 KCAL/MOL
REMARK 922        TOTAL FREE ENERGY PREDICTED BY IDOCK:   15.90 KCAL/MOL
REMARK 923 INTER-LIGAND FREE ENERGY PREDICTED BY IDOCK:   16.95 KCAL/MOL
REMARK 924 INTRA-LIGAND FREE ENERGY PREDICTED BY IDOCK:   -1.06 KCAL/MOL
REMARK 927      BINDING AFFINITY PREDICTED BY RF-SCORE:    0.00 PKD
ROOT
HETATM    1 NA   UNL     1     -13.563  15.814  68.899  1.00  0.00     0.128 Na 
HETATM    2 NA   UNL     2     -10.955  17.250  72.953  1.00  0.00     0.037 Na 
HETATM    3  O   UNL     3     -11.056  16.268  71.224  1.00  0.00    -0.173 OA 
HETATM    4  C   UNL     3     -10.779  15.592  70.173  1.00  0.00    -0.342 C  
HETATM    5  C   UNL     3      -9.385  15.054  69.989  1.00  0.00     0.305 A  
HETATM    6  O   UNL     3     -11.679  15.351  69.304  1.00  0.00    -0.310 OA 
HETATM    7  C   UNL     3      -8.674  14.496  71.078  1.00  0.00     3.659 A  
HETATM    8 CL   UNL     3      -9.421  14.373  72.656  1.00  0.00     6.701 Cl 
HETATM    9  C   UNL     3      -7.360  13.999  70.914  1.00  0.00     2.142 A  
HETATM   10 CL   UNL     3      -6.506  13.329  72.283  1.00  0.00     2.417 Cl 
HETATM   11  C   UNL     3      -6.738  14.037  69.658  1.00  0.00    -0.064 A  
HETATM   12  C   UNL     3      -7.426  14.580  68.562  1.00  0.00    -0.123 A  
HETATM   13 CL   UNL     3      -5.126  13.409  69.459  1.00  0.00    -0.082 Cl 
HETATM   14  C   UNL     3      -8.740  15.095  68.717  1.00  0.00    -0.194 A  
HETATM   15 CL   UNL     3      -6.664  14.621  66.993  1.00  0.00     0.424 Cl 
ENDROOT
BRANCH  14  16
HETATM   16  C   UNL     3      -9.405  15.747  67.538  1.00  0.00    -0.210 A  
HETATM   17  C   UNL     3     -10.080  15.003  66.618  1.00  0.00    -0.267 A  
HETATM   18  C   UNL     3     -10.147  13.544  66.711  1.00  0.00    -0.268 C  
HETATM   19  C   UNL     3     -10.925  12.806  65.905  1.00  0.00    -0.274 C  
HETATM   20 BR   UNL     3     -11.058  10.958  66.104  1.00  0.00     0.114 Br 
HETATM   21  C   UNL     3     -11.759  13.479  64.858  1.00  0.00    -0.357 C  
HETATM   22  O   UNL     3     -12.603  12.841  64.217  1.00  0.00    -0.597 OA 
HETATM   23  C   UNL     3     -11.572  14.948  64.662  1.00  0.00    -0.395 C  
HETATM   24  C   UNL     3     -10.790  15.657  65.509  1.00  0.00    -0.346 A  
HETATM   25 BR   UNL     3     -12.535  15.750  63.270  1.00  0.00     3.599 Br 
HETATM   26  O   UNL     3     -10.702  17.030  65.355  1.00  0.00    -0.542 OA 
HETATM   27  C   UNL     3     -10.042  17.799  66.276  1.00  0.00    -0.344 A  
HETATM   28  C   UNL     3      -9.371  17.216  67.343  1.00  0.00    -0.234 A  
HETATM   29  C   UNL     3      -8.679  18.057  68.212  1.00  0.00    -0.289 C  
HETATM   30  C   UNL     3      -8.710  19.452  68.053  1.00  0.00    -0.320 C  
HETATM   31 BR   UNL     3      -7.714  20.438  69.368  1.00  0.00     0.857 Br 
HETATM   32  C   UNL     3      -9.432  20.103  67.022  1.00  0.00    -0.409 C  
HETATM   33  C   UNL     3     -10.072  19.203  66.118  1.00  0.00    -0.426 C  
HETATM   34  O   UNL     3      -9.507  21.377  66.924  1.00  0.00     0.284 OA 
HETATM   35 BR   UNL     3     -11.060  19.895  64.608  1.00  0.00     2.857 Br 
ENDBRANCH  14  16
TORSDOF 1
ENDMDL
MODEL      147
REMARK 921   NORMALIZED FREE ENERGY PREDICTED BY IDOCK:   16.05 KCAL/MOL
REMARK 922        TOTAL FREE ENERGY PREDICTED BY IDOCK:   16.24 KCAL/MOL
REMARK 923 INTER-LIGAND FREE ENERGY PREDICTED BY IDOCK:    1.43 KCAL/MOL
REMARK 924 INTRA-LIGAND FREE ENERGY PREDICTED BY IDOCK:   14.81 KCAL/MOL
REMARK 927      BINDING AFFINITY PREDICTED BY RF-SCORE:    0.00 PKD
ROOT
HETATM    1 NA   UNL     1      -7.976   9.572  64.735  1.00  0.00    -0.103 Na 
HETATM    2 NA   UNL     2      -6.970  13.053  68.224  1.00  0.00    -0.068 Na 
HETATM    3  O   UNL     3      -7.990  11.450  67.629  1.00  0.00    -0.115 OA 
HETATM    4  C   UNL     3      -8.765  10.433  67.574  1.00  0.00    -0.125 C  
HETATM    5  C   UNL     3      -9.618  10.091  68.768  1.00  0.00    -0.168 A  
HETATM    6  O   UNL     3      -8.837   9.731  66.513  1.00  0.00    -0.136 OA 
HETATM    7  C   UNL     3     -10.267  11.108  69.508  1.00  0.00     0.083 A  
HETATM    8 CL   UNL     3     -10.133  12.784  69.022  1.00  0.00     0.064 Cl 
HETATM    9  C   UNL     3     -11.059  10.794  70.637  1.00  0.00     0.159 A  
HETATM   10 CL   UNL     3     -11.836  12.074  71.538  1.00  0.00     0.907 Cl 
HETATM   11  C   UNL     3     -11.230   9.461  71.037  1.00  0.00    -0.342 A  
HETATM   12  C   UNL     3     -10.601   8.436  70.314  1.00  0.00    -0.227 A  
HETATM   13 CL   UNL     3     -12.221   9.080  72.418  1.00  0.00    -0.375 Cl 
HETATM   14  C   UNL     3      -9.791   8.739  69.188  1.00  0.00    -0.181 A  
HETATM   15 CL   UNL     3     -10.817   6.774  70.798  1.00  0.00    -0.273 Cl 
ENDROOT
BRANCH  14  16
HETATM   16  C   UNL     3      -9.066   7.619  68.497  1.00  0.00    -0.131 A  
HETATM   17  C   UNL     3      -8.488   6.616  69.213  1.00  0.00    -0.124 A  
HETATM   18  C   UNL     3      -8.505   6.608  70.676  1.00  0.00    -0.138 C  
HETATM   19  C   UNL     3      -8.073   5.563  71.396  1.00  0.00    -0.117 C  
HETATM   20 BR   UNL     3      -8.190   5.546  73.256  1.00  0.00    -0.114 Br 
HETATM   21  C   UNL     3      -7.542   4.348  70.698  1.00  0.00    -0.052 C  
HETATM   22  O   UNL     3      -7.294   3.314  71.330  1.00  0.00    -0.036 OA 
HETATM   23  C   UNL     3      -7.380   4.418  69.215  1.00  0.00    -0.052 C  
HETATM   24  C   UNL     3      -7.845   5.486  68.526  1.00  0.00    -0.088 A  
HETATM   25 BR   UNL     3      -6.604   2.936  68.373  1.00  0.00    -0.036 Br 
HETATM   26  O   UNL     3      -7.757   5.486  67.144  1.00  0.00    -0.098 OA 
HETATM   27  C   UNL     3      -8.345   6.476  66.403  1.00  0.00    -0.120 A  
HETATM   28  C   UNL     3      -8.972   7.552  67.019  1.00  0.00    -0.143 A  
HETATM   29  C   UNL     3      -9.504   8.548  66.203  1.00  0.00    -0.286 C  
HETATM   30  C   UNL     3      -9.466   8.438  64.802  1.00  0.00     1.099 C  
HETATM   31 BR   UNL     3     -10.274   9.902  63.855  1.00  0.00     1.414 Br 
HETATM   32  C   UNL     3      -8.898   7.332  64.123  1.00  0.00     0.876 C  
HETATM   33  C   UNL     3      -8.308   6.368  64.995  1.00  0.00    -0.087 C  
HETATM   34  O   UNL     3      -8.926   7.211  62.849  1.00  0.00     0.629 OA 
HETATM   35 BR   UNL     3      -7.430   4.812  64.257  1.00  0.00    -0.069 Br 
ENDBRANCH  14  16
TORSDOF 1
ENDMDL
MODEL      148
REMARK 921   NORMALIZED FREE ENERGY PREDICTED BY IDOCK:   16.40 KCAL/MOL
REMARK 922        TOTAL FREE ENERGY PREDICTED BY IDOCK:   16.60 KCAL/MOL
REMARK 923 INTER-LIGAND FREE ENERGY PREDICTED BY IDOCK:    4.25 KCAL/MOL
REMARK 924 INTRA-LIGAND FREE ENERGY PREDICTED BY IDOCK:   12.35 KCAL/MOL
REMARK 927      BINDING AFFINITY PREDICTED BY RF-SCORE:    0.00 PKD
ROOT
HETATM    1 NA   UNL     1      -8.138   7.773  70.303  1.00  0.00    -0.093 Na 
HETATM    2 NA   UNL     2     -12.365   8.847  72.808  1.00  0.00    -0.347 Na 
HETATM    3  O   UNL     3     -11.075   9.250  71.347  1.00  0.00    -0.313 OA 
HETATM    4  C   UNL     3     -10.487   9.748  70.324  1.00  0.00    -0.288 C  
HETATM    5  C   UNL     3     -11.108  10.924  69.617  1.00  0.00    -0.328 A  
HETATM    6  O   UNL     3      -9.374   9.274  69.923  1.00  0.00    -0.171 OA 
HETATM    7  C   UNL     3     -11.699  11.980  70.350  1.00  0.00    -0.084 A  
HETATM    8 CL   UNL     3     -11.676  11.968  72.100  1.00  0.00     2.977 Cl 
HETATM    9  C   UNL     3     -12.295  13.081  69.692  1.00  0.00    -0.045 A  
HETATM   10 CL   UNL     3     -13.027  14.362  70.627  1.00  0.00    -0.395 Cl 
HETATM   11  C   UNL     3     -12.297  13.155  68.292  1.00  0.00     0.175 A  
HETATM   12  C   UNL     3     -11.711  12.122  67.543  1.00  0.00    -0.315 A  
HETATM   13 CL   UNL     3     -13.017  14.522  67.487  1.00  0.00     1.349 Cl 
HETATM   14  C   UNL     3     -11.124  11.004  68.193  1.00  0.00    -0.329 A  
HETATM   15 CL   UNL     3     -11.701  12.210  65.801  1.00  0.00    -0.432 Cl 
ENDROOT
BRANCH  14  16
HETATM   16  C   UNL     3     -10.587   9.880  67.353  1.00  0.00    -0.338 A  
HETATM   17  C   UNL     3     -10.035  10.123  66.132  1.00  0.00    -0.310 A  
HETATM   18  C   UNL     3      -9.983  11.473  65.568  1.00  0.00    -0.282 C  
HETATM   19  C   UNL     3      -9.316  11.757  64.440  1.00  0.00     0.136 C  
HETATM   20 BR   UNL     3      -9.193  13.501  63.794  1.00  0.00     5.332 Br 
HETATM   21  C   UNL     3      -8.595  10.666  63.708  1.00  0.00    -0.102 C  
HETATM   22  O   UNL     3      -7.842  10.930  62.763  1.00  0.00    -0.081 OA 
HETATM   23  C   UNL     3      -8.779   9.266  64.197  1.00  0.00    -0.173 C  
HETATM   24  C   UNL     3      -9.446   9.027  65.350  1.00  0.00    -0.092 A  
HETATM   25 BR   UNL     3      -7.968   7.904  63.200  1.00  0.00    -0.097 Br 
HETATM   26  O   UNL     3      -9.528   7.728  65.823  1.00  0.00     0.019 OA 
HETATM   27  C   UNL     3     -10.064   7.462  67.054  1.00  0.00    -0.258 A  
HETATM   28  C   UNL     3     -10.618   8.475  67.826  1.00  0.00    -0.242 A  
HETATM   29  C   UNL     3     -11.192   8.124  69.046  1.00  0.00     0.380 C  
HETATM   30  C   UNL     3     -11.154   6.798  69.512  1.00  0.00    -0.273 C  
HETATM   31 BR   UNL     3     -11.977   6.521  71.226  1.00  0.00    -0.302 Br 
HETATM   32  C   UNL     3     -10.545   5.738  68.796  1.00  0.00    -0.251 C  
HETATM   33  C   UNL     3     -10.028   6.130  67.525  1.00  0.00    -0.137 C  
HETATM   34  O   UNL     3     -10.460   4.547  69.259  1.00  0.00     0.102 OA 
HETATM   35 BR   UNL     3      -9.208   4.813  66.371  1.00  0.00    -0.145 Br 
ENDBRANCH  14  16
TORSDOF 1
ENDMDL
MODEL      149
REMARK 921   NORMALIZED FREE ENERGY PREDICTED BY IDOCK:   16.42 KCAL/MOL
REMARK 922        TOTAL FREE ENERGY PREDICTED BY IDOCK:   16.62 KCAL/MOL
REMARK 923 INTER-LIGAND FREE ENERGY PREDICTED BY IDOCK:   17.49 KCAL/MOL
REMARK 924 INTRA-LIGAND FREE ENERGY PREDICTED BY IDOCK:   -0.86 KCAL/MOL
REMARK 927      BINDING AFFINITY PREDICTED BY RF-SCORE:    0.00 PKD
ROOT
HETATM    1 NA   UNL     1     -13.840  14.070  69.038  1.00  0.00     0.615 Na 
HETATM    2 NA   UNL     2     -11.698  17.730  71.743  1.00  0.00    -0.458 Na 
HETATM    3  O   UNL     3     -11.549  16.036  70.709  1.00  0.00    -0.372 OA 
HETATM    4  C   UNL     3     -11.113  14.998  70.098  1.00  0.00    -0.242 C  
HETATM    5  C   UNL     3      -9.637  14.701  70.115  1.00  0.00     0.757 A  
HETATM    6  O   UNL     3     -11.919  14.210  69.505  1.00  0.00    -0.301 OA 
HETATM    7  C   UNL     3      -8.876  14.877  71.295  1.00  0.00     3.648 A  
HETATM    8 CL   UNL     3      -9.646  15.399  72.778  1.00  0.00     5.776 Cl 
HETATM    9  C   UNL     3      -7.487  14.610  71.315  1.00  0.00     2.394 A  
HETATM   10 CL   UNL     3      -6.575  14.851  72.784  1.00  0.00     1.583 Cl 
HETATM   11  C   UNL     3      -6.837  14.148  70.161  1.00  0.00     0.124 A  
HETATM   12  C   UNL     3      -7.572  13.960  68.981  1.00  0.00    -0.002 A  
HETATM   13 CL   UNL     3      -5.129  13.805  70.196  1.00  0.00    -0.090 Cl 
HETATM   14  C   UNL     3      -8.964  14.238  68.945  1.00  0.00    -0.025 A  
HETATM   15 CL   UNL     3      -6.773  13.375  67.544  1.00  0.00    -0.174 Cl 
ENDROOT
BRANCH  14  16
HETATM   16  C   UNL     3      -9.694  14.107  67.638  1.00  0.00    -0.228 A  
HETATM   17  C   UNL     3     -10.081  12.887  67.175  1.00  0.00    -0.243 A  
HETATM   18  C   UNL     3      -9.764  11.655  67.899  1.00  0.00    -0.181 C  
HETATM   19  C   UNL     3     -10.259  10.461  67.540  1.00  0.00    -0.210 C  
HETATM   20 BR   UNL     3      -9.909   8.924  68.534  1.00  0.00    -0.190 Br 
HETATM   21  C   UNL     3     -11.167  10.359  66.353  1.00  0.00     0.419 C  
HETATM   22  O   UNL     3     -11.764   9.305  66.102  1.00  0.00     2.951 OA 
HETATM   23  C   UNL     3     -11.364  11.587  65.525  1.00  0.00    -0.083 C  
HETATM   24  C   UNL     3     -10.860  12.775  65.933  1.00  0.00    -0.269 A  
HETATM   25 BR   UNL     3     -12.406  11.412  63.978  1.00  0.00     0.572 Br 
HETATM   26  O   UNL     3     -11.129  13.912  65.190  1.00  0.00    -0.310 OA 
HETATM   27  C   UNL     3     -10.764  15.150  65.645  1.00  0.00    -0.363 A  
HETATM   28  C   UNL     3     -10.038  15.294  66.820  1.00  0.00    -0.262 A  
HETATM   29  C   UNL     3      -9.657  16.581  67.195  1.00  0.00    -0.243 C  
HETATM   30  C   UNL     3     -10.048  17.703  66.445  1.00  0.00    -0.356 C  
HETATM   31 BR   UNL     3      -9.443  19.390  67.140  1.00  0.00    -0.428 Br 
HETATM   32  C   UNL     3     -10.842  17.619  65.275  1.00  0.00     0.194 C  
HETATM   33  C   UNL     3     -11.155  16.281  64.892  1.00  0.00    -0.290 C  
HETATM   34  O   UNL     3     -11.246  18.652  64.635  1.00  0.00     0.038 OA 
HETATM   35 BR   UNL     3     -12.184  15.953  63.288  1.00  0.00     3.736 Br 
ENDBRANCH  14  16
TORSDOF 1
ENDMDL
MODEL      150
REMARK 921   NORMALIZED FREE ENERGY PREDICTED BY IDOCK:   16.81 KCAL/MOL
REMARK 922        TOTAL FREE ENERGY PREDICTED BY IDOCK:   17.04 KCAL/MOL
REMARK 923 INTER-LIGAND FREE ENERGY PREDICTED BY IDOCK:   18.09 KCAL/MOL
REMARK 924 INTRA-LIGAND FREE ENERGY PREDICTED BY IDOCK:   -1.05 KCAL/MOL
REMARK 927      BINDING AFFINITY PREDICTED BY RF-SCORE:    0.00 PKD
ROOT
HETATM    1 NA   UNL     1      -8.331  16.197  67.276  1.00  0.00    -0.146 Na 
HETATM    2 NA   UNL     2      -7.215  15.941  72.174  1.00  0.00     2.541 Na 
HETATM    3  O   UNL     3      -8.412  15.484  70.651  1.00  0.00     1.159 OA 
HETATM    4  C   UNL     3      -9.342  14.999  69.916  1.00  0.00     0.189 C  
HETATM    5  C   UNL     3     -10.400  14.131  70.544  1.00  0.00     1.488 A  
HETATM    6  O   UNL     3      -9.390  15.269  68.672  1.00  0.00    -0.185 OA 
HETATM    7  C   UNL     3     -10.954  14.462  71.804  1.00  0.00     1.664 A  
HETATM    8 CL   UNL     3     -10.455  15.917  72.639  1.00  0.00     2.549 Cl 
HETATM    9  C   UNL     3     -11.939  13.644  72.405  1.00  0.00     1.222 A  
HETATM   10 CL   UNL     3     -12.592  14.073  73.967  1.00  0.00     1.273 Cl 
HETATM   11  C   UNL     3     -12.400  12.492  71.752  1.00  0.00     0.421 A  
HETATM   12  C   UNL     3     -11.871  12.148  70.498  1.00  0.00    -0.092 A  
HETATM   13 CL   UNL     3     -13.626  11.498  72.489  1.00  0.00     0.154 Cl 
HETATM   14  C   UNL     3     -10.870  12.953  69.892  1.00  0.00     0.609 A  
HETATM   15 CL   UNL     3     -12.446  10.722  69.674  1.00  0.00    -0.278 Cl 
ENDROOT
BRANCH  14  16
HETATM   16  C   UNL     3     -10.268  12.500  68.592  1.00  0.00    -0.166 A  
HETATM   17  C   UNL     3     -10.835  12.846  67.403  1.00  0.00    -0.272 A  
HETATM   18  C   UNL     3     -12.071  13.626  67.340  1.00  0.00    -0.375 C  
HETATM   19  C   UNL     3     -12.565  14.100  66.187  1.00  0.00    -0.321 C  
HETATM   20 BR   UNL     3     -14.094  15.165  66.148  1.00  0.00     6.693 Br 
HETATM   21  C   UNL     3     -11.845  13.828  64.902  1.00  0.00    -0.375 C  
HETATM   22  O   UNL     3     -12.188  14.389  63.854  1.00  0.00    -0.595 OA 
HETATM   23  C   UNL     3     -10.673  12.903  64.948  1.00  0.00    -0.312 C  
HETATM   24  C   UNL     3     -10.197  12.461  66.136  1.00  0.00    -0.242 A  
HETATM   25 BR   UNL     3      -9.858  12.480  63.316  1.00  0.00     0.965 Br 
HETATM   26  O   UNL     3      -9.058  11.673  66.154  1.00  0.00    -0.213 OA 
HETATM   27  C   UNL     3      -8.463  11.328  67.337  1.00  0.00    -0.137 A  
HETATM   28  C   UNL     3      -9.030  11.685  68.553  1.00  0.00    -0.138 A  
HETATM   29  C   UNL     3      -8.396  11.256  69.717  1.00  0.00     0.962 C  
HETATM   30  C   UNL     3      -7.188  10.541  69.666  1.00  0.00    -0.148 C  
HETATM   31 BR   UNL     3      -6.459  10.061  71.378  1.00  0.00     0.492 Br 
HETATM   32  C   UNL     3      -6.532  10.207  68.455  1.00  0.00    -0.049 C  
HETATM   33  C   UNL     3      -7.247  10.609  67.288  1.00  0.00    -0.091 C  
HETATM   34  O   UNL     3      -5.398   9.612  68.421  1.00  0.00    -0.034 OA 
HETATM   35 BR   UNL     3      -6.544  10.193  65.536  1.00  0.00    -0.124 Br 
ENDBRANCH  14  16
TORSDOF 1
ENDMDL
MODEL      151
REMARK 921   NORMALIZED FREE ENERGY PREDICTED BY IDOCK:   16.91 KCAL/MOL
REMARK 922        TOTAL FREE ENERGY PREDICTED BY IDOCK:   17.14 KCAL/MOL
REMARK 923 INTER-LIGAND FREE ENERGY PREDICTED BY IDOCK:    9.69 KCAL/MOL
REMARK 924 INTRA-LIGAND FREE ENERGY PREDICTED BY IDOCK:    7.45 KCAL/MOL
REMARK 927      BINDING AFFINITY PREDICTED BY RF-SCORE:    0.00 PKD
ROOT
HETATM    1 NA   UNL     1      -9.330  10.193  67.726  1.00  0.00    -0.133 Na 
HETATM    2 NA   UNL     2     -14.268  11.119  67.967  1.00  0.00     4.995 Na 
HETATM    3  O   UNL     3     -12.408  11.514  68.554  1.00  0.00    -0.459 OA 
HETATM    4  C   UNL     3     -11.370  12.029  69.100  1.00  0.00    -0.281 C  
HETATM    5  C   UNL     3     -11.536  13.188  70.047  1.00  0.00    -0.095 A  
HETATM    6  O   UNL     3     -10.213  11.550  68.869  1.00  0.00    -0.206 OA 
HETATM    7  C   UNL     3     -12.593  13.210  70.987  1.00  0.00    -0.312 A  
HETATM    8 CL   UNL     3     -13.705  11.863  71.104  1.00  0.00     0.842 Cl 
HETATM    9  C   UNL     3     -12.761  14.301  71.871  1.00  0.00    -0.338 A  
HETATM   10 CL   UNL     3     -14.084  14.303  73.011  1.00  0.00     0.233 Cl 
HETATM   11  C   UNL     3     -11.867  15.382  71.843  1.00  0.00    -0.429 A  
HETATM   12  C   UNL     3     -10.807  15.379  70.923  1.00  0.00    -0.207 A  
HETATM   13 CL   UNL     3     -12.069  16.715  72.945  1.00  0.00    -0.465 Cl 
HETATM   14  C   UNL     3     -10.638  14.296  70.021  1.00  0.00     0.306 A  
HETATM   15 CL   UNL     3      -9.685  16.714  70.888  1.00  0.00     2.641 Cl 
ENDROOT
BRANCH  14  16
HETATM   16  C   UNL     3      -9.543  14.375  68.994  1.00  0.00    -0.059 A  
HETATM   17  C   UNL     3      -9.401  15.479  68.209  1.00  0.00    -0.192 A  
HETATM   18  C   UNL     3     -10.329  16.607  68.296  1.00  0.00    -0.304 C  
HETATM   19  C   UNL     3     -10.125  17.760  67.642  1.00  0.00    -0.342 C  
HETATM   20 BR   UNL     3     -11.278  19.210  67.841  1.00  0.00     0.577 Br 
HETATM   21  C   UNL     3      -8.911  17.919  66.777  1.00  0.00    -0.261 C  
HETATM   22  O   UNL     3      -8.617  19.020  66.298  1.00  0.00    -0.318 OA 
HETATM   23  C   UNL     3      -8.050  16.717  66.567  1.00  0.00    -0.302 C  
HETATM   24  C   UNL     3      -8.283  15.578  67.261  1.00  0.00    -0.197 A  
HETATM   25 BR   UNL     3      -6.605  16.901  65.389  1.00  0.00     2.817 Br 
HETATM   26  O   UNL     3      -7.418  14.508  67.108  1.00  0.00    -0.153 OA 
HETATM   27  C   UNL     3      -7.532  13.395  67.897  1.00  0.00    -0.149 A  
HETATM   28  C   UNL     3      -8.568  13.273  68.813  1.00  0.00     0.136 A  
HETATM   29  C   UNL     3      -8.651  12.091  69.547  1.00  0.00     1.282 C  
HETATM   30  C   UNL     3      -7.682  11.082  69.413  1.00  0.00    -0.020 C  
HETATM   31 BR   UNL     3      -7.960   9.542  70.528  1.00  0.00    -0.139 Br 
HETATM   32  C   UNL     3      -6.569  11.182  68.542  1.00  0.00    -0.060 C  
HETATM   33  C   UNL     3      -6.558  12.379  67.764  1.00  0.00    -0.113 C  
HETATM   34  O   UNL     3      -5.658  10.286  68.475  1.00  0.00    -0.039 OA 
HETATM   35 BR   UNL     3      -5.150  12.676  66.474  1.00  0.00     1.433 Br 
ENDBRANCH  14  16
TORSDOF 1
ENDMDL
MODEL      152
REMARK 921   NORMALIZED FREE ENERGY PREDICTED BY IDOCK:   17.53 KCAL/MOL
REMARK 922        TOTAL FREE ENERGY PREDICTED BY IDOCK:   17.80 KCAL/MOL
REMARK 923 INTER-LIGAND FREE ENERGY PREDICTED BY IDOCK:   10.19 KCAL/MOL
REMARK 924 INTRA-LIGAND FREE ENERGY PREDICTED BY IDOCK:    7.61 KCAL/MOL
REMARK 927      BINDING AFFINITY PREDICTED BY RF-SCORE:    0.00 PKD
ROOT
HETATM    1 NA   UNL     1      -9.402   9.388  66.539  1.00  0.00    -0.130 Na 
HETATM    2 NA   UNL     2      -8.740  12.367  62.540  1.00  0.00    -0.213 Na 
HETATM    3  O   UNL     3      -9.377  12.101  64.407  1.00  0.00     0.127 OA 
HETATM    4  C   UNL     3      -9.840  12.274  65.588  1.00  0.00    -0.231 C  
HETATM    5  C   UNL     3     -10.322  13.641  65.997  1.00  0.00    -0.305 A  
HETATM    6  O   UNL     3      -9.918  11.297  66.402  1.00  0.00    -0.204 OA 
HETATM    7  C   UNL     3     -11.071  14.442  65.103  1.00  0.00    -0.362 A  
HETATM    8 CL   UNL     3     -11.496  13.840  63.515  1.00  0.00     0.124 Cl 
HETATM    9  C   UNL     3     -11.517  15.731  65.476  1.00  0.00     0.147 A  
HETATM   10 CL   UNL     3     -12.428  16.700  64.343  1.00  0.00     1.909 Cl 
HETATM   11  C   UNL     3     -11.237  16.237  66.754  1.00  0.00     0.217 A  
HETATM   12  C   UNL     3     -10.502  15.458  67.660  1.00  0.00    -0.272 A  
HETATM   13 CL   UNL     3     -11.803  17.818  67.214  1.00  0.00     1.739 Cl 
HETATM   14  C   UNL     3     -10.036  14.168  67.291  1.00  0.00    -0.249 A  
HETATM   15 CL   UNL     3     -10.158  16.074  69.256  1.00  0.00    -0.234 Cl 
ENDROOT
BRANCH  14  16
HETATM   16  C   UNL     3      -9.177  13.405  68.260  1.00  0.00    -0.198 A  
HETATM   17  C   UNL     3      -8.097  13.991  68.847  1.00  0.00    -0.001 A  
HETATM   18  C   UNL     3      -7.699  15.362  68.525  1.00  0.00    -0.132 C  
HETATM   19  C   UNL     3      -6.731  16.007  69.194  1.00  0.00    -0.174 C  
HETATM   20 BR   UNL     3      -6.307  17.783  68.821  1.00  0.00    -0.221 Br 
HETATM   21  C   UNL     3      -6.013  15.315  70.312  1.00  0.00    -0.130 C  
HETATM   22  O   UNL     3      -5.238  15.939  71.047  1.00  0.00    -0.164 OA 
HETATM   23  C   UNL     3      -6.311  13.868  70.536  1.00  0.00    -0.011 C  
HETATM   24  C   UNL     3      -7.307  13.261  69.849  1.00  0.00     0.942 A  
HETATM   25 BR   UNL     3      -5.318  12.989  71.858  1.00  0.00     0.117 Br 
HETATM   26  O   UNL     3      -7.617  11.943  70.137  1.00  0.00     1.014 OA 
HETATM   27  C   UNL     3      -8.709  11.339  69.572  1.00  0.00     0.628 A  
HETATM   28  C   UNL     3      -9.484  12.003  68.631  1.00  0.00    -0.069 A  
HETATM   29  C   UNL     3     -10.550  11.309  68.060  1.00  0.00    -0.230 C  
HETATM   30  C   UNL     3     -10.869  10.003  68.470  1.00  0.00    -0.231 C  
HETATM   31 BR   UNL     3     -12.386   9.227  67.582  1.00  0.00     7.323 Br 
HETATM   32  C   UNL     3     -10.152   9.303  69.471  1.00  0.00    -0.198 C  
HETATM   33  C   UNL     3      -9.032  10.026  69.982  1.00  0.00    -0.081 C  
HETATM   34  O   UNL     3     -10.490   8.139  69.882  1.00  0.00    -0.217 OA 
HETATM   35 BR   UNL     3      -7.891   9.217  71.317  1.00  0.00     0.162 Br 
ENDBRANCH  14  16
TORSDOF 1
ENDMDL
MODEL      153
REMARK 921   NORMALIZED FREE ENERGY PREDICTED BY IDOCK:   18.04 KCAL/MOL
REMARK 922        TOTAL FREE ENERGY PREDICTED BY IDOCK:   18.34 KCAL/MOL
REMARK 923 INTER-LIGAND FREE ENERGY PREDICTED BY IDOCK:   16.83 KCAL/MOL
REMARK 924 INTRA-LIGAND FREE ENERGY PREDICTED BY IDOCK:    1.51 KCAL/MOL
REMARK 927      BINDING AFFINITY PREDICTED BY RF-SCORE:    0.00 PKD
ROOT
HETATM    1 NA   UNL     1     -12.126  14.313  70.581  1.00  0.00    -0.245 Na 
HETATM    2 NA   UNL     2     -12.809  17.216  66.531  1.00  0.00     3.121 Na 
HETATM    3  O   UNL     3     -11.679  16.623  68.058  1.00  0.00     0.065 OA 
HETATM    4  C   UNL     3     -10.718  16.450  68.887  1.00  0.00    -0.319 C  
HETATM    5  C   UNL     3      -9.444  17.234  68.710  1.00  0.00    -0.256 A  
HETATM    6  O   UNL     3     -10.846  15.646  69.866  1.00  0.00    -0.265 OA 
HETATM    7  C   UNL     3      -9.479  18.601  68.346  1.00  0.00    -0.343 A  
HETATM    8 CL   UNL     3     -11.009  19.426  68.140  1.00  0.00    -0.087 Cl 
HETATM    9  C   UNL     3      -8.286  19.340  68.168  1.00  0.00    -0.323 A  
HETATM   10 CL   UNL     3      -8.365  21.022  67.705  1.00  0.00    -0.062 Cl 
HETATM   11  C   UNL     3      -7.038  18.731  68.365  1.00  0.00    -0.265 A  
HETATM   12  C   UNL     3      -6.979  17.378  68.733  1.00  0.00    -0.236 A  
HETATM   13 CL   UNL     3      -5.573  19.650  68.160  1.00  0.00    -0.216 Cl 
HETATM   14  C   UNL     3      -8.169  16.623  68.900  1.00  0.00    -0.231 A  
HETATM   15 CL   UNL     3      -5.431  16.616  68.991  1.00  0.00    -0.130 Cl 
ENDROOT
BRANCH  14  16
HETATM   16  C   UNL     3      -8.058  15.156  69.208  1.00  0.00    -0.217 A  
HETATM   17  C   UNL     3      -8.575  14.224  68.360  1.00  0.00    -0.175 A  
HETATM   18  C   UNL     3      -9.299  14.607  67.147  1.00  0.00    -0.231 C  
HETATM   19  C   UNL     3      -9.688  13.712  66.228  1.00  0.00    -0.283 C  
HETATM   20 BR   UNL     3     -10.529  14.239  64.651  1.00  0.00    -0.168 Br 
HETATM   21  C   UNL     3      -9.386  12.259  66.431  1.00  0.00    -0.219 C  
HETATM   22  O   UNL     3      -9.586  11.439  65.527  1.00  0.00    -0.218 OA 
HETATM   23  C   UNL     3      -8.788  11.853  67.739  1.00  0.00    -0.166 C  
HETATM   24  C   UNL     3      -8.396  12.791  68.632  1.00  0.00     0.032 A  
HETATM   25 BR   UNL     3      -8.529  10.019  68.023  1.00  0.00    -0.118 Br 
HETATM   26  O   UNL     3      -7.768  12.388  69.798  1.00  0.00     0.847 OA 
HETATM   27  C   UNL     3      -7.226  13.307  70.656  1.00  0.00     2.452 A  
HETATM   28  C   UNL     3      -7.365  14.670  70.425  1.00  0.00     0.553 A  
HETATM   29  C   UNL     3      -6.831  15.547  71.367  1.00  0.00     2.025 C  
HETATM   30  C   UNL     3      -6.120  15.072  72.481  1.00  0.00     1.037 C  
HETATM   31 BR   UNL     3      -5.442  16.439  73.650  1.00  0.00     5.507 Br 
HETATM   32  C   UNL     3      -5.892  13.696  72.732  1.00  0.00     0.529 C  
HETATM   33  C   UNL     3      -6.509  12.833  71.778  1.00  0.00     3.178 C  
HETATM   34  O   UNL     3      -5.187  13.277  73.715  1.00  0.00    -0.396 OA 
HETATM   35 BR   UNL     3      -6.362  10.915  71.978  1.00  0.00     2.649 Br 
ENDBRANCH  14  16
TORSDOF 1
ENDMDL
MODEL      154
REMARK 921   NORMALIZED FREE ENERGY PREDICTED BY IDOCK:   18.28 KCAL/MOL
REMARK 922        TOTAL FREE ENERGY PREDICTED BY IDOCK:   18.59 KCAL/MOL
REMARK 923 INTER-LIGAND FREE ENERGY PREDICTED BY IDOCK:   12.08 KCAL/MOL
REMARK 924 INTRA-LIGAND FREE ENERGY PREDICTED BY IDOCK:    6.51 KCAL/MOL
REMARK 927      BINDING AFFINITY PREDICTED BY RF-SCORE:    0.00 PKD
ROOT
HETATM    1 NA   UNL     1      -6.529  17.582  65.321  1.00  0.00    -0.171 Na 
HETATM    2 NA   UNL     2     -11.186  19.423  64.850  1.00  0.00    -0.482 Na 
HETATM    3  O   UNL     3      -9.954  17.870  65.032  1.00  0.00     0.514 OA 
HETATM    4  C   UNL     3      -9.463  16.696  65.171  1.00  0.00     1.251 C  
HETATM    5  C   UNL     3     -10.392  15.511  65.226  1.00  0.00    -0.416 A  
HETATM    6  O   UNL     3      -8.202  16.525  65.233  1.00  0.00     0.805 OA 
HETATM    7  C   UNL     3     -11.512  15.428  64.364  1.00  0.00    -0.255 A  
HETATM    8 CL   UNL     3     -11.815  16.680  63.179  1.00  0.00     4.696 Cl 
HETATM    9  C   UNL     3     -12.394  14.324  64.419  1.00  0.00    -0.391 A  
HETATM   10 CL   UNL     3     -13.775  14.259  63.351  1.00  0.00     4.383 Cl 
HETATM   11  C   UNL     3     -12.166  13.277  65.324  1.00  0.00    -0.448 A  
HETATM   12  C   UNL     3     -11.058  13.335  66.183  1.00  0.00    -0.285 A  
HETATM   13 CL   UNL     3     -13.246  11.912  65.375  1.00  0.00     2.413 Cl 
HETATM   14  C   UNL     3     -10.173  14.445  66.147  1.00  0.00    -0.317 A  
HETATM   15 CL   UNL     3     -10.760  12.031  67.304  1.00  0.00    -0.255 Cl 
ENDROOT
BRANCH  14  16
HETATM   16  C   UNL     3      -9.051  14.508  67.145  1.00  0.00    -0.237 A  
HETATM   17  C   UNL     3      -8.772  15.663  67.809  1.00  0.00    -0.173 A  
HETATM   18  C   UNL     3      -9.513  16.898  67.547  1.00  0.00    -0.241 C  
HETATM   19  C   UNL     3      -9.355  18.004  68.288  1.00  0.00    -0.295 C  
HETATM   20 BR   UNL     3     -10.377  19.533  67.986  1.00  0.00    -0.551 Br 
HETATM   21  C   UNL     3      -8.382  18.002  69.428  1.00  0.00     0.462 C  
HETATM   22  O   UNL     3      -8.339  18.949  70.222  1.00  0.00     1.485 OA 
HETATM   23  C   UNL     3      -7.516  16.797  69.596  1.00  0.00     0.326 C  
HETATM   24  C   UNL     3      -7.721  15.696  68.836  1.00  0.00    -0.181 A  
HETATM   25 BR   UNL     3      -6.224  16.860  70.951  1.00  0.00     1.509 Br 
HETATM   26  O   UNL     3      -6.959  14.564  69.071  1.00  0.00    -0.106 OA 
HETATM   27  C   UNL     3      -7.233  13.387  68.428  1.00  0.00    -0.110 A  
HETATM   28  C   UNL     3      -8.227  13.317  67.460  1.00  0.00    -0.184 A  
HETATM   29  C   UNL     3      -8.416  12.099  66.810  1.00  0.00    -0.138 C  
HETATM   30  C   UNL     3      -7.672  10.961  67.166  1.00  0.00    -0.123 C  
HETATM   31 BR   UNL     3      -8.098   9.373  66.172  1.00  0.00    -0.112 Br 
HETATM   32  C   UNL     3      -6.692  10.960  68.190  1.00  0.00    -0.063 C  
HETATM   33  C   UNL     3      -6.486  12.241  68.784  1.00  0.00    -0.082 C  
HETATM   34  O   UNL     3      -6.066   9.904  68.550  1.00  0.00    -0.045 OA 
HETATM   35 BR   UNL     3      -5.148  12.459  70.162  1.00  0.00    -0.102 Br 
ENDBRANCH  14  16
TORSDOF 1
ENDMDL
MODEL      155
REMARK 921   NORMALIZED FREE ENERGY PREDICTED BY IDOCK:   19.31 KCAL/MOL
REMARK 922        TOTAL FREE ENERGY PREDICTED BY IDOCK:   19.68 KCAL/MOL
REMARK 923 INTER-LIGAND FREE ENERGY PREDICTED BY IDOCK:   19.92 KCAL/MOL
REMARK 924 INTRA-LIGAND FREE ENERGY PREDICTED BY IDOCK:   -0.23 KCAL/MOL
REMARK 927      BINDING AFFINITY PREDICTED BY RF-SCORE:    0.00 PKD
ROOT
HETATM    1 NA   UNL     1      -7.558  13.174  64.443  1.00  0.00     4.133 Na 
HETATM    2 NA   UNL     2     -10.892   9.422  64.782  1.00  0.00    -0.076 Na 
HETATM    3  O   UNL     3      -9.927  10.954  65.611  1.00  0.00    -0.227 OA 
HETATM    4  C   UNL     3      -9.522  11.870  66.408  1.00  0.00    -0.228 C  
HETATM    5  C   UNL     3     -10.109  11.952  67.793  1.00  0.00    -0.200 A  
HETATM    6  O   UNL     3      -8.614  12.687  66.048  1.00  0.00     0.278 OA 
HETATM    7  C   UNL     3     -10.353  10.779  68.547  1.00  0.00    -0.185 A  
HETATM    8 CL   UNL     3      -9.931   9.206  67.904  1.00  0.00    -0.211 Cl 
HETATM    9  C   UNL     3     -10.914  10.848  69.843  1.00  0.00    -0.199 A  
HETATM   10 CL   UNL     3     -11.215   9.381  70.742  1.00  0.00    -0.339 Cl 
HETATM   11  C   UNL     3     -11.227  12.089  70.416  1.00  0.00     0.759 A  
HETATM   12  C   UNL     3     -10.988  13.267  69.690  1.00  0.00     0.163 A  
HETATM   13 CL   UNL     3     -11.903  12.170  72.019  1.00  0.00     2.033 Cl 
HETATM   14  C   UNL     3     -10.439  13.208  68.382  1.00  0.00    -0.261 A  
HETATM   15 CL   UNL     3     -11.365  14.816  70.399  1.00  0.00    -0.285 Cl 
ENDROOT
BRANCH  14  16
HETATM   16  C   UNL     3     -10.282  14.486  67.607  1.00  0.00    -0.225 A  
HETATM   17  C   UNL     3      -9.328  15.396  67.947  1.00  0.00    -0.192 A  
HETATM   18  C   UNL     3      -8.453  15.195  69.103  1.00  0.00    -0.220 C  
HETATM   19  C   UNL     3      -7.415  16.002  69.370  1.00  0.00    -0.201 C  
HETATM   20 BR   UNL     3      -6.265  15.668  70.798  1.00  0.00     0.514 Br 
HETATM   21  C   UNL     3      -7.126  17.163  68.469  1.00  0.00    -0.213 C  
HETATM   22  O   UNL     3      -6.085  17.819  68.598  1.00  0.00    -0.181 OA 
HETATM   23  C   UNL     3      -8.108  17.458  67.383  1.00  0.00    -0.199 C  
HETATM   24  C   UNL     3      -9.132  16.608  67.138  1.00  0.00    -0.214 A  
HETATM   25 BR   UNL     3      -7.794  18.983  66.343  1.00  0.00    -0.300 Br 
HETATM   26  O   UNL     3      -9.979  16.862  66.072  1.00  0.00    -0.366 OA 
HETATM   27  C   UNL     3     -10.934  15.954  65.702  1.00  0.00    -0.203 A  
HETATM   28  C   UNL     3     -11.137  14.793  66.435  1.00  0.00    -0.340 A  
HETATM   29  C   UNL     3     -12.161  13.938  66.030  1.00  0.00    -0.465 C  
HETATM   30  C   UNL     3     -12.920  14.209  64.879  1.00  0.00     0.006 C  
HETATM   31 BR   UNL     3     -14.266  12.899  64.473  1.00  0.00     5.506 Br 
HETATM   32  C   UNL     3     -12.712  15.344  64.057  1.00  0.00     0.640 C  
HETATM   33  C   UNL     3     -11.699  16.224  64.544  1.00  0.00     0.030 C  
HETATM   34  O   UNL     3     -13.366  15.548  62.976  1.00  0.00     1.791 OA 
HETATM   35 BR   UNL     3     -11.305  17.860  63.593  1.00  0.00     9.595 Br 
ENDBRANCH  14  16
TORSDOF 1
ENDMDL
MODEL      156
REMARK 921   NORMALIZED FREE ENERGY PREDICTED BY IDOCK:   19.59 KCAL/MOL
REMARK 922        TOTAL FREE ENERGY PREDICTED BY IDOCK:   19.98 KCAL/MOL
REMARK 923 INTER-LIGAND FREE ENERGY PREDICTED BY IDOCK:   20.94 KCAL/MOL
REMARK 924 INTRA-LIGAND FREE ENERGY PREDICTED BY IDOCK:   -0.96 KCAL/MOL
REMARK 927      BINDING AFFINITY PREDICTED BY RF-SCORE:    0.00 PKD
ROOT
HETATM    1 NA   UNL     1     -12.131  11.574  65.022  1.00  0.00    -0.261 Na 
HETATM    2 NA   UNL     2     -12.910  15.348  68.254  1.00  0.00    -0.522 Na 
HETATM    3  O   UNL     3     -12.493  13.434  67.905  1.00  0.00    -0.053 OA 
HETATM    4  C   UNL     3     -12.181  12.198  68.027  1.00  0.00     0.288 C  
HETATM    5  C   UNL     3     -11.964  11.625  69.403  1.00  0.00    -0.381 A  
HETATM    6  O   UNL     3     -12.082  11.451  67.000  1.00  0.00    -0.317 OA 
HETATM    7  C   UNL     3     -12.816  11.979  70.477  1.00  0.00     0.129 A  
HETATM    8 CL   UNL     3     -14.173  13.054  70.217  1.00  0.00     3.817 Cl 
HETATM    9  C   UNL     3     -12.611  11.454  71.774  1.00  0.00    -0.136 A  
HETATM   10 CL   UNL     3     -13.672  11.922  73.081  1.00  0.00     2.332 Cl 
HETATM   11  C   UNL     3     -11.563  10.556  72.019  1.00  0.00     1.574 A  
HETATM   12  C   UNL     3     -10.709  10.185  70.968  1.00  0.00     0.150 A  
HETATM   13 CL   UNL     3     -11.325   9.900  73.615  1.00  0.00     7.856 Cl 
HETATM   14  C   UNL     3     -10.896  10.717  69.665  1.00  0.00    -0.294 A  
HETATM   15 CL   UNL     3      -9.409   9.060  71.261  1.00  0.00    -0.327 Cl 
ENDROOT
BRANCH  14  16
HETATM   16  C   UNL     3      -9.907  10.363  68.591  1.00  0.00    -0.183 A  
HETATM   17  C   UNL     3      -8.898  11.216  68.263  1.00  0.00    -0.155 A  
HETATM   18  C   UNL     3      -8.762  12.526  68.902  1.00  0.00     0.310 C  
HETATM   19  C   UNL     3      -7.698  13.318  68.701  1.00  0.00    -0.080 C  
HETATM   20 BR   UNL     3      -7.510  14.941  69.598  1.00  0.00    -0.053 Br 
HETATM   21  C   UNL     3      -6.599  12.869  67.788  1.00  0.00    -0.140 C  
HETATM   22  O   UNL     3      -5.539  13.503  67.716  1.00  0.00    -0.170 OA 
HETATM   23  C   UNL     3      -6.811  11.607  67.018  1.00  0.00    -0.144 C  
HETATM   24  C   UNL     3      -7.892  10.830  67.264  1.00  0.00    -0.113 A  
HETATM   25 BR   UNL     3      -5.480  11.124  65.792  1.00  0.00     0.057 Br 
HETATM   26  O   UNL     3      -8.019   9.624  66.595  1.00  0.00    -0.107 OA 
HETATM   27  C   UNL     3      -9.016   8.743  66.920  1.00  0.00    -0.132 A  
HETATM   28  C   UNL     3      -9.977   9.070  67.869  1.00  0.00    -0.220 A  
HETATM   29  C   UNL     3     -10.991   8.146  68.112  1.00  0.00     0.148 C  
HETATM   30  C   UNL     3     -11.006   6.898  67.468  1.00  0.00    -0.270 C  
HETATM   31 BR   UNL     3     -12.472   5.755  67.957  1.00  0.00     8.879 Br 
HETATM   32  C   UNL     3     -10.017   6.486  66.542  1.00  0.00    -0.092 C  
HETATM   33  C   UNL     3      -9.034   7.486  66.274  1.00  0.00    -0.167 C  
HETATM   34  O   UNL     3     -10.005   5.322  66.009  1.00  0.00    -0.164 OA 
HETATM   35 BR   UNL     3      -7.630   7.138  64.992  1.00  0.00    -0.111 Br 
ENDBRANCH  14  16
TORSDOF 1
ENDMDL
MODEL      157
REMARK 921   NORMALIZED FREE ENERGY PREDICTED BY IDOCK:   19.64 KCAL/MOL
REMARK 922        TOTAL FREE ENERGY PREDICTED BY IDOCK:   20.03 KCAL/MOL
REMARK 923 INTER-LIGAND FREE ENERGY PREDICTED BY IDOCK:   19.94 KCAL/MOL
REMARK 924 INTRA-LIGAND FREE ENERGY PREDICTED BY IDOCK:    0.09 KCAL/MOL
REMARK 927      BINDING AFFINITY PREDICTED BY RF-SCORE:    0.00 PKD
ROOT
HETATM    1 NA   UNL     1     -12.585   9.541  67.899  1.00  0.00     0.878 Na 
HETATM    2 NA   UNL     2     -13.766   4.652  67.986  1.00  0.00    11.890 Na 
HETATM    3  O   UNL     3     -12.503   6.114  67.506  1.00  0.00     3.923 OA 
HETATM    4  C   UNL     3     -11.488   6.785  67.110  1.00  0.00     0.329 C  
HETATM    5  C   UNL     3     -10.308   6.057  66.521  1.00  0.00    -0.209 A  
HETATM    6  O   UNL     3     -11.483   8.057  67.185  1.00  0.00     0.779 OA 
HETATM    7  C   UNL     3     -10.498   4.968  65.636  1.00  0.00    -0.043 A  
HETATM    8 CL   UNL     3     -12.111   4.475  65.167  1.00  0.00     2.220 Cl 
HETATM    9  C   UNL     3      -9.395   4.272  65.089  1.00  0.00    -0.165 A  
HETATM   10 CL   UNL     3      -9.664   2.925  64.011  1.00  0.00    -0.146 Cl 
HETATM   11  C   UNL     3      -8.084   4.660  65.402  1.00  0.00    -0.107 A  
HETATM   12  C   UNL     3      -7.872   5.741  66.272  1.00  0.00    -0.101 A  
HETATM   13 CL   UNL     3      -6.730   3.811  64.711  1.00  0.00    -0.046 Cl 
HETATM   14  C   UNL     3      -8.971   6.438  66.839  1.00  0.00    -0.126 A  
HETATM   15 CL   UNL     3      -6.245   6.238  66.659  1.00  0.00    -0.035 Cl 
ENDROOT
BRANCH  14  16
HETATM   16  C   UNL     3      -8.699   7.531  67.833  1.00  0.00    -0.124 A  
HETATM   17  C   UNL     3      -8.813   8.841  67.479  1.00  0.00    -0.139 A  
HETATM   18  C   UNL     3      -9.156   9.240  66.113  1.00  0.00    -0.224 C  
HETATM   19  C   UNL     3      -9.417  10.512  65.779  1.00  0.00    -0.201 C  
HETATM   20 BR   UNL     3      -9.938  10.977  64.051  1.00  0.00    -0.424 Br 
HETATM   21  C   UNL     3      -9.354  11.583  66.824  1.00  0.00    -0.181 C  
HETATM   22  O   UNL     3      -9.747  12.730  66.578  1.00  0.00    -0.244 OA 
HETATM   23  C   UNL     3      -8.853  11.200  68.178  1.00  0.00    -0.148 C  
HETATM   24  C   UNL     3      -8.618   9.902  68.478  1.00  0.00    -0.117 A  
HETATM   25 BR   UNL     3      -8.667  12.575  69.437  1.00  0.00     1.521 Br 
HETATM   26  O   UNL     3      -8.235   9.567  69.766  1.00  0.00    -0.117 OA 
HETATM   27  C   UNL     3      -8.130   8.256  70.148  1.00  0.00    -0.112 A  
HETATM   28  C   UNL     3      -8.320   7.228  69.234  1.00  0.00    -0.132 A  
HETATM   29  C   UNL     3      -8.148   5.920  69.682  1.00  0.00    -0.106 C  
HETATM   30  C   UNL     3      -7.854   5.645  71.029  1.00  0.00    -0.105 C  
HETATM   31 BR   UNL     3      -7.679   3.779  71.453  1.00  0.00    -0.057 Br 
HETATM   32  C   UNL     3      -7.713   6.651  72.016  1.00  0.00    -0.097 C  
HETATM   33  C   UNL     3      -7.835   7.977  71.502  1.00  0.00    -0.100 C  
HETATM   34  O   UNL     3      -7.510   6.387  73.252  1.00  0.00    -0.090 OA 
HETATM   35 BR   UNL     3      -7.617   9.492  72.683  1.00  0.00     2.100 Br 
ENDBRANCH  14  16
TORSDOF 1
ENDMDL
MODEL      158
REMARK 921   NORMALIZED FREE ENERGY PREDICTED BY IDOCK:   19.64 KCAL/MOL
REMARK 922        TOTAL FREE ENERGY PREDICTED BY IDOCK:   20.04 KCAL/MOL
REMARK 923 INTER-LIGAND FREE ENERGY PREDICTED BY IDOCK:    8.19 KCAL/MOL
REMARK 924 INTRA-LIGAND FREE ENERGY PREDICTED BY IDOCK:   11.85 KCAL/MOL
REMARK 927      BINDING AFFINITY PREDICTED BY RF-SCORE:    0.00 PKD
ROOT
HETATM    1 NA   UNL     1     -11.921  11.073  64.465  1.00  0.00    -0.112 Na 
HETATM    2 NA   UNL     2      -8.983  15.145  64.755  1.00  0.00    -0.136 Na 
HETATM    3  O   UNL     3     -10.296  13.902  65.586  1.00  0.00    -0.302 OA 
HETATM    4  C   UNL     3     -11.073  13.296  66.404  1.00  0.00    -0.295 C  
HETATM    5  C   UNL     3     -11.223  13.824  67.806  1.00  0.00    -0.312 A  
HETATM    6  O   UNL     3     -11.737  12.275  66.029  1.00  0.00    -0.399 OA 
HETATM    7  C   UNL     3     -11.313  15.215  68.051  1.00  0.00    -0.337 A  
HETATM    8 CL   UNL     3     -11.304  16.353  66.721  1.00  0.00     0.297 Cl 
HETATM    9  C   UNL     3     -11.442  15.718  69.367  1.00  0.00    -0.355 A  
HETATM   10 CL   UNL     3     -11.538  17.441  69.635  1.00  0.00     1.623 Cl 
HETATM   11  C   UNL     3     -11.497  14.841  70.459  1.00  0.00    -0.249 A  
HETATM   12  C   UNL     3     -11.416  13.456  70.241  1.00  0.00     0.090 A  
HETATM   13 CL   UNL     3     -11.672  15.464  72.076  1.00  0.00    -0.494 Cl 
HETATM   14  C   UNL     3     -11.272  12.941  68.926  1.00  0.00    -0.327 A  
HETATM   15 CL   UNL     3     -11.495  12.357  71.594  1.00  0.00     2.671 Cl 
ENDROOT
BRANCH  14  16
HETATM   16  C   UNL     3     -11.099  11.459  68.745  1.00  0.00    -0.290 A  
HETATM   17  C   UNL     3     -11.722  10.578  69.576  1.00  0.00    -0.313 A  
HETATM   18  C   UNL     3     -12.540  11.031  70.702  1.00  0.00    -0.427 C  
HETATM   19  C   UNL     3     -13.277  10.189  71.441  1.00  0.00    -0.380 C  
HETATM   20 BR   UNL     3     -14.378  10.807  72.812  1.00  0.00     2.220 Br 
HETATM   21  C   UNL     3     -13.273   8.725  71.126  1.00  0.00    -0.056 C  
HETATM   22  O   UNL     3     -14.066   7.956  71.683  1.00  0.00    -0.397 OA 
HETATM   23  C   UNL     3     -12.320   8.245  70.080  1.00  0.00     0.868 C  
HETATM   24  C   UNL     3     -11.607   9.131  69.346  1.00  0.00     0.484 A  
HETATM   25 BR   UNL     3     -12.243   6.397  69.783  1.00  0.00     1.328 Br 
HETATM   26  O   UNL     3     -10.795   8.662  68.328  1.00  0.00    -0.098 OA 
HETATM   27  C   UNL     3     -10.173   9.529  67.470  1.00  0.00    -0.228 A  
HETATM   28  C   UNL     3     -10.270  10.903  67.649  1.00  0.00    -0.214 A  
HETATM   29  C   UNL     3      -9.569  11.725  66.769  1.00  0.00    -0.212 C  
HETATM   30  C   UNL     3      -8.841  11.185  65.695  1.00  0.00    -0.157 C  
HETATM   31 BR   UNL     3      -7.966  12.483  64.580  1.00  0.00     5.300 Br 
HETATM   32  C   UNL     3      -8.762   9.796  65.427  1.00  0.00    -0.154 C  
HETATM   33  C   UNL     3      -9.440   8.989  66.389  1.00  0.00    -0.226 C  
HETATM   34  O   UNL     3      -8.150   9.319  64.409  1.00  0.00    -0.125 OA 
HETATM   35 BR   UNL     3      -9.401   7.063  66.230  1.00  0.00    -0.096 Br 
ENDBRANCH  14  16
TORSDOF 1
ENDMDL
MODEL      159
REMARK 921   NORMALIZED FREE ENERGY PREDICTED BY IDOCK:   19.80 KCAL/MOL
REMARK 922        TOTAL FREE ENERGY PREDICTED BY IDOCK:   20.20 KCAL/MOL
REMARK 923 INTER-LIGAND FREE ENERGY PREDICTED BY IDOCK:   20.88 KCAL/MOL
REMARK 924 INTRA-LIGAND FREE ENERGY PREDICTED BY IDOCK:   -0.68 KCAL/MOL
REMARK 927      BINDING AFFINITY PREDICTED BY RF-SCORE:    0.00 PKD
ROOT
HETATM    1 NA   UNL     1      -7.885  15.429  67.108  1.00  0.00    -0.115 Na 
HETATM    2 NA   UNL     2      -5.499  11.233  65.693  1.00  0.00    -0.101 Na 
HETATM    3  O   UNL     3      -6.671  12.202  66.977  1.00  0.00    -0.140 OA 
HETATM    4  C   UNL     3      -7.451  12.508  67.945  1.00  0.00    -0.120 C  
HETATM    5  C   UNL     3      -7.818  11.453  68.956  1.00  0.00    -0.043 A  
HETATM    6  O   UNL     3      -7.890  13.697  68.071  1.00  0.00    -0.123 OA 
HETATM    7  C   UNL     3      -6.849  10.540  69.434  1.00  0.00    -0.088 A  
HETATM    8 CL   UNL     3      -5.186  10.647  68.898  1.00  0.00    -0.042 Cl 
HETATM    9  C   UNL     3      -7.190   9.540  70.375  1.00  0.00    -0.127 A  
HETATM   10 CL   UNL     3      -5.973   8.419  70.935  1.00  0.00    -0.032 Cl 
HETATM   11  C   UNL     3      -8.500   9.444  70.865  1.00  0.00    -0.065 A  
HETATM   12  C   UNL     3      -9.477  10.343  70.410  1.00  0.00     0.741 A  
HETATM   13 CL   UNL     3      -8.911   8.221  72.035  1.00  0.00    -0.236 Cl 
HETATM   14  C   UNL     3      -9.150  11.342  69.455  1.00  0.00     0.406 A  
HETATM   15 CL   UNL     3     -11.107  10.238  71.023  1.00  0.00    -0.252 Cl 
ENDROOT
BRANCH  14  16
HETATM   16  C   UNL     3     -10.245  12.226  68.929  1.00  0.00    -0.041 A  
HETATM   17  C   UNL     3     -10.735  13.251  69.680  1.00  0.00     0.338 A  
HETATM   18  C   UNL     3     -10.254  13.506  71.038  1.00  0.00     5.112 C  
HETATM   19  C   UNL     3     -10.614  14.592  71.738  1.00  0.00     2.293 C  
HETATM   20 BR   UNL     3      -9.916  14.934  73.432  1.00  0.00     7.503 Br 
HETATM   21  C   UNL     3     -11.547  15.593  71.129  1.00  0.00    -0.412 C  
HETATM   22  O   UNL     3     -11.762  16.676  71.684  1.00  0.00    -0.321 OA 
HETATM   23  C   UNL     3     -12.158  15.255  69.808  1.00  0.00    -0.328 C  
HETATM   24  C   UNL     3     -11.753  14.156  69.129  1.00  0.00    -0.327 A  
HETATM   25 BR   UNL     3     -13.413  16.461  69.117  1.00  0.00     5.343 Br 
HETATM   26  O   UNL     3     -12.275  13.913  67.869  1.00  0.00    -0.325 OA 
HETATM   27  C   UNL     3     -11.787  12.898  67.091  1.00  0.00    -0.362 A  
HETATM   28  C   UNL     3     -10.815  12.032  67.574  1.00  0.00    -0.284 A  
HETATM   29  C   UNL     3     -10.401  10.991  66.745  1.00  0.00    -0.284 C  
HETATM   30  C   UNL     3     -10.902  10.859  65.439  1.00  0.00    -0.042 C  
HETATM   31 BR   UNL     3     -10.190   9.376  64.447  1.00  0.00     2.443 Br 
HETATM   32  C   UNL     3     -11.845  11.752  64.873  1.00  0.00    -0.064 C  
HETATM   33  C   UNL     3     -12.288  12.764  65.776  1.00  0.00    -0.323 C  
HETATM   34  O   UNL     3     -12.246  11.661  63.660  1.00  0.00    -0.404 OA 
HETATM   35 BR   UNL     3     -13.619  14.046  65.210  1.00  0.00     1.708 Br 
ENDBRANCH  14  16
TORSDOF 1
ENDMDL
MODEL      160
REMARK 921   NORMALIZED FREE ENERGY PREDICTED BY IDOCK:   21.92 KCAL/MOL
REMARK 922        TOTAL FREE ENERGY PREDICTED BY IDOCK:   22.44 KCAL/MOL
REMARK 923 INTER-LIGAND FREE ENERGY PREDICTED BY IDOCK:    8.93 KCAL/MOL
REMARK 924 INTRA-LIGAND FREE ENERGY PREDICTED BY IDOCK:   13.51 KCAL/MOL
REMARK 927      BINDING AFFINITY PREDICTED BY RF-SCORE:    0.00 PKD
ROOT
HETATM    1 NA   UNL     1      -9.892   5.763  65.526  1.00  0.00    -0.272 Na 
HETATM    2 NA   UNL     2      -7.184   9.111  62.927  1.00  0.00    -0.097 Na 
HETATM    3  O   UNL     3      -8.414   8.682  64.432  1.00  0.00    -0.160 OA 
HETATM    4  C   UNL     3      -9.145   8.740  65.481  1.00  0.00    -0.163 C  
HETATM    5  C   UNL     3      -9.305  10.056  66.195  1.00  0.00    -0.220 A  
HETATM    6  O   UNL     3      -9.755   7.704  65.903  1.00  0.00     0.064 OA 
HETATM    7  C   UNL     3      -9.471  11.259  65.468  1.00  0.00    -0.229 A  
HETATM    8 CL   UNL     3      -9.544  11.237  63.719  1.00  0.00    -0.272 Cl 
HETATM    9  C   UNL     3      -9.610  12.500  66.133  1.00  0.00    -0.228 A  
HETATM   10 CL   UNL     3      -9.799  13.968  65.205  1.00  0.00    -0.256 Cl 
HETATM   11  C   UNL     3      -9.601  12.560  67.534  1.00  0.00    -0.187 A  
HETATM   12  C   UNL     3      -9.445  11.379  68.276  1.00  0.00    -0.187 A  
HETATM   13 CL   UNL     3      -9.790  14.089  68.347  1.00  0.00    -0.229 Cl 
HETATM   14  C   UNL     3      -9.290  10.130  67.620  1.00  0.00    -0.162 A  
HETATM   15 CL   UNL     3      -9.444  11.443  70.020  1.00  0.00     1.498 Cl 
ENDROOT
BRANCH  14  16
HETATM   16  C   UNL     3      -9.036   8.903  68.451  1.00  0.00    -0.137 A  
HETATM   17  C   UNL     3      -9.682   7.734  68.184  1.00  0.00    -0.171 A  
HETATM   18  C   UNL     3     -10.678   7.634  67.117  1.00  0.00    -0.361 C  
HETATM   19  C   UNL     3     -11.217   6.464  66.742  1.00  0.00    -0.028 C  
HETATM   20 BR   UNL     3     -12.416   6.355  65.320  1.00  0.00     9.592 Br 
HETATM   21  C   UNL     3     -10.803   5.200  67.433  1.00  0.00     0.276 C  
HETATM   22  O   UNL     3     -11.158   4.098  66.999  1.00  0.00     1.748 OA 
HETATM   23  C   UNL     3      -9.907   5.323  68.622  1.00  0.00    -0.155 C  
HETATM   24  C   UNL     3      -9.373   6.521  68.955  1.00  0.00    -0.131 A  
HETATM   25 BR   UNL     3      -9.497   3.746  69.544  1.00  0.00    -0.234 Br 
HETATM   26  O   UNL     3      -8.479   6.590  70.010  1.00  0.00    -0.132 OA 
HETATM   27  C   UNL     3      -7.807   7.751  70.286  1.00  0.00    -0.091 A  
HETATM   28  C   UNL     3      -8.064   8.913  69.570  1.00  0.00    -0.101 A  
HETATM   29  C   UNL     3      -7.379  10.069  69.939  1.00  0.00    -0.163 C  
HETATM   30  C   UNL     3      -6.412  10.046  70.958  1.00  0.00     0.071 C  
HETATM   31 BR   UNL     3      -5.561  11.735  71.300  1.00  0.00     0.269 Br 
HETATM   32  C   UNL     3      -6.063   8.876  71.675  1.00  0.00    -0.065 C  
HETATM   33  C   UNL     3      -6.833   7.731  71.310  1.00  0.00    -0.049 C  
HETATM   34  O   UNL     3      -5.135   8.853  72.557  1.00  0.00    -0.042 OA 
HETATM   35 BR   UNL     3      -6.547   6.048  72.217  1.00  0.00    -0.064 Br 
ENDBRANCH  14  16
TORSDOF 1
ENDMDL
MODEL      161
REMARK 921   NORMALIZED FREE ENERGY PREDICTED BY IDOCK:   25.04 KCAL/MOL
REMARK 922        TOTAL FREE ENERGY PREDICTED BY IDOCK:   25.75 KCAL/MOL
REMARK 923 INTER-LIGAND FREE ENERGY PREDICTED BY IDOCK:    4.29 KCAL/MOL
REMARK 924 INTRA-LIGAND FREE ENERGY PREDICTED BY IDOCK:   21.46 KCAL/MOL
REMARK 927      BINDING AFFINITY PREDICTED BY RF-SCORE:    0.00 PKD
ROOT
HETATM    1 NA   UNL     1      -9.264   8.541  70.185  1.00  0.00    -0.136 Na 
HETATM    2 NA   UNL     2     -13.514   9.045  72.829  1.00  0.00    -0.363 Na 
HETATM    3  O   UNL     3     -12.165   9.793  71.571  1.00  0.00    -0.355 OA 
HETATM    4  C   UNL     3     -11.527  10.538  70.748  1.00  0.00    -0.285 C  
HETATM    5  C   UNL     3     -12.076  11.898  70.407  1.00  0.00    -0.421 A  
HETATM    6  O   UNL     3     -10.424  10.147  70.243  1.00  0.00    -0.281 OA 
HETATM    7  C   UNL     3     -12.642  12.722  71.409  1.00  0.00    -0.207 A  
HETATM    8 CL   UNL     3     -12.671  12.198  73.079  1.00  0.00     2.700 Cl 
HETATM    9  C   UNL     3     -13.170  13.996  71.093  1.00  0.00    -0.267 A  
HETATM   10 CL   UNL     3     -13.874  14.983  72.351  1.00  0.00    -0.558 Cl 
HETATM   11  C   UNL     3     -13.128  14.475  69.776  1.00  0.00     0.551 A  
HETATM   12  C   UNL     3     -12.565  13.678  68.767  1.00  0.00     0.549 A  
HETATM   13 CL   UNL     3     -13.764  16.052  69.396  1.00  0.00     2.855 Cl 
HETATM   14  C   UNL     3     -12.046  12.392  69.069  1.00  0.00    -0.185 A  
HETATM   15 CL   UNL     3     -12.500  14.271  67.128  1.00  0.00    -0.167 Cl 
ENDROOT
BRANCH  14  16
HETATM   16  C   UNL     3     -11.534  11.537  67.945  1.00  0.00    -0.372 A  
HETATM   17  C   UNL     3     -11.181  12.091  66.752  1.00  0.00    -0.376 A  
HETATM   18  C   UNL     3     -11.330  13.525  66.497  1.00  0.00    -0.340 C  
HETATM   19  C   UNL     3     -10.856  14.112  65.389  1.00  0.00    -0.337 C  
HETATM   20 BR   UNL     3     -10.981  15.954  65.134  1.00  0.00    -0.346 Br 
HETATM   21  C   UNL     3     -10.150  13.289  64.355  1.00  0.00    -0.163 C  
HETATM   22  O   UNL     3      -9.563  13.830  63.410  1.00  0.00     2.927 OA 
HETATM   23  C   UNL     3     -10.137  11.807  64.542  1.00  0.00    -0.274 C  
HETATM   24  C   UNL     3     -10.612  11.257  65.683  1.00  0.00    -0.244 A  
HETATM   25 BR   UNL     3      -9.355  10.785  63.180  1.00  0.00    -0.379 Br 
HETATM   26  O   UNL     3     -10.510   9.888  65.865  1.00  0.00    -0.158 OA 
HETATM   27  C   UNL     3     -10.843   9.312  67.061  1.00  0.00    -0.007 A  
HETATM   28  C   UNL     3     -11.372  10.071  68.097  1.00  0.00    -0.100 A  
HETATM   29  C   UNL     3     -11.735   9.410  69.268  1.00  0.00     0.516 C  
HETATM   30  C   UNL     3     -11.514   8.031  69.422  1.00  0.00     0.517 C  
HETATM   31 BR   UNL     3     -12.060   7.310  71.118  1.00  0.00    -0.376 Br 
HETATM   32  C   UNL     3     -10.918   7.221  68.424  1.00  0.00     0.029 C  
HETATM   33  C   UNL     3     -10.621   7.925  67.219  1.00  0.00    -0.295 C  
HETATM   34  O   UNL     3     -10.663   5.979  68.599  1.00  0.00    -0.246 OA 
HETATM   35 BR   UNL     3      -9.856   6.982  65.715  1.00  0.00     0.881 Br 
ENDBRANCH  14  16
TORSDOF 1
ENDMDL
MODEL      162
REMARK 921   NORMALIZED FREE ENERGY PREDICTED BY IDOCK:   26.36 KCAL/MOL
REMARK 922        TOTAL FREE ENERGY PREDICTED BY IDOCK:   27.14 KCAL/MOL
REMARK 923 INTER-LIGAND FREE ENERGY PREDICTED BY IDOCK:   20.07 KCAL/MOL
REMARK 924 INTRA-LIGAND FREE ENERGY PREDICTED BY IDOCK:    7.07 KCAL/MOL
REMARK 927      BINDING AFFINITY PREDICTED BY RF-SCORE:    0.00 PKD
ROOT
HETATM    1 NA   UNL     1     -11.213  14.684  72.580  1.00  0.00    -0.302 Na 
HETATM    2 NA   UNL     2      -9.851  10.987  69.452  1.00  0.00    -0.185 Na 
HETATM    3  O   UNL     3     -10.704  12.758  69.763  1.00  0.00     0.305 OA 
HETATM    4  C   UNL     3     -11.271  13.897  69.613  1.00  0.00    -0.140 C  
HETATM    5  C   UNL     3     -11.661  14.350  68.231  1.00  0.00    -0.376 A  
HETATM    6  O   UNL     3     -11.528  14.629  70.624  1.00  0.00    -0.267 OA 
HETATM    7  C   UNL     3     -12.231  13.442  67.306  1.00  0.00    -0.233 A  
HETATM    8 CL   UNL     3     -12.541  11.782  67.766  1.00  0.00     1.295 Cl 
HETATM    9  C   UNL     3     -12.589  13.858  66.002  1.00  0.00    -0.423 A  
HETATM   10 CL   UNL     3     -13.278  12.710  64.881  1.00  0.00     0.044 Cl 
HETATM   11  C   UNL     3     -12.399  15.189  65.605  1.00  0.00     0.418 A  
HETATM   12  C   UNL     3     -11.842  16.108  66.507  1.00  0.00     1.139 A  
HETATM   13 CL   UNL     3     -12.858  15.700  64.004  1.00  0.00     0.583 Cl 
HETATM   14  C   UNL     3     -11.465  15.699  67.813  1.00  0.00    -0.209 A  
HETATM   15 CL   UNL     3     -11.612  17.769  66.024  1.00  0.00     1.681 Cl 
ENDROOT
BRANCH  14  16
HETATM   16  C   UNL     3     -10.791  16.694  68.716  1.00  0.00    -0.331 A  
HETATM   17  C   UNL     3     -11.263  16.928  69.971  1.00  0.00     0.334 A  
HETATM   18  C   UNL     3     -12.465  16.264  70.476  1.00  0.00     0.590 C  
HETATM   19  C   UNL     3     -12.863  16.368  71.752  1.00  0.00     0.754 C  
HETATM   20 BR   UNL     3     -14.349  15.439  72.387  1.00  0.00    -0.317 Br 
HETATM   21  C   UNL     3     -12.066  17.194  72.715  1.00  0.00     0.912 C  
HETATM   22  O   UNL     3     -12.318  17.172  73.925  1.00  0.00    -0.210 OA 
HETATM   23  C   UNL     3     -10.932  17.995  72.164  1.00  0.00     2.934 C  
HETATM   24  C   UNL     3     -10.553  17.847  70.873  1.00  0.00     2.277 A  
HETATM   25 BR   UNL     3     -10.022  19.114  73.359  1.00  0.00     5.168 Br 
HETATM   26  O   UNL     3      -9.446  18.539  70.413  1.00  0.00     1.783 OA 
HETATM   27  C   UNL     3      -8.944  18.306  69.160  1.00  0.00     0.107 A  
HETATM   28  C   UNL     3      -9.581  17.435  68.286  1.00  0.00    -0.292 A  
HETATM   29  C   UNL     3      -9.043  17.286  67.009  1.00  0.00    -0.247 C  
HETATM   30  C   UNL     3      -7.858  17.945  66.639  1.00  0.00    -0.241 C  
HETATM   31 BR   UNL     3      -7.265  17.591  64.845  1.00  0.00     3.945 Br 
HETATM   32  C   UNL     3      -7.133  18.793  67.511  1.00  0.00    -0.207 C  
HETATM   33  C   UNL     3      -7.753  18.967  68.785  1.00  0.00    -0.347 C  
HETATM   34  O   UNL     3      -6.021  19.337  67.185  1.00  0.00    -0.178 OA 
HETATM   35 BR   UNL     3      -6.946  20.135  70.097  1.00  0.00     0.310 Br 
ENDBRANCH  14  16
TORSDOF 1
ENDMDL
MODEL      163
REMARK 921   NORMALIZED FREE ENERGY PREDICTED BY IDOCK:   27.37 KCAL/MOL
REMARK 922        TOTAL FREE ENERGY PREDICTED BY IDOCK:   28.22 KCAL/MOL
REMARK 923 INTER-LIGAND FREE ENERGY PREDICTED BY IDOCK:   16.55 KCAL/MOL
REMARK 924 INTRA-LIGAND FREE ENERGY PREDICTED BY IDOCK:   11.67 KCAL/MOL
REMARK 927      BINDING AFFINITY PREDICTED BY RF-SCORE:    0.00 PKD
ROOT
HETATM    1 NA   UNL     1      -6.891  17.839  69.736  1.00  0.00    -0.238 Na 
HETATM    2 NA   UNL     2      -7.678  17.805  64.769  1.00  0.00     0.445 Na 
HETATM    3  O   UNL     3      -8.019  17.042  66.575  1.00  0.00    -0.237 OA 
HETATM    4  C   UNL     3      -8.468  16.358  67.560  1.00  0.00    -0.169 C  
HETATM    5  C   UNL     3      -9.474  15.268  67.300  1.00  0.00    -0.212 A  
HETATM    6  O   UNL     3      -8.050  16.576  68.743  1.00  0.00    -0.221 OA 
HETATM    7  C   UNL     3      -9.339  14.408  66.184  1.00  0.00    -0.189 A  
HETATM    8 CL   UNL     3      -7.969  14.562  65.105  1.00  0.00     6.127 Cl 
HETATM    9  C   UNL     3     -10.287  13.390  65.928  1.00  0.00    -0.290 A  
HETATM   10 CL   UNL     3     -10.098  12.355  64.534  1.00  0.00    -0.296 Cl 
HETATM   11  C   UNL     3     -11.377  13.202  66.790  1.00  0.00    -0.316 A  
HETATM   12  C   UNL     3     -11.528  14.038  67.907  1.00  0.00    -0.316 A  
HETATM   13 CL   UNL     3     -12.532  11.935  66.479  1.00  0.00     1.017 Cl 
HETATM   14  C   UNL     3     -10.591  15.073  68.166  1.00  0.00    -0.248 A  
HETATM   15 CL   UNL     3     -12.875  13.804  68.991  1.00  0.00     0.707 Cl 
ENDROOT
BRANCH  14  16
HETATM   16  C   UNL     3     -10.839  16.000  69.322  1.00  0.00    -0.300 A  
HETATM   17  C   UNL     3     -11.430  15.549  70.464  1.00  0.00    -0.368 A  
HETATM   18  C   UNL     3     -11.888  14.166  70.596  1.00  0.00    -0.333 C  
HETATM   19  C   UNL     3     -12.336  13.664  71.756  1.00  0.00     0.006 C  
HETATM   20 BR   UNL     3     -12.830  11.874  71.916  1.00  0.00    -0.223 Br 
HETATM   21  C   UNL     3     -12.385  14.535  72.974  1.00  0.00    -0.166 C  
HETATM   22  O   UNL     3     -12.636  14.054  74.085  1.00  0.00     0.389 OA 
HETATM   23  C   UNL     3     -12.065  15.984  72.801  1.00  0.00    -0.531 C  
HETATM   24  C   UNL     3     -11.601  16.445  71.616  1.00  0.00    -0.265 A  
HETATM   25 BR   UNL     3     -12.247  17.081  74.308  1.00  0.00     0.166 Br 
HETATM   26  O   UNL     3     -11.233  17.776  71.509  1.00  0.00     1.395 OA 
HETATM   27  C   UNL     3     -10.623  18.247  70.378  1.00  0.00     1.906 A  
HETATM   28  C   UNL     3     -10.434  17.425  69.274  1.00  0.00    -0.171 A  
HETATM   29  C   UNL     3      -9.852  17.986  68.138  1.00  0.00    -0.341 C  
HETATM   30  C   UNL     3      -9.413  19.320  68.131  1.00  0.00    -0.346 C  
HETATM   31 BR   UNL     3      -8.616  19.898  66.480  1.00  0.00    -0.388 Br 
HETATM   32  C   UNL     3      -9.521  20.183  69.249  1.00  0.00     0.276 C  
HETATM   33  C   UNL     3     -10.179  19.589  70.367  1.00  0.00     1.151 C  
HETATM   34  O   UNL     3      -9.059  21.377  69.252  1.00  0.00     2.823 OA 
HETATM   35 BR   UNL     3     -10.477  20.624  71.972  1.00  0.00     6.304 Br 
ENDBRANCH  14  16
TORSDOF 1
ENDMDL
MODEL      164
REMARK 921   NORMALIZED FREE ENERGY PREDICTED BY IDOCK:   28.56 KCAL/MOL
REMARK 922        TOTAL FREE ENERGY PREDICTED BY IDOCK:   29.48 KCAL/MOL
REMARK 923 INTER-LIGAND FREE ENERGY PREDICTED BY IDOCK:   12.43 KCAL/MOL
REMARK 924 INTRA-LIGAND FREE ENERGY PREDICTED BY IDOCK:   17.04 KCAL/MOL
REMARK 927      BINDING AFFINITY PREDICTED BY RF-SCORE:    0.00 PKD
ROOT
HETATM    1 NA   UNL     1     -11.143  12.742  64.630  1.00  0.00    -0.281 Na 
HETATM    2 NA   UNL     2      -7.628  16.331  64.890  1.00  0.00     1.221 Na 
HETATM    3  O   UNL     3      -9.214  15.410  65.662  1.00  0.00    -0.250 OA 
HETATM    4  C   UNL     3     -10.170  15.032  66.427  1.00  0.00    -0.277 C  
HETATM    5  C   UNL     3     -10.390  15.744  67.736  1.00  0.00    -0.275 A  
HETATM    6  O   UNL     3     -10.945  14.085  66.074  1.00  0.00    -0.294 OA 
HETATM    7  C   UNL     3     -10.279  17.152  67.822  1.00  0.00    -0.324 A  
HETATM    8 CL   UNL     3      -9.930  18.105  66.396  1.00  0.00    -0.364 Cl 
HETATM    9  C   UNL     3     -10.473  17.825  69.051  1.00  0.00    -0.152 A  
HETATM   10 CL   UNL     3     -10.315  19.563  69.127  1.00  0.00    -0.251 Cl 
HETATM   11  C   UNL     3     -10.797  17.106  70.211  1.00  0.00     0.578 A  
HETATM   12  C   UNL     3     -10.920  15.709  70.148  1.00  0.00    -0.339 A  
HETATM   13 CL   UNL     3     -11.052  17.942  71.718  1.00  0.00     2.008 Cl 
HETATM   14  C   UNL     3     -10.712  15.022  68.923  1.00  0.00    -0.240 A  
HETATM   15 CL   UNL     3     -11.334  14.808  71.583  1.00  0.00    -0.197 Cl 
ENDROOT
BRANCH  14  16
HETATM   16  C   UNL     3     -10.767  13.520  68.919  1.00  0.00    -0.228 A  
HETATM   17  C   UNL     3     -11.494  12.846  69.852  1.00  0.00    -0.147 A  
HETATM   18  C   UNL     3     -12.210  13.545  70.920  1.00  0.00    -0.387 C  
HETATM   19  C   UNL     3     -13.048  12.916  71.758  1.00  0.00    -0.360 C  
HETATM   20 BR   UNL     3     -14.014  13.849  73.050  1.00  0.00     0.940 Br 
HETATM   21  C   UNL     3     -13.269  11.441  71.619  1.00  0.00    -0.309 C  
HETATM   22  O   UNL     3     -14.154  10.871  72.267  1.00  0.00     0.312 OA 
HETATM   23  C   UNL     3     -12.421  10.704  70.634  1.00  0.00    -0.371 C  
HETATM   24  C   UNL     3     -11.601  11.381  69.796  1.00  0.00    -0.332 A  
HETATM   25 BR   UNL     3     -12.627   8.844  70.558  1.00  0.00     0.533 Br 
HETATM   26  O   UNL     3     -10.891  10.679  68.837  1.00  0.00    -0.200 OA 
HETATM   27  C   UNL     3     -10.167  11.337  67.879  1.00  0.00    -0.181 A  
HETATM   28  C   UNL     3     -10.054  12.721  67.894  1.00  0.00    -0.231 A  
HETATM   29  C   UNL     3      -9.259  13.319  66.918  1.00  0.00    -0.242 C  
HETATM   30  C   UNL     3      -8.643  12.554  65.913  1.00  0.00     0.655 C  
HETATM   31 BR   UNL     3      -7.610  13.566  64.647  1.00  0.00    13.244 Br 
HETATM   32  C   UNL     3      -8.778  11.147  65.812  1.00  0.00    -0.150 C  
HETATM   33  C   UNL     3      -9.546  10.570  66.866  1.00  0.00    -0.175 C  
HETATM   34  O   UNL     3      -8.266  10.468  64.855  1.00  0.00    -0.168 OA 
HETATM   35 BR   UNL     3      -9.798   8.655  66.938  1.00  0.00    -0.334 Br 
ENDBRANCH  14  16
TORSDOF 1
ENDMDL
MODEL      165
REMARK 921   NORMALIZED FREE ENERGY PREDICTED BY IDOCK:   28.86 KCAL/MOL
REMARK 922        TOTAL FREE ENERGY PREDICTED BY IDOCK:   29.79 KCAL/MOL
REMARK 923 INTER-LIGAND FREE ENERGY PREDICTED BY IDOCK:   25.97 KCAL/MOL
REMARK 924 INTRA-LIGAND FREE ENERGY PREDICTED BY IDOCK:    3.82 KCAL/MOL
REMARK 927      BINDING AFFINITY PREDICTED BY RF-SCORE:    0.00 PKD
ROOT
HETATM    1 NA   UNL     1      -9.714   8.843  63.519  1.00  0.00    -0.364 Na 
HETATM    2 NA   UNL     2     -13.813   7.278  65.978  1.00  0.00     5.135 Na 
HETATM    3  O   UNL     3     -11.904   7.843  65.989  1.00  0.00     4.968 OA 
HETATM    4  C   UNL     3     -10.721   8.183  66.342  1.00  0.00     0.706 C  
HETATM    5  C   UNL     3     -10.352   8.155  67.801  1.00  0.00    -0.295 A  
HETATM    6  O   UNL     3      -9.856   8.514  65.468  1.00  0.00     0.163 OA 
HETATM    7  C   UNL     3     -10.780   7.096  68.637  1.00  0.00    -0.163 A  
HETATM    8 CL   UNL     3     -11.710   5.766  67.979  1.00  0.00     1.433 Cl 
HETATM    9  C   UNL     3     -10.446   7.070  70.011  1.00  0.00    -0.215 A  
HETATM   10 CL   UNL     3     -11.002   5.755  71.018  1.00  0.00    -0.327 Cl 
HETATM   11  C   UNL     3      -9.666   8.092  70.572  1.00  0.00    -0.178 A  
HETATM   12  C   UNL     3      -9.225   9.149  69.761  1.00  0.00    -0.171 A  
HETATM   13 CL   UNL     3      -9.244   8.046  72.261  1.00  0.00    -0.219 Cl 
HETATM   14  C   UNL     3      -9.566   9.193  68.384  1.00  0.00    -0.162 A  
HETATM   15 CL   UNL     3      -8.245  10.419  70.448  1.00  0.00     0.507 Cl 
ENDROOT
BRANCH  14  16
HETATM   16  C   UNL     3      -9.147  10.387  67.573  1.00  0.00    -0.142 A  
HETATM   17  C   UNL     3      -9.548  11.642  67.921  1.00  0.00    -0.180 A  
HETATM   18  C   UNL     3     -10.436  11.876  69.060  1.00  0.00    -0.103 C  
HETATM   19  C   UNL     3     -10.725  13.107  69.507  1.00  0.00     0.283 C  
HETATM   20 BR   UNL     3     -11.788  13.371  71.015  1.00  0.00     0.441 Br 
HETATM   21  C   UNL     3     -10.132  14.303  68.826  1.00  0.00    -0.217 C  
HETATM   22  O   UNL     3     -10.250  15.432  69.317  1.00  0.00    -0.221 OA 
HETATM   23  C   UNL     3      -9.354  14.070  67.572  1.00  0.00    -0.209 C  
HETATM   24  C   UNL     3      -9.072  12.810  67.166  1.00  0.00    -0.219 A  
HETATM   25 BR   UNL     3      -8.723  15.585  66.670  1.00  0.00    -0.340 Br 
HETATM   26  O   UNL     3      -8.278  12.626  66.047  1.00  0.00     0.606 OA 
HETATM   27  C   UNL     3      -7.850  11.375  65.689  1.00  0.00     0.387 A  
HETATM   28  C   UNL     3      -8.269  10.250  66.387  1.00  0.00    -0.129 A  
HETATM   29  C   UNL     3      -7.833   9.006  65.935  1.00  0.00    -0.102 C  
HETATM   30  C   UNL     3      -6.948   8.895  64.850  1.00  0.00    -0.073 C  
HETATM   31 BR   UNL     3      -6.446   7.097  64.397  1.00  0.00    -0.040 Br 
HETATM   32  C   UNL     3      -6.438  10.013  64.144  1.00  0.00    -0.131 C  
HETATM   33  C   UNL     3      -6.959  11.261  64.598  1.00  0.00     1.338 C  
HETATM   34  O   UNL     3      -5.582   9.905  63.198  1.00  0.00    -0.090 OA 
HETATM   35 BR   UNL     3      -6.428  12.902  63.723  1.00  0.00    14.291 Br 
ENDBRANCH  14  16
TORSDOF 1
ENDMDL
MODEL      166
REMARK 921   NORMALIZED FREE ENERGY PREDICTED BY IDOCK:   29.54 KCAL/MOL
REMARK 922        TOTAL FREE ENERGY PREDICTED BY IDOCK:   30.51 KCAL/MOL
REMARK 923 INTER-LIGAND FREE ENERGY PREDICTED BY IDOCK:   27.24 KCAL/MOL
REMARK 924 INTRA-LIGAND FREE ENERGY PREDICTED BY IDOCK:    3.27 KCAL/MOL
REMARK 927      BINDING AFFINITY PREDICTED BY RF-SCORE:    0.00 PKD
ROOT
HETATM    1 NA   UNL     1      -7.131   6.902  66.307  1.00  0.00    -0.057 Na 
HETATM    2 NA   UNL     2     -11.048   3.750  66.474  1.00  0.00    -0.118 Na 
HETATM    3  O   UNL     3      -9.829   5.037  67.379  1.00  0.00    -0.155 OA 
HETATM    4  C   UNL     3      -9.268   5.817  68.226  1.00  0.00    -0.117 C  
HETATM    5  C   UNL     3      -9.818   5.902  69.625  1.00  0.00    -0.215 A  
HETATM    6  O   UNL     3      -8.238   6.492  67.900  1.00  0.00    -0.115 OA 
HETATM    7  C   UNL     3     -10.248   4.739  70.306  1.00  0.00    -0.192 A  
HETATM    8 CL   UNL     3     -10.105   3.165  69.554  1.00  0.00     0.540 Cl 
HETATM    9  C   UNL     3     -10.777   4.814  71.616  1.00  0.00     0.061 A  
HETATM   10 CL   UNL     3     -11.312   3.360  72.423  1.00  0.00     0.659 Cl 
HETATM   11  C   UNL     3     -10.870   6.048  72.275  1.00  0.00    -0.245 A  
HETATM   12  C   UNL     3     -10.443   7.215  71.621  1.00  0.00    -0.198 A  
HETATM   13 CL   UNL     3     -11.506   6.132  73.894  1.00  0.00     0.869 Cl 
HETATM   14  C   UNL     3      -9.924   7.154  70.301  1.00  0.00    -0.191 A  
HETATM   15 CL   UNL     3     -10.545   8.754  72.437  1.00  0.00    -0.318 Cl 
ENDROOT
BRANCH  14  16
HETATM   16  C   UNL     3      -9.561   8.436  69.607  1.00  0.00    -0.163 A  
HETATM   17  C   UNL     3      -8.726   9.336  70.196  1.00  0.00    -0.224 A  
HETATM   18  C   UNL     3      -8.188   9.119  71.540  1.00  0.00     0.071 C  
HETATM   19  C   UNL     3      -7.253   9.915  72.079  1.00  0.00     1.816 C  
HETATM   20 BR   UNL     3      -6.522   9.561  73.756  1.00  0.00     0.855 Br 
HETATM   21  C   UNL     3      -6.730  11.081  71.297  1.00  0.00     2.024 C  
HETATM   22  O   UNL     3      -5.757  11.728  71.703  1.00  0.00    -0.290 OA 
HETATM   23  C   UNL     3      -7.390  11.393  69.994  1.00  0.00     0.737 C  
HETATM   24  C   UNL     3      -8.318  10.553  69.479  1.00  0.00    -0.061 A  
HETATM   25 BR   UNL     3      -6.804  12.924  69.088  1.00  0.00    -0.005 Br 
HETATM   26  O   UNL     3      -8.852  10.822  68.231  1.00  0.00    -0.128 OA 
HETATM   27  C   UNL     3      -9.680   9.924  67.612  1.00  0.00    -0.155 A  
HETATM   28  C   UNL     3     -10.076   8.759  68.255  1.00  0.00    -0.220 A  
HETATM   29  C   UNL     3     -10.961   7.916  67.585  1.00  0.00     0.016 C  
HETATM   30  C   UNL     3     -11.388   8.202  66.278  1.00  0.00     3.298 C  
HETATM   31 BR   UNL     3     -12.587   6.906  65.518  1.00  0.00    12.333 Br 
HETATM   32  C   UNL     3     -10.965   9.342  65.551  1.00  0.00     2.411 C  
HETATM   33  C   UNL     3     -10.111  10.209  66.297  1.00  0.00    -0.238 C  
HETATM   34  O   UNL     3     -11.309   9.560  64.338  1.00  0.00     5.048 OA 
HETATM   35 BR   UNL     3      -9.472  11.850  65.500  1.00  0.00    -0.091 Br 
ENDBRANCH  14  16
TORSDOF 1
ENDMDL
MODEL      167
REMARK 921   NORMALIZED FREE ENERGY PREDICTED BY IDOCK:   30.43 KCAL/MOL
REMARK 922        TOTAL FREE ENERGY PREDICTED BY IDOCK:   31.46 KCAL/MOL
REMARK 923 INTER-LIGAND FREE ENERGY PREDICTED BY IDOCK:   31.69 KCAL/MOL
REMARK 924 INTRA-LIGAND FREE ENERGY PREDICTED BY IDOCK:   -0.24 KCAL/MOL
REMARK 927      BINDING AFFINITY PREDICTED BY RF-SCORE:    0.00 PKD
ROOT
HETATM    1 NA   UNL     1      -5.302   7.995  69.941  1.00  0.00    -0.021 Na 
HETATM    2 NA   UNL     2      -6.909   3.232  70.112  1.00  0.00    -0.029 Na 
HETATM    3  O   UNL     3      -7.289   5.176  69.913  1.00  0.00    -0.057 OA 
HETATM    4  C   UNL     3      -7.855   6.307  69.717  1.00  0.00    -0.110 C  
HETATM    5  C   UNL     3      -9.339   6.354  69.461  1.00  0.00    -0.146 A  
HETATM    6  O   UNL     3      -7.179   7.386  69.765  1.00  0.00    -0.076 OA 
HETATM    7  C   UNL     3     -10.226   5.532  70.196  1.00  0.00    -0.263 A  
HETATM    8 CL   UNL     3      -9.623   4.476  71.455  1.00  0.00    -0.218 Cl 
HETATM    9  C   UNL     3     -11.619   5.563  69.952  1.00  0.00     1.347 A  
HETATM   10 CL   UNL     3     -12.686   4.525  70.867  1.00  0.00     8.704 Cl 
HETATM   11  C   UNL     3     -12.152   6.425  68.983  1.00  0.00     1.572 A  
HETATM   12  C   UNL     3     -11.292   7.255  68.247  1.00  0.00     0.448 A  
HETATM   13 CL   UNL     3     -13.870   6.471  68.700  1.00  0.00    13.369 Cl 
HETATM   14  C   UNL     3      -9.890   7.222  68.472  1.00  0.00    -0.159 A  
HETATM   15 CL   UNL     3     -11.947   8.339  67.047  1.00  0.00     4.047 Cl 
ENDROOT
BRANCH  14  16
HETATM   16  C   UNL     3      -8.999   8.061  67.601  1.00  0.00    -0.138 A  
HETATM   17  C   UNL     3      -8.970   9.416  67.733  1.00  0.00    -0.127 A  
HETATM   18  C   UNL     3      -9.833  10.113  68.687  1.00  0.00    -0.170 C  
HETATM   19  C   UNL     3      -9.718  11.426  68.937  1.00  0.00    -0.090 C  
HETATM   20 BR   UNL     3     -10.772  12.269  70.222  1.00  0.00     2.077 Br 
HETATM   21  C   UNL     3      -8.678  12.230  68.219  1.00  0.00    -0.178 C  
HETATM   22  O   UNL     3      -8.443  13.399  68.550  1.00  0.00    -0.153 OA 
HETATM   23  C   UNL     3      -7.904  11.552  67.136  1.00  0.00    -0.160 C  
HETATM   24  C   UNL     3      -8.040  10.222  66.928  1.00  0.00    -0.119 A  
HETATM   25 BR   UNL     3      -6.693  12.604  66.169  1.00  0.00     3.029 Br 
HETATM   26  O   UNL     3      -7.249   9.605  65.974  1.00  0.00    -0.094 OA 
HETATM   27  C   UNL     3      -7.250   8.243  65.836  1.00  0.00    -0.072 A  
HETATM   28  C   UNL     3      -8.106   7.449  66.588  1.00  0.00    -0.123 A  
HETATM   29  C   UNL     3      -8.089   6.075  66.358  1.00  0.00    -0.110 C  
HETATM   30  C   UNL     3      -7.190   5.502  65.442  1.00  0.00    -0.067 C  
HETATM   31 BR   UNL     3      -7.304   3.590  65.286  1.00  0.00    -0.073 Br 
HETATM   32  C   UNL     3      -6.251   6.257  64.696  1.00  0.00    -0.030 C  
HETATM   33  C   UNL     3      -6.347   7.664  64.915  1.00  0.00    -0.038 C  
HETATM   34  O   UNL     3      -5.394   5.720  63.913  1.00  0.00    -0.016 OA 
HETATM   35 BR   UNL     3      -5.189   8.871  63.946  1.00  0.00    -0.061 Br 
ENDBRANCH  14  16
TORSDOF 1
ENDMDL
MODEL      168
REMARK 921   NORMALIZED FREE ENERGY PREDICTED BY IDOCK:   30.96 KCAL/MOL
REMARK 922        TOTAL FREE ENERGY PREDICTED BY IDOCK:   32.02 KCAL/MOL
REMARK 923 INTER-LIGAND FREE ENERGY PREDICTED BY IDOCK:   18.76 KCAL/MOL
REMARK 924 INTRA-LIGAND FREE ENERGY PREDICTED BY IDOCK:   13.26 KCAL/MOL
REMARK 927      BINDING AFFINITY PREDICTED BY RF-SCORE:    0.00 PKD
ROOT
HETATM    1 NA   UNL     1      -8.071  16.225  66.151  1.00  0.00    -0.193 Na 
HETATM    2 NA   UNL     2     -10.530  12.710  63.524  1.00  0.00    -0.328 Na 
HETATM    3  O   UNL     3      -9.977  13.487  65.271  1.00  0.00    -0.265 OA 
HETATM    4  C   UNL     3      -9.836  13.740  66.518  1.00  0.00    -0.290 C  
HETATM    5  C   UNL     3     -10.518  12.858  67.531  1.00  0.00    -0.226 A  
HETATM    6  O   UNL     3      -9.103  14.709  66.902  1.00  0.00    -0.227 OA 
HETATM    7  C   UNL     3     -10.553  11.453  67.361  1.00  0.00    -0.218 A  
HETATM    8 CL   UNL     3      -9.759  10.704  65.993  1.00  0.00    -0.244 Cl 
HETATM    9  C   UNL     3     -11.203  10.621  68.302  1.00  0.00    -0.301 A  
HETATM   10 CL   UNL     3     -11.240   8.892  68.056  1.00  0.00     0.232 Cl 
HETATM   11  C   UNL     3     -11.815  11.174  69.436  1.00  0.00    -0.345 A  
HETATM   12  C   UNL     3     -11.787  12.564  69.628  1.00  0.00    -0.314 A  
HETATM   13 CL   UNL     3     -12.599  10.143  70.600  1.00  0.00    -0.371 Cl 
HETATM   14  C   UNL     3     -11.151  13.411  68.683  1.00  0.00    -0.295 A  
HETATM   15 CL   UNL     3     -12.537  13.260  71.042  1.00  0.00    -0.435 Cl 
ENDROOT
BRANCH  14  16
HETATM   16  C   UNL     3     -11.222  14.899  68.883  1.00  0.00    -0.282 A  
HETATM   17  C   UNL     3     -11.267  15.433  70.135  1.00  0.00    -0.318 A  
HETATM   18  C   UNL     3     -11.297  14.588  71.329  1.00  0.00     0.100 C  
HETATM   19  C   UNL     3     -11.194  15.090  72.569  1.00  0.00     0.214 C  
HETATM   20 BR   UNL     3     -11.146  13.982  74.067  1.00  0.00     5.299 Br 
HETATM   21  C   UNL     3     -11.049  16.569  72.762  1.00  0.00     1.578 C  
HETATM   22  O   UNL     3     -10.788  17.037  73.877  1.00  0.00     2.669 OA 
HETATM   23  C   UNL     3     -11.175  17.440  71.556  1.00  0.00     1.700 C  
HETATM   24  C   UNL     3     -11.261  16.891  70.322  1.00  0.00     0.399 A  
HETATM   25 BR   UNL     3     -11.110  19.291  71.833  1.00  0.00     6.586 Br 
HETATM   26  O   UNL     3     -11.291  17.723  69.215  1.00  0.00     1.096 OA 
HETATM   27  C   UNL     3     -11.230  17.208  67.948  1.00  0.00     0.062 A  
HETATM   28  C   UNL     3     -11.222  15.836  67.734  1.00  0.00    -0.286 A  
HETATM   29  C   UNL     3     -11.210  15.384  66.416  1.00  0.00    -0.164 C  
HETATM   30  C   UNL     3     -11.143  16.283  65.339  1.00  0.00    -0.087 C  
HETATM   31 BR   UNL     3     -11.111  15.463  63.602  1.00  0.00     2.437 Br 
HETATM   32  C   UNL     3     -11.084  17.690  65.502  1.00  0.00     0.436 C  
HETATM   33  C   UNL     3     -11.163  18.111  66.863  1.00  0.00     0.590 C  
HETATM   34  O   UNL     3     -10.958  18.498  64.517  1.00  0.00     0.189 OA 
HETATM   35 BR   UNL     3     -11.156  19.997  67.289  1.00  0.00     0.363 Br 
ENDBRANCH  14  16
TORSDOF 1
ENDMDL
MODEL      169
REMARK 921   NORMALIZED FREE ENERGY PREDICTED BY IDOCK:   31.12 KCAL/MOL
REMARK 922        TOTAL FREE ENERGY PREDICTED BY IDOCK:   32.19 KCAL/MOL
REMARK 923 INTER-LIGAND FREE ENERGY PREDICTED BY IDOCK:   26.58 KCAL/MOL
REMARK 924 INTRA-LIGAND FREE ENERGY PREDICTED BY IDOCK:    5.61 KCAL/MOL
REMARK 927      BINDING AFFINITY PREDICTED BY RF-SCORE:    0.00 PKD
ROOT
HETATM    1 NA   UNL     1     -14.081  15.620  69.821  1.00  0.00    -0.265 Na 
HETATM    2 NA   UNL     2     -13.394  10.642  70.032  1.00  0.00    -0.325 Na 
HETATM    3  O   UNL     3     -12.852  12.431  69.350  1.00  0.00     0.609 OA 
HETATM    4  C   UNL     3     -12.237  13.399  68.779  1.00  0.00    -0.115 C  
HETATM    5  C   UNL     3     -11.007  13.108  67.959  1.00  0.00    -0.270 A  
HETATM    6  O   UNL     3     -12.674  14.591  68.878  1.00  0.00     0.143 OA 
HETATM    7  C   UNL     3     -10.956  11.980  67.106  1.00  0.00    -0.270 A  
HETATM    8 CL   UNL     3     -12.342  10.924  66.946  1.00  0.00     2.353 Cl 
HETATM    9  C   UNL     3      -9.800  11.695  66.342  1.00  0.00    -0.207 A  
HETATM   10 CL   UNL     3      -9.764  10.288  65.308  1.00  0.00    -0.328 Cl 
HETATM   11  C   UNL     3      -8.681  12.539  66.406  1.00  0.00     0.053 A  
HETATM   12  C   UNL     3      -8.712  13.667  67.240  1.00  0.00    -0.218 A  
HETATM   13 CL   UNL     3      -7.267  12.192  65.450  1.00  0.00     2.512 Cl 
HETATM   14  C   UNL     3      -9.861  13.955  68.023  1.00  0.00    -0.234 A  
HETATM   15 CL   UNL     3      -7.329  14.728  67.317  1.00  0.00    -0.204 Cl 
ENDROOT
BRANCH  14  16
HETATM   16  C   UNL     3      -9.818  15.122  68.968  1.00  0.00    -0.238 A  
HETATM   17  C   UNL     3      -9.326  16.327  68.568  1.00  0.00    -0.213 A  
HETATM   18  C   UNL     3      -8.777  16.524  67.225  1.00  0.00    -0.204 C  
HETATM   19  C   UNL     3      -8.424  17.732  66.762  1.00  0.00    -0.248 C  
HETATM   20 BR   UNL     3      -7.812  17.964  65.017  1.00  0.00     3.459 Br 
HETATM   21  C   UNL     3      -8.581  18.938  67.636  1.00  0.00    -0.280 C  
HETATM   22  O   UNL     3      -8.419  20.075  67.178  1.00  0.00    -0.309 OA 
HETATM   23  C   UNL     3      -8.992  18.716  69.055  1.00  0.00    -0.081 C  
HETATM   24  C   UNL     3      -9.356  17.482  69.476  1.00  0.00     0.475 A  
HETATM   25 BR   UNL     3      -9.068  20.222  70.165  1.00  0.00     1.619 Br 
HETATM   26  O   UNL     3      -9.813  17.321  70.773  1.00  0.00     2.318 OA 
HETATM   27  C   UNL     3     -10.328  16.123  71.192  1.00  0.00     1.304 A  
HETATM   28  C   UNL     3     -10.327  15.014  70.357  1.00  0.00     0.063 A  
HETATM   29  C   UNL     3     -10.819  13.815  70.867  1.00  0.00     1.982 C  
HETATM   30  C   UNL     3     -11.359  13.744  72.163  1.00  0.00     2.842 C  
HETATM   31 BR   UNL     3     -12.009  12.009  72.673  1.00  0.00     5.583 Br 
HETATM   32  C   UNL     3     -11.445  14.858  73.033  1.00  0.00     0.164 C  
HETATM   33  C   UNL     3     -10.872  16.049  72.495  1.00  0.00     1.664 C  
HETATM   34  O   UNL     3     -11.997  14.798  74.187  1.00  0.00    -0.446 OA 
HETATM   35 BR   UNL     3     -10.838  17.667  73.553  1.00  0.00     3.891 Br 
ENDBRANCH  14  16
TORSDOF 1
ENDMDL
MODEL      170
REMARK 921   NORMALIZED FREE ENERGY PREDICTED BY IDOCK:   31.32 KCAL/MOL
REMARK 922        TOTAL FREE ENERGY PREDICTED BY IDOCK:   32.39 KCAL/MOL
REMARK 923 INTER-LIGAND FREE ENERGY PREDICTED BY IDOCK:   29.43 KCAL/MOL
REMARK 924 INTRA-LIGAND FREE ENERGY PREDICTED BY IDOCK:    2.96 KCAL/MOL
REMARK 927      BINDING AFFINITY PREDICTED BY RF-SCORE:    0.00 PKD
ROOT
HETATM    1 NA   UNL     1      -6.226   9.842  67.830  1.00  0.00    -0.047 Na 
HETATM    2 NA   UNL     2      -9.283   6.655  70.237  1.00  0.00    -0.142 Na 
HETATM    3  O   UNL     3      -8.926   8.457  69.470  1.00  0.00    -0.147 OA 
HETATM    4  C   UNL     3      -9.031   9.666  69.063  1.00  0.00    -0.148 C  
HETATM    5  C   UNL     3     -10.319  10.412  69.293  1.00  0.00    -0.250 A  
HETATM    6  O   UNL     3      -8.048  10.245  68.495  1.00  0.00    -0.101 OA 
HETATM    7  C   UNL     3     -11.017  10.290  70.519  1.00  0.00    -0.270 A  
HETATM    8 CL   UNL     3     -10.370   9.308  71.816  1.00  0.00    -0.331 Cl 
HETATM    9  C   UNL     3     -12.233  10.978  70.737  1.00  0.00    -0.380 A  
HETATM   10 CL   UNL     3     -13.076  10.796  72.256  1.00  0.00    -0.358 Cl 
HETATM   11  C   UNL     3     -12.766  11.811  69.742  1.00  0.00     0.324 A  
HETATM   12  C   UNL     3     -12.089  11.951  68.521  1.00  0.00    -0.059 A  
HETATM   13 CL   UNL     3     -14.256  12.669  70.023  1.00  0.00     5.322 Cl 
HETATM   14  C   UNL     3     -10.874  11.254  68.286  1.00  0.00    -0.249 A  
HETATM   15 CL   UNL     3     -12.739  12.994  67.282  1.00  0.00     0.704 Cl 
ENDROOT
BRANCH  14  16
HETATM   16  C   UNL     3     -10.229  11.364  66.933  1.00  0.00    -0.254 A  
HETATM   17  C   UNL     3      -9.946  12.582  66.392  1.00  0.00    -0.262 A  
HETATM   18  C   UNL     3     -10.298  13.826  67.076  1.00  0.00    -0.260 C  
HETATM   19  C   UNL     3      -9.901  15.029  66.634  1.00  0.00    -0.254 C  
HETATM   20 BR   UNL     3     -10.290  16.589  67.575  1.00  0.00    -0.298 Br 
HETATM   21  C   UNL     3      -9.069  15.126  65.392  1.00  0.00     0.772 C  
HETATM   22  O   UNL     3      -8.555  16.200  65.058  1.00  0.00     1.460 OA 
HETATM   23  C   UNL     3      -8.843  13.873  64.611  1.00  0.00     4.030 C  
HETATM   24  C   UNL     3      -9.247  12.678  65.103  1.00  0.00     0.580 A  
HETATM   25 BR   UNL     3      -7.903  14.033  62.999  1.00  0.00    20.106 Br 
HETATM   26  O   UNL     3      -8.949  11.525  64.397  1.00  0.00     0.091 OA 
HETATM   27  C   UNL     3      -9.210  10.290  64.929  1.00  0.00    -0.227 A  
HETATM   28  C   UNL     3      -9.857  10.161  66.151  1.00  0.00    -0.297 A  
HETATM   29  C   UNL     3     -10.135   8.874  66.607  1.00  0.00    -0.357 C  
HETATM   30  C   UNL     3      -9.717   7.742  65.887  1.00  0.00     0.288 C  
HETATM   31 BR   UNL     3     -10.174   6.058  66.693  1.00  0.00    -0.231 Br 
HETATM   32  C   UNL     3      -8.997   7.815  64.669  1.00  0.00     0.687 C  
HETATM   33  C   UNL     3      -8.791   9.150  64.207  1.00  0.00    -0.100 C  
HETATM   34  O   UNL     3      -8.565   6.779  64.054  1.00  0.00     0.221 OA 
HETATM   35 BR   UNL     3      -7.877   9.459  62.532  1.00  0.00    -0.128 Br 
ENDBRANCH  14  16
TORSDOF 1
ENDMDL
MODEL      171
REMARK 921   NORMALIZED FREE ENERGY PREDICTED BY IDOCK:   31.36 KCAL/MOL
REMARK 922        TOTAL FREE ENERGY PREDICTED BY IDOCK:   32.44 KCAL/MOL
REMARK 923 INTER-LIGAND FREE ENERGY PREDICTED BY IDOCK:   26.35 KCAL/MOL
REMARK 924 INTRA-LIGAND FREE ENERGY PREDICTED BY IDOCK:    6.10 KCAL/MOL
REMARK 927      BINDING AFFINITY PREDICTED BY RF-SCORE:    0.00 PKD
ROOT
HETATM    1 NA   UNL     1      -9.020  12.426  72.200  1.00  0.00    10.958 Na 
HETATM    2 NA   UNL     2     -10.465  17.235  71.915  1.00  0.00     0.927 Na 
HETATM    3  O   UNL     3      -9.611  15.638  71.089  1.00  0.00     1.442 OA 
HETATM    4  C   UNL     3      -9.056  14.818  70.277  1.00  0.00     1.087 C  
HETATM    5  C   UNL     3      -8.713  15.279  68.885  1.00  0.00    -0.208 A  
HETATM    6  O   UNL     3      -8.769  13.634  70.649  1.00  0.00     3.946 OA 
HETATM    7  C   UNL     3      -8.169  16.566  68.662  1.00  0.00    -0.234 A  
HETATM    8 CL   UNL     3      -7.835  17.635  70.007  1.00  0.00     1.477 Cl 
HETATM    9  C   UNL     3      -7.856  17.009  67.355  1.00  0.00    -0.171 A  
HETATM   10 CL   UNL     3      -7.198  18.609  67.113  1.00  0.00    -0.212 Cl 
HETATM   11  C   UNL     3      -8.066  16.170  66.252  1.00  0.00    -0.175 A  
HETATM   12  C   UNL     3      -8.598  14.887  66.449  1.00  0.00     0.017 A  
HETATM   13 CL   UNL     3      -7.663  16.715  64.647  1.00  0.00     6.301 Cl 
HETATM   14  C   UNL     3      -8.930  14.437  67.754  1.00  0.00    -0.192 A  
HETATM   15 CL   UNL     3      -8.853  13.832  65.083  1.00  0.00     1.830 Cl 
ENDROOT
BRANCH  14  16
HETATM   16  C   UNL     3      -9.580  13.091  67.911  1.00  0.00    -0.215 A  
HETATM   17  C   UNL     3      -9.112  12.007  67.232  1.00  0.00    -0.178 A  
HETATM   18  C   UNL     3      -7.996  12.113  66.291  1.00  0.00     0.401 C  
HETATM   19  C   UNL     3      -7.426  11.040  65.725  1.00  0.00     0.073 C  
HETATM   20 BR   UNL     3      -5.950  11.200  64.599  1.00  0.00     1.094 Br 
HETATM   21  C   UNL     3      -7.939   9.669  66.048  1.00  0.00    -0.108 C  
HETATM   22  O   UNL     3      -7.330   8.662  65.670  1.00  0.00    -0.082 OA 
HETATM   23  C   UNL     3      -9.174   9.572  66.883  1.00  0.00    -0.143 C  
HETATM   24  C   UNL     3      -9.706  10.680  67.449  1.00  0.00    -0.167 A  
HETATM   25 BR   UNL     3      -9.869   7.857  67.177  1.00  0.00    -0.301 Br 
HETATM   26  O   UNL     3     -10.801  10.549  68.287  1.00  0.00    -0.211 OA 
HETATM   27  C   UNL     3     -11.277  11.621  68.992  1.00  0.00    -0.262 A  
HETATM   28  C   UNL     3     -10.732  12.887  68.822  1.00  0.00    -0.249 A  
HETATM   29  C   UNL     3     -11.301  13.941  69.534  1.00  0.00    -0.293 C  
HETATM   30  C   UNL     3     -12.349  13.722  70.443  1.00  0.00    -0.353 C  
HETATM   31 BR   UNL     3     -12.979  15.298  71.345  1.00  0.00    -0.554 Br 
HETATM   32  C   UNL     3     -12.900  12.443  70.704  1.00  0.00     0.069 C  
HETATM   33  C   UNL     3     -12.332  11.404  69.907  1.00  0.00    -0.214 C  
HETATM   34  O   UNL     3     -13.810  12.244  71.581  1.00  0.00     0.209 OA 
HETATM   35 BR   UNL     3     -12.990   9.593  70.074  1.00  0.00     1.034 Br 
ENDBRANCH  14  16
TORSDOF 1
ENDMDL
MODEL      172
REMARK 921   NORMALIZED FREE ENERGY PREDICTED BY IDOCK:   32.38 KCAL/MOL
REMARK 922        TOTAL FREE ENERGY PREDICTED BY IDOCK:   33.52 KCAL/MOL
REMARK 923 INTER-LIGAND FREE ENERGY PREDICTED BY IDOCK:   19.68 KCAL/MOL
REMARK 924 INTRA-LIGAND FREE ENERGY PREDICTED BY IDOCK:   13.84 KCAL/MOL
REMARK 927      BINDING AFFINITY PREDICTED BY RF-SCORE:    0.00 PKD
ROOT
HETATM    1 NA   UNL     1      -9.144  10.647  68.498  1.00  0.00    -0.120 Na 
HETATM    2 NA   UNL     2     -14.015  10.928  69.721  1.00  0.00     0.196 Na 
HETATM    3  O   UNL     3     -12.189  11.718  69.717  1.00  0.00    -0.269 OA 
HETATM    4  C   UNL     3     -11.183  12.501  69.849  1.00  0.00     0.164 C  
HETATM    5  C   UNL     3     -11.377  13.845  70.500  1.00  0.00     0.139 A  
HETATM    6  O   UNL     3     -10.025  12.137  69.462  1.00  0.00     0.526 OA 
HETATM    7  C   UNL     3     -12.206  13.986  71.639  1.00  0.00    -0.141 A  
HETATM    8 CL   UNL     3     -12.986  12.589  72.348  1.00  0.00    -0.235 Cl 
HETATM    9  C   UNL     3     -12.402  15.248  72.247  1.00  0.00    -0.370 A  
HETATM   10 CL   UNL     3     -13.441  15.389  73.643  1.00  0.00    -0.175 Cl 
HETATM   11  C   UNL     3     -11.762  16.388  71.739  1.00  0.00    -0.324 A  
HETATM   12  C   UNL     3     -10.930  16.271  70.614  1.00  0.00    -0.160 A  
HETATM   13 CL   UNL     3     -11.993  17.936  72.503  1.00  0.00     2.885 Cl 
HETATM   14  C   UNL     3     -10.738  15.012  69.987  1.00  0.00    -0.216 A  
HETATM   15 CL   UNL     3     -10.121  17.682  69.983  1.00  0.00     0.598 Cl 
ENDROOT
BRANCH  14  16
HETATM   16  C   UNL     3      -9.911  14.948  68.734  1.00  0.00    -0.225 A  
HETATM   17  C   UNL     3     -10.184  14.033  67.763  1.00  0.00    -0.240 A  
HETATM   18  C   UNL     3     -11.254  13.047  67.917  1.00  0.00    -0.304 C  
HETATM   19  C   UNL     3     -11.635  12.235  66.920  1.00  0.00    -0.361 C  
HETATM   20 BR   UNL     3     -13.061  11.052  67.118  1.00  0.00     9.379 Br 
HETATM   21  C   UNL     3     -10.948  12.318  65.591  1.00  0.00    -0.299 C  
HETATM   22  O   UNL     3     -11.387  11.701  64.613  1.00  0.00    -0.291 OA 
HETATM   23  C   UNL     3      -9.756  13.212  65.483  1.00  0.00    -0.043 C  
HETATM   24  C   UNL     3      -9.417  14.027  66.509  1.00  0.00    -0.279 A  
HETATM   25 BR   UNL     3      -8.838  13.212  63.850  1.00  0.00     5.162 Br 
HETATM   26  O   UNL     3      -8.358  14.905  66.350  1.00  0.00    -0.038 OA 
HETATM   27  C   UNL     3      -8.076  15.845  67.305  1.00  0.00    -0.184 A  
HETATM   28  C   UNL     3      -8.789  15.888  68.497  1.00  0.00    -0.195 A  
HETATM   29  C   UNL     3      -8.413  16.838  69.444  1.00  0.00     0.203 C  
HETATM   30  C   UNL     3      -7.392  17.765  69.179  1.00  0.00    -0.114 C  
HETATM   31 BR   UNL     3      -7.040  19.009  70.601  1.00  0.00     1.669 Br 
HETATM   32  C   UNL     3      -6.677  17.808  67.956  1.00  0.00    -0.193 C  
HETATM   33  C   UNL     3      -7.049  16.779  67.041  1.00  0.00    -0.203 C  
HETATM   34  O   UNL     3      -5.792  18.697  67.700  1.00  0.00    -0.173 OA 
HETATM   35 BR   UNL     3      -6.148  16.632  65.337  1.00  0.00     3.914 Br 
ENDBRANCH  14  16
TORSDOF 1
ENDMDL
MODEL      173
REMARK 921   NORMALIZED FREE ENERGY PREDICTED BY IDOCK:   33.65 KCAL/MOL
REMARK 922        TOTAL FREE ENERGY PREDICTED BY IDOCK:   34.86 KCAL/MOL
REMARK 923 INTER-LIGAND FREE ENERGY PREDICTED BY IDOCK:   25.62 KCAL/MOL
REMARK 924 INTRA-LIGAND FREE ENERGY PREDICTED BY IDOCK:    9.25 KCAL/MOL
REMARK 927      BINDING AFFINITY PREDICTED BY RF-SCORE:    0.00 PKD
ROOT
HETATM    1 NA   UNL     1      -8.403  12.242  65.906  1.00  0.00    -0.354 Na 
HETATM    2 NA   UNL     2     -13.430  12.179  65.740  1.00  0.00     0.495 Na 
HETATM    3  O   UNL     3     -11.739  12.353  66.776  1.00  0.00    -0.393 OA 
HETATM    4  C   UNL     3     -10.874  12.540  67.701  1.00  0.00    -0.225 C  
HETATM    5  C   UNL     3     -11.346  12.821  69.104  1.00  0.00    -0.337 A  
HETATM    6  O   UNL     3      -9.628  12.462  67.447  1.00  0.00    -0.179 OA 
HETATM    7  C   UNL     3     -12.443  12.116  69.654  1.00  0.00     0.155 A  
HETATM    8 CL   UNL     3     -13.247  10.864  68.732  1.00  0.00     2.679 Cl 
HETATM    9  C   UNL     3     -12.897  12.383  70.967  1.00  0.00    -0.155 A  
HETATM   10 CL   UNL     3     -14.263  11.505  71.611  1.00  0.00     1.404 Cl 
HETATM   11  C   UNL     3     -12.256  13.347  71.758  1.00  0.00     0.353 A  
HETATM   12  C   UNL     3     -11.162  14.054  71.236  1.00  0.00     1.273 A  
HETATM   13 CL   UNL     3     -12.810  13.660  73.379  1.00  0.00     0.646 Cl 
HETATM   14  C   UNL     3     -10.706  13.805  69.914  1.00  0.00     0.411 A  
HETATM   15 CL   UNL     3     -10.350  15.247  72.217  1.00  0.00     1.538 Cl 
ENDROOT
BRANCH  14  16
HETATM   16  C   UNL     3      -9.588  14.646  69.365  1.00  0.00     0.054 A  
HETATM   17  C   UNL     3      -8.514  14.069  68.759  1.00  0.00    -0.038 A  
HETATM   18  C   UNL     3      -8.377  12.615  68.659  1.00  0.00     0.028 C  
HETATM   19  C   UNL     3      -7.407  12.030  67.942  1.00  0.00    -0.104 C  
HETATM   20 BR   UNL     3      -7.312  10.178  67.761  1.00  0.00    -0.088 Br 
HETATM   21  C   UNL     3      -6.409  12.876  67.212  1.00  0.00    -0.008 C  
HETATM   22  O   UNL     3      -5.611  12.367  66.417  1.00  0.00    -0.008 OA 
HETATM   23  C   UNL     3      -6.455  14.352  67.441  1.00  0.00     0.120 C  
HETATM   24  C   UNL     3      -7.462  14.902  68.159  1.00  0.00    -0.115 A  
HETATM   25 BR   UNL     3      -5.126  15.382  66.616  1.00  0.00     2.073 Br 
HETATM   26  O   UNL     3      -7.526  16.279  68.283  1.00  0.00    -0.149 OA 
HETATM   27  C   UNL     3      -8.604  16.881  68.874  1.00  0.00    -0.206 A  
HETATM   28  C   UNL     3      -9.622  16.126  69.440  1.00  0.00    -0.208 A  
HETATM   29  C   UNL     3     -10.664  16.806  70.069  1.00  0.00    -0.056 C  
HETATM   30  C   UNL     3     -10.716  18.210  70.075  1.00  0.00     1.546 C  
HETATM   31 BR   UNL     3     -12.243  18.957  70.971  1.00  0.00    15.777 Br 
HETATM   32  C   UNL     3      -9.739  19.028  69.457  1.00  0.00     0.124 C  
HETATM   33  C   UNL     3      -8.660  18.294  68.881  1.00  0.00    -0.132 C  
HETATM   34  O   UNL     3      -9.830  20.305  69.412  1.00  0.00    -0.004 OA 
HETATM   35 BR   UNL     3      -7.195  19.234  68.039  1.00  0.00    -0.302 Br 
ENDBRANCH  14  16
TORSDOF 1
ENDMDL
MODEL      174
REMARK 921   NORMALIZED FREE ENERGY PREDICTED BY IDOCK:   35.90 KCAL/MOL
REMARK 922        TOTAL FREE ENERGY PREDICTED BY IDOCK:   37.25 KCAL/MOL
REMARK 923 INTER-LIGAND FREE ENERGY PREDICTED BY IDOCK:   15.25 KCAL/MOL
REMARK 924 INTRA-LIGAND FREE ENERGY PREDICTED BY IDOCK:   21.99 KCAL/MOL
REMARK 927      BINDING AFFINITY PREDICTED BY RF-SCORE:    0.00 PKD
ROOT
HETATM    1 NA   UNL     1      -9.718  11.385  68.574  1.00  0.00    -0.151 Na 
HETATM    2 NA   UNL     2     -14.254  11.297  70.745  1.00  0.00     0.491 Na 
HETATM    3  O   UNL     3     -12.528  12.224  70.390  1.00  0.00    -0.241 OA 
HETATM    4  C   UNL     3     -11.578  13.080  70.331  1.00  0.00     0.131 C  
HETATM    5  C   UNL     3     -11.738  14.406  71.027  1.00  0.00    -0.256 A  
HETATM    6  O   UNL     3     -10.497  12.805  69.716  1.00  0.00     0.571 OA 
HETATM    7  C   UNL     3     -12.331  14.484  72.310  1.00  0.00    -0.235 A  
HETATM    8 CL   UNL     3     -12.848  13.032  73.139  1.00  0.00     1.192 Cl 
HETATM    9  C   UNL     3     -12.494  15.727  72.963  1.00  0.00    -0.472 A  
HETATM   10 CL   UNL     3     -13.242  15.790  74.541  1.00  0.00     0.498 Cl 
HETATM   11  C   UNL     3     -12.055  16.912  72.356  1.00  0.00     0.537 A  
HETATM   12  C   UNL     3     -11.458  16.859  71.086  1.00  0.00     0.646 A  
HETATM   13 CL   UNL     3     -12.243  18.439  73.173  1.00  0.00     4.501 Cl 
HETATM   14  C   UNL     3     -11.302  15.618  70.414  1.00  0.00    -0.373 A  
HETATM   15 CL   UNL     3     -10.898  18.327  70.327  1.00  0.00     1.676 Cl 
ENDROOT
BRANCH  14  16
HETATM   16  C   UNL     3     -10.739  15.617  69.021  1.00  0.00    -0.236 A  
HETATM   17  C   UNL     3     -10.028  16.681  68.554  1.00  0.00    -0.261 A  
HETATM   18  C   UNL     3      -9.825  17.882  69.365  1.00  0.00     0.081 C  
HETATM   19  C   UNL     3      -9.010  18.878  68.985  1.00  0.00    -0.147 C  
HETATM   20 BR   UNL     3      -8.702  20.355  70.079  1.00  0.00     1.882 Br 
HETATM   21  C   UNL     3      -8.275  18.781  67.683  1.00  0.00    -0.263 C  
HETATM   22  O   UNL     3      -7.399  19.602  67.390  1.00  0.00    -0.229 OA 
HETATM   23  C   UNL     3      -8.603  17.631  66.788  1.00  0.00    -0.255 C  
HETATM   24  C   UNL     3      -9.418  16.640  67.218  1.00  0.00    -0.232 A  
HETATM   25 BR   UNL     3      -7.764  17.590  65.113  1.00  0.00     3.040 Br 
HETATM   26  O   UNL     3      -9.638  15.545  66.399  1.00  0.00    -0.250 OA 
HETATM   27  C   UNL     3     -10.334  14.457  66.853  1.00  0.00    -0.265 A  
HETATM   28  C   UNL     3     -10.914  14.456  68.115  1.00  0.00    -0.265 A  
HETATM   29  C   UNL     3     -11.651  13.335  68.491  1.00  0.00    -0.368 C  
HETATM   30  C   UNL     3     -11.753  12.216  67.648  1.00  0.00    -0.316 C  
HETATM   31 BR   UNL     3     -12.792  10.763  68.356  1.00  0.00     3.875 Br 
HETATM   32  C   UNL     3     -11.129  12.138  66.378  1.00  0.00    -0.314 C  
HETATM   33  C   UNL     3     -10.438  13.330  66.007  1.00  0.00    -0.286 C  
HETATM   34  O   UNL     3     -11.174  11.088  65.646  1.00  0.00    -0.027 OA 
HETATM   35 BR   UNL     3      -9.568  13.442  64.284  1.00  0.00     1.571 Br 
ENDBRANCH  14  16
TORSDOF 1
ENDMDL
MODEL      175
REMARK 921   NORMALIZED FREE ENERGY PREDICTED BY IDOCK:   35.99 KCAL/MOL
REMARK 922        TOTAL FREE ENERGY PREDICTED BY IDOCK:   37.34 KCAL/MOL
REMARK 923 INTER-LIGAND FREE ENERGY PREDICTED BY IDOCK:   -1.54 KCAL/MOL
REMARK 924 INTRA-LIGAND FREE ENERGY PREDICTED BY IDOCK:   38.88 KCAL/MOL
REMARK 927      BINDING AFFINITY PREDICTED BY RF-SCORE:    0.00 PKD
ROOT
HETATM    1 NA   UNL     1      -9.697  12.283  65.247  1.00  0.00    -0.234 Na 
HETATM    2 NA   UNL     2      -9.217  14.696  69.634  1.00  0.00    -0.263 Na 
HETATM    3  O   UNL     3      -9.774  13.089  68.601  1.00  0.00    -0.163 OA 
HETATM    4  C   UNL     3     -10.187  11.927  68.256  1.00  0.00    -0.204 C  
HETATM    5  C   UNL     3     -10.658  10.968  69.318  1.00  0.00    -0.236 A  
HETATM    6  O   UNL     3     -10.227  11.592  67.027  1.00  0.00    -0.206 OA 
HETATM    7  C   UNL     3     -11.447  11.419  70.402  1.00  0.00    -0.041 A  
HETATM    8 CL   UNL     3     -11.936  13.097  70.507  1.00  0.00    -0.363 Cl 
HETATM    9  C   UNL     3     -11.883  10.526  71.409  1.00  0.00    -0.145 A  
HETATM   10 CL   UNL     3     -12.845  11.118  72.741  1.00  0.00     1.619 Cl 
HETATM   11  C   UNL     3     -11.552   9.165  71.342  1.00  0.00    -0.341 A  
HETATM   12  C   UNL     3     -10.775   8.693  70.273  1.00  0.00    -0.227 A  
HETATM   13 CL   UNL     3     -12.105   8.067  72.576  1.00  0.00    -0.369 Cl 
HETATM   14  C   UNL     3     -10.320   9.583  69.264  1.00  0.00    -0.219 A  
HETATM   15 CL   UNL     3     -10.367   7.000  70.176  1.00  0.00    -0.206 Cl 
ENDROOT
BRANCH  14  16
HETATM   16  C   UNL     3      -9.418   9.053  68.186  1.00  0.00    -0.155 A  
HETATM   17  C   UNL     3      -9.232   9.745  67.028  1.00  0.00    -0.166 A  
HETATM   18  C   UNL     3      -9.935  11.002  66.764  1.00  0.00    -0.240 C  
HETATM   19  C   UNL     3      -9.659  11.771  65.701  1.00  0.00    -0.220 C  
HETATM   20 BR   UNL     3     -10.507  13.410  65.439  1.00  0.00    -0.327 Br 
HETATM   21  C   UNL     3      -8.601  11.346  64.730  1.00  0.00     0.431 C  
HETATM   22  O   UNL     3      -8.216  12.112  63.839  1.00  0.00     1.945 OA 
HETATM   23  C   UNL     3      -7.997   9.992  64.914  1.00  0.00    -0.140 C  
HETATM   24  C   UNL     3      -8.291   9.255  66.010  1.00  0.00    -0.113 A  
HETATM   25 BR   UNL     3      -6.763   9.428  63.622  1.00  0.00    -0.099 Br 
HETATM   26  O   UNL     3      -7.652   8.041  66.197  1.00  0.00    -0.082 OA 
HETATM   27  C   UNL     3      -7.811   7.336  67.360  1.00  0.00    -0.112 A  
HETATM   28  C   UNL     3      -8.682   7.776  68.349  1.00  0.00    -0.127 A  
HETATM   29  C   UNL     3      -8.832   6.981  69.484  1.00  0.00    -0.133 C  
HETATM   30  C   UNL     3      -8.078   5.808  69.654  1.00  0.00    -0.104 C  
HETATM   31 BR   UNL     3      -8.410   4.866  71.296  1.00  0.00    -0.120 Br 
HETATM   32  C   UNL     3      -7.129   5.348  68.708  1.00  0.00    -0.061 C  
HETATM   33  C   UNL     3      -7.054   6.155  67.534  1.00  0.00    -0.074 C  
HETATM   34  O   UNL     3      -6.401   4.312  68.902  1.00  0.00    -0.031 OA 
HETATM   35 BR   UNL     3      -5.857   5.661  66.099  1.00  0.00    -0.018 Br 
ENDBRANCH  14  16
TORSDOF 1
ENDMDL
MODEL      176
REMARK 921   NORMALIZED FREE ENERGY PREDICTED BY IDOCK:   36.30 KCAL/MOL
REMARK 922        TOTAL FREE ENERGY PREDICTED BY IDOCK:   37.66 KCAL/MOL
REMARK 923 INTER-LIGAND FREE ENERGY PREDICTED BY IDOCK:   14.76 KCAL/MOL
REMARK 924 INTRA-LIGAND FREE ENERGY PREDICTED BY IDOCK:   22.91 KCAL/MOL
REMARK 927      BINDING AFFINITY PREDICTED BY RF-SCORE:    0.00 PKD
ROOT
HETATM    1 NA   UNL     1      -6.315  10.126  67.842  1.00  0.00    -0.054 Na 
HETATM    2 NA   UNL     2      -9.307   6.587  69.796  1.00  0.00    -0.138 Na 
HETATM    3  O   UNL     3      -8.934   8.499  69.388  1.00  0.00    -0.146 OA 
HETATM    4  C   UNL     3      -9.019   9.769  69.250  1.00  0.00    -0.173 C  
HETATM    5  C   UNL     3     -10.251  10.483  69.738  1.00  0.00    -0.168 A  
HETATM    6  O   UNL     3      -8.060  10.429  68.730  1.00  0.00    -0.109 OA 
HETATM    7  C   UNL     3     -10.855  10.127  70.968  1.00  0.00     0.036 A  
HETATM    8 CL   UNL     3     -10.151   8.880  71.974  1.00  0.00    -0.399 Cl 
HETATM    9  C   UNL     3     -12.019  10.786  71.427  1.00  0.00    -0.089 A  
HETATM   10 CL   UNL     3     -12.747  10.313  72.943  1.00  0.00     1.319 Cl 
HETATM   11  C   UNL     3     -12.593  11.821  70.675  1.00  0.00    -0.201 A  
HETATM   12  C   UNL     3     -12.008  12.196  69.455  1.00  0.00    -0.275 A  
HETATM   13 CL   UNL     3     -14.017  12.640  71.254  1.00  0.00     1.016 Cl 
HETATM   14  C   UNL     3     -10.848  11.532  68.977  1.00  0.00    -0.258 A  
HETATM   15 CL   UNL     3     -12.708  13.490  68.518  1.00  0.00     0.649 Cl 
ENDROOT
BRANCH  14  16
HETATM   16  C   UNL     3     -10.307  11.905  67.626  1.00  0.00    -0.217 A  
HETATM   17  C   UNL     3      -9.464  11.070  66.957  1.00  0.00    -0.191 A  
HETATM   18  C   UNL     3      -9.014   9.806  67.539  1.00  0.00    -0.138 C  
HETATM   19  C   UNL     3      -8.306   8.904  66.844  1.00  0.00    -0.112 C  
HETATM   20 BR   UNL     3      -7.823   7.264  67.585  1.00  0.00    -0.114 Br 
HETATM   21  C   UNL     3      -7.945   9.183  65.417  1.00  0.00    -0.106 C  
HETATM   22  O   UNL     3      -7.439   8.304  64.709  1.00  0.00    -0.084 OA 
HETATM   23  C   UNL     3      -8.269  10.536  64.873  1.00  0.00    -0.117 C  
HETATM   24  C   UNL     3      -9.000  11.410  65.604  1.00  0.00    -0.123 A  
HETATM   25 BR   UNL     3      -7.704  10.909  63.127  1.00  0.00     0.337 Br 
HETATM   26  O   UNL     3      -9.357  12.624  65.042  1.00  0.00     0.209 OA 
HETATM   27  C   UNL     3     -10.216  13.471  65.690  1.00  0.00    -0.296 A  
HETATM   28  C   UNL     3     -10.684  13.177  66.964  1.00  0.00    -0.270 A  
HETATM   29  C   UNL     3     -11.515  14.109  67.583  1.00  0.00    -0.364 C  
HETATM   30  C   UNL     3     -11.917  15.279  66.917  1.00  0.00     0.251 C  
HETATM   31 BR   UNL     3     -13.082  16.424  67.929  1.00  0.00     5.051 Br 
HETATM   32  C   UNL     3     -11.522  15.598  65.594  1.00  0.00     0.116 C  
HETATM   33  C   UNL     3     -10.622  14.649  65.022  1.00  0.00    -0.439 C  
HETATM   34  O   UNL     3     -11.946  16.634  64.973  1.00  0.00     0.602 OA 
HETATM   35 BR   UNL     3      -9.922  14.935  63.243  1.00  0.00     9.755 Br 
ENDBRANCH  14  16
TORSDOF 1
ENDMDL
MODEL      177
REMARK 921   NORMALIZED FREE ENERGY PREDICTED BY IDOCK:   37.24 KCAL/MOL
REMARK 922        TOTAL FREE ENERGY PREDICTED BY IDOCK:   38.66 KCAL/MOL
REMARK 923 INTER-LIGAND FREE ENERGY PREDICTED BY IDOCK:   22.29 KCAL/MOL
REMARK 924 INTRA-LIGAND FREE ENERGY PREDICTED BY IDOCK:   16.37 KCAL/MOL
REMARK 927      BINDING AFFINITY PREDICTED BY RF-SCORE:    0.00 PKD
ROOT
HETATM    1 NA   UNL     1     -10.475  10.740  65.566  1.00  0.00    -0.223 Na 
HETATM    2 NA   UNL     2      -8.393  14.103  62.459  1.00  0.00     6.212 Na 
HETATM    3  O   UNL     3      -9.364  13.680  64.145  1.00  0.00     1.047 OA 
HETATM    4  C   UNL     3      -9.940  13.749  65.286  1.00  0.00    -0.218 C  
HETATM    5  C   UNL     3     -10.082  15.089  65.959  1.00  0.00    -0.322 A  
HETATM    6  O   UNL     3     -10.413  12.702  65.836  1.00  0.00    -0.264 OA 
HETATM    7  C   UNL     3     -10.429  16.241  65.214  1.00  0.00    -0.300 A  
HETATM    8 CL   UNL     3     -10.750  16.124  63.497  1.00  0.00     3.241 Cl 
HETATM    9  C   UNL     3     -10.553  17.504  65.838  1.00  0.00    -0.203 A  
HETATM   10 CL   UNL     3     -10.969  18.908  64.886  1.00  0.00     1.126 Cl 
HETATM   11  C   UNL     3     -10.348  17.637  67.219  1.00  0.00    -0.354 A  
HETATM   12  C   UNL     3     -10.009  16.507  67.980  1.00  0.00    -0.245 A  
HETATM   13 CL   UNL     3     -10.519  19.192  67.985  1.00  0.00    -0.472 Cl 
HETATM   14  C   UNL     3      -9.868  15.237  67.362  1.00  0.00    -0.217 A  
HETATM   15 CL   UNL     3      -9.763  16.661  69.700  1.00  0.00     0.014 Cl 
ENDROOT
BRANCH  14  16
HETATM   16  C   UNL     3      -9.418  14.072  68.198  1.00  0.00    -0.215 A  
HETATM   17  C   UNL     3      -9.974  12.840  68.035  1.00  0.00    -0.225 A  
HETATM   18  C   UNL     3     -11.058  12.607  67.080  1.00  0.00    -0.322 C  
HETATM   19  C   UNL     3     -11.519  11.379  66.798  1.00  0.00    -0.078 C  
HETATM   20 BR   UNL     3     -12.839  11.107  65.511  1.00  0.00     5.730 Br 
HETATM   21  C   UNL     3     -10.921  10.187  67.479  1.00  0.00    -0.255 C  
HETATM   22  O   UNL     3     -11.212   9.041  67.118  1.00  0.00     0.209 OA 
HETATM   23  C   UNL     3      -9.926  10.437  68.565  1.00  0.00    -0.167 C  
HETATM   24  C   UNL     3      -9.476  11.691  68.805  1.00  0.00    -0.058 A  
HETATM   25 BR   UNL     3      -9.278   8.941  69.487  1.00  0.00    -0.153 Br 
HETATM   26  O   UNL     3      -8.492  11.882  69.760  1.00  0.00     1.237 OA 
HETATM   27  C   UNL     3      -7.908  13.109  69.930  1.00  0.00     1.786 A  
HETATM   28  C   UNL     3      -8.344  14.213  69.210  1.00  0.00     0.292 A  
HETATM   29  C   UNL     3      -7.737  15.440  69.471  1.00  0.00    -0.210 C  
HETATM   30  C   UNL     3      -6.676  15.546  70.385  1.00  0.00     0.254 C  
HETATM   31 BR   UNL     3      -5.958  17.317  70.588  1.00  0.00     0.605 Br 
HETATM   32  C   UNL     3      -6.148  14.441  71.098  1.00  0.00    -0.057 C  
HETATM   33  C   UNL     3      -6.839  13.218  70.848  1.00  0.00     1.939 C  
HETATM   34  O   UNL     3      -5.138  14.537  71.879  1.00  0.00    -0.143 OA 
HETATM   35 BR   UNL     3      -6.306  11.605  71.770  1.00  0.00     3.297 Br 
ENDBRANCH  14  16
TORSDOF 1
ENDMDL
MODEL      178
REMARK 921   NORMALIZED FREE ENERGY PREDICTED BY IDOCK:   38.76 KCAL/MOL
REMARK 922        TOTAL FREE ENERGY PREDICTED BY IDOCK:   40.27 KCAL/MOL
REMARK 923 INTER-LIGAND FREE ENERGY PREDICTED BY IDOCK:   28.70 KCAL/MOL
REMARK 924 INTRA-LIGAND FREE ENERGY PREDICTED BY IDOCK:   11.57 KCAL/MOL
REMARK 927      BINDING AFFINITY PREDICTED BY RF-SCORE:    0.00 PKD
ROOT
HETATM    1 NA   UNL     1      -8.426  12.246  65.915  1.00  0.00    -0.339 Na 
HETATM    2 NA   UNL     2     -13.420  11.646  65.876  1.00  0.00     1.609 Na 
HETATM    3  O   UNL     3     -11.728  11.964  66.875  1.00  0.00    -0.541 OA 
HETATM    4  C   UNL     3     -10.861  12.209  67.784  1.00  0.00    -0.224 C  
HETATM    5  C   UNL     3     -11.317  12.387  69.209  1.00  0.00    -0.315 A  
HETATM    6  O   UNL     3      -9.621  12.276  67.496  1.00  0.00    -0.178 OA 
HETATM    7  C   UNL     3     -12.316  11.548  69.758  1.00  0.00    -0.155 A  
HETATM    8 CL   UNL     3     -13.009  10.251  68.809  1.00  0.00     2.433 Cl 
HETATM    9  C   UNL     3     -12.757  11.717  71.092  1.00  0.00    -0.325 A  
HETATM   10 CL   UNL     3     -14.001  10.673  71.736  1.00  0.00     0.234 Cl 
HETATM   11  C   UNL     3     -12.199  12.715  71.903  1.00  0.00     0.859 A  
HETATM   12  C   UNL     3     -11.203  13.554  71.382  1.00  0.00     2.544 A  
HETATM   13 CL   UNL     3     -12.735  12.907  73.550  1.00  0.00     3.484 Cl 
HETATM   14  C   UNL     3     -10.762  13.404  70.040  1.00  0.00     0.833 A  
HETATM   15 CL   UNL     3     -10.495  14.791  72.388  1.00  0.00     1.974 Cl 
ENDROOT
BRANCH  14  16
HETATM   16  C   UNL     3      -9.758  14.380  69.496  1.00  0.00     0.289 A  
HETATM   17  C   UNL     3      -9.880  15.714  69.736  1.00  0.00    -0.260 A  
HETATM   18  C   UNL     3     -11.012  16.258  70.488  1.00  0.00    -0.233 C  
HETATM   19  C   UNL     3     -11.078  17.544  70.861  1.00  0.00     1.795 C  
HETATM   20 BR   UNL     3     -12.489  18.188  71.895  1.00  0.00    11.450 Br 
HETATM   21  C   UNL     3      -9.966  18.481  70.500  1.00  0.00     2.131 C  
HETATM   22  O   UNL     3      -9.924  19.624  70.971  1.00  0.00     1.207 OA 
HETATM   23  C   UNL     3      -8.890  17.963  69.602  1.00  0.00     0.980 C  
HETATM   24  C   UNL     3      -8.853  16.653  69.263  1.00  0.00    -0.032 A  
HETATM   25 BR   UNL     3      -7.572  19.181  69.064  1.00  0.00    -0.285 Br 
HETATM   26  O   UNL     3      -7.798  16.185  68.499  1.00  0.00    -0.155 OA 
HETATM   27  C   UNL     3      -7.646  14.846  68.258  1.00  0.00    -0.113 A  
HETATM   28  C   UNL     3      -8.590  13.929  68.701  1.00  0.00    -0.077 A  
HETATM   29  C   UNL     3      -8.396  12.588  68.376  1.00  0.00    -0.132 C  
HETATM   30  C   UNL     3      -7.251  12.167  67.680  1.00  0.00    -0.123 C  
HETATM   31 BR   UNL     3      -7.156  10.276  67.350  1.00  0.00    -0.084 Br 
HETATM   32  C   UNL     3      -6.225  13.050  67.261  1.00  0.00     0.064 C  
HETATM   33  C   UNL     3      -6.495  14.419  67.558  1.00  0.00    -0.042 C  
HETATM   34  O   UNL     3      -5.155  12.648  66.684  1.00  0.00    -0.219 OA 
HETATM   35 BR   UNL     3      -5.241  15.787  67.016  1.00  0.00     0.642 Br 
ENDBRANCH  14  16
TORSDOF 1
ENDMDL
MODEL      179
REMARK 921   NORMALIZED FREE ENERGY PREDICTED BY IDOCK:   38.96 KCAL/MOL
REMARK 922        TOTAL FREE ENERGY PREDICTED BY IDOCK:   40.48 KCAL/MOL
REMARK 923 INTER-LIGAND FREE ENERGY PREDICTED BY IDOCK:   39.29 KCAL/MOL
REMARK 924 INTRA-LIGAND FREE ENERGY PREDICTED BY IDOCK:    1.19 KCAL/MOL
REMARK 927      BINDING AFFINITY PREDICTED BY RF-SCORE:    0.00 PKD
ROOT
HETATM    1 NA   UNL     1     -10.981  18.214  65.212  1.00  0.00    -0.433 Na 
HETATM    2 NA   UNL     2     -11.502  19.808  69.954  1.00  0.00     0.608 Na 
HETATM    3  O   UNL     3     -11.480  18.327  68.623  1.00  0.00     1.188 OA 
HETATM    4  C   UNL     3     -11.495  17.180  68.056  1.00  0.00     0.412 C  
HETATM    5  C   UNL     3     -11.702  15.946  68.894  1.00  0.00    -0.376 A  
HETATM    6  O   UNL     3     -11.365  17.081  66.792  1.00  0.00     0.370 OA 
HETATM    7  C   UNL     3     -12.648  15.936  69.947  1.00  0.00     0.175 A  
HETATM    8 CL   UNL     3     -13.636  17.345  70.266  1.00  0.00    11.523 Cl 
HETATM    9  C   UNL     3     -12.839  14.784  70.746  1.00  0.00    -0.361 A  
HETATM   10 CL   UNL     3     -14.005  14.810  72.046  1.00  0.00    -0.524 Cl 
HETATM   11  C   UNL     3     -12.100  13.618  70.498  1.00  0.00    -0.339 A  
HETATM   12  C   UNL     3     -11.161  13.602  69.455  1.00  0.00    -0.072 A  
HETATM   13 CL   UNL     3     -12.351  12.198  71.474  1.00  0.00    -0.116 Cl 
HETATM   14  C   UNL     3     -10.950  14.757  68.656  1.00  0.00    -0.262 A  
HETATM   15 CL   UNL     3     -10.245  12.152  69.133  1.00  0.00     0.052 Cl 
ENDROOT
BRANCH  14  16
HETATM   16  C   UNL     3      -9.873  14.725  67.609  1.00  0.00    -0.218 A  
HETATM   17  C   UNL     3      -9.932  13.840  66.575  1.00  0.00    -0.290 A  
HETATM   18  C   UNL     3     -11.011  12.857  66.466  1.00  0.00    -0.300 C  
HETATM   19  C   UNL     3     -11.169  12.078  65.386  1.00  0.00    -0.322 C  
HETATM   20 BR   UNL     3     -12.604  10.899  65.238  1.00  0.00     5.273 Br 
HETATM   21  C   UNL     3     -10.212  12.195  64.239  1.00  0.00    -0.324 C  
HETATM   22  O   UNL     3     -10.431  11.609  63.172  1.00  0.00    -0.366 OA 
HETATM   23  C   UNL     3      -9.024  13.083  64.417  1.00  0.00     2.337 C  
HETATM   24  C   UNL     3      -8.913  13.865  65.516  1.00  0.00     1.137 A  
HETATM   25 BR   UNL     3      -7.777  13.125  63.020  1.00  0.00    12.314 Br 
HETATM   26  O   UNL     3      -7.845  14.740  65.614  1.00  0.00     2.622 OA 
HETATM   27  C   UNL     3      -7.775  15.650  66.635  1.00  0.00    -0.033 A  
HETATM   28  C   UNL     3      -8.726  15.663  67.647  1.00  0.00    -0.182 A  
HETATM   29  C   UNL     3      -8.563  16.582  68.681  1.00  0.00    -0.243 C  
HETATM   30  C   UNL     3      -7.507  17.510  68.669  1.00  0.00    -0.265 C  
HETATM   31 BR   UNL     3      -7.469  18.709  70.170  1.00  0.00     1.524 Br 
HETATM   32  C   UNL     3      -6.547  17.584  67.630  1.00  0.00    -0.161 C  
HETATM   33  C   UNL     3      -6.714  16.584  66.626  1.00  0.00    -0.082 C  
HETATM   34  O   UNL     3      -5.628  18.474  67.597  1.00  0.00    -0.157 OA 
HETATM   35 BR   UNL     3      -5.468  16.482  65.151  1.00  0.00     5.183 Br 
ENDBRANCH  14  16
TORSDOF 1
ENDMDL
MODEL      180
REMARK 921   NORMALIZED FREE ENERGY PREDICTED BY IDOCK:   39.65 KCAL/MOL
REMARK 922        TOTAL FREE ENERGY PREDICTED BY IDOCK:   41.21 KCAL/MOL
REMARK 923 INTER-LIGAND FREE ENERGY PREDICTED BY IDOCK:   41.23 KCAL/MOL
REMARK 924 INTRA-LIGAND FREE ENERGY PREDICTED BY IDOCK:   -0.01 KCAL/MOL
REMARK 927      BINDING AFFINITY PREDICTED BY RF-SCORE:    0.00 PKD
ROOT
HETATM    1 NA   UNL     1      -7.131   6.902  66.307  1.00  0.00    -0.057 Na 
HETATM    2 NA   UNL     2     -11.021   3.727  66.602  1.00  0.00    -0.183 Na 
HETATM    3  O   UNL     3      -9.798   5.041  67.460  1.00  0.00    -0.149 OA 
HETATM    4  C   UNL     3      -9.229   5.842  68.282  1.00  0.00    -0.117 C  
HETATM    5  C   UNL     3      -9.757   5.952  69.688  1.00  0.00    -0.199 A  
HETATM    6  O   UNL     3      -8.209   6.517  67.925  1.00  0.00    -0.115 OA 
HETATM    7  C   UNL     3     -10.168   4.800  70.399  1.00  0.00    -0.191 A  
HETATM    8 CL   UNL     3     -10.026   3.212  69.677  1.00  0.00     0.242 Cl 
HETATM    9  C   UNL     3     -10.676   4.898  71.716  1.00  0.00    -0.026 A  
HETATM   10 CL   UNL     3     -11.188   3.458  72.561  1.00  0.00     0.340 Cl 
HETATM   11  C   UNL     3     -10.767   6.145  72.350  1.00  0.00    -0.231 A  
HETATM   12  C   UNL     3     -10.359   7.301  71.667  1.00  0.00    -0.197 A  
HETATM   13 CL   UNL     3     -11.378   6.258  73.978  1.00  0.00     0.860 Cl 
HETATM   14  C   UNL     3      -9.862   7.216  70.340  1.00  0.00    -0.177 A  
HETATM   15 CL   UNL     3     -10.459   8.856  72.453  1.00  0.00    -0.238 Cl 
ENDROOT
BRANCH  14  16
HETATM   16  C   UNL     3      -9.519   8.487  69.614  1.00  0.00    -0.165 A  
HETATM   17  C   UNL     3     -10.281   8.923  68.573  1.00  0.00    -0.223 A  
HETATM   18  C   UNL     3     -11.429   8.155  68.087  1.00  0.00     1.191 C  
HETATM   19  C   UNL     3     -12.276   8.633  67.165  1.00  0.00     7.129 C  
HETATM   20 BR   UNL     3     -13.779   7.670  66.631  1.00  0.00    24.064 Br 
HETATM   21  C   UNL     3     -12.056   9.999  66.590  1.00  0.00     4.710 C  
HETATM   22  O   UNL     3     -12.910  10.525  65.865  1.00  0.00     5.940 OA 
HETATM   23  C   UNL     3     -10.801  10.716  66.969  1.00  0.00    -0.238 C  
HETATM   24  C   UNL     3      -9.982  10.204  67.917  1.00  0.00    -0.162 A  
HETATM   25 BR   UNL     3     -10.485  12.370  66.149  1.00  0.00    -0.284 Br 
HETATM   26  O   UNL     3      -8.870  10.930  68.310  1.00  0.00    -0.129 OA 
HETATM   27  C   UNL     3      -8.100  10.520  69.364  1.00  0.00    -0.128 A  
HETATM   28  C   UNL     3      -8.361   9.321  70.015  1.00  0.00    -0.176 A  
HETATM   29  C   UNL     3      -7.505   8.942  71.047  1.00  0.00    -0.124 C  
HETATM   30  C   UNL     3      -6.451   9.774  71.460  1.00  0.00     0.265 C  
HETATM   31 BR   UNL     3      -5.400   9.085  72.914  1.00  0.00    -0.074 Br 
HETATM   32  C   UNL     3      -6.179  11.036  70.875  1.00  0.00     0.277 C  
HETATM   33  C   UNL     3      -7.039  11.355  69.782  1.00  0.00     0.111 C  
HETATM   34  O   UNL     3      -5.257  11.814  71.301  1.00  0.00    -0.214 OA 
HETATM   35 BR   UNL     3      -6.792  13.010  68.814  1.00  0.00    -0.103 Br 
ENDBRANCH  14  16
TORSDOF 1
ENDMDL
MODEL      181
REMARK 921   NORMALIZED FREE ENERGY PREDICTED BY IDOCK:   40.64 KCAL/MOL
REMARK 922        TOTAL FREE ENERGY PREDICTED BY IDOCK:   42.27 KCAL/MOL
REMARK 923 INTER-LIGAND FREE ENERGY PREDICTED BY IDOCK:   39.89 KCAL/MOL
REMARK 924 INTRA-LIGAND FREE ENERGY PREDICTED BY IDOCK:    2.37 KCAL/MOL
REMARK 927      BINDING AFFINITY PREDICTED BY RF-SCORE:    0.00 PKD
ROOT
HETATM    1 NA   UNL     1      -8.386  15.952  72.786  1.00  0.00     6.073 Na 
HETATM    2 NA   UNL     2     -11.885  19.379  71.640  1.00  0.00     1.974 Na 
HETATM    3  O   UNL     3     -10.488  18.082  71.069  1.00  0.00     1.758 OA 
HETATM    4  C   UNL     3      -9.708  17.332  70.384  1.00  0.00     2.209 C  
HETATM    5  C   UNL     3      -9.760  17.395  68.880  1.00  0.00    -0.251 A  
HETATM    6  O   UNL     3      -8.876  16.562  70.965  1.00  0.00     3.995 OA 
HETATM    7  C   UNL     3      -9.889  18.635  68.211  1.00  0.00    -0.371 A  
HETATM    8 CL   UNL     3      -9.941  20.132  69.117  1.00  0.00    -0.265 Cl 
HETATM    9  C   UNL     3      -9.950  18.700  66.799  1.00  0.00    -0.352 A  
HETATM   10 CL   UNL     3     -10.123  20.246  66.005  1.00  0.00    -0.491 Cl 
HETATM   11  C   UNL     3      -9.868  17.530  66.031  1.00  0.00    -0.179 A  
HETATM   12  C   UNL     3      -9.733  16.288  66.672  1.00  0.00    -0.250 A  
HETATM   13 CL   UNL     3      -9.927  17.616  64.292  1.00  0.00     5.160 Cl 
HETATM   14  C   UNL     3      -9.686  16.210  68.089  1.00  0.00    -0.222 A  
HETATM   15 CL   UNL     3      -9.620  14.828  65.724  1.00  0.00    -0.336 Cl 
ENDROOT
BRANCH  14  16
HETATM   16  C   UNL     3      -9.630  14.855  68.736  1.00  0.00    -0.214 A  
HETATM   17  C   UNL     3      -8.643  13.972  68.422  1.00  0.00    -0.174 A  
HETATM   18  C   UNL     3      -7.628  14.281  67.414  1.00  0.00    -0.185 C  
HETATM   19  C   UNL     3      -6.567  13.491  67.194  1.00  0.00     0.459 C  
HETATM   20 BR   UNL     3      -5.245  13.957  65.965  1.00  0.00     6.801 Br 
HETATM   21  C   UNL     3      -6.396  12.237  67.994  1.00  0.00    -0.073 C  
HETATM   22  O   UNL     3      -5.348  11.582  67.927  1.00  0.00    -0.043 OA 
HETATM   23  C   UNL     3      -7.508  11.843  68.910  1.00  0.00    -0.060 C  
HETATM   24  C   UNL     3      -8.553  12.678  69.115  1.00  0.00     0.694 A  
HETATM   25 BR   UNL     3      -7.330  10.211  69.813  1.00  0.00    -0.174 Br 
HETATM   26  O   UNL     3      -9.528  12.325  70.033  1.00  0.00     2.334 OA 
HETATM   27  C   UNL     3     -10.520  13.203  70.376  1.00  0.00     2.619 A  
HETATM   28  C   UNL     3     -10.628  14.439  69.751  1.00  0.00     0.051 A  
HETATM   29  C   UNL     3     -11.693  15.261  70.115  1.00  0.00    -0.342 C  
HETATM   30  C   UNL     3     -12.591  14.881  71.126  1.00  0.00    -0.335 C  
HETATM   31 BR   UNL     3     -13.976  16.162  71.498  1.00  0.00     1.789 Br 
HETATM   32  C   UNL     3     -12.491  13.662  71.840  1.00  0.00    -0.052 C  
HETATM   33  C   UNL     3     -11.426  12.824  71.393  1.00  0.00     2.537 C  
HETATM   34  O   UNL     3     -13.276  13.355  72.803  1.00  0.00    -0.444 OA 
HETATM   35 BR   UNL     3     -11.158  11.090  72.204  1.00  0.00     6.256 Br 
ENDBRANCH  14  16
TORSDOF 1
ENDMDL
MODEL      182
REMARK 921   NORMALIZED FREE ENERGY PREDICTED BY IDOCK:   41.65 KCAL/MOL
REMARK 922        TOTAL FREE ENERGY PREDICTED BY IDOCK:   43.33 KCAL/MOL
REMARK 923 INTER-LIGAND FREE ENERGY PREDICTED BY IDOCK:   34.68 KCAL/MOL
REMARK 924 INTRA-LIGAND FREE ENERGY PREDICTED BY IDOCK:    8.66 KCAL/MOL
REMARK 927      BINDING AFFINITY PREDICTED BY RF-SCORE:    0.00 PKD
ROOT
HETATM    1 NA   UNL     1      -7.559  10.505  67.343  1.00  0.00    -0.086 Na 
HETATM    2 NA   UNL     2      -5.445  13.476  70.807  1.00  0.00    -0.088 Na 
HETATM    3  O   UNL     3      -6.545  13.254  69.163  1.00  0.00    -0.101 OA 
HETATM    4  C   UNL     3      -7.296  13.456  68.146  1.00  0.00    -0.117 C  
HETATM    5  C   UNL     3      -7.719  14.862  67.810  1.00  0.00    -0.174 A  
HETATM    6  O   UNL     3      -7.662  12.483  67.409  1.00  0.00    -0.152 OA 
HETATM    7  C   UNL     3      -6.802  15.936  67.907  1.00  0.00    -0.143 A  
HETATM    8 CL   UNL     3      -5.141  15.646  68.376  1.00  0.00    -0.088 Cl 
HETATM    9  C   UNL     3      -7.196  17.260  67.604  1.00  0.00    -0.162 A  
HETATM   10 CL   UNL     3      -6.044  18.566  67.748  1.00  0.00    -0.187 Cl 
HETATM   11  C   UNL     3      -8.505  17.533  67.183  1.00  0.00    -0.217 A  
HETATM   12  C   UNL     3      -9.430  16.483  67.072  1.00  0.00    -0.239 A  
HETATM   13 CL   UNL     3      -8.980  19.163  66.794  1.00  0.00    -0.312 Cl 
HETATM   14  C   UNL     3      -9.050  15.151  67.388  1.00  0.00    -0.199 A  
HETATM   15 CL   UNL     3     -11.058  16.811  66.538  1.00  0.00     0.177 Cl 
ENDROOT
BRANCH  14  16
HETATM   16  C   UNL     3     -10.094  14.072  67.341  1.00  0.00    -0.244 A  
HETATM   17  C   UNL     3     -11.035  14.054  66.356  1.00  0.00    -0.308 A  
HETATM   18  C   UNL     3     -11.101  15.103  65.338  1.00  0.00    -0.371 C  
HETATM   19  C   UNL     3     -11.921  15.029  64.280  1.00  0.00    -0.295 C  
HETATM   20 BR   UNL     3     -11.919  16.337  62.953  1.00  0.00     7.679 Br 
HETATM   21  C   UNL     3     -12.819  13.840  64.117  1.00  0.00     0.307 C  
HETATM   22  O   UNL     3     -13.459  13.671  63.072  1.00  0.00     1.487 OA 
HETATM   23  C   UNL     3     -12.864  12.849  65.233  1.00  0.00    -0.147 C  
HETATM   24  C   UNL     3     -12.006  12.953  66.275  1.00  0.00    -0.408 A  
HETATM   25 BR   UNL     3     -14.079  11.434  65.066  1.00  0.00     9.462 Br 
HETATM   26  O   UNL     3     -12.014  11.974  67.254  1.00  0.00    -0.591 OA 
HETATM   27  C   UNL     3     -11.067  11.963  68.243  1.00  0.00    -0.239 A  
HETATM   28  C   UNL     3     -10.126  12.980  68.343  1.00  0.00    -0.225 A  
HETATM   29  C   UNL     3      -9.225  12.930  69.405  1.00  0.00     1.225 C  
HETATM   30  C   UNL     3      -9.225  11.854  70.308  1.00  0.00     4.178 C  
HETATM   31 BR   UNL     3      -7.891  11.957  71.687  1.00  0.00    12.201 Br 
HETATM   32  C   UNL     3     -10.119  10.759  70.215  1.00  0.00     0.749 C  
HETATM   33  C   UNL     3     -11.064  10.881  69.153  1.00  0.00    -0.245 C  
HETATM   34  O   UNL     3     -10.068   9.752  71.005  1.00  0.00    -0.216 OA 
HETATM   35 BR   UNL     3     -12.407   9.515  68.896  1.00  0.00     2.765 Br 
ENDBRANCH  14  16
TORSDOF 1
ENDMDL
MODEL      183
REMARK 921   NORMALIZED FREE ENERGY PREDICTED BY IDOCK:   41.77 KCAL/MOL
REMARK 922        TOTAL FREE ENERGY PREDICTED BY IDOCK:   43.45 KCAL/MOL
REMARK 923 INTER-LIGAND FREE ENERGY PREDICTED BY IDOCK:   15.72 KCAL/MOL
REMARK 924 INTRA-LIGAND FREE ENERGY PREDICTED BY IDOCK:   27.74 KCAL/MOL
REMARK 927      BINDING AFFINITY PREDICTED BY RF-SCORE:    0.00 PKD
ROOT
HETATM    1 NA   UNL     1      -9.762   9.412  70.183  1.00  0.00    -0.150 Na 
HETATM    2 NA   UNL     2     -14.226   9.891  72.450  1.00  0.00    -0.387 Na 
HETATM    3  O   UNL     3     -12.702  10.694  71.452  1.00  0.00    -0.372 OA 
HETATM    4  C   UNL     3     -11.930  11.491  70.813  1.00  0.00    -0.214 C  
HETATM    5  C   UNL     3     -12.345  12.926  70.626  1.00  0.00    -0.385 A  
HETATM    6  O   UNL     3     -10.809  11.084  70.365  1.00  0.00     0.033 OA 
HETATM    7  C   UNL     3     -12.958  13.646  71.679  1.00  0.00    -0.362 A  
HETATM    8 CL   UNL     3     -13.202  12.898  73.242  1.00  0.00     1.758 Cl 
HETATM    9  C   UNL     3     -13.361  14.991  71.505  1.00  0.00    -0.417 A  
HETATM   10 CL   UNL     3     -14.127  15.847  72.821  1.00  0.00    -0.544 Cl 
HETATM   11  C   UNL     3     -13.146  15.645  70.284  1.00  0.00     0.137 A  
HETATM   12  C   UNL     3     -12.534  14.953  69.227  1.00  0.00     0.012 A  
HETATM   13 CL   UNL     3     -13.629  17.306  70.081  1.00  0.00    10.127 Cl 
HETATM   14  C   UNL     3     -12.138  13.598  69.385  1.00  0.00    -0.364 A  
HETATM   15 CL   UNL     3     -12.252  15.762  67.707  1.00  0.00     0.548 Cl 
ENDROOT
BRANCH  14  16
HETATM   16  C   UNL     3     -11.568  12.869  68.201  1.00  0.00    -0.378 A  
HETATM   17  C   UNL     3     -11.414  11.517  68.222  1.00  0.00    -0.368 A  
HETATM   18  C   UNL     3     -11.749  10.724  69.406  1.00  0.00    -0.378 C  
HETATM   19  C   UNL     3     -11.745   9.383  69.401  1.00  0.00     0.486 C  
HETATM   20 BR   UNL     3     -12.262   8.402  70.898  1.00  0.00    -0.026 Br 
HETATM   21  C   UNL     3     -11.380   8.647  68.148  1.00  0.00     0.868 C  
HETATM   22  O   UNL     3     -11.527   7.421  68.070  1.00  0.00     0.404 OA 
HETATM   23  C   UNL     3     -10.888   9.452  66.990  1.00  0.00    -0.026 C  
HETATM   24  C   UNL     3     -10.925  10.804  67.033  1.00  0.00    -0.227 A  
HETATM   25 BR   UNL     3     -10.323   8.507  65.475  1.00  0.00     2.292 Br 
HETATM   26  O   UNL     3     -10.543  11.524  65.914  1.00  0.00    -0.254 OA 
HETATM   27  C   UNL     3     -10.704  12.883  65.864  1.00  0.00    -0.271 A  
HETATM   28  C   UNL     3     -11.175  13.587  66.965  1.00  0.00    -0.330 A  
HETATM   29  C   UNL     3     -11.265  14.973  66.859  1.00  0.00    -0.323 C  
HETATM   30  C   UNL     3     -10.952  15.633  65.659  1.00  0.00    -0.272 C  
HETATM   31 BR   UNL     3     -11.165  17.543  65.708  1.00  0.00     1.004 Br 
HETATM   32  C   UNL     3     -10.530  14.959  64.487  1.00  0.00     0.110 C  
HETATM   33  C   UNL     3     -10.390  13.549  64.658  1.00  0.00    -0.385 C  
HETATM   34  O   UNL     3     -10.309  15.563  63.380  1.00  0.00     3.293 OA 
HETATM   35 BR   UNL     3      -9.768  12.458  63.189  1.00  0.00     1.077 Br 
ENDBRANCH  14  16
TORSDOF 1
ENDMDL
MODEL      184
REMARK 921   NORMALIZED FREE ENERGY PREDICTED BY IDOCK:   42.56 KCAL/MOL
REMARK 922        TOTAL FREE ENERGY PREDICTED BY IDOCK:   44.30 KCAL/MOL
REMARK 923 INTER-LIGAND FREE ENERGY PREDICTED BY IDOCK:   34.64 KCAL/MOL
REMARK 924 INTRA-LIGAND FREE ENERGY PREDICTED BY IDOCK:    9.66 KCAL/MOL
REMARK 927      BINDING AFFINITY PREDICTED BY RF-SCORE:    0.00 PKD
ROOT
HETATM    1 NA   UNL     1      -8.994  12.414  72.196  1.00  0.00    10.958 Na 
HETATM    2 NA   UNL     2     -10.215  17.285  71.906  1.00  0.00     1.620 Na 
HETATM    3  O   UNL     3      -9.318  15.682  71.138  1.00  0.00     1.841 OA 
HETATM    4  C   UNL     3      -8.692  14.867  70.375  1.00  0.00     1.265 C  
HETATM    5  C   UNL     3      -8.154  15.358  69.057  1.00  0.00    -0.213 A  
HETATM    6  O   UNL     3      -8.499  13.661  70.737  1.00  0.00     4.033 OA 
HETATM    7  C   UNL     3      -7.539  16.629  68.954  1.00  0.00    -0.240 A  
HETATM    8 CL   UNL     3      -7.346  17.639  70.370  1.00  0.00     2.020 Cl 
HETATM    9  C   UNL     3      -7.043  17.101  67.716  1.00  0.00    -0.153 A  
HETATM   10 CL   UNL     3      -6.302  18.679  67.620  1.00  0.00    -0.198 Cl 
HETATM   11  C   UNL     3      -7.137  16.307  66.564  1.00  0.00     0.062 A  
HETATM   12  C   UNL     3      -7.737  15.040  66.644  1.00  0.00     0.419 A  
HETATM   13 CL   UNL     3      -6.509  16.886  65.047  1.00  0.00     3.097 Cl 
HETATM   14  C   UNL     3      -8.252  14.562  67.877  1.00  0.00    -0.155 A  
HETATM   15 CL   UNL     3      -7.849  14.041  65.218  1.00  0.00     6.045 Cl 
ENDROOT
BRANCH  14  16
HETATM   16  C   UNL     3      -8.965  13.239  67.899  1.00  0.00    -0.199 A  
HETATM   17  C   UNL     3     -10.071  13.055  68.672  1.00  0.00    -0.143 A  
HETATM   18  C   UNL     3     -10.582  14.112  69.545  1.00  0.00     0.014 C  
HETATM   19  C   UNL     3     -11.747  14.005  70.200  1.00  0.00    -0.261 C  
HETATM   20 BR   UNL     3     -12.415  15.403  71.235  1.00  0.00    -0.510 Br 
HETATM   21  C   UNL     3     -12.570  12.761  70.053  1.00  0.00     0.141 C  
HETATM   22  O   UNL     3     -13.717  12.705  70.512  1.00  0.00     1.288 OA 
HETATM   23  C   UNL     3     -11.975  11.624  69.289  1.00  0.00    -0.317 C  
HETATM   24  C   UNL     3     -10.804  11.782  68.629  1.00  0.00    -0.220 A  
HETATM   25 BR   UNL     3     -12.967  10.037  69.217  1.00  0.00     2.604 Br 
HETATM   26  O   UNL     3     -10.319  10.738  67.860  1.00  0.00    -0.172 OA 
HETATM   27  C   UNL     3      -9.218  10.906  67.063  1.00  0.00    -0.152 A  
HETATM   28  C   UNL     3      -8.508  12.099  67.068  1.00  0.00    -0.183 A  
HETATM   29  C   UNL     3      -7.369  12.182  66.270  1.00  0.00     0.724 C  
HETATM   30  C   UNL     3      -6.987  11.116  65.438  1.00  0.00     0.455 C  
HETATM   31 BR   UNL     3      -5.402  11.433  64.397  1.00  0.00     1.593 Br 
HETATM   32  C   UNL     3      -7.710   9.902  65.344  1.00  0.00    -0.130 C  
HETATM   33  C   UNL     3      -8.831   9.836  66.225  1.00  0.00    -0.147 C  
HETATM   34  O   UNL     3      -7.389   8.963  64.535  1.00  0.00    -0.098 OA 
HETATM   35 BR   UNL     3      -9.914   8.235  66.288  1.00  0.00    -0.049 Br 
ENDBRANCH  14  16
TORSDOF 1
ENDMDL
MODEL      185
REMARK 921   NORMALIZED FREE ENERGY PREDICTED BY IDOCK:   43.42 KCAL/MOL
REMARK 922        TOTAL FREE ENERGY PREDICTED BY IDOCK:   45.20 KCAL/MOL
REMARK 923 INTER-LIGAND FREE ENERGY PREDICTED BY IDOCK:   20.68 KCAL/MOL
REMARK 924 INTRA-LIGAND FREE ENERGY PREDICTED BY IDOCK:   24.52 KCAL/MOL
REMARK 927      BINDING AFFINITY PREDICTED BY RF-SCORE:    0.00 PKD
ROOT
HETATM    1 NA   UNL     1      -8.696  18.277  69.945  1.00  0.00     0.235 Na 
HETATM    2 NA   UNL     2     -10.813  19.589  65.576  1.00  0.00    -0.399 Na 
HETATM    3  O   UNL     3     -10.318  18.189  66.902  1.00  0.00    -0.350 OA 
HETATM    4  C   UNL     3     -10.185  17.087  67.540  1.00  0.00    -0.323 C  
HETATM    5  C   UNL     3     -10.757  15.823  66.953  1.00  0.00    -0.299 A  
HETATM    6  O   UNL     3      -9.552  17.051  68.645  1.00  0.00    -0.257 OA 
HETATM    7  C   UNL     3     -10.648  15.554  65.568  1.00  0.00    -0.396 A  
HETATM    8 CL   UNL     3      -9.800  16.664  64.512  1.00  0.00     2.251 Cl 
HETATM    9  C   UNL     3     -11.193  14.375  65.008  1.00  0.00    -0.375 A  
HETATM   10 CL   UNL     3     -11.053  14.080  63.292  1.00  0.00     1.472 Cl 
HETATM   11  C   UNL     3     -11.843  13.437  65.823  1.00  0.00    -0.377 A  
HETATM   12  C   UNL     3     -11.957  13.680  67.201  1.00  0.00    -0.393 A  
HETATM   13 CL   UNL     3     -12.497  11.979  65.132  1.00  0.00    -0.026 Cl 
HETATM   14  C   UNL     3     -11.427  14.867  67.772  1.00  0.00    -0.353 A  
HETATM   15 CL   UNL     3     -12.754  12.513  68.225  1.00  0.00     1.169 Cl 
ENDROOT
BRANCH  14  16
HETATM   16  C   UNL     3     -11.649  15.127  69.235  1.00  0.00    -0.344 A  
HETATM   17  C   UNL     3     -12.044  14.127  70.070  1.00  0.00    -0.409 A  
HETATM   18  C   UNL     3     -12.313  12.776  69.575  1.00  0.00    -0.016 C  
HETATM   19  C   UNL     3     -12.560  11.744  70.396  1.00  0.00    -0.105 C  
HETATM   20 BR   UNL     3     -12.811  10.018  69.741  1.00  0.00     0.906 Br 
HETATM   21  C   UNL     3     -12.571  11.960  71.878  1.00  0.00     0.053 C  
HETATM   22  O   UNL     3     -12.632  11.001  72.656  1.00  0.00     0.769 OA 
HETATM   23  C   UNL     3     -12.452  13.365  72.374  1.00  0.00     0.309 C  
HETATM   24  C   UNL     3     -12.187  14.374  71.512  1.00  0.00    -0.334 A  
HETATM   25 BR   UNL     3     -12.588  13.629  74.223  1.00  0.00     5.954 Br 
HETATM   26  O   UNL     3     -11.998  15.652  72.009  1.00  0.00    -0.365 OA 
HETATM   27  C   UNL     3     -11.585  16.669  71.191  1.00  0.00     0.202 A  
HETATM   28  C   UNL     3     -11.428  16.469  69.826  1.00  0.00     0.043 A  
HETATM   29  C   UNL     3     -11.054  17.562  69.047  1.00  0.00     0.544 C  
HETATM   30  C   UNL     3     -10.783  18.811  69.630  1.00  0.00     1.444 C  
HETATM   31 BR   UNL     3     -10.259  20.184  68.392  1.00  0.00    -0.318 Br 
HETATM   32  C   UNL     3     -10.865  19.055  71.023  1.00  0.00     3.427 C  
HETATM   33  C   UNL     3     -11.312  17.927  71.775  1.00  0.00     2.970 C  
HETATM   34  O   UNL     3     -10.553  20.179  71.551  1.00  0.00     2.473 OA 
HETATM   35 BR   UNL     3     -11.544  18.075  73.688  1.00  0.00     1.893 Br 
ENDBRANCH  14  16
TORSDOF 1
ENDMDL
MODEL      186
REMARK 921   NORMALIZED FREE ENERGY PREDICTED BY IDOCK:   43.84 KCAL/MOL
REMARK 922        TOTAL FREE ENERGY PREDICTED BY IDOCK:   45.65 KCAL/MOL
REMARK 923 INTER-LIGAND FREE ENERGY PREDICTED BY IDOCK:   41.12 KCAL/MOL
REMARK 924 INTRA-LIGAND FREE ENERGY PREDICTED BY IDOCK:    4.53 KCAL/MOL
REMARK 927      BINDING AFFINITY PREDICTED BY RF-SCORE:    0.00 PKD
ROOT
HETATM    1 NA   UNL     1      -9.519   9.031  64.267  1.00  0.00    -0.373 Na 
HETATM    2 NA   UNL     2      -7.644  13.639  63.520  1.00  0.00     6.128 Na 
HETATM    3  O   UNL     3      -8.715  12.368  64.616  1.00  0.00     1.195 OA 
HETATM    4  C   UNL     3      -9.414  11.822  65.540  1.00  0.00    -0.168 C  
HETATM    5  C   UNL     3      -9.826  12.643  66.733  1.00  0.00    -0.236 A  
HETATM    6  O   UNL     3      -9.781  10.607  65.440  1.00  0.00    -0.217 OA 
HETATM    7  C   UNL     3     -10.260  13.982  66.576  1.00  0.00    -0.279 A  
HETATM    8 CL   UNL     3     -10.374  14.697  64.983  1.00  0.00    -0.440 Cl 
HETATM    9  C   UNL     3     -10.638  14.762  67.694  1.00  0.00    -0.262 A  
HETATM   10 CL   UNL     3     -11.156  16.414  67.467  1.00  0.00    -0.183 Cl 
HETATM   11  C   UNL     3     -10.604  14.215  68.985  1.00  0.00    -0.213 A  
HETATM   12  C   UNL     3     -10.184  12.888  69.164  1.00  0.00     0.258 A  
HETATM   13 CL   UNL     3     -11.087  15.175  70.356  1.00  0.00    -0.292 Cl 
HETATM   14  C   UNL     3      -9.788  12.100  68.051  1.00  0.00    -0.202 A  
HETATM   15 CL   UNL     3     -10.149  12.197  70.766  1.00  0.00     4.935 Cl 
ENDROOT
BRANCH  14  16
HETATM   16  C   UNL     3      -9.261  10.715  68.298  1.00  0.00    -0.153 A  
HETATM   17  C   UNL     3      -8.195  10.510  69.120  1.00  0.00    -0.152 A  
HETATM   18  C   UNL     3      -7.491  11.624  69.756  1.00  0.00     0.591 C  
HETATM   19  C   UNL     3      -6.536  11.439  70.679  1.00  0.00     0.539 C  
HETATM   20 BR   UNL     3      -5.719  12.878  71.536  1.00  0.00     0.500 Br 
HETATM   21  C   UNL     3      -6.155  10.048  71.086  1.00  0.00     0.018 C  
HETATM   22  O   UNL     3      -5.400   9.855  72.047  1.00  0.00    -0.144 OA 
HETATM   23  C   UNL     3      -6.761   8.914  70.326  1.00  0.00    -0.043 C  
HETATM   24  C   UNL     3      -7.734   9.145  69.413  1.00  0.00    -0.080 A  
HETATM   25 BR   UNL     3      -6.183   7.188  70.767  1.00  0.00    -0.036 Br 
HETATM   26  O   UNL     3      -8.337   8.069  68.785  1.00  0.00    -0.124 OA 
HETATM   27  C   UNL     3      -9.420   8.250  67.968  1.00  0.00    -0.140 A  
HETATM   28  C   UNL     3      -9.891   9.524  67.678  1.00  0.00    -0.206 A  
HETATM   29  C   UNL     3     -10.966   9.636  66.799  1.00  0.00     0.078 C  
HETATM   30  C   UNL     3     -11.595   8.495  66.272  1.00  0.00     4.728 C  
HETATM   31 BR   UNL     3     -13.074   8.858  65.098  1.00  0.00    24.364 Br 
HETATM   32  C   UNL     3     -11.198   7.172  66.584  1.00  0.00     0.709 C  
HETATM   33  C   UNL     3     -10.055   7.105  67.436  1.00  0.00    -0.202 C  
HETATM   34  O   UNL     3     -11.818   6.140  66.150  1.00  0.00     1.351 OA 
HETATM   35 BR   UNL     3      -9.323   5.386  67.932  1.00  0.00    -0.134 Br 
ENDBRANCH  14  16
TORSDOF 1
ENDMDL
MODEL      187
REMARK 921   NORMALIZED FREE ENERGY PREDICTED BY IDOCK:   48.60 KCAL/MOL
REMARK 922        TOTAL FREE ENERGY PREDICTED BY IDOCK:   50.69 KCAL/MOL
REMARK 923 INTER-LIGAND FREE ENERGY PREDICTED BY IDOCK:   45.74 KCAL/MOL
REMARK 924 INTRA-LIGAND FREE ENERGY PREDICTED BY IDOCK:    4.95 KCAL/MOL
REMARK 927      BINDING AFFINITY PREDICTED BY RF-SCORE:    0.00 PKD
ROOT
HETATM    1 NA   UNL     1      -6.247   7.313  65.568  1.00  0.00    -0.032 Na 
HETATM    2 NA   UNL     2      -6.405   4.676  69.848  1.00  0.00    -0.020 Na 
HETATM    3  O   UNL     3      -6.658   6.389  68.866  1.00  0.00    -0.044 OA 
HETATM    4  C   UNL     3      -6.947   7.594  68.543  1.00  0.00    -0.072 C  
HETATM    5  C   UNL     3      -7.469   8.534  69.597  1.00  0.00    -0.075 A  
HETATM    6  O   UNL     3      -6.768   8.004  67.350  1.00  0.00    -0.065 OA 
HETATM    7  C   UNL     3      -6.915   8.541  70.900  1.00  0.00    -0.057 A  
HETATM    8 CL   UNL     3      -5.574   7.490  71.300  1.00  0.00    -0.035 Cl 
HETATM    9  C   UNL     3      -7.410   9.413  71.898  1.00  0.00     0.643 A  
HETATM   10 CL   UNL     3      -6.713   9.388  73.499  1.00  0.00     0.588 Cl 
HETATM   11  C   UNL     3      -8.454  10.303  71.609  1.00  0.00     4.219 A  
HETATM   12  C   UNL     3      -9.014  10.319  70.322  1.00  0.00     0.481 A  
HETATM   13 CL   UNL     3      -9.047  11.387  72.837  1.00  0.00    18.751 Cl 
HETATM   14  C   UNL     3      -8.536   9.438  69.317  1.00  0.00    -0.143 A  
HETATM   15 CL   UNL     3     -10.307  11.431  69.951  1.00  0.00     0.427 Cl 
ENDROOT
BRANCH  14  16
HETATM   16  C   UNL     3      -9.224   9.425  67.980  1.00  0.00    -0.137 A  
HETATM   17  C   UNL     3      -9.501  10.588  67.328  1.00  0.00    -0.179 A  
HETATM   18  C   UNL     3      -9.189  11.892  67.916  1.00  0.00    -0.187 C  
HETATM   19  C   UNL     3      -9.318  13.039  67.234  1.00  0.00    -0.220 C  
HETATM   20 BR   UNL     3      -8.829  14.675  67.979  1.00  0.00    -0.176 Br 
HETATM   21  C   UNL     3      -9.805  13.010  65.817  1.00  0.00    -0.209 C  
HETATM   22  O   UNL     3      -9.776  14.030  65.118  1.00  0.00    -0.173 OA 
HETATM   23  C   UNL     3     -10.271  11.700  65.272  1.00  0.00    -0.272 C  
HETATM   24  C   UNL     3     -10.106  10.564  65.988  1.00  0.00    -0.256 A  
HETATM   25 BR   UNL     3     -10.987  11.705  63.541  1.00  0.00    -0.452 Br 
HETATM   26  O   UNL     3     -10.469   9.353  65.424  1.00  0.00     0.347 OA 
HETATM   27  C   UNL     3     -10.185   8.171  66.054  1.00  0.00     0.580 A  
HETATM   28  C   UNL     3      -9.603   8.156  67.315  1.00  0.00    -0.211 A  
HETATM   29  C   UNL     3      -9.389   6.918  67.918  1.00  0.00    -0.118 C  
HETATM   30  C   UNL     3      -9.692   5.721  67.247  1.00  0.00    -0.129 C  
HETATM   31 BR   UNL     3      -9.302   4.120  68.236  1.00  0.00    -0.217 Br 
HETATM   32  C   UNL     3     -10.227   5.677  65.936  1.00  0.00     0.154 C  
HETATM   33  C   UNL     3     -10.489   6.965  65.382  1.00  0.00     3.039 C  
HETATM   34  O   UNL     3     -10.439   4.580  65.309  1.00  0.00    -0.226 OA 
HETATM   35 BR   UNL     3     -11.274   7.116  63.622  1.00  0.00    20.215 Br 
ENDBRANCH  14  16
TORSDOF 1
ENDMDL
MODEL      188
REMARK 921   NORMALIZED FREE ENERGY PREDICTED BY IDOCK:   48.65 KCAL/MOL
REMARK 922        TOTAL FREE ENERGY PREDICTED BY IDOCK:   50.74 KCAL/MOL
REMARK 923 INTER-LIGAND FREE ENERGY PREDICTED BY IDOCK:   46.65 KCAL/MOL
REMARK 924 INTRA-LIGAND FREE ENERGY PREDICTED BY IDOCK:    4.09 KCAL/MOL
REMARK 927      BINDING AFFINITY PREDICTED BY RF-SCORE:    0.00 PKD
ROOT
HETATM    1 NA   UNL     1     -12.656  14.425  71.034  1.00  0.00    -0.260 Na 
HETATM    2 NA   UNL     2     -13.718  13.312  66.245  1.00  0.00     0.360 Na 
HETATM    3  O   UNL     3     -12.591  14.253  67.589  1.00  0.00     0.025 OA 
HETATM    4  C   UNL     3     -11.678  14.938  68.170  1.00  0.00    -0.318 C  
HETATM    5  C   UNL     3     -10.617  15.608  67.337  1.00  0.00    -0.301 A  
HETATM    6  O   UNL     3     -11.681  15.076  69.437  1.00  0.00    -0.291 OA 
HETATM    7  C   UNL     3     -10.950  16.249  66.120  1.00  0.00     0.006 A  
HETATM    8 CL   UNL     3     -12.613  16.321  65.580  1.00  0.00     2.519 Cl 
HETATM    9  C   UNL     3      -9.956  16.869  65.327  1.00  0.00     0.402 A  
HETATM   10 CL   UNL     3     -10.398  17.641  63.823  1.00  0.00     7.161 Cl 
HETATM   11  C   UNL     3      -8.617  16.874  65.742  1.00  0.00     0.212 A  
HETATM   12  C   UNL     3      -8.264  16.250  66.949  1.00  0.00    -0.226 A  
HETATM   13 CL   UNL     3      -7.401  17.655  64.770  1.00  0.00     3.007 Cl 
HETATM   14  C   UNL     3      -9.251  15.611  67.746  1.00  0.00    -0.193 A  
HETATM   15 CL   UNL     3      -6.602  16.261  67.479  1.00  0.00    -0.173 Cl 
ENDROOT
BRANCH  14  16
HETATM   16  C   UNL     3      -8.816  14.880  68.985  1.00  0.00    -0.179 A  
HETATM   17  C   UNL     3      -9.208  13.595  69.210  1.00  0.00     0.645 A  
HETATM   18  C   UNL     3     -10.102  12.893  68.288  1.00  0.00    -0.242 C  
HETATM   19  C   UNL     3     -10.383  11.587  68.412  1.00  0.00    -0.202 C  
HETATM   20 BR   UNL     3     -11.453  10.699  67.172  1.00  0.00     0.402 Br 
HETATM   21  C   UNL     3      -9.775  10.800  69.533  1.00  0.00     0.017 C  
HETATM   22  O   UNL     3      -9.886   9.568  69.572  1.00  0.00    -0.173 OA 
HETATM   23  C   UNL     3      -8.992  11.549  70.560  1.00  0.00     4.777 C  
HETATM   24  C   UNL     3      -8.718  12.863  70.387  1.00  0.00     5.626 A  
HETATM   25 BR   UNL     3      -8.341  10.568  72.017  1.00  0.00     8.236 Br 
HETATM   26  O   UNL     3      -7.919  13.513  71.312  1.00  0.00     4.856 OA 
HETATM   27  C   UNL     3      -7.499  14.798  71.098  1.00  0.00     2.045 A  
HETATM   28  C   UNL     3      -7.932  15.515  69.990  1.00  0.00     0.338 A  
HETATM   29  C   UNL     3      -7.505  16.836  69.863  1.00  0.00     0.832 C  
HETATM   30  C   UNL     3      -6.613  17.404  70.789  1.00  0.00     1.899 C  
HETATM   31 BR   UNL     3      -6.124  19.226  70.426  1.00  0.00    -0.083 Br 
HETATM   32  C   UNL     3      -6.089  16.697  71.900  1.00  0.00     2.362 C  
HETATM   33  C   UNL     3      -6.602  15.372  72.028  1.00  0.00     2.279 C  
HETATM   34  O   UNL     3      -5.228  17.203  72.701  1.00  0.00     0.511 OA 
HETATM   35 BR   UNL     3      -6.052  14.265  73.514  1.00  0.00     0.773 Br 
ENDBRANCH  14  16
TORSDOF 1
ENDMDL
MODEL      189
REMARK 921   NORMALIZED FREE ENERGY PREDICTED BY IDOCK:   49.73 KCAL/MOL
REMARK 922        TOTAL FREE ENERGY PREDICTED BY IDOCK:   51.89 KCAL/MOL
REMARK 923 INTER-LIGAND FREE ENERGY PREDICTED BY IDOCK:   50.91 KCAL/MOL
REMARK 924 INTRA-LIGAND FREE ENERGY PREDICTED BY IDOCK:    0.98 KCAL/MOL
REMARK 927      BINDING AFFINITY PREDICTED BY RF-SCORE:    0.00 PKD
ROOT
HETATM    1 NA   UNL     1     -12.026  15.486  66.347  1.00  0.00    -0.209 Na 
HETATM    2 NA   UNL     2     -13.577  18.475  70.084  1.00  0.00    11.758 Na 
HETATM    3  O   UNL     3     -12.548  16.892  69.454  1.00  0.00     1.503 OA 
HETATM    4  C   UNL     3     -11.784  15.867  69.383  1.00  0.00    -0.343 C  
HETATM    5  C   UNL     3     -11.136  15.343  70.638  1.00  0.00    -0.364 A  
HETATM    6  O   UNL     3     -11.594  15.277  68.270  1.00  0.00    -0.333 OA 
HETATM    7  C   UNL     3     -11.860  15.278  71.853  1.00  0.00    -0.420 A  
HETATM    8 CL   UNL     3     -13.541  15.761  71.913  1.00  0.00    -0.480 Cl 
HETATM    9  C   UNL     3     -11.254  14.798  73.038  1.00  0.00     0.916 A  
HETATM   10 CL   UNL     3     -12.170  14.744  74.524  1.00  0.00    -0.125 Cl 
HETATM   11  C   UNL     3      -9.922  14.360  73.027  1.00  0.00     6.883 A  
HETATM   12  C   UNL     3      -9.187  14.408  71.832  1.00  0.00     6.699 A  
HETATM   13 CL   UNL     3      -9.186  13.754  74.485  1.00  0.00     9.157 Cl 
HETATM   14  C   UNL     3      -9.780  14.902  70.640  1.00  0.00     1.108 A  
HETATM   15 CL   UNL     3      -7.533  13.855  71.807  1.00  0.00     4.348 Cl 
ENDROOT
BRANCH  14  16
HETATM   16  C   UNL     3      -8.931  15.019  69.406  1.00  0.00    -0.113 A  
HETATM   17  C   UNL     3      -8.384  13.914  68.828  1.00  0.00    -0.019 A  
HETATM   18  C   UNL     3      -8.557  12.580  69.406  1.00  0.00     1.197 C  
HETATM   19  C   UNL     3      -8.153  11.466  68.778  1.00  0.00    -0.112 C  
HETATM   20 BR   UNL     3      -8.467   9.776  69.498  1.00  0.00    -0.194 Br 
HETATM   21  C   UNL     3      -7.492  11.566  67.437  1.00  0.00    -0.127 C  
HETATM   22  O   UNL     3      -7.262  10.551  66.769  1.00  0.00    -0.102 OA 
HETATM   23  C   UNL     3      -7.177  12.932  66.922  1.00  0.00     0.367 C  
HETATM   24  C   UNL     3      -7.618  14.029  67.579  1.00  0.00    -0.180 A  
HETATM   25 BR   UNL     3      -6.244  13.034  65.301  1.00  0.00     9.948 Br 
HETATM   26  O   UNL     3      -7.383  15.280  67.033  1.00  0.00    -0.182 OA 
HETATM   27  C   UNL     3      -7.937  16.403  67.588  1.00  0.00    -0.149 A  
HETATM   28  C   UNL     3      -8.677  16.329  68.761  1.00  0.00    -0.244 A  
HETATM   29  C   UNL     3      -9.168  17.519  69.295  1.00  0.00     0.187 C  
HETATM   30  C   UNL     3      -8.976  18.745  68.637  1.00  0.00    -0.333 C  
HETATM   31 BR   UNL     3      -9.749  20.266  69.522  1.00  0.00     0.505 Br 
HETATM   32  C   UNL     3      -8.285  18.869  67.407  1.00  0.00    -0.270 C  
HETATM   33  C   UNL     3      -7.745  17.638  66.928  1.00  0.00    -0.216 C  
HETATM   34  O   UNL     3      -8.171  19.982  66.783  1.00  0.00    -0.299 OA 
HETATM   35 BR   UNL     3      -6.718  17.608  65.291  1.00  0.00     1.150 Br 
ENDBRANCH  14  16
TORSDOF 1
ENDMDL
MODEL      190
REMARK 921   NORMALIZED FREE ENERGY PREDICTED BY IDOCK:   50.54 KCAL/MOL
REMARK 922        TOTAL FREE ENERGY PREDICTED BY IDOCK:   52.74 KCAL/MOL
REMARK 923 INTER-LIGAND FREE ENERGY PREDICTED BY IDOCK:   41.12 KCAL/MOL
REMARK 924 INTRA-LIGAND FREE ENERGY PREDICTED BY IDOCK:   11.62 KCAL/MOL
REMARK 927      BINDING AFFINITY PREDICTED BY RF-SCORE:    0.00 PKD
ROOT
HETATM    1 NA   UNL     1      -9.988  12.656  64.480  1.00  0.00    -0.270 Na 
HETATM    2 NA   UNL     2      -5.356  14.606  64.693  1.00  0.00     9.225 Na 
HETATM    3  O   UNL     3      -7.032  14.036  65.603  1.00  0.00     5.680 OA 
HETATM    4  C   UNL     3      -7.925  13.747  66.474  1.00  0.00     0.915 C  
HETATM    5  C   UNL     3      -7.640  13.995  67.932  1.00  0.00    -0.159 A  
HETATM    6  O   UNL     3      -9.054  13.280  66.112  1.00  0.00    -0.061 OA 
HETATM    7  C   UNL     3      -6.974  15.173  68.349  1.00  0.00    -0.108 A  
HETATM    8 CL   UNL     3      -6.510  16.392  67.181  1.00  0.00    -0.219 Cl 
HETATM    9  C   UNL     3      -6.692  15.407  69.715  1.00  0.00    -0.170 A  
HETATM   10 CL   UNL     3      -5.857  16.864  70.195  1.00  0.00    -0.215 Cl 
HETATM   11  C   UNL     3      -7.084  14.478  70.690  1.00  0.00     0.660 A  
HETATM   12  C   UNL     3      -7.751  13.306  70.300  1.00  0.00     2.602 A  
HETATM   13 CL   UNL     3      -6.749  14.779  72.372  1.00  0.00     1.560 Cl 
HETATM   14  C   UNL     3      -8.026  13.054  68.930  1.00  0.00     0.169 A  
HETATM   15 CL   UNL     3      -8.252  12.150  71.507  1.00  0.00    11.770 Cl 
ENDROOT
BRANCH  14  16
HETATM   16  C   UNL     3      -8.663  11.747  68.550  1.00  0.00    -0.118 A  
HETATM   17  C   UNL     3      -9.706  11.707  67.675  1.00  0.00    -0.186 A  
HETATM   18  C   UNL     3     -10.279  12.929  67.109  1.00  0.00    -0.239 C  
HETATM   19  C   UNL     3     -11.205  12.907  66.138  1.00  0.00    -0.292 C  
HETATM   20 BR   UNL     3     -11.851  14.479  65.374  1.00  0.00    -0.318 Br 
HETATM   21  C   UNL     3     -11.690  11.595  65.604  1.00  0.00     0.108 C  
HETATM   22  O   UNL     3     -12.416  11.550  64.603  1.00  0.00     0.047 OA 
HETATM   23  C   UNL     3     -11.222  10.353  66.288  1.00  0.00     0.487 C  
HETATM   24  C   UNL     3     -10.274  10.419  67.252  1.00  0.00    -0.211 A  
HETATM   25 BR   UNL     3     -11.932   8.728  65.684  1.00  0.00    11.540 Br 
HETATM   26  O   UNL     3      -9.798   9.245  67.810  1.00  0.00    -0.158 OA 
HETATM   27  C   UNL     3      -8.740   9.260  68.679  1.00  0.00    -0.132 A  
HETATM   28  C   UNL     3      -8.170  10.457  69.091  1.00  0.00    -0.157 A  
HETATM   29  C   UNL     3      -7.130  10.398  70.016  1.00  0.00    -0.155 C  
HETATM   30  C   UNL     3      -6.629   9.166  70.469  1.00  0.00    -0.061 C  
HETATM   31 BR   UNL     3      -5.178   9.296  71.722  1.00  0.00    -0.065 Br 
HETATM   32  C   UNL     3      -7.128   7.914  70.033  1.00  0.00    -0.050 C  
HETATM   33  C   UNL     3      -8.234   8.022  69.137  1.00  0.00    -0.130 C  
HETATM   34  O   UNL     3      -6.623   6.798  70.402  1.00  0.00    -0.046 OA 
HETATM   35 BR   UNL     3      -9.094   6.423  68.472  1.00  0.00    -0.125 Br 
ENDBRANCH  14  16
TORSDOF 1
ENDMDL
MODEL      191
REMARK 921   NORMALIZED FREE ENERGY PREDICTED BY IDOCK:   54.51 KCAL/MOL
REMARK 922        TOTAL FREE ENERGY PREDICTED BY IDOCK:   56.95 KCAL/MOL
REMARK 923 INTER-LIGAND FREE ENERGY PREDICTED BY IDOCK:   17.77 KCAL/MOL
REMARK 924 INTRA-LIGAND FREE ENERGY PREDICTED BY IDOCK:   39.18 KCAL/MOL
REMARK 927      BINDING AFFINITY PREDICTED BY RF-SCORE:    0.00 PKD
ROOT
HETATM    1 NA   UNL     1     -12.098   9.338  72.721  1.00  0.00    -0.299 Na 
HETATM    2 NA   UNL     2      -7.201   8.833  73.756  1.00  0.00    -0.133 Na 
HETATM    3  O   UNL     3      -8.665   9.136  72.441  1.00  0.00    -0.243 OA 
HETATM    4  C   UNL     3      -9.337   9.381  71.379  1.00  0.00     0.111 C  
HETATM    5  C   UNL     3      -8.608   9.593  70.079  1.00  0.00    -0.237 A  
HETATM    6  O   UNL     3     -10.610   9.419  71.414  1.00  0.00    -0.331 OA 
HETATM    7  C   UNL     3      -7.501   8.783  69.729  1.00  0.00    -0.056 A  
HETATM    8 CL   UNL     3      -6.984   7.483  70.781  1.00  0.00    -0.047 Cl 
HETATM    9  C   UNL     3      -6.804   8.984  68.515  1.00  0.00    -0.064 A  
HETATM   10 CL   UNL     3      -5.433   7.976  68.120  1.00  0.00    -0.032 Cl 
HETATM   11  C   UNL     3      -7.210   9.986  67.621  1.00  0.00    -0.088 A  
HETATM   12  C   UNL     3      -8.309  10.797  67.943  1.00  0.00    -0.117 A  
HETATM   13 CL   UNL     3      -6.359  10.217  66.119  1.00  0.00    -0.086 Cl 
HETATM   14  C   UNL     3      -9.007  10.614  69.166  1.00  0.00    -0.139 A  
HETATM   15 CL   UNL     3      -8.828  12.038  66.832  1.00  0.00    -0.192 Cl 
ENDROOT
BRANCH  14  16
HETATM   16  C   UNL     3     -10.122  11.561  69.511  1.00  0.00     0.387 A  
HETATM   17  C   UNL     3     -10.371  12.655  68.740  1.00  0.00    -0.132 A  
HETATM   18  C   UNL     3      -9.541  12.982  67.579  1.00  0.00    -0.204 C  
HETATM   19  C   UNL     3      -9.854  13.966  66.725  1.00  0.00    -0.274 C  
HETATM   20 BR   UNL     3      -8.826  14.301  65.206  1.00  0.00     2.663 Br 
HETATM   21  C   UNL     3     -11.091  14.781  66.950  1.00  0.00    -0.339 C  
HETATM   22  O   UNL     3     -11.486  15.579  66.092  1.00  0.00    -0.108 OA 
HETATM   23  C   UNL     3     -11.850  14.551  68.215  1.00  0.00    -0.312 C  
HETATM   24  C   UNL     3     -11.509  13.535  69.042  1.00  0.00    -0.303 A  
HETATM   25 BR   UNL     3     -13.325  15.660  68.537  1.00  0.00     4.224 Br 
HETATM   26  O   UNL     3     -12.282  13.292  70.165  1.00  0.00    -0.334 OA 
HETATM   27  C   UNL     3     -12.060  12.189  70.945  1.00  0.00    -0.079 A  
HETATM   28  C   UNL     3     -11.001  11.330  70.682  1.00  0.00     0.980 A  
HETATM   29  C   UNL     3     -10.805  10.255  71.547  1.00  0.00     1.011 C  
HETATM   30  C   UNL     3     -11.687  10.011  72.614  1.00  0.00     2.363 C  
HETATM   31 BR   UNL     3     -11.260   8.468  73.677  1.00  0.00     3.407 Br 
HETATM   32  C   UNL     3     -12.819  10.817  72.889  1.00  0.00     2.693 C  
HETATM   33  C   UNL     3     -12.945  11.941  72.019  1.00  0.00    -0.265 C  
HETATM   34  O   UNL     3     -13.652  10.549  73.824  1.00  0.00     4.172 OA 
HETATM   35 BR   UNL     3     -14.395  13.195  72.268  1.00  0.00     0.177 Br 
ENDBRANCH  14  16
TORSDOF 1
ENDMDL
MODEL      192
REMARK 921   NORMALIZED FREE ENERGY PREDICTED BY IDOCK:   55.96 KCAL/MOL
REMARK 922        TOTAL FREE ENERGY PREDICTED BY IDOCK:   58.48 KCAL/MOL
REMARK 923 INTER-LIGAND FREE ENERGY PREDICTED BY IDOCK:   50.90 KCAL/MOL
REMARK 924 INTRA-LIGAND FREE ENERGY PREDICTED BY IDOCK:    7.58 KCAL/MOL
REMARK 927      BINDING AFFINITY PREDICTED BY RF-SCORE:    0.00 PKD
ROOT
HETATM    1 NA   UNL     1     -11.375  16.432  65.878  1.00  0.00    -0.247 Na 
HETATM    2 NA   UNL     2     -13.785  17.460  70.171  1.00  0.00     3.780 Na 
HETATM    3  O   UNL     3     -12.220  16.690  69.213  1.00  0.00     0.360 OA 
HETATM    4  C   UNL     3     -11.094  16.154  68.922  1.00  0.00    -0.347 C  
HETATM    5  C   UNL     3     -10.191  15.689  70.034  1.00  0.00    -0.277 A  
HETATM    6  O   UNL     3     -10.752  15.988  67.706  1.00  0.00    -0.307 OA 
HETATM    7  C   UNL     3     -10.720  15.029  71.169  1.00  0.00     0.215 A  
HETATM    8 CL   UNL     3     -12.434  14.694  71.283  1.00  0.00    -0.382 Cl 
HETATM    9  C   UNL     3      -9.878  14.601  72.222  1.00  0.00     5.074 A  
HETATM   10 CL   UNL     3     -10.564  13.802  73.615  1.00  0.00     6.284 Cl 
HETATM   11  C   UNL     3      -8.493  14.810  72.153  1.00  0.00     6.425 A  
HETATM   12  C   UNL     3      -7.945  15.456  71.034  1.00  0.00     2.716 A  
HETATM   13 CL   UNL     3      -7.459  14.265  73.445  1.00  0.00     4.722 Cl 
HETATM   14  C   UNL     3      -8.782  15.904  69.978  1.00  0.00     0.636 A  
HETATM   15 CL   UNL     3      -6.222  15.710  70.936  1.00  0.00     0.347 Cl 
ENDROOT
BRANCH  14  16
HETATM   16  C   UNL     3      -8.164  16.669  68.842  1.00  0.00    -0.231 A  
HETATM   17  C   UNL     3      -8.385  16.299  67.550  1.00  0.00    -0.174 A  
HETATM   18  C   UNL     3      -9.187  15.121  67.215  1.00  0.00    -0.208 C  
HETATM   19  C   UNL     3      -9.538  14.823  65.956  1.00  0.00    -0.301 C  
HETATM   20 BR   UNL     3     -10.634  13.367  65.569  1.00  0.00    -0.309 Br 
HETATM   21  C   UNL     3      -9.098  15.711  64.832  1.00  0.00     2.467 C  
HETATM   22  O   UNL     3      -9.544  15.551  63.689  1.00  0.00     4.936 OA 
HETATM   23  C   UNL     3      -8.153  16.821  65.156  1.00  0.00     3.211 C  
HETATM   24  C   UNL     3      -7.838  17.097  66.443  1.00  0.00    -0.317 A  
HETATM   25 BR   UNL     3      -7.520  17.846  63.722  1.00  0.00    12.219 Br 
HETATM   26  O   UNL     3      -7.026  18.184  66.720  1.00  0.00    -0.182 OA 
HETATM   27  C   UNL     3      -6.804  18.584  68.010  1.00  0.00    -0.221 A  
HETATM   28  C   UNL     3      -7.316  17.861  69.080  1.00  0.00    -0.117 A  
HETATM   29  C   UNL     3      -7.007  18.298  70.367  1.00  0.00     1.415 C  
HETATM   30  C   UNL     3      -6.257  19.467  70.577  1.00  0.00    -0.090 C  
HETATM   31 BR   UNL     3      -5.959  19.915  72.422  1.00  0.00     0.967 Br 
HETATM   32  C   UNL     3      -5.766  20.278  69.524  1.00  0.00    -0.319 C  
HETATM   33  C   UNL     3      -6.050  19.760  68.225  1.00  0.00    -0.237 C  
HETATM   34  O   UNL     3      -5.140  21.375  69.727  1.00  0.00    -0.380 OA 
HETATM   35 BR   UNL     3      -5.414  20.693  66.656  1.00  0.00    -0.228 Br 
ENDBRANCH  14  16
TORSDOF 1
ENDMDL
MODEL      193
REMARK 921   NORMALIZED FREE ENERGY PREDICTED BY IDOCK:   58.01 KCAL/MOL
REMARK 922        TOTAL FREE ENERGY PREDICTED BY IDOCK:   60.65 KCAL/MOL
REMARK 923 INTER-LIGAND FREE ENERGY PREDICTED BY IDOCK:   29.23 KCAL/MOL
REMARK 924 INTRA-LIGAND FREE ENERGY PREDICTED BY IDOCK:   31.42 KCAL/MOL
REMARK 927      BINDING AFFINITY PREDICTED BY RF-SCORE:    0.00 PKD
ROOT
HETATM    1 NA   UNL     1      -6.423  18.337  68.428  1.00  0.00    -0.174 Na 
HETATM    2 NA   UNL     2     -10.849  20.327  69.750  1.00  0.00    -0.627 Na 
HETATM    3  O   UNL     3      -9.793  19.031  68.670  1.00  0.00    -0.371 OA 
HETATM    4  C   UNL     3      -9.433  18.086  67.884  1.00  0.00    -0.273 C  
HETATM    5  C   UNL     3     -10.484  17.315  67.130  1.00  0.00    -0.297 A  
HETATM    6  O   UNL     3      -8.199  17.819  67.718  1.00  0.00    -0.221 OA 
HETATM    7  C   UNL     3     -11.594  17.977  66.553  1.00  0.00     1.919 A  
HETATM    8 CL   UNL     3     -11.745  19.717  66.662  1.00  0.00     0.895 Cl 
HETATM    9  C   UNL     3     -12.590  17.257  65.854  1.00  0.00     6.643 A  
HETATM   10 CL   UNL     3     -13.955  18.102  65.166  1.00  0.00    16.905 Cl 
HETATM   11  C   UNL     3     -12.488  15.866  65.704  1.00  0.00     1.806 A  
HETATM   12  C   UNL     3     -11.393  15.189  66.262  1.00  0.00    -0.219 A  
HETATM   13 CL   UNL     3     -13.709  14.986  64.828  1.00  0.00     1.942 Cl 
HETATM   14  C   UNL     3     -10.394  15.899  66.979  1.00  0.00    -0.297 A  
HETATM   15 CL   UNL     3     -11.252  13.460  66.072  1.00  0.00    -0.304 Cl 
ENDROOT
BRANCH  14  16
HETATM   16  C   UNL     3      -9.286  15.125  67.635  1.00  0.00    -0.181 A  
HETATM   17  C   UNL     3      -8.396  15.742  68.461  1.00  0.00    -0.175 A  
HETATM   18  C   UNL     3      -8.451  17.184  68.706  1.00  0.00    -0.225 C  
HETATM   19  C   UNL     3      -7.681  17.787  69.624  1.00  0.00     0.686 C  
HETATM   20 BR   UNL     3      -7.836  19.610  69.977  1.00  0.00     0.921 Br 
HETATM   21  C   UNL     3      -6.718  16.976  70.436  1.00  0.00     1.178 C  
HETATM   22  O   UNL     3      -6.122  17.478  71.396  1.00  0.00     1.102 OA 
HETATM   23  C   UNL     3      -6.553  15.535  70.077  1.00  0.00    -0.079 C  
HETATM   24  C   UNL     3      -7.362  14.963  69.156  1.00  0.00    -0.158 A  
HETATM   25 BR   UNL     3      -5.259  14.566  71.023  1.00  0.00    -0.146 Br 
HETATM   26  O   UNL     3      -7.242  13.607  68.904  1.00  0.00    -0.106 OA 
HETATM   27  C   UNL     3      -8.135  12.962  68.090  1.00  0.00    -0.158 A  
HETATM   28  C   UNL     3      -9.133  13.665  67.427  1.00  0.00    -0.222 A  
HETATM   29  C   UNL     3      -9.974  12.951  66.576  1.00  0.00    -0.259 C  
HETATM   30  C   UNL     3      -9.859  11.557  66.440  1.00  0.00    -0.205 C  
HETATM   31 BR   UNL     3     -11.126  10.755  65.239  1.00  0.00     0.372 Br 
HETATM   32  C   UNL     3      -8.902  10.783  67.142  1.00  0.00    -0.134 C  
HETATM   33  C   UNL     3      -8.021  11.560  67.952  1.00  0.00    -0.126 C  
HETATM   34  O   UNL     3      -8.847   9.506  67.061  1.00  0.00    -0.127 OA 
HETATM   35 BR   UNL     3      -6.608  10.692  68.945  1.00  0.00    -0.059 Br 
ENDBRANCH  14  16
TORSDOF 1
ENDMDL
MODEL      194
REMARK 921   NORMALIZED FREE ENERGY PREDICTED BY IDOCK:   60.75 KCAL/MOL
REMARK 922        TOTAL FREE ENERGY PREDICTED BY IDOCK:   63.55 KCAL/MOL
REMARK 923 INTER-LIGAND FREE ENERGY PREDICTED BY IDOCK:   62.12 KCAL/MOL
REMARK 924 INTRA-LIGAND FREE ENERGY PREDICTED BY IDOCK:    1.43 KCAL/MOL
REMARK 927      BINDING AFFINITY PREDICTED BY RF-SCORE:    0.00 PKD
ROOT
HETATM    1 NA   UNL     1      -5.778   8.058  66.014  1.00  0.00    -0.031 Na 
HETATM    2 NA   UNL     2      -6.023   5.499  70.337  1.00  0.00    -0.016 Na 
HETATM    3  O   UNL     3      -6.233   7.199  69.324  1.00  0.00    -0.032 OA 
HETATM    4  C   UNL     3      -6.494   8.404  68.978  1.00  0.00    -0.048 C  
HETATM    5  C   UNL     3      -7.006   9.372  70.012  1.00  0.00    -0.071 A  
HETATM    6  O   UNL     3      -6.298   8.790  67.780  1.00  0.00    -0.055 OA 
HETATM    7  C   UNL     3      -6.462   9.390  71.319  1.00  0.00    -0.037 A  
HETATM    8 CL   UNL     3      -5.146   8.319  71.748  1.00  0.00    -0.033 Cl 
HETATM    9  C   UNL     3      -6.946  10.289  72.298  1.00  0.00     2.929 A  
HETATM   10 CL   UNL     3      -6.262  10.277  73.905  1.00  0.00     1.222 Cl 
HETATM   11  C   UNL     3      -7.969  11.196  71.985  1.00  0.00    10.566 A  
HETATM   12  C   UNL     3      -8.519  11.201  70.694  1.00  0.00     3.963 A  
HETATM   13 CL   UNL     3      -8.549  12.312  73.190  1.00  0.00    21.876 Cl 
HETATM   14  C   UNL     3      -8.052  10.293  69.708  1.00  0.00    -0.125 A  
HETATM   15 CL   UNL     3      -9.785  12.332  70.294  1.00  0.00     3.441 Cl 
ENDROOT
BRANCH  14  16
HETATM   16  C   UNL     3      -8.729  10.272  68.366  1.00  0.00    -0.129 A  
HETATM   17  C   UNL     3      -9.355   9.149  67.918  1.00  0.00    -0.151 A  
HETATM   18  C   UNL     3      -9.355   7.908  68.695  1.00  0.00    -0.145 C  
HETATM   19  C   UNL     3     -10.085   6.839  68.344  1.00  0.00    -0.162 C  
HETATM   20 BR   UNL     3     -10.134   5.305  69.400  1.00  0.00    -0.315 Br 
HETATM   21  C   UNL     3     -10.935   6.892  67.111  1.00  0.00    -0.357 C  
HETATM   22  O   UNL     3     -11.738   5.986  66.858  1.00  0.00     0.496 OA 
HETATM   23  C   UNL     3     -10.813   8.097  66.238  1.00  0.00     1.360 C  
HETATM   24  C   UNL     3     -10.078   9.161  66.638  1.00  0.00    -0.273 A  
HETATM   25 BR   UNL     3     -11.792   8.093  64.640  1.00  0.00    18.392 Br 
HETATM   26  O   UNL     3     -10.052  10.297  65.848  1.00  0.00    -0.246 OA 
HETATM   27  C   UNL     3      -9.442  11.442  66.285  1.00  0.00    -0.209 A  
HETATM   28  C   UNL     3      -8.761  11.471  67.495  1.00  0.00    -0.145 A  
HETATM   29  C   UNL     3      -8.121  12.657  67.853  1.00  0.00    -0.165 C  
HETATM   30  C   UNL     3      -8.216  13.805  67.049  1.00  0.00    -0.034 C  
HETATM   31 BR   UNL     3      -7.286  15.344  67.726  1.00  0.00    -0.201 Br 
HETATM   32  C   UNL     3      -8.951  13.850  65.839  1.00  0.00     0.544 C  
HETATM   33  C   UNL     3      -9.536  12.599  65.479  1.00  0.00     0.082 C  
HETATM   34  O   UNL     3      -9.085  14.919  65.147  1.00  0.00     0.702 OA 
HETATM   35 BR   UNL     3     -10.533  12.441  63.830  1.00  0.00    -0.468 Br 
ENDBRANCH  14  16
TORSDOF 1
ENDMDL
MODEL      195
REMARK 921   NORMALIZED FREE ENERGY PREDICTED BY IDOCK:   62.22 KCAL/MOL
REMARK 922        TOTAL FREE ENERGY PREDICTED BY IDOCK:   65.11 KCAL/MOL
REMARK 923 INTER-LIGAND FREE ENERGY PREDICTED BY IDOCK:   36.87 KCAL/MOL
REMARK 924 INTRA-LIGAND FREE ENERGY PREDICTED BY IDOCK:   28.24 KCAL/MOL
REMARK 927      BINDING AFFINITY PREDICTED BY RF-SCORE:    0.00 PKD
ROOT
HETATM    1 NA   UNL     1     -13.893  15.668  69.674  1.00  0.00    -0.306 Na 
HETATM    2 NA   UNL     2     -12.007  11.381  67.840  1.00  0.00    -0.264 Na 
HETATM    3  O   UNL     3     -11.967  13.367  67.972  1.00  0.00    -0.350 OA 
HETATM    4  C   UNL     3     -11.649  14.603  67.870  1.00  0.00    -0.348 C  
HETATM    5  C   UNL     3     -10.451  14.989  67.044  1.00  0.00    -0.278 A  
HETATM    6  O   UNL     3     -12.354  15.501  68.437  1.00  0.00     0.047 OA 
HETATM    7  C   UNL     3     -10.192  14.358  65.804  1.00  0.00    -0.337 A  
HETATM    8 CL   UNL     3     -11.289  13.146  65.179  1.00  0.00    -0.314 Cl 
HETATM    9  C   UNL     3      -9.062  14.708  65.030  1.00  0.00     1.934 A  
HETATM   10 CL   UNL     3      -8.763  13.900  63.510  1.00  0.00     8.568 Cl 
HETATM   11  C   UNL     3      -8.179  15.705  65.471  1.00  0.00     2.334 A  
HETATM   12  C   UNL     3      -8.419  16.349  66.695  1.00  0.00    -0.271 A  
HETATM   13 CL   UNL     3      -6.798  16.143  64.504  1.00  0.00    10.363 Cl 
HETATM   14  C   UNL     3      -9.542  15.996  67.488  1.00  0.00    -0.222 A  
HETATM   15 CL   UNL     3      -7.332  17.598  67.246  1.00  0.00    -0.196 Cl 
ENDROOT
BRANCH  14  16
HETATM   16  C   UNL     3      -9.712  16.648  68.831  1.00  0.00    -0.255 A  
HETATM   17  C   UNL     3      -8.954  17.722  69.186  1.00  0.00     0.110 A  
HETATM   18  C   UNL     3      -7.915  18.254  68.303  1.00  0.00    -0.312 C  
HETATM   19  C   UNL     3      -7.259  19.393  68.567  1.00  0.00    -0.321 C  
HETATM   20 BR   UNL     3      -6.005  20.092  67.380  1.00  0.00    -0.220 Br 
HETATM   21  C   UNL     3      -7.580  20.164  69.811  1.00  0.00     0.466 C  
HETATM   22  O   UNL     3      -7.111  21.294  69.993  1.00  0.00     2.082 OA 
HETATM   23  C   UNL     3      -8.526  19.542  70.786  1.00  0.00     2.421 C  
HETATM   24  C   UNL     3      -9.178  18.399  70.471  1.00  0.00     3.380 A  
HETATM   25 BR   UNL     3      -8.823  20.464  72.389  1.00  0.00     3.429 Br 
HETATM   26  O   UNL     3     -10.112  17.890  71.359  1.00  0.00     3.453 OA 
HETATM   27  C   UNL     3     -10.897  16.822  71.016  1.00  0.00     0.765 A  
HETATM   28  C   UNL     3     -10.721  16.166  69.805  1.00  0.00    -0.336 A  
HETATM   29  C   UNL     3     -11.521  15.055  69.545  1.00  0.00    -0.317 C  
HETATM   30  C   UNL     3     -12.518  14.650  70.449  1.00  0.00    -0.352 C  
HETATM   31 BR   UNL     3     -13.531  13.113  69.898  1.00  0.00     2.570 Br 
HETATM   32  C   UNL     3     -12.784  15.321  71.668  1.00  0.00    -0.384 C  
HETATM   33  C   UNL     3     -11.900  16.412  71.923  1.00  0.00    -0.361 C  
HETATM   34  O   UNL     3     -13.736  14.983  72.453  1.00  0.00    -0.403 OA 
HETATM   35 BR   UNL     3     -12.064  17.420  73.565  1.00  0.00     1.090 Br 
ENDBRANCH  14  16
TORSDOF 1
ENDMDL
MODEL      196
REMARK 921   NORMALIZED FREE ENERGY PREDICTED BY IDOCK:   73.25 KCAL/MOL
REMARK 922        TOTAL FREE ENERGY PREDICTED BY IDOCK:   76.78 KCAL/MOL
REMARK 923 INTER-LIGAND FREE ENERGY PREDICTED BY IDOCK:   42.37 KCAL/MOL
REMARK 924 INTRA-LIGAND FREE ENERGY PREDICTED BY IDOCK:   34.40 KCAL/MOL
REMARK 927      BINDING AFFINITY PREDICTED BY RF-SCORE:    0.00 PKD
ROOT
HETATM    1 NA   UNL     1     -11.060  17.318  71.479  1.00  0.00    -0.258 Na 
HETATM    2 NA   UNL     2     -10.221  12.403  70.817  1.00  0.00     1.101 Na 
HETATM    3  O   UNL     3     -10.653  14.196  70.068  1.00  0.00     0.179 OA 
HETATM    4  C   UNL     3     -10.901  15.177  69.284  1.00  0.00    -0.255 C  
HETATM    5  C   UNL     3     -10.977  14.933  67.800  1.00  0.00    -0.294 A  
HETATM    6  O   UNL     3     -11.109  16.344  69.754  1.00  0.00    -0.338 OA 
HETATM    7  C   UNL     3     -11.619  13.780  67.288  1.00  0.00    -0.361 A  
HETATM    8 CL   UNL     3     -12.382  12.634  68.369  1.00  0.00     0.091 Cl 
HETATM    9  C   UNL     3     -11.683  13.539  65.896  1.00  0.00    -0.352 A  
HETATM   10 CL   UNL     3     -12.470  12.099  65.297  1.00  0.00    -0.124 Cl 
HETATM   11  C   UNL     3     -11.124  14.452  64.991  1.00  0.00    -0.380 A  
HETATM   12  C   UNL     3     -10.489  15.606  65.475  1.00  0.00    -0.404 A  
HETATM   13 CL   UNL     3     -11.222  14.158  63.276  1.00  0.00     1.410 Cl 
HETATM   14  C   UNL     3     -10.404  15.851  66.871  1.00  0.00    -0.291 A  
HETATM   15 CL   UNL     3      -9.799  16.753  64.355  1.00  0.00     3.008 Cl 
ENDROOT
BRANCH  14  16
HETATM   16  C   UNL     3      -9.639  17.053  67.349  1.00  0.00    -0.246 A  
HETATM   17  C   UNL     3      -9.897  17.606  68.566  1.00  0.00    -0.346 A  
HETATM   18  C   UNL     3     -10.955  17.089  69.435  1.00  0.00     0.031 C  
HETATM   19  C   UNL     3     -11.129  17.521  70.693  1.00  0.00     1.684 C  
HETATM   20 BR   UNL     3     -12.428  16.781  71.805  1.00  0.00     2.159 Br 
HETATM   21  C   UNL     3     -10.224  18.577  71.248  1.00  0.00     3.422 C  
HETATM   22  O   UNL     3     -10.258  18.872  72.448  1.00  0.00     2.913 OA 
HETATM   23  C   UNL     3      -9.248  19.213  70.313  1.00  0.00     1.557 C  
HETATM   24  C   UNL     3      -9.093  18.735  69.056  1.00  0.00    -0.122 A  
HETATM   25 BR   UNL     3      -8.207  20.614  70.993  1.00  0.00     3.097 Br 
HETATM   26  O   UNL     3      -8.122  19.289  68.239  1.00  0.00    -0.306 OA 
HETATM   27  C   UNL     3      -7.835  18.739  67.018  1.00  0.00    -0.240 A  
HETATM   28  C   UNL     3      -8.566  17.665  66.529  1.00  0.00    -0.287 A  
HETATM   29  C   UNL     3      -8.251  17.189  65.258  1.00  0.00     2.110 C  
HETATM   30  C   UNL     3      -7.187  17.736  64.520  1.00  0.00     4.726 C  
HETATM   31 BR   UNL     3      -6.897  16.928  62.801  1.00  0.00    20.359 Br 
HETATM   32  C   UNL     3      -6.368  18.789  64.998  1.00  0.00    -0.194 C  
HETATM   33  C   UNL     3      -6.765  19.287  66.274  1.00  0.00    -0.207 C  
HETATM   34  O   UNL     3      -5.362  19.236  64.345  1.00  0.00    -0.179 OA 
HETATM   35 BR   UNL     3      -5.807  20.765  67.073  1.00  0.00    -0.293 Br 
ENDBRANCH  14  16
TORSDOF 1
ENDMDL
MODEL      197
REMARK 921   NORMALIZED FREE ENERGY PREDICTED BY IDOCK:   90.68 KCAL/MOL
REMARK 922        TOTAL FREE ENERGY PREDICTED BY IDOCK:   95.23 KCAL/MOL
REMARK 923 INTER-LIGAND FREE ENERGY PREDICTED BY IDOCK:   79.92 KCAL/MOL
REMARK 924 INTRA-LIGAND FREE ENERGY PREDICTED BY IDOCK:   15.30 KCAL/MOL
REMARK 927      BINDING AFFINITY PREDICTED BY RF-SCORE:    0.00 PKD
ROOT
HETATM    1 NA   UNL     1     -13.763   8.131  65.125  1.00  0.00    10.262 Na 
HETATM    2 NA   UNL     2     -11.051  12.073  63.574  1.00  0.00    -0.292 Na 
HETATM    3  O   UNL     3     -11.527  10.755  64.988  1.00  0.00     0.404 OA 
HETATM    4  C   UNL     3     -11.568  10.061  66.063  1.00  0.00     2.529 C  
HETATM    5  C   UNL     3     -10.634  10.400  67.194  1.00  0.00    -0.319 A  
HETATM    6  O   UNL     3     -12.408   9.111  66.188  1.00  0.00     7.397 OA 
HETATM    7  C   UNL     3     -10.377  11.748  67.542  1.00  0.00    -0.196 A  
HETATM    8 CL   UNL     3     -11.181  13.052  66.695  1.00  0.00    -0.324 Cl 
HETATM    9  C   UNL     3      -9.492  12.074  68.596  1.00  0.00    -0.062 A  
HETATM   10 CL   UNL     3      -9.187  13.748  68.991  1.00  0.00     0.142 Cl 
HETATM   11  C   UNL     3      -8.859  11.061  69.330  1.00  0.00     0.223 A  
HETATM   12  C   UNL     3      -9.103   9.717  69.008  1.00  0.00    -0.148 A  
HETATM   13 CL   UNL     3      -7.783  11.468  70.638  1.00  0.00     3.095 Cl 
HETATM   14  C   UNL     3      -9.979   9.378  67.943  1.00  0.00    -0.220 A  
HETATM   15 CL   UNL     3      -8.329   8.450  69.924  1.00  0.00    -0.122 Cl 
ENDROOT
BRANCH  14  16
HETATM   16  C   UNL     3     -10.142   7.930  67.574  1.00  0.00    -0.276 A  
HETATM   17  C   UNL     3      -9.985   6.951  68.508  1.00  0.00    -0.149 A  
HETATM   18  C   UNL     3      -9.606   7.259  69.887  1.00  0.00    -0.163 C  
HETATM   19  C   UNL     3      -9.588   6.330  70.854  1.00  0.00    -0.176 C  
HETATM   20 BR   UNL     3      -9.187   6.769  72.620  1.00  0.00    -0.154 Br 
HETATM   21  C   UNL     3      -9.961   4.915  70.531  1.00  0.00    -0.241 C  
HETATM   22  O   UNL     3     -10.111   4.081  71.432  1.00  0.00    -0.165 OA 
HETATM   23  C   UNL     3     -10.196   4.571  69.097  1.00  0.00     0.119 C  
HETATM   24  C   UNL     3     -10.220   5.543  68.156  1.00  0.00    -0.177 A  
HETATM   25 BR   UNL     3     -10.543   2.774  68.699  1.00  0.00     4.076 Br 
HETATM   26  O   UNL     3     -10.523   5.207  66.847  1.00  0.00    -0.242 OA 
HETATM   27  C   UNL     3     -10.702   6.176  65.897  1.00  0.00     0.893 A  
HETATM   28  C   UNL     3     -10.501   7.516  66.197  1.00  0.00     0.803 A  
HETATM   29  C   UNL     3     -10.652   8.443  65.167  1.00  0.00     4.333 C  
HETATM   30  C   UNL     3     -11.057   8.042  63.883  1.00  0.00    15.235 C  
HETATM   31 BR   UNL     3     -11.231   9.471  62.609  1.00  0.00     7.869 Br 
HETATM   32  C   UNL     3     -11.339   6.697  63.539  1.00  0.00    14.418 C  
HETATM   33  C   UNL     3     -11.110   5.776  64.604  1.00  0.00     4.104 C  
HETATM   34  O   UNL     3     -11.769   6.351  62.384  1.00  0.00     6.500 OA 
HETATM   35 BR   UNL     3     -11.382   3.883  64.316  1.00  0.00     0.944 Br 
ENDBRANCH  14  16
TORSDOF 1
ENDMDL
MODEL      198
REMARK 921   NORMALIZED FREE ENERGY PREDICTED BY IDOCK:   99.28 KCAL/MOL
REMARK 922        TOTAL FREE ENERGY PREDICTED BY IDOCK:  104.33 KCAL/MOL
REMARK 923 INTER-LIGAND FREE ENERGY PREDICTED BY IDOCK:   75.42 KCAL/MOL
REMARK 924 INTRA-LIGAND FREE ENERGY PREDICTED BY IDOCK:   28.91 KCAL/MOL
REMARK 927      BINDING AFFINITY PREDICTED BY RF-SCORE:    0.00 PKD
ROOT
HETATM    1 NA   UNL     1     -11.065  16.965  64.757  1.00  0.00    -0.392 Na 
HETATM    2 NA   UNL     2     -12.407  12.641  62.565  1.00  0.00    -0.549 Na 
HETATM    3  O   UNL     3     -11.316  13.632  63.903  1.00  0.00    -0.287 OA 
HETATM    4  C   UNL     3     -10.522  13.945  64.857  1.00  0.00    -0.426 C  
HETATM    5  C   UNL     3      -9.763  12.858  65.571  1.00  0.00    -0.076 A  
HETATM    6  O   UNL     3     -10.352  15.165  65.183  1.00  0.00    -0.379 OA 
HETATM    7  C   UNL     3      -9.193  11.781  64.851  1.00  0.00     0.154 A  
HETATM    8 CL   UNL     3      -9.315  11.715  63.107  1.00  0.00    -0.272 Cl 
HETATM    9  C   UNL     3      -8.489  10.750  65.517  1.00  0.00    -0.153 A  
HETATM   10 CL   UNL     3      -7.809   9.428  64.601  1.00  0.00    -0.114 Cl 
HETATM   11  C   UNL     3      -8.329  10.785  66.910  1.00  0.00    -0.132 A  
HETATM   12  C   UNL     3      -8.880  11.847  67.644  1.00  0.00    -0.169 A  
HETATM   13 CL   UNL     3      -7.446   9.522  67.722  1.00  0.00    -0.084 Cl 
HETATM   14  C   UNL     3      -9.601  12.879  66.988  1.00  0.00    -0.231 A  
HETATM   15 CL   UNL     3      -8.676  11.903  69.375  1.00  0.00     0.705 Cl 
ENDROOT
BRANCH  14  16
HETATM   16  C   UNL     3     -10.249  13.949  67.821  1.00  0.00    -0.237 A  
HETATM   17  C   UNL     3     -11.132  14.825  67.267  1.00  0.00    -0.334 A  
HETATM   18  C   UNL     3     -11.449  14.795  65.838  1.00  0.00    -0.319 C  
HETATM   19  C   UNL     3     -12.420  15.548  65.300  1.00  0.00     0.815 C  
HETATM   20 BR   UNL     3     -12.861  15.423  63.494  1.00  0.00     2.378 Br 
HETATM   21  C   UNL     3     -13.218  16.467  66.174  1.00  0.00     6.764 C  
HETATM   22  O   UNL     3     -14.220  17.045  65.734  1.00  0.00     9.739 OA 
HETATM   23  C   UNL     3     -12.791  16.612  67.598  1.00  0.00     3.954 C  
HETATM   24  C   UNL     3     -11.818  15.820  68.104  1.00  0.00    -0.044 A  
HETATM   25 BR   UNL     3     -13.725  17.854  68.643  1.00  0.00    13.361 Br 
HETATM   26  O   UNL     3     -11.501  15.918  69.448  1.00  0.00    -0.317 OA 
HETATM   27  C   UNL     3     -10.629  15.037  70.030  1.00  0.00    -0.154 A  
HETATM   28  C   UNL     3      -9.973  14.076  69.272  1.00  0.00     0.173 A  
HETATM   29  C   UNL     3      -9.061  13.247  69.921  1.00  0.00     2.659 C  
HETATM   30  C   UNL     3      -8.858  13.335  71.309  1.00  0.00    11.562 C  
HETATM   31 BR   UNL     3      -7.580  12.089  72.019  1.00  0.00    13.037 Br 
HETATM   32  C   UNL     3      -9.548  14.252  72.140  1.00  0.00     7.253 C  
HETATM   33  C   UNL     3     -10.423  15.124  71.425  1.00  0.00     0.740 C  
HETATM   34  O   UNL     3      -9.403  14.281  73.412  1.00  0.00     6.456 OA 
HETATM   35 BR   UNL     3     -11.412  16.486  72.375  1.00  0.00     0.336 Br 
ENDBRANCH  14  16
TORSDOF 1
ENDMDL
MODEL      199
REMARK 921   NORMALIZED FREE ENERGY PREDICTED BY IDOCK:   99.98 KCAL/MOL
REMARK 922        TOTAL FREE ENERGY PREDICTED BY IDOCK:  105.07 KCAL/MOL
REMARK 923 INTER-LIGAND FREE ENERGY PREDICTED BY IDOCK:   95.01 KCAL/MOL
REMARK 924 INTRA-LIGAND FREE ENERGY PREDICTED BY IDOCK:   10.06 KCAL/MOL
REMARK 927      BINDING AFFINITY PREDICTED BY RF-SCORE:    0.00 PKD
ROOT
HETATM    1 NA   UNL     1     -11.141  12.764  64.628  1.00  0.00    -0.281 Na 
HETATM    2 NA   UNL     2      -8.414  16.990  64.566  1.00  0.00     1.789 Na 
HETATM    3  O   UNL     3      -9.801  15.843  65.417  1.00  0.00    -0.401 OA 
HETATM    4  C   UNL     3     -10.677  15.352  66.211  1.00  0.00    -0.312 C  
HETATM    5  C   UNL     3     -11.060  16.119  67.450  1.00  0.00    -0.134 A  
HETATM    6  O   UNL     3     -11.241  14.241  65.945  1.00  0.00    -0.309 OA 
HETATM    7  C   UNL     3     -11.232  17.523  67.408  1.00  0.00     0.294 A  
HETATM    8 CL   UNL     3     -11.051  18.396  65.902  1.00  0.00     0.231 Cl 
HETATM    9  C   UNL     3     -11.580  18.250  68.571  1.00  0.00     2.155 A  
HETATM   10 CL   UNL     3     -11.771  19.984  68.488  1.00  0.00     2.309 Cl 
HETATM   11  C   UNL     3     -11.777  17.587  69.790  1.00  0.00     3.040 A  
HETATM   12  C   UNL     3     -11.619  16.194  69.854  1.00  0.00    -0.239 A  
HETATM   13 CL   UNL     3     -12.222  18.485  71.215  1.00  0.00    10.327 Cl 
HETATM   14  C   UNL     3     -11.255  15.455  68.697  1.00  0.00    -0.312 A  
HETATM   15 CL   UNL     3     -11.873  15.359  71.365  1.00  0.00    -0.393 Cl 
ENDROOT
BRANCH  14  16
HETATM   16  C   UNL     3     -11.010  13.979  68.830  1.00  0.00    -0.283 A  
HETATM   17  C   UNL     3     -11.571  13.097  67.957  1.00  0.00    -0.371 A  
HETATM   18  C   UNL     3     -12.469  13.539  66.890  1.00  0.00    -0.162 C  
HETATM   19  C   UNL     3     -12.914  12.711  65.933  1.00  0.00     1.186 C  
HETATM   20 BR   UNL     3     -13.985  13.324  64.536  1.00  0.00     4.224 Br 
HETATM   21  C   UNL     3     -12.496  11.273  65.942  1.00  0.00     3.055 C  
HETATM   22  O   UNL     3     -12.758  10.533  64.986  1.00  0.00     4.381 OA 
HETATM   23  C   UNL     3     -11.709  10.788  67.116  1.00  0.00     0.655 C  
HETATM   24  C   UNL     3     -11.266  11.662  68.050  1.00  0.00    -0.263 A  
HETATM   25 BR   UNL     3     -11.297   8.962  67.168  1.00  0.00     1.754 Br 
HETATM   26  O   UNL     3     -10.468  11.197  69.081  1.00  0.00    -0.213 OA 
HETATM   27  C   UNL     3      -9.880  12.067  69.960  1.00  0.00     2.435 A  
HETATM   28  C   UNL     3     -10.136  13.430  69.895  1.00  0.00     1.569 A  
HETATM   29  C   UNL     3      -9.543  14.250  70.853  1.00  0.00     3.415 C  
HETATM   30  C   UNL     3      -8.664  13.725  71.815  1.00  0.00    10.584 C  
HETATM   31 BR   UNL     3      -7.931  15.019  73.032  1.00  0.00     9.468 Br 
HETATM   32  C   UNL     3      -8.317  12.353  71.887  1.00  0.00    17.140 C  
HETATM   33  C   UNL     3      -8.995  11.541  70.929  1.00  0.00     7.237 C  
HETATM   34  O   UNL     3      -7.466  11.895  72.727  1.00  0.00    11.015 OA 
HETATM   35 BR   UNL     3      -8.700   9.631  70.904  1.00  0.00     0.425 Br 
ENDBRANCH  14  16
TORSDOF 1
ENDMDL
MODEL      200
REMARK 921   NORMALIZED FREE ENERGY PREDICTED BY IDOCK:  105.14 KCAL/MOL
REMARK 922        TOTAL FREE ENERGY PREDICTED BY IDOCK:  110.53 KCAL/MOL
REMARK 923 INTER-LIGAND FREE ENERGY PREDICTED BY IDOCK:   90.28 KCAL/MOL
REMARK 924 INTRA-LIGAND FREE ENERGY PREDICTED BY IDOCK:   20.25 KCAL/MOL
REMARK 927      BINDING AFFINITY PREDICTED BY RF-SCORE:    0.00 PKD
ROOT
HETATM    1 NA   UNL     1      -9.067  10.629  64.351  1.00  0.00    -0.160 Na 
HETATM    2 NA   UNL     2      -7.624  15.167  62.730  1.00  0.00    11.567 Na 
HETATM    3  O   UNL     3      -8.846  14.030  63.814  1.00  0.00     5.404 OA 
HETATM    4  C   UNL     3      -9.751  13.610  64.617  1.00  0.00     0.392 C  
HETATM    5  C   UNL     3     -10.649  14.607  65.301  1.00  0.00    -0.409 A  
HETATM    6  O   UNL     3      -9.911  12.361  64.816  1.00  0.00    -0.192 OA 
HETATM    7  C   UNL     3     -11.161  15.723  64.596  1.00  0.00    -0.361 A  
HETATM    8 CL   UNL     3     -10.799  15.943  62.898  1.00  0.00     6.220 Cl 
HETATM    9  C   UNL     3     -11.995  16.669  65.236  1.00  0.00     1.749 A  
HETATM   10 CL   UNL     3     -12.598  18.043  64.342  1.00  0.00     8.726 Cl 
HETATM   11  C   UNL     3     -12.347  16.509  66.584  1.00  0.00     3.008 A  
HETATM   12  C   UNL     3     -11.857  15.406  67.301  1.00  0.00     0.142 A  
HETATM   13 CL   UNL     3     -13.388  17.669  67.362  1.00  0.00     7.560 Cl 
HETATM   14  C   UNL     3     -11.007  14.458  66.673  1.00  0.00    -0.318 A  
HETATM   15 CL   UNL     3     -12.298  15.194  68.975  1.00  0.00    -0.129 Cl 
ENDROOT
BRANCH  14  16
HETATM   16  C   UNL     3     -10.434  13.342  67.501  1.00  0.00    -0.236 A  
HETATM   17  C   UNL     3     -10.106  13.540  68.808  1.00  0.00    -0.111 A  
HETATM   18  C   UNL     3     -10.249  14.849  69.446  1.00  0.00    -0.180 C  
HETATM   19  C   UNL     3     -10.072  15.032  70.762  1.00  0.00     0.713 C  
HETATM   20 BR   UNL     3     -10.349  16.694  71.560  1.00  0.00     3.292 Br 
HETATM   21  C   UNL     3      -9.707  13.868  71.632  1.00  0.00     7.824 C  
HETATM   22  O   UNL     3      -9.700  13.978  72.864  1.00  0.00     6.694 OA 
HETATM   23  C   UNL     3      -9.409  12.568  70.959  1.00  0.00    10.928 C  
HETATM   24  C   UNL     3      -9.617  12.423  69.629  1.00  0.00     1.736 A  
HETATM   25 BR   UNL     3      -8.838  11.157  72.049  1.00  0.00    14.519 Br 
HETATM   26  O   UNL     3      -9.413  11.184  69.047  1.00  0.00    -0.159 OA 
HETATM   27  C   UNL     3      -9.751  10.958  67.740  1.00  0.00    -0.168 A  
HETATM   28  C   UNL     3     -10.228  11.986  66.938  1.00  0.00    -0.230 A  
HETATM   29  C   UNL     3     -10.504  11.695  65.603  1.00  0.00    -0.314 C  
HETATM   30  C   UNL     3     -10.366  10.391  65.100  1.00  0.00    -0.190 C  
HETATM   31 BR   UNL     3     -10.819  10.189  63.244  1.00  0.00     2.906 Br 
HETATM   32  C   UNL     3      -9.947   9.292  65.890  1.00  0.00    -0.219 C  
HETATM   33  C   UNL     3      -9.614   9.646  67.231  1.00  0.00    -0.164 C  
HETATM   34  O   UNL     3      -9.887   8.095  65.438  1.00  0.00     0.579 OA 
HETATM   35 BR   UNL     3      -8.964   8.295  68.452  1.00  0.00    -0.135 Br 
ENDBRANCH  14  16
TORSDOF 1
ENDMDL
MODEL      201
REMARK 921   NORMALIZED FREE ENERGY PREDICTED BY IDOCK:  112.23 KCAL/MOL
REMARK 922        TOTAL FREE ENERGY PREDICTED BY IDOCK:  118.04 KCAL/MOL
REMARK 923 INTER-LIGAND FREE ENERGY PREDICTED BY IDOCK:   79.76 KCAL/MOL
REMARK 924 INTRA-LIGAND FREE ENERGY PREDICTED BY IDOCK:   38.29 KCAL/MOL
REMARK 927      BINDING AFFINITY PREDICTED BY RF-SCORE:    0.00 PKD
ROOT
HETATM    1 NA   UNL     1     -10.151  18.366  72.967  1.00  0.00     1.845 Na 
HETATM    2 NA   UNL     2     -10.107  13.339  72.810  1.00  0.00     5.330 Na 
HETATM    3  O   UNL     3     -10.453  15.090  71.929  1.00  0.00     0.602 OA 
HETATM    4  C   UNL     3     -10.731  16.011  71.085  1.00  0.00     0.409 C  
HETATM    5  C   UNL     3     -11.148  15.630  69.689  1.00  0.00    -0.299 A  
HETATM    6  O   UNL     3     -10.685  17.238  71.427  1.00  0.00     1.272 OA 
HETATM    7  C   UNL     3     -12.024  14.541  69.467  1.00  0.00    -0.319 A  
HETATM    8 CL   UNL     3     -12.685  13.643  70.816  1.00  0.00    -0.368 Cl 
HETATM    9  C   UNL     3     -12.410  14.171  68.157  1.00  0.00     0.028 A  
HETATM   10 CL   UNL     3     -13.483  12.813  67.917  1.00  0.00     5.390 Cl 
HETATM   11  C   UNL     3     -11.940  14.889  67.048  1.00  0.00    -0.107 A  
HETATM   12  C   UNL     3     -11.074  15.977  67.245  1.00  0.00    -0.131 A  
HETATM   13 CL   UNL     3     -12.431  14.438  65.439  1.00  0.00    -0.389 Cl 
HETATM   14  C   UNL     3     -10.669  16.349  68.554  1.00  0.00    -0.320 A  
HETATM   15 CL   UNL     3     -10.493  16.883  65.872  1.00  0.00    -0.337 Cl 
ENDROOT
BRANCH  14  16
HETATM   16  C   UNL     3      -9.673  17.462  68.712  1.00  0.00    -0.282 A  
HETATM   17  C   UNL     3      -9.107  18.053  67.623  1.00  0.00    -0.255 A  
HETATM   18  C   UNL     3      -9.404  17.600  66.263  1.00  0.00    -0.217 C  
HETATM   19  C   UNL     3      -8.975  18.257  65.176  1.00  0.00     2.573 C  
HETATM   20 BR   UNL     3      -9.444  17.707  63.458  1.00  0.00    17.562 Br 
HETATM   21  C   UNL     3      -8.152  19.499  65.334  1.00  0.00     0.573 C  
HETATM   22  O   UNL     3      -7.886  20.209  64.357  1.00  0.00     0.659 OA 
HETATM   23  C   UNL     3      -7.720  19.871  66.715  1.00  0.00    -0.290 C  
HETATM   24  C   UNL     3      -8.190  19.190  67.785  1.00  0.00    -0.286 A  
HETATM   25 BR   UNL     3      -6.594  21.358  66.881  1.00  0.00    -0.151 Br 
HETATM   26  O   UNL     3      -7.839  19.610  69.057  1.00  0.00    -0.342 OA 
HETATM   27  C   UNL     3      -8.408  19.042  70.166  1.00  0.00     1.565 A  
HETATM   28  C   UNL     3      -9.287  17.974  70.049  1.00  0.00     1.672 A  
HETATM   29  C   UNL     3      -9.789  17.413  71.222  1.00  0.00     5.011 C  
HETATM   30  C   UNL     3      -9.467  17.951  72.480  1.00  0.00    11.558 C  
HETATM   31 BR   UNL     3     -10.277  17.053  73.974  1.00  0.00     9.875 Br 
HETATM   32  C   UNL     3      -8.627  19.079  72.653  1.00  0.00     8.131 C  
HETATM   33  C   UNL     3      -8.086  19.581  71.432  1.00  0.00     3.433 C  
HETATM   34  O   UNL     3      -8.392  19.600  73.799  1.00  0.00     3.265 OA 
HETATM   35 BR   UNL     3      -6.870  21.083  71.463  1.00  0.00     3.099 Br 
ENDBRANCH  14  16
TORSDOF 1
ENDMDL
