MODEL        1
REMARK 921   NORMALIZED FREE ENERGY PREDICTED BY IDOCK:   -5.83 KCAL/MOL
REMARK 922        TOTAL FREE ENERGY PREDICTED BY IDOCK:  -11.69 KCAL/MOL
REMARK 923 INTER-LIGAND FREE ENERGY PREDICTED BY IDOCK:  -10.60 KCAL/MOL
REMARK 924 INTRA-LIGAND FREE ENERGY PREDICTED BY IDOCK:   -1.09 KCAL/MOL
REMARK 927      BINDING AFFINITY PREDICTED BY RF-SCORE:    0.00 PKD
ROOT
HETATM    1  C   UNK     1     -12.606  12.004  63.331  1.00  0.00    -0.592 C  
HETATM    2  C   UNK     1     -12.069  12.899  64.439  1.00  0.00    -0.474 C  
ENDROOT
BRANCH   2   3
HETATM    3  C   UNK     1     -11.062  12.182  65.333  1.00  0.00    -0.362 C  
BRANCH   3   4
HETATM    4  C   UNK     1     -11.620  11.977  66.718  1.00  0.00    -0.321 C  
HETATM    5  O   UNK     1     -11.589  10.913  67.320  1.00  0.00    -0.475 OA 
BRANCH   4   6
HETATM    6  O   UNK     1     -12.182  13.121  67.178  1.00  0.00    -0.326 OA 
BRANCH   6   7
HETATM    7  C   UNK     1     -11.463  13.915  68.151  1.00  0.00    -0.312 C  
BRANCH   7   8
HETATM    8  C   UNK     1     -11.351  15.394  67.759  1.00  0.00    -0.306 C  
BRANCH   8   9
HETATM    9  O   UNK     1     -10.933  15.542  66.402  1.00  0.00    -0.309 OA 
BRANCH   9  10
HETATM   10  P   UNK     1     -10.502  17.165  65.985  1.00  0.00    -0.075 P  
HETATM   11  O   UNK     1      -8.926  16.761  65.823  1.00  0.00    -0.508 OA 
HETATM   12  O   UNK     1     -11.159  16.978  64.615  1.00  0.00    -0.997 OA 
BRANCH  10  13
HETATM   13  O   UNK     1     -10.071  18.788  65.568  1.00  0.00    -0.401 OA 
BRANCH  13  14
HETATM   14  C   UNK     1     -10.637  19.754  66.465  1.00  0.00    -0.467 C  
BRANCH  14  15
HETATM   15  C   UNK     1      -9.557  20.412  67.326  1.00  0.00    -0.452 C  
HETATM   16  N   UNK     1      -8.219  20.441  66.665  1.00  0.00    -0.514 NA 
HETATM   17  C   UNK     1      -9.445  19.614  68.623  1.00  0.00    -0.348 C  
HETATM   18  O   UNK     1      -8.396  18.751  68.582  1.00  0.00    -0.332 OA 
HETATM   19  O   UNK     1     -10.224  19.692  69.560  1.00  0.00    -0.270 OA 
HETATM   20  H1  UNK     1      -7.500  20.880  67.240  1.00  0.00     0.000 HD 
HETATM   21  H2  UNK     1      -8.276  20.887  65.750  1.00  0.00     0.000 HD 
ENDBRANCH  14  15
ENDBRANCH  13  14
ENDBRANCH  10  13
ENDBRANCH   9  10
ENDBRANCH   8   9
ENDBRANCH   7   8
BRANCH   7  22
HETATM   22  C   UNK     1     -12.046  13.745  69.566  1.00  0.00    -0.334 C  
BRANCH  22  23
HETATM   23  O   UNK     1     -11.616  14.798  70.449  1.00  0.00    -0.263 OA 
BRANCH  23  24
HETATM   24  C   UNK     1     -12.560  15.231  71.330  1.00  0.00    -0.375 C  
HETATM   25  O   UNK     1     -13.675  15.616  71.021  1.00  0.00    -0.582 OA 
BRANCH  24  26
HETATM   26  C   UNK     1     -12.021  15.140  72.739  1.00  0.00    -0.482 C  
HETATM   27  C   UNK     1     -12.860  15.958  73.704  1.00  0.00    -0.717 C  
ENDBRANCH  24  26
ENDBRANCH  23  24
ENDBRANCH  22  23
ENDBRANCH   7  22
ENDBRANCH   6   7
ENDBRANCH   4   6
ENDBRANCH   3   4
ENDBRANCH   2   3
TORSDOF 14
ENDMDL
MODEL        2
REMARK 921   NORMALIZED FREE ENERGY PREDICTED BY IDOCK:   -5.60 KCAL/MOL
REMARK 922        TOTAL FREE ENERGY PREDICTED BY IDOCK:  -11.28 KCAL/MOL
REMARK 923 INTER-LIGAND FREE ENERGY PREDICTED BY IDOCK:  -10.32 KCAL/MOL
REMARK 924 INTRA-LIGAND FREE ENERGY PREDICTED BY IDOCK:   -0.96 KCAL/MOL
REMARK 927      BINDING AFFINITY PREDICTED BY RF-SCORE:    0.00 PKD
ROOT
HETATM    1  C   UNK     1     -11.186   9.723  71.434  1.00  0.00    -0.368 C  
HETATM    2  C   UNK     1     -12.327  10.311  70.615  1.00  0.00    -0.416 C  
ENDROOT
BRANCH   2   3
HETATM    3  C   UNK     1     -11.950  11.631  69.951  1.00  0.00    -0.414 C  
BRANCH   3   4
HETATM    4  C   UNK     1     -11.220  11.394  68.654  1.00  0.00    -0.243 C  
HETATM    5  O   UNK     1     -10.097  10.914  68.575  1.00  0.00    -0.169 OA 
BRANCH   4   6
HETATM    6  O   UNK     1     -11.967  11.813  67.604  1.00  0.00    -0.599 OA 
BRANCH   6   7
HETATM    7  C   UNK     1     -12.034  13.228  67.311  1.00  0.00    -0.343 C  
BRANCH   7   8
HETATM    8  C   UNK     1     -10.696  13.950  67.514  1.00  0.00    -0.267 C  
BRANCH   8   9
HETATM    9  O   UNK     1     -10.057  14.224  66.266  1.00  0.00    -0.278 OA 
BRANCH   9  10
HETATM   10  P   UNK     1      -9.695  15.899  66.027  1.00  0.00    -0.357 P  
HETATM   11  O   UNK     1     -10.742  16.000  64.775  1.00  0.00    -0.611 OA 
HETATM   12  O   UNK     1     -10.477  16.239  67.297  1.00  0.00    -0.294 OA 
BRANCH  10  13
HETATM   13  O   UNK     1      -9.334  17.574  65.788  1.00  0.00    -0.515 OA 
BRANCH  13  14
HETATM   14  C   UNK     1     -10.400  18.432  66.219  1.00  0.00    -0.415 C  
BRANCH  14  15
HETATM   15  C   UNK     1      -9.864  19.777  66.713  1.00  0.00    -0.411 C  
HETATM   16  N   UNK     1      -8.733  20.295  65.889  1.00  0.00    -0.552 NA 
HETATM   17  C   UNK     1      -9.378  19.587  68.147  1.00  0.00    -0.350 C  
HETATM   18  O   UNK     1      -8.028  19.427  68.194  1.00  0.00    -0.296 OA 
HETATM   19  O   UNK     1     -10.101  19.529  69.129  1.00  0.00    -0.424 OA 
HETATM   20  H1  UNK     1      -8.375  21.192  66.218  1.00  0.00     0.000 HD 
HETATM   21  H2  UNK     1      -8.994  20.347  64.904  1.00  0.00     0.000 HD 
ENDBRANCH  14  15
ENDBRANCH  13  14
ENDBRANCH  10  13
ENDBRANCH   9  10
ENDBRANCH   8   9
ENDBRANCH   7   8
BRANCH   7  22
HETATM   22  C   UNK     1     -12.614  13.491  65.908  1.00  0.00    -0.396 C  
BRANCH  22  23
HETATM   23  O   UNK     1     -12.378  12.383  65.019  1.00  0.00    -0.475 OA 
BRANCH  23  24
HETATM   24  C   UNK     1     -12.015  12.729  63.753  1.00  0.00    -0.510 C  
HETATM   25  O   UNK     1     -12.583  13.566  63.072  1.00  0.00    -0.716 OA 
BRANCH  24  26
HETATM   26  C   UNK     1     -10.798  11.936  63.337  1.00  0.00    -0.469 C  
HETATM   27  C   UNK     1     -10.410  10.923  64.399  1.00  0.00    -0.430 C  
ENDBRANCH  24  26
ENDBRANCH  23  24
ENDBRANCH  22  23
ENDBRANCH   7  22
ENDBRANCH   6   7
ENDBRANCH   4   6
ENDBRANCH   3   4
ENDBRANCH   2   3
TORSDOF 14
ENDMDL
MODEL        3
REMARK 921   NORMALIZED FREE ENERGY PREDICTED BY IDOCK:   -5.58 KCAL/MOL
REMARK 922        TOTAL FREE ENERGY PREDICTED BY IDOCK:  -11.24 KCAL/MOL
REMARK 923 INTER-LIGAND FREE ENERGY PREDICTED BY IDOCK:  -10.32 KCAL/MOL
REMARK 924 INTRA-LIGAND FREE ENERGY PREDICTED BY IDOCK:   -0.92 KCAL/MOL
REMARK 927      BINDING AFFINITY PREDICTED BY RF-SCORE:    0.00 PKD
ROOT
HETATM    1  C   UNK     1      -9.670  10.125  64.786  1.00  0.00    -0.389 C  
HETATM    2  C   UNK     1     -10.164  10.997  63.640  1.00  0.00    -0.431 C  
ENDROOT
BRANCH   2   3
HETATM    3  C   UNK     1     -10.716  12.335  64.121  1.00  0.00    -0.412 C  
BRANCH   3   4
HETATM    4  C   UNK     1     -12.210  12.270  64.302  1.00  0.00    -0.425 C  
HETATM    5  O   UNK     1     -12.992  11.910  63.432  1.00  0.00    -0.730 OA 
BRANCH   4   6
HETATM    6  O   UNK     1     -12.559  12.693  65.541  1.00  0.00    -0.634 OA 
BRANCH   6   7
HETATM    7  C   UNK     1     -11.540  12.783  66.565  1.00  0.00    -0.376 C  
BRANCH   7   8
HETATM    8  C   UNK     1     -11.286  14.220  67.038  1.00  0.00    -0.341 C  
BRANCH   8   9
HETATM    9  O   UNK     1     -11.695  15.172  66.056  1.00  0.00    -0.177 OA 
BRANCH   9  10
HETATM   10  P   UNK     1     -10.646  16.543  65.942  1.00  0.00    -0.128 P  
HETATM   11  O   UNK     1      -9.334  15.588  65.732  1.00  0.00    -0.332 OA 
HETATM   12  O   UNK     1     -11.209  16.846  64.552  1.00  0.00    -1.057 OA 
BRANCH  10  13
HETATM   13  O   UNK     1      -9.596  17.913  65.827  1.00  0.00    -0.514 OA 
BRANCH  13  14
HETATM   14  C   UNK     1     -10.296  19.156  65.992  1.00  0.00    -0.463 C  
BRANCH  14  15
HETATM   15  C   UNK     1      -9.471  20.153  66.809  1.00  0.00    -0.403 C  
HETATM   16  N   UNK     1      -8.063  20.278  66.330  1.00  0.00    -0.507 NA 
HETATM   17  C   UNK     1      -9.454  19.669  68.256  1.00  0.00    -0.368 C  
HETATM   18  O   UNK     1      -8.299  19.011  68.544  1.00  0.00    -0.329 OA 
HETATM   19  O   UNK     1     -10.374  19.800  69.048  1.00  0.00    -0.368 OA 
HETATM   20  H1  UNK     1      -7.513  20.943  66.875  1.00  0.00     0.000 HD 
HETATM   21  H2  UNK     1      -8.036  20.511  65.337  1.00  0.00     0.000 HD 
ENDBRANCH  14  15
ENDBRANCH  13  14
ENDBRANCH  10  13
ENDBRANCH   9  10
ENDBRANCH   8   9
ENDBRANCH   7   8
BRANCH   7  22
HETATM   22  C   UNK     1     -11.837  11.840  67.746  1.00  0.00    -0.196 C  
BRANCH  22  23
HETATM   23  O   UNK     1     -11.228  12.306  68.964  1.00  0.00    -0.243 OA 
BRANCH  23  24
HETATM   24  C   UNK     1     -12.036  12.272  70.061  1.00  0.00    -0.304 C  
HETATM   25  O   UNK     1     -12.446  11.253  70.589  1.00  0.00    -0.342 OA 
BRANCH  24  26
HETATM   26  C   UNK     1     -12.323  13.681  70.526  1.00  0.00    -0.425 C  
HETATM   27  C   UNK     1     -13.397  13.699  71.599  1.00  0.00    -0.424 C  
ENDBRANCH  24  26
ENDBRANCH  23  24
ENDBRANCH  22  23
ENDBRANCH   7  22
ENDBRANCH   6   7
ENDBRANCH   4   6
ENDBRANCH   3   4
ENDBRANCH   2   3
TORSDOF 14
ENDMDL
MODEL        4
REMARK 921   NORMALIZED FREE ENERGY PREDICTED BY IDOCK:   -5.53 KCAL/MOL
REMARK 922        TOTAL FREE ENERGY PREDICTED BY IDOCK:  -11.14 KCAL/MOL
REMARK 923 INTER-LIGAND FREE ENERGY PREDICTED BY IDOCK:  -10.13 KCAL/MOL
REMARK 924 INTRA-LIGAND FREE ENERGY PREDICTED BY IDOCK:   -1.02 KCAL/MOL
REMARK 927      BINDING AFFINITY PREDICTED BY RF-SCORE:    0.00 PKD
ROOT
HETATM    1  C   UNK     1     -12.541  16.170  74.177  1.00  0.00    -0.669 C  
HETATM    2  C   UNK     1     -12.217  14.962  73.310  1.00  0.00    -0.439 C  
ENDROOT
BRANCH   2   3
HETATM    3  C   UNK     1     -11.764  15.355  71.907  1.00  0.00    -0.511 C  
BRANCH   3   4
HETATM    4  C   UNK     1     -12.914  15.308  70.935  1.00  0.00    -0.462 C  
HETATM    5  O   UNK     1     -14.020  14.858  71.201  1.00  0.00    -0.406 OA 
BRANCH   4   6
HETATM    6  O   UNK     1     -12.539  15.801  69.730  1.00  0.00    -0.203 OA 
BRANCH   6   7
HETATM    7  C   UNK     1     -11.542  15.090  68.959  1.00  0.00    -0.319 C  
BRANCH   7   8
HETATM    8  C   UNK     1     -11.920  13.627  68.690  1.00  0.00    -0.360 C  
BRANCH   8   9
HETATM    9  O   UNK     1     -10.796  12.761  68.852  1.00  0.00    -0.238 OA 
BRANCH   9  10
HETATM   10  P   UNK     1     -10.247  12.056  67.370  1.00  0.00    -0.204 P  
HETATM   11  O   UNK     1      -9.467  10.860  68.167  1.00  0.00    -0.155 OA 
HETATM   12  O   UNK     1     -11.667  11.560  67.090  1.00  0.00    -0.567 OA 
BRANCH  10  13
HETATM   13  O   UNK     1      -9.698  11.352  65.889  1.00  0.00    -0.211 OA 
BRANCH  13  14
HETATM   14  C   UNK     1     -10.778  10.874  65.074  1.00  0.00    -0.146 C  
BRANCH  14  15
HETATM   15  C   UNK     1     -10.761  11.528  63.691  1.00  0.00    -0.424 C  
HETATM   16  N   UNK     1      -9.524  12.323  63.434  1.00  0.00    -0.646 NA 
HETATM   17  C   UNK     1     -11.968  12.458  63.600  1.00  0.00    -0.539 C  
HETATM   18  O   UNK     1     -11.614  13.750  63.831  1.00  0.00    -0.327 OA 
HETATM   19  O   UNK     1     -13.117  12.096  63.401  1.00  0.00    -0.752 OA 
HETATM   20  H1  UNK     1      -9.513  12.759  62.512  1.00  0.00     0.000 HD 
HETATM   21  H2  UNK     1      -8.690  11.754  63.578  1.00  0.00     0.000 HD 
ENDBRANCH  14  15
ENDBRANCH  13  14
ENDBRANCH  10  13
ENDBRANCH   9  10
ENDBRANCH   8   9
ENDBRANCH   7   8
BRANCH   7  22
HETATM   22  C   UNK     1     -11.192  15.835  67.658  1.00  0.00    -0.246 C  
BRANCH  22  23
HETATM   23  O   UNK     1     -10.280  16.923  67.897  1.00  0.00    -0.283 OA 
BRANCH  23  24
HETATM   24  C   UNK     1     -10.302  17.908  66.957  1.00  0.00    -0.362 C  
HETATM   25  O   UNK     1     -10.087  17.740  65.769  1.00  0.00    -0.555 OA 
BRANCH  24  26
HETATM   26  C   UNK     1     -10.651  19.227  67.608  1.00  0.00    -0.553 C  
HETATM   27  C   UNK     1      -9.931  20.382  66.936  1.00  0.00    -0.549 C  
ENDBRANCH  24  26
ENDBRANCH  23  24
ENDBRANCH  22  23
ENDBRANCH   7  22
ENDBRANCH   6   7
ENDBRANCH   4   6
ENDBRANCH   3   4
ENDBRANCH   2   3
TORSDOF 14
ENDMDL
MODEL        5
REMARK 921   NORMALIZED FREE ENERGY PREDICTED BY IDOCK:   -5.47 KCAL/MOL
REMARK 922        TOTAL FREE ENERGY PREDICTED BY IDOCK:  -11.03 KCAL/MOL
REMARK 923 INTER-LIGAND FREE ENERGY PREDICTED BY IDOCK:  -10.20 KCAL/MOL
REMARK 924 INTRA-LIGAND FREE ENERGY PREDICTED BY IDOCK:   -0.83 KCAL/MOL
REMARK 927      BINDING AFFINITY PREDICTED BY RF-SCORE:    0.00 PKD
ROOT
HETATM    1  C   UNK     1      -9.712  20.378  66.835  1.00  0.00    -0.567 C  
HETATM    2  C   UNK     1     -10.527  19.668  67.907  1.00  0.00    -0.556 C  
ENDROOT
BRANCH   2   3
HETATM    3  C   UNK     1      -9.668  18.784  68.805  1.00  0.00    -0.432 C  
BRANCH   3   4
HETATM    4  C   UNK     1      -9.619  17.371  68.285  1.00  0.00    -0.292 C  
HETATM    5  O   UNK     1      -8.604  16.689  68.241  1.00  0.00    -0.197 OA 
BRANCH   4   6
HETATM    6  O   UNK     1     -10.842  16.982  67.849  1.00  0.00    -0.357 OA 
BRANCH   6   7
HETATM    7  C   UNK     1     -11.544  15.939  68.566  1.00  0.00    -0.349 C  
BRANCH   7   8
HETATM    8  C   UNK     1     -11.569  14.603  67.813  1.00  0.00    -0.359 C  
BRANCH   8   9
HETATM    9  O   UNK     1     -11.455  14.797  66.403  1.00  0.00    -0.350 OA 
BRANCH   9  10
HETATM   10  P   UNK     1     -12.017  13.451  65.472  1.00  0.00    -0.456 P  
HETATM   11  O   UNK     1     -12.283  12.562  66.818  1.00  0.00    -0.532 OA 
HETATM   12  O   UNK     1     -13.310  14.212  65.171  1.00  0.00    -0.684 OA 
BRANCH  10  13
HETATM   13  O   UNK     1     -12.579  12.106  64.540  1.00  0.00    -0.391 OA 
BRANCH  13  14
HETATM   14  C   UNK     1     -11.598  11.638  63.604  1.00  0.00    -0.334 C  
BRANCH  14  15
HETATM   15  C   UNK     1     -10.192  11.680  64.206  1.00  0.00    -0.311 C  
HETATM   16  N   UNK     1      -9.130  11.955  63.194  1.00  0.00    -0.646 NA 
HETATM   17  C   UNK     1      -9.918  10.322  64.846  1.00  0.00    -0.323 C  
HETATM   18  O   UNK     1      -9.168   9.534  64.031  1.00  0.00    -0.219 OA 
HETATM   19  O   UNK     1     -10.357   9.956  65.926  1.00  0.00    -0.223 OA 
HETATM   20  H1  UNK     1      -8.193  11.983  63.596  1.00  0.00     0.000 HD 
HETATM   21  H2  UNK     1      -9.331  12.812  62.680  1.00  0.00     0.000 HD 
ENDBRANCH  14  15
ENDBRANCH  13  14
ENDBRANCH  10  13
ENDBRANCH   9  10
ENDBRANCH   8   9
ENDBRANCH   7   8
BRANCH   7  22
HETATM   22  C   UNK     1     -11.007  15.774  69.999  1.00  0.00    -0.338 C  
BRANCH  22  23
HETATM   23  O   UNK     1     -11.813  14.861  70.767  1.00  0.00    -0.277 OA 
BRANCH  23  24
HETATM   24  C   UNK     1     -12.302  15.366  71.933  1.00  0.00    -0.371 C  
HETATM   25  O   UNK     1     -11.988  16.444  72.409  1.00  0.00    -0.530 OA 
BRANCH  24  26
HETATM   26  C   UNK     1     -13.300  14.401  72.529  1.00  0.00    -0.578 C  
HETATM   27  C   UNK     1     -13.203  13.034  71.876  1.00  0.00    -0.527 C  
ENDBRANCH  24  26
ENDBRANCH  23  24
ENDBRANCH  22  23
ENDBRANCH   7  22
ENDBRANCH   6   7
ENDBRANCH   4   6
ENDBRANCH   3   4
ENDBRANCH   2   3
TORSDOF 14
ENDMDL
MODEL        6
REMARK 921   NORMALIZED FREE ENERGY PREDICTED BY IDOCK:   -5.46 KCAL/MOL
REMARK 922        TOTAL FREE ENERGY PREDICTED BY IDOCK:  -11.02 KCAL/MOL
REMARK 923 INTER-LIGAND FREE ENERGY PREDICTED BY IDOCK:  -10.01 KCAL/MOL
REMARK 924 INTRA-LIGAND FREE ENERGY PREDICTED BY IDOCK:   -1.01 KCAL/MOL
REMARK 927      BINDING AFFINITY PREDICTED BY RF-SCORE:    0.00 PKD
ROOT
HETATM    1  C   UNK     1     -12.418  12.340  63.550  1.00  0.00    -0.642 C  
HETATM    2  C   UNK     1     -11.906  13.555  64.311  1.00  0.00    -0.471 C  
ENDROOT
BRANCH   2   3
HETATM    3  C   UNK     1     -12.478  13.644  65.722  1.00  0.00    -0.524 C  
BRANCH   3   4
HETATM    4  C   UNK     1     -11.530  13.047  66.729  1.00  0.00    -0.345 C  
HETATM    5  O   UNK     1     -10.374  12.730  66.481  1.00  0.00    -0.245 OA 
BRANCH   4   6
HETATM    6  O   UNK     1     -12.146  12.883  67.924  1.00  0.00    -0.312 OA 
BRANCH   6   7
HETATM    7  C   UNK     1     -11.556  13.476  69.106  1.00  0.00    -0.310 C  
BRANCH   7   8
HETATM    8  C   UNK     1     -11.256  14.971  68.944  1.00  0.00    -0.277 C  
BRANCH   8   9
HETATM    9  O   UNK     1      -9.974  15.306  69.476  1.00  0.00    -0.238 OA 
BRANCH   9  10
HETATM   10  P   UNK     1      -9.383  16.842  68.943  1.00  0.00    -0.147 P  
HETATM   11  O   UNK     1      -8.880  16.214  67.519  1.00  0.00    -0.186 OA 
HETATM   12  O   UNK     1     -10.823  17.316  68.743  1.00  0.00    -0.285 OA 
BRANCH  10  13
HETATM   13  O   UNK     1      -8.791  18.378  68.410  1.00  0.00    -0.306 OA 
BRANCH  13  14
HETATM   14  C   UNK     1      -8.243  18.326  67.085  1.00  0.00    -0.234 C  
BRANCH  14  15
HETATM   15  C   UNK     1      -8.807  19.444  66.207  1.00  0.00    -0.351 C  
HETATM   16  N   UNK     1      -8.568  20.806  66.767  1.00  0.00    -0.556 NA 
HETATM   17  C   UNK     1     -10.312  19.224  66.081  1.00  0.00    -0.494 C  
HETATM   18  O   UNK     1     -11.001  20.024  66.937  1.00  0.00    -0.295 OA 
HETATM   19  O   UNK     1     -10.840  18.400  65.351  1.00  0.00    -0.577 OA 
HETATM   20  H1  UNK     1      -8.944  21.551  66.181  1.00  0.00     0.000 HD 
HETATM   21  H2  UNK     1      -7.576  20.954  66.952  1.00  0.00     0.000 HD 
ENDBRANCH  14  15
ENDBRANCH  13  14
ENDBRANCH  10  13
ENDBRANCH   9  10
ENDBRANCH   8   9
ENDBRANCH   7   8
BRANCH   7  22
HETATM   22  C   UNK     1     -12.402  13.199  70.362  1.00  0.00    -0.279 C  
BRANCH  22  23
HETATM   23  O   UNK     1     -13.143  14.364  70.771  1.00  0.00    -0.356 OA 
BRANCH  23  24
HETATM   24  C   UNK     1     -13.593  14.337  72.057  1.00  0.00    -0.430 C  
HETATM   25  O   UNK     1     -14.144  13.383  72.581  1.00  0.00    -0.767 OA 
BRANCH  24  26
HETATM   26  C   UNK     1     -13.287  15.654  72.731  1.00  0.00    -0.640 C  
HETATM   27  C   UNK     1     -12.542  15.445  74.038  1.00  0.00    -0.741 C  
ENDBRANCH  24  26
ENDBRANCH  23  24
ENDBRANCH  22  23
ENDBRANCH   7  22
ENDBRANCH   6   7
ENDBRANCH   4   6
ENDBRANCH   3   4
ENDBRANCH   2   3
TORSDOF 14
ENDMDL
MODEL        7
REMARK 921   NORMALIZED FREE ENERGY PREDICTED BY IDOCK:   -5.45 KCAL/MOL
REMARK 922        TOTAL FREE ENERGY PREDICTED BY IDOCK:  -11.01 KCAL/MOL
REMARK 923 INTER-LIGAND FREE ENERGY PREDICTED BY IDOCK:  -10.14 KCAL/MOL
REMARK 924 INTRA-LIGAND FREE ENERGY PREDICTED BY IDOCK:   -0.87 KCAL/MOL
REMARK 927      BINDING AFFINITY PREDICTED BY RF-SCORE:    0.00 PKD
ROOT
HETATM    1  C   UNK     1      -9.511  10.593  63.621  1.00  0.00    -0.337 C  
HETATM    2  C   UNK     1     -10.587  11.281  64.450  1.00  0.00    -0.410 C  
ENDROOT
BRANCH   2   3
HETATM    3  C   UNK     1     -11.697  11.876  63.590  1.00  0.00    -0.572 C  
BRANCH   3   4
HETATM    4  C   UNK     1     -11.854  13.351  63.854  1.00  0.00    -0.439 C  
HETATM    5  O   UNK     1     -12.719  14.052  63.347  1.00  0.00    -0.796 OA 
BRANCH   4   6
HETATM    6  O   UNK     1     -10.889  13.788  64.699  1.00  0.00    -0.375 OA 
BRANCH   6   7
HETATM    7  C   UNK     1     -11.195  14.859  65.621  1.00  0.00    -0.347 C  
BRANCH   7   8
HETATM    8  C   UNK     1     -11.520  14.362  67.036  1.00  0.00    -0.361 C  
BRANCH   8   9
HETATM    9  O   UNK     1     -10.901  13.103  67.301  1.00  0.00    -0.252 OA 
BRANCH   9  10
HETATM   10  P   UNK     1     -11.282  12.459  68.861  1.00  0.00    -0.283 P  
HETATM   11  O   UNK     1     -12.244  11.308  68.210  1.00  0.00    -0.611 OA 
HETATM   12  O   UNK     1      -9.873  11.871  68.952  1.00  0.00    -0.116 OA 
BRANCH  10  13
HETATM   13  O   UNK     1     -11.663  11.816  70.421  1.00  0.00    -0.300 OA 
BRANCH  13  14
HETATM   14  C   UNK     1     -12.292  10.528  70.345  1.00  0.00    -0.324 C  
BRANCH  14  15
HETATM   15  C   UNK     1     -12.066   9.724  71.627  1.00  0.00    -0.394 C  
HETATM   16  N   UNK     1     -10.752   9.018  71.651  1.00  0.00    -0.348 NA 
HETATM   17  C   UNK     1     -13.181   8.686  71.729  1.00  0.00    -0.363 C  
HETATM   18  O   UNK     1     -12.760   7.466  71.303  1.00  0.00    -0.349 OA 
HETATM   19  O   UNK     1     -14.323   8.920  72.091  1.00  0.00    -0.412 OA 
HETATM   20  H1  UNK     1     -10.601   8.482  72.506  1.00  0.00     0.000 HD 
HETATM   21  H2  UNK     1      -9.985   9.672  71.492  1.00  0.00     0.000 HD 
ENDBRANCH  14  15
ENDBRANCH  13  14
ENDBRANCH  10  13
ENDBRANCH   9  10
ENDBRANCH   8   9
ENDBRANCH   7   8
BRANCH   7  22
HETATM   22  C   UNK     1     -10.089  15.930  65.636  1.00  0.00    -0.358 C  
BRANCH  22  23
HETATM   23  O   UNK     1     -10.621  17.249  65.410  1.00  0.00    -0.630 OA 
BRANCH  23  24
HETATM   24  C   UNK     1     -10.540  18.092  66.476  1.00  0.00    -0.272 C  
HETATM   25  O   UNK     1     -10.735  17.768  67.636  1.00  0.00    -0.386 OA 
BRANCH  24  26
HETATM   26  C   UNK     1     -10.154  19.475  66.004  1.00  0.00    -0.521 C  
HETATM   27  C   UNK     1      -9.623  20.320  67.148  1.00  0.00    -0.580 C  
ENDBRANCH  24  26
ENDBRANCH  23  24
ENDBRANCH  22  23
ENDBRANCH   7  22
ENDBRANCH   6   7
ENDBRANCH   4   6
ENDBRANCH   3   4
ENDBRANCH   2   3
TORSDOF 14
ENDMDL
MODEL        8
REMARK 921   NORMALIZED FREE ENERGY PREDICTED BY IDOCK:   -5.42 KCAL/MOL
REMARK 922        TOTAL FREE ENERGY PREDICTED BY IDOCK:  -10.95 KCAL/MOL
REMARK 923 INTER-LIGAND FREE ENERGY PREDICTED BY IDOCK:   -9.55 KCAL/MOL
REMARK 924 INTRA-LIGAND FREE ENERGY PREDICTED BY IDOCK:   -1.40 KCAL/MOL
REMARK 927      BINDING AFFINITY PREDICTED BY RF-SCORE:    0.00 PKD
ROOT
HETATM    1  C   UNK     1     -10.187  11.105  63.929  1.00  0.00    -0.420 C  
HETATM    2  C   UNK     1     -11.353  12.083  63.926  1.00  0.00    -0.503 C  
ENDROOT
BRANCH   2   3
HETATM    3  C   UNK     1     -10.954  13.470  64.418  1.00  0.00    -0.399 C  
BRANCH   3   4
HETATM    4  C   UNK     1     -11.961  14.005  65.402  1.00  0.00    -0.380 C  
HETATM    5  O   UNK     1     -13.163  13.785  65.343  1.00  0.00    -0.722 OA 
BRANCH   4   6
HETATM    6  O   UNK     1     -11.353  14.782  66.331  1.00  0.00    -0.345 OA 
BRANCH   6   7
HETATM    7  C   UNK     1     -11.232  14.291  67.687  1.00  0.00    -0.304 C  
BRANCH   7   8
HETATM    8  C   UNK     1      -9.818  13.802  68.027  1.00  0.00    -0.239 C  
BRANCH   8   9
HETATM    9  O   UNK     1      -9.712  12.384  67.903  1.00  0.00    -0.191 OA 
BRANCH   9  10
HETATM   10  P   UNK     1     -10.993  11.524  68.687  1.00  0.00    -0.264 P  
HETATM   11  O   UNK     1     -11.463  10.836  67.281  1.00  0.00    -0.436 OA 
HETATM   12  O   UNK     1      -9.963  10.589  69.324  1.00  0.00    -0.212 OA 
BRANCH  10  13
HETATM   13  O   UNK     1     -12.273  10.664  69.471  1.00  0.00    -0.271 OA 
BRANCH  13  14
HETATM   14  C   UNK     1     -12.325  10.923  70.882  1.00  0.00    -0.400 C  
BRANCH  14  15
HETATM   15  C   UNK     1     -12.118   9.640  71.689  1.00  0.00    -0.402 C  
HETATM   16  N   UNK     1     -11.428   8.567  70.916  1.00  0.00    -0.268 NA 
HETATM   17  C   UNK     1     -13.493   9.130  72.114  1.00  0.00    -0.469 C  
HETATM   18  O   UNK     1     -13.923   8.132  71.297  1.00  0.00    -0.280 OA 
HETATM   19  O   UNK     1     -14.155   9.587  73.033  1.00  0.00    -0.214 OA 
HETATM   20  H1  UNK     1     -11.290   7.711  71.454  1.00  0.00     0.000 HD 
HETATM   21  H2  UNK     1     -10.544   8.904  70.536  1.00  0.00     0.000 HD 
ENDBRANCH  14  15
ENDBRANCH  13  14
ENDBRANCH  10  13
ENDBRANCH   9  10
ENDBRANCH   8   9
ENDBRANCH   7   8
BRANCH   7  22
HETATM   22  C   UNK     1     -11.738  15.322  68.712  1.00  0.00    -0.353 C  
BRANCH  22  23
HETATM   23  O   UNK     1     -12.382  14.687  69.833  1.00  0.00    -0.321 OA 
BRANCH  23  24
HETATM   24  C   UNK     1     -12.517  15.470  70.939  1.00  0.00    -0.440 C  
HETATM   25  O   UNK     1     -11.667  16.241  71.352  1.00  0.00    -0.446 OA 
BRANCH  24  26
HETATM   26  C   UNK     1     -13.879  15.251  71.556  1.00  0.00    -0.617 C  
HETATM   27  C   UNK     1     -13.897  14.007  72.425  1.00  0.00    -0.653 C  
ENDBRANCH  24  26
ENDBRANCH  23  24
ENDBRANCH  22  23
ENDBRANCH   7  22
ENDBRANCH   6   7
ENDBRANCH   4   6
ENDBRANCH   3   4
ENDBRANCH   2   3
TORSDOF 14
ENDMDL
MODEL        9
REMARK 921   NORMALIZED FREE ENERGY PREDICTED BY IDOCK:   -5.42 KCAL/MOL
REMARK 922        TOTAL FREE ENERGY PREDICTED BY IDOCK:  -10.95 KCAL/MOL
REMARK 923 INTER-LIGAND FREE ENERGY PREDICTED BY IDOCK:   -9.76 KCAL/MOL
REMARK 924 INTRA-LIGAND FREE ENERGY PREDICTED BY IDOCK:   -1.19 KCAL/MOL
REMARK 927      BINDING AFFINITY PREDICTED BY RF-SCORE:    0.00 PKD
ROOT
HETATM    1  C   UNK     1     -12.352   9.488  71.569  1.00  0.00    -0.465 C  
HETATM    2  C   UNK     1     -11.346  10.058  70.579  1.00  0.00    -0.409 C  
ENDROOT
BRANCH   2   3
HETATM    3  C   UNK     1     -11.899  11.250  69.805  1.00  0.00    -0.437 C  
BRANCH   3   4
HETATM    4  C   UNK     1     -11.452  11.214  68.367  1.00  0.00    -0.306 C  
HETATM    5  O   UNK     1     -11.499  10.219  67.656  1.00  0.00    -0.345 OA 
BRANCH   4   6
HETATM    6  O   UNK     1     -10.965  12.422  67.990  1.00  0.00    -0.207 OA 
BRANCH   6   7
HETATM    7  C   UNK     1     -11.821  13.585  68.084  1.00  0.00    -0.365 C  
BRANCH   7   8
HETATM    8  C   UNK     1     -11.246  14.685  68.985  1.00  0.00    -0.269 C  
BRANCH   8   9
HETATM    9  O   UNK     1     -11.776  15.967  68.645  1.00  0.00    -0.382 OA 
BRANCH   9  10
HETATM   10  P   UNK     1     -10.576  17.210  68.555  1.00  0.00    -0.296 P  
HETATM   11  O   UNK     1      -9.480  16.282  69.339  1.00  0.00    -0.241 OA 
HETATM   12  O   UNK     1     -10.414  16.932  67.059  1.00  0.00    -0.314 OA 
BRANCH  10  13
HETATM   13  O   UNK     1      -9.376  18.452  68.465  1.00  0.00    -0.318 OA 
BRANCH  13  14
HETATM   14  C   UNK     1      -9.949  19.759  68.309  1.00  0.00    -0.444 C  
BRANCH  14  15
HETATM   15  C   UNK     1      -9.614  20.352  66.939  1.00  0.00    -0.406 C  
HETATM   16  N   UNK     1     -10.432  19.771  65.834  1.00  0.00    -0.519 NA 
HETATM   17  C   UNK     1      -8.140  20.070  66.657  1.00  0.00    -0.315 C  
HETATM   18  O   UNK     1      -7.991  18.994  65.840  1.00  0.00    -0.451 OA 
HETATM   19  O   UNK     1      -7.205  20.690  67.140  1.00  0.00    -0.300 OA 
HETATM   20  H1  UNK     1     -10.208  20.166  64.921  1.00  0.00     0.000 HD 
HETATM   21  H2  UNK     1     -11.428  19.858  66.035  1.00  0.00     0.000 HD 
ENDBRANCH  14  15
ENDBRANCH  13  14
ENDBRANCH  10  13
ENDBRANCH   9  10
ENDBRANCH   8   9
ENDBRANCH   7   8
BRANCH   7  22
HETATM   22  C   UNK     1     -12.197  14.128  66.693  1.00  0.00    -0.418 C  
BRANCH  22  23
HETATM   23  O   UNK     1     -11.459  13.468  65.648  1.00  0.00    -0.308 OA 
BRANCH  23  24
HETATM   24  C   UNK     1     -11.955  13.648  64.392  1.00  0.00    -0.437 C  
HETATM   25  O   UNK     1     -12.574  14.632  64.024  1.00  0.00    -0.819 OA 
BRANCH  24  26
HETATM   26  C   UNK     1     -11.604  12.458  63.530  1.00  0.00    -0.577 C  
HETATM   27  C   UNK     1     -10.702  11.487  64.271  1.00  0.00    -0.416 C  
ENDBRANCH  24  26
ENDBRANCH  23  24
ENDBRANCH  22  23
ENDBRANCH   7  22
ENDBRANCH   6   7
ENDBRANCH   4   6
ENDBRANCH   3   4
ENDBRANCH   2   3
TORSDOF 14
ENDMDL
MODEL       10
REMARK 921   NORMALIZED FREE ENERGY PREDICTED BY IDOCK:   -5.42 KCAL/MOL
REMARK 922        TOTAL FREE ENERGY PREDICTED BY IDOCK:  -10.94 KCAL/MOL
REMARK 923 INTER-LIGAND FREE ENERGY PREDICTED BY IDOCK:   -9.74 KCAL/MOL
REMARK 924 INTRA-LIGAND FREE ENERGY PREDICTED BY IDOCK:   -1.20 KCAL/MOL
REMARK 927      BINDING AFFINITY PREDICTED BY RF-SCORE:    0.00 PKD
ROOT
HETATM    1  C   UNK     1      -9.871  11.334  63.388  1.00  0.00    -0.416 C  
HETATM    2  C   UNK     1     -11.143  12.169  63.375  1.00  0.00    -0.495 C  
ENDROOT
BRANCH   2   3
HETATM    3  C   UNK     1     -11.127  13.274  64.427  1.00  0.00    -0.407 C  
BRANCH   3   4
HETATM    4  C   UNK     1     -12.363  13.220  65.286  1.00  0.00    -0.476 C  
HETATM    5  O   UNK     1     -13.305  13.994  65.185  1.00  0.00    -0.703 OA 
BRANCH   4   6
HETATM    6  O   UNK     1     -12.266  12.222  66.197  1.00  0.00    -0.647 OA 
BRANCH   6   7
HETATM    7  C   UNK     1     -11.466  12.431  67.385  1.00  0.00    -0.352 C  
BRANCH   7   8
HETATM    8  C   UNK     1     -11.922  13.637  68.215  1.00  0.00    -0.350 C  
BRANCH   8   9
HETATM    9  O   UNK     1     -10.883  14.100  69.078  1.00  0.00    -0.249 OA 
BRANCH   9  10
HETATM   10  P   UNK     1     -10.108  15.541  68.518  1.00  0.00    -0.223 P  
HETATM   11  O   UNK     1     -11.220  15.742  67.335  1.00  0.00    -0.286 OA 
HETATM   12  O   UNK     1     -10.623  16.286  69.751  1.00  0.00    -0.308 OA 
BRANCH  10  13
HETATM   13  O   UNK     1      -9.334  16.983  67.957  1.00  0.00    -0.235 OA 
BRANCH  13  14
HETATM   14  C   UNK     1     -10.142  18.152  68.151  1.00  0.00    -0.378 C  
BRANCH  14  15
HETATM   15  C   UNK     1     -10.142  19.041  66.906  1.00  0.00    -0.371 C  
HETATM   16  N   UNK     1     -10.459  18.294  65.654  1.00  0.00    -0.623 NA 
HETATM   17  C   UNK     1      -8.750  19.654  66.771  1.00  0.00    -0.334 C  
HETATM   18  O   UNK     1      -7.999  18.977  65.862  1.00  0.00    -0.451 OA 
HETATM   19  O   UNK     1      -8.334  20.595  67.428  1.00  0.00    -0.334 OA 
HETATM   20  H1  UNK     1     -10.459  18.887  64.824  1.00  0.00     0.000 HD 
HETATM   21  H2  UNK     1     -11.343  17.794  65.743  1.00  0.00     0.000 HD 
ENDBRANCH  14  15
ENDBRANCH  13  14
ENDBRANCH  10  13
ENDBRANCH   9  10
ENDBRANCH   8   9
ENDBRANCH   7   8
BRANCH   7  22
HETATM   22  C   UNK     1     -11.375  11.154  68.241  1.00  0.00    -0.297 C  
BRANCH  22  23
HETATM   23  O   UNK     1     -12.552  10.972  69.050  1.00  0.00    -0.378 OA 
BRANCH  23  24
HETATM   24  C   UNK     1     -12.330  10.409  70.270  1.00  0.00    -0.250 C  
HETATM   25  O   UNK     1     -13.197  10.173  71.095  1.00  0.00    -0.380 OA 
BRANCH  24  26
HETATM   26  C   UNK     1     -10.858  10.109  70.432  1.00  0.00    -0.365 C  
HETATM   27  C   UNK     1     -10.607   9.209  71.629  1.00  0.00    -0.427 C  
ENDBRANCH  24  26
ENDBRANCH  23  24
ENDBRANCH  22  23
ENDBRANCH   7  22
ENDBRANCH   6   7
ENDBRANCH   4   6
ENDBRANCH   3   4
ENDBRANCH   2   3
TORSDOF 14
ENDMDL
MODEL       11
REMARK 921   NORMALIZED FREE ENERGY PREDICTED BY IDOCK:   -5.41 KCAL/MOL
REMARK 922        TOTAL FREE ENERGY PREDICTED BY IDOCK:  -10.93 KCAL/MOL
REMARK 923 INTER-LIGAND FREE ENERGY PREDICTED BY IDOCK:  -10.02 KCAL/MOL
REMARK 924 INTRA-LIGAND FREE ENERGY PREDICTED BY IDOCK:   -0.91 KCAL/MOL
REMARK 927      BINDING AFFINITY PREDICTED BY RF-SCORE:    0.00 PKD
ROOT
HETATM    1  C   UNK     1     -10.079  10.748  64.256  1.00  0.00    -0.427 C  
HETATM    2  C   UNK     1     -10.445  11.989  63.455  1.00  0.00    -0.474 C  
ENDROOT
BRANCH   2   3
HETATM    3  C   UNK     1     -11.885  12.434  63.692  1.00  0.00    -0.610 C  
BRANCH   3   4
HETATM    4  C   UNK     1     -11.933  13.832  64.251  1.00  0.00    -0.443 C  
HETATM    5  O   UNK     1     -12.638  14.727  63.806  1.00  0.00    -0.806 OA 
BRANCH   4   6
HETATM    6  O   UNK     1     -11.068  13.960  65.286  1.00  0.00    -0.301 OA 
BRANCH   6   7
HETATM    7  C   UNK     1     -11.123  15.152  66.105  1.00  0.00    -0.311 C  
BRANCH   7   8
HETATM    8  C   UNK     1     -11.285  14.849  67.600  1.00  0.00    -0.323 C  
BRANCH   8   9
HETATM    9  O   UNK     1     -12.189  13.765  67.818  1.00  0.00    -0.329 OA 
BRANCH   9  10
HETATM   10  P   UNK     1     -11.499  12.459  68.720  1.00  0.00    -0.345 P  
HETATM   11  O   UNK     1     -11.867  11.383  67.545  1.00  0.00    -0.614 OA 
HETATM   12  O   UNK     1     -10.100  13.000  68.414  1.00  0.00    -0.231 OA 
BRANCH  10  13
HETATM   13  O   UNK     1     -10.809  11.154  69.621  1.00  0.00    -0.224 OA 
BRANCH  13  14
HETATM   14  C   UNK     1     -11.789  10.436  70.385  1.00  0.00    -0.328 C  
BRANCH  14  15
HETATM   15  C   UNK     1     -11.447   8.947  70.466  1.00  0.00    -0.200 C  
HETATM   16  N   UNK     1     -12.632   8.089  70.763  1.00  0.00    -0.496 NA 
HETATM   17  C   UNK     1     -10.420   8.764  71.580  1.00  0.00    -0.303 C  
HETATM   18  O   UNK     1     -11.007   8.335  72.728  1.00  0.00    -0.354 OA 
HETATM   19  O   UNK     1      -9.230   9.020  71.482  1.00  0.00    -0.251 OA 
HETATM   20  H1  UNK     1     -12.403   7.096  70.817  1.00  0.00     0.000 HD 
HETATM   21  H2  UNK     1     -13.378   8.255  70.088  1.00  0.00     0.000 HD 
ENDBRANCH  14  15
ENDBRANCH  13  14
ENDBRANCH  10  13
ENDBRANCH   9  10
ENDBRANCH   8   9
ENDBRANCH   7   8
BRANCH   7  22
HETATM   22  C   UNK     1      -9.923  16.079  65.840  1.00  0.00    -0.352 C  
BRANCH  22  23
HETATM   23  O   UNK     1     -10.332  17.453  65.702  1.00  0.00    -0.589 OA 
BRANCH  23  24
HETATM   24  C   UNK     1      -9.661  18.335  66.493  1.00  0.00    -0.343 C  
HETATM   25  O   UNK     1      -8.499  18.212  66.842  1.00  0.00    -0.239 OA 
BRANCH  24  26
HETATM   26  C   UNK     1     -10.567  19.491  66.850  1.00  0.00    -0.602 C  
HETATM   27  C   UNK     1     -10.266  20.019  68.240  1.00  0.00    -0.527 C  
ENDBRANCH  24  26
ENDBRANCH  23  24
ENDBRANCH  22  23
ENDBRANCH   7  22
ENDBRANCH   6   7
ENDBRANCH   4   6
ENDBRANCH   3   4
ENDBRANCH   2   3
TORSDOF 14
ENDMDL
MODEL       12
REMARK 921   NORMALIZED FREE ENERGY PREDICTED BY IDOCK:   -5.40 KCAL/MOL
REMARK 922        TOTAL FREE ENERGY PREDICTED BY IDOCK:  -10.91 KCAL/MOL
REMARK 923 INTER-LIGAND FREE ENERGY PREDICTED BY IDOCK:   -9.71 KCAL/MOL
REMARK 924 INTRA-LIGAND FREE ENERGY PREDICTED BY IDOCK:   -1.20 KCAL/MOL
REMARK 927      BINDING AFFINITY PREDICTED BY RF-SCORE:    0.00 PKD
ROOT
HETATM    1  C   UNK     1     -10.570  11.824  63.526  1.00  0.00    -0.499 C  
HETATM    2  C   UNK     1     -12.027  12.262  63.476  1.00  0.00    -0.625 C  
ENDROOT
BRANCH   2   3
HETATM    3  C   UNK     1     -12.616  12.492  64.864  1.00  0.00    -0.469 C  
BRANCH   3   4
HETATM    4  C   UNK     1     -12.497  13.938  65.269  1.00  0.00    -0.478 C  
HETATM    5  O   UNK     1     -12.632  14.880  64.500  1.00  0.00    -0.519 OA 
BRANCH   4   6
HETATM    6  O   UNK     1     -12.191  14.040  66.585  1.00  0.00    -0.442 OA 
BRANCH   6   7
HETATM    7  C   UNK     1     -11.560  12.920  67.248  1.00  0.00    -0.360 C  
BRANCH   7   8
HETATM    8  C   UNK     1     -10.039  12.881  67.050  1.00  0.00    -0.245 C  
BRANCH   8   9
HETATM    9  O   UNK     1      -9.376  13.796  67.923  1.00  0.00    -0.195 OA 
BRANCH   9  10
HETATM   10  P   UNK     1      -8.672  15.147  67.103  1.00  0.00    -0.246 P  
HETATM   11  O   UNK     1      -7.161  14.561  67.323  1.00  0.00    -0.171 OA 
HETATM   12  O   UNK     1      -9.181  14.592  65.771  1.00  0.00    -0.147 OA 
BRANCH  10  13
HETATM   13  O   UNK     1      -7.968  16.498  66.283  1.00  0.00    -0.308 OA 
BRANCH  13  14
HETATM   14  C   UNK     1      -8.534  17.749  66.699  1.00  0.00    -0.258 C  
BRANCH  14  15
HETATM   15  C   UNK     1     -10.059  17.734  66.580  1.00  0.00    -0.358 C  
HETATM   16  N   UNK     1     -10.538  17.256  65.250  1.00  0.00    -0.657 NA 
HETATM   17  C   UNK     1     -10.558  19.161  66.795  1.00  0.00    -0.439 C  
HETATM   18  O   UNK     1     -10.819  19.777  65.611  1.00  0.00    -0.462 OA 
HETATM   19  O   UNK     1     -10.660  19.710  67.881  1.00  0.00    -0.427 OA 
HETATM   20  H1  UNK     1     -11.555  17.247  65.171  1.00  0.00     0.000 HD 
HETATM   21  H2  UNK     1     -10.147  16.340  65.031  1.00  0.00     0.000 HD 
ENDBRANCH  14  15
ENDBRANCH  13  14
ENDBRANCH  10  13
ENDBRANCH   9  10
ENDBRANCH   8   9
ENDBRANCH   7   8
BRANCH   7  22
HETATM   22  C   UNK     1     -11.940  12.854  68.739  1.00  0.00    -0.253 C  
BRANCH  22  23
HETATM   23  O   UNK     1     -12.391  14.131  69.229  1.00  0.00    -0.311 OA 
BRANCH  23  24
HETATM   24  C   UNK     1     -12.591  14.192  70.575  1.00  0.00    -0.342 C  
HETATM   25  O   UNK     1     -12.648  13.223  71.314  1.00  0.00    -0.358 OA 
BRANCH  24  26
HETATM   26  C   UNK     1     -12.708  15.635  71.008  1.00  0.00    -0.517 C  
HETATM   27  C   UNK     1     -12.031  15.866  72.347  1.00  0.00    -0.620 C  
ENDBRANCH  24  26
ENDBRANCH  23  24
ENDBRANCH  22  23
ENDBRANCH   7  22
ENDBRANCH   6   7
ENDBRANCH   4   6
ENDBRANCH   3   4
ENDBRANCH   2   3
TORSDOF 14
ENDMDL
MODEL       13
REMARK 921   NORMALIZED FREE ENERGY PREDICTED BY IDOCK:   -5.37 KCAL/MOL
REMARK 922        TOTAL FREE ENERGY PREDICTED BY IDOCK:  -10.85 KCAL/MOL
REMARK 923 INTER-LIGAND FREE ENERGY PREDICTED BY IDOCK:   -9.28 KCAL/MOL
REMARK 924 INTRA-LIGAND FREE ENERGY PREDICTED BY IDOCK:   -1.57 KCAL/MOL
REMARK 927      BINDING AFFINITY PREDICTED BY RF-SCORE:    0.00 PKD
ROOT
HETATM    1  C   UNK     1      -9.382  10.400  62.975  1.00  0.00    -0.344 C  
HETATM    2  C   UNK     1     -10.444  11.010  63.880  1.00  0.00    -0.422 C  
ENDROOT
BRANCH   2   3
HETATM    3  C   UNK     1     -10.804  12.437  63.477  1.00  0.00    -0.487 C  
BRANCH   3   4
HETATM    4  C   UNK     1     -12.255  12.729  63.763  1.00  0.00    -0.489 C  
HETATM    5  O   UNK     1     -13.176  11.976  63.480  1.00  0.00    -0.724 OA 
BRANCH   4   6
HETATM    6  O   UNK     1     -12.389  13.946  64.344  1.00  0.00    -0.557 OA 
BRANCH   6   7
HETATM    7  C   UNK     1     -11.504  14.308  65.430  1.00  0.00    -0.332 C  
BRANCH   7   8
HETATM    8  C   UNK     1     -10.855  15.686  65.244  1.00  0.00    -0.406 C  
BRANCH   8   9
HETATM    9  O   UNK     1     -10.502  16.269  66.499  1.00  0.00    -0.301 OA 
BRANCH   9  10
HETATM   10  P   UNK     1     -10.186  17.967  66.408  1.00  0.00    -0.332 P  
HETATM   11  O   UNK     1     -10.067  18.086  68.035  1.00  0.00    -0.326 OA 
HETATM   12  O   UNK     1      -8.784  17.669  65.874  1.00  0.00    -0.520 OA 
BRANCH  10  13
HETATM   13  O   UNK     1      -9.871  19.666  66.317  1.00  0.00    -0.388 OA 
BRANCH  13  14
HETATM   14  C   UNK     1      -9.172  20.157  67.470  1.00  0.00    -0.368 C  
BRANCH  14  15
HETATM   15  C   UNK     1      -7.794  20.703  67.093  1.00  0.00    -0.280 C  
HETATM   16  N   UNK     1      -7.422  20.425  65.675  1.00  0.00    -0.532 NA 
HETATM   17  C   UNK     1      -6.765  20.041  68.007  1.00  0.00    -0.279 C  
HETATM   18  O   UNK     1      -6.141  19.007  67.381  1.00  0.00    -0.178 OA 
HETATM   19  O   UNK     1      -6.557  20.355  69.168  1.00  0.00    -0.268 OA 
HETATM   20  H1  UNK     1      -6.503  20.788  65.423  1.00  0.00     0.000 HD 
HETATM   21  H2  UNK     1      -8.138  20.772  65.037  1.00  0.00     0.000 HD 
ENDBRANCH  14  15
ENDBRANCH  13  14
ENDBRANCH  10  13
ENDBRANCH   9  10
ENDBRANCH   8   9
ENDBRANCH   7   8
BRANCH   7  22
HETATM   22  C   UNK     1     -12.204  14.190  66.797  1.00  0.00    -0.394 C  
BRANCH  22  23
HETATM   23  O   UNK     1     -11.894  12.943  67.447  1.00  0.00    -0.367 OA 
BRANCH  23  24
HETATM   24  C   UNK     1     -10.645  12.871  67.986  1.00  0.00    -0.227 C  
HETATM   25  O   UNK     1     -10.104  13.770  68.607  1.00  0.00    -0.231 OA 
BRANCH  24  26
HETATM   26  C   UNK     1     -10.050  11.509  67.713  1.00  0.00    -0.198 C  
HETATM   27  C   UNK     1     -11.131  10.453  67.571  1.00  0.00    -0.336 C  
ENDBRANCH  24  26
ENDBRANCH  23  24
ENDBRANCH  22  23
ENDBRANCH   7  22
ENDBRANCH   6   7
ENDBRANCH   4   6
ENDBRANCH   3   4
ENDBRANCH   2   3
TORSDOF 14
ENDMDL
MODEL       14
REMARK 921   NORMALIZED FREE ENERGY PREDICTED BY IDOCK:   -5.35 KCAL/MOL
REMARK 922        TOTAL FREE ENERGY PREDICTED BY IDOCK:  -10.82 KCAL/MOL
REMARK 923 INTER-LIGAND FREE ENERGY PREDICTED BY IDOCK:   -9.61 KCAL/MOL
REMARK 924 INTRA-LIGAND FREE ENERGY PREDICTED BY IDOCK:   -1.21 KCAL/MOL
REMARK 927      BINDING AFFINITY PREDICTED BY RF-SCORE:    0.00 PKD
ROOT
HETATM    1  C   UNK     1     -12.953  10.827  71.471  1.00  0.00    -0.562 C  
HETATM    2  C   UNK     1     -12.257  11.757  70.486  1.00  0.00    -0.438 C  
ENDROOT
BRANCH   2   3
HETATM    3  C   UNK     1     -12.459  13.229  70.831  1.00  0.00    -0.424 C  
BRANCH   3   4
HETATM    4  C   UNK     1     -12.198  14.105  69.633  1.00  0.00    -0.326 C  
HETATM    5  O   UNK     1     -12.158  15.327  69.670  1.00  0.00    -0.323 OA 
BRANCH   4   6
HETATM    6  O   UNK     1     -12.047  13.351  68.517  1.00  0.00    -0.352 OA 
BRANCH   6   7
HETATM    7  C   UNK     1     -11.596  13.985  67.296  1.00  0.00    -0.369 C  
BRANCH   7   8
HETATM    8  C   UNK     1     -10.085  13.846  67.069  1.00  0.00    -0.256 C  
BRANCH   8   9
HETATM    9  O   UNK     1      -9.566  14.950  66.327  1.00  0.00    -0.272 OA 
BRANCH   9  10
HETATM   10  P   UNK     1     -10.112  16.488  66.902  1.00  0.00    -0.294 P  
HETATM   11  O   UNK     1      -8.677  16.786  67.628  1.00  0.00    -0.200 OA 
HETATM   12  O   UNK     1     -10.021  17.042  65.479  1.00  0.00    -0.567 OA 
BRANCH  10  13
HETATM   13  O   UNK     1     -10.659  18.025  67.477  1.00  0.00    -0.395 OA 
BRANCH  13  14
HETATM   14  C   UNK     1      -9.595  18.815  68.027  1.00  0.00    -0.321 C  
BRANCH  14  15
HETATM   15  C   UNK     1      -9.425  20.129  67.262  1.00  0.00    -0.401 C  
HETATM   16  N   UNK     1     -10.280  20.209  66.041  1.00  0.00    -0.514 NA 
HETATM   17  C   UNK     1      -7.961  20.238  66.841  1.00  0.00    -0.304 C  
HETATM   18  O   UNK     1      -7.791  19.864  65.545  1.00  0.00    -0.362 OA 
HETATM   19  O   UNK     1      -7.044  20.563  67.579  1.00  0.00    -0.287 OA 
HETATM   20  H1  UNK     1     -10.167  21.085  65.531  1.00  0.00     0.000 HD 
HETATM   21  H2  UNK     1     -11.260  20.048  66.273  1.00  0.00     0.000 HD 
ENDBRANCH  14  15
ENDBRANCH  13  14
ENDBRANCH  10  13
ENDBRANCH   9  10
ENDBRANCH   8   9
ENDBRANCH   7   8
BRANCH   7  22
HETATM   22  C   UNK     1     -12.401  13.505  66.075  1.00  0.00    -0.433 C  
BRANCH  22  23
HETATM   23  O   UNK     1     -11.546  13.232  64.949  1.00  0.00    -0.308 OA 
BRANCH  23  24
HETATM   24  C   UNK     1     -12.018  12.292  64.083  1.00  0.00    -0.432 C  
HETATM   25  O   UNK     1     -13.113  12.330  63.546  1.00  0.00    -0.766 OA 
BRANCH  24  26
HETATM   26  C   UNK     1     -10.976  11.217  63.879  1.00  0.00    -0.382 C  
HETATM   27  C   UNK     1      -9.758  11.761  63.155  1.00  0.00    -0.321 C  
ENDBRANCH  24  26
ENDBRANCH  23  24
ENDBRANCH  22  23
ENDBRANCH   7  22
ENDBRANCH   6   7
ENDBRANCH   4   6
ENDBRANCH   3   4
ENDBRANCH   2   3
TORSDOF 14
ENDMDL
MODEL       15
REMARK 921   NORMALIZED FREE ENERGY PREDICTED BY IDOCK:   -5.33 KCAL/MOL
REMARK 922        TOTAL FREE ENERGY PREDICTED BY IDOCK:  -10.77 KCAL/MOL
REMARK 923 INTER-LIGAND FREE ENERGY PREDICTED BY IDOCK:   -9.60 KCAL/MOL
REMARK 924 INTRA-LIGAND FREE ENERGY PREDICTED BY IDOCK:   -1.17 KCAL/MOL
REMARK 927      BINDING AFFINITY PREDICTED BY RF-SCORE:    0.00 PKD
ROOT
HETATM    1  C   UNK     1     -12.641  12.116  63.276  1.00  0.00    -0.492 C  
HETATM    2  C   UNK     1     -11.130  12.218  63.428  1.00  0.00    -0.487 C  
ENDROOT
BRANCH   2   3
HETATM    3  C   UNK     1     -10.552  11.097  64.287  1.00  0.00    -0.425 C  
BRANCH   3   4
HETATM    4  C   UNK     1     -10.240  11.588  65.677  1.00  0.00    -0.248 C  
HETATM    5  O   UNK     1      -9.111  11.655  66.145  1.00  0.00    -0.213 OA 
BRANCH   4   6
HETATM    6  O   UNK     1     -11.380  11.910  66.335  1.00  0.00    -0.331 OA 
BRANCH   6   7
HETATM    7  C   UNK     1     -11.323  12.882  67.405  1.00  0.00    -0.309 C  
BRANCH   7   8
HETATM    8  C   UNK     1     -12.146  14.144  67.117  1.00  0.00    -0.397 C  
BRANCH   8   9
HETATM    9  O   UNK     1     -11.903  14.636  65.798  1.00  0.00    -0.346 OA 
BRANCH   9  10
HETATM   10  P   UNK     1     -10.526  15.677  65.691  1.00  0.00    -0.420 P  
HETATM   11  O   UNK     1     -11.181  16.503  64.441  1.00  0.00    -0.919 OA 
HETATM   12  O   UNK     1     -10.969  16.379  66.977  1.00  0.00    -0.203 OA 
BRANCH  10  13
HETATM   13  O   UNK     1      -9.149  16.719  65.585  1.00  0.00    -0.489 OA 
BRANCH  13  14
HETATM   14  C   UNK     1      -8.960  17.504  66.771  1.00  0.00    -0.256 C  
BRANCH  14  15
HETATM   15  C   UNK     1      -8.580  18.946  66.429  1.00  0.00    -0.294 C  
HETATM   16  N   UNK     1      -7.605  19.538  67.390  1.00  0.00    -0.246 NA 
HETATM   17  C   UNK     1      -9.857  19.782  66.450  1.00  0.00    -0.449 C  
HETATM   18  O   UNK     1      -9.983  20.462  67.620  1.00  0.00    -0.415 OA 
HETATM   19  O   UNK     1     -10.694  19.804  65.560  1.00  0.00    -0.479 OA 
HETATM   20  H1  UNK     1      -7.352  20.500  67.161  1.00  0.00     0.000 HD 
HETATM   21  H2  UNK     1      -6.774  18.953  67.472  1.00  0.00     0.000 HD 
ENDBRANCH  14  15
ENDBRANCH  13  14
ENDBRANCH  10  13
ENDBRANCH   9  10
ENDBRANCH   8   9
ENDBRANCH   7   8
BRANCH   7  22
HETATM   22  C   UNK     1     -11.697  12.257  68.762  1.00  0.00    -0.340 C  
BRANCH  22  23
HETATM   23  O   UNK     1     -10.738  11.265  69.172  1.00  0.00    -0.215 OA 
BRANCH  23  24
HETATM   24  C   UNK     1     -11.088  10.551  70.278  1.00  0.00    -0.285 C  
HETATM   25  O   UNK     1     -10.397   9.691  70.797  1.00  0.00    -0.291 OA 
BRANCH  24  26
HETATM   26  C   UNK     1     -12.445  11.002  70.768  1.00  0.00    -0.491 C  
HETATM   27  C   UNK     1     -13.005  10.042  71.803  1.00  0.00    -0.560 C  
ENDBRANCH  24  26
ENDBRANCH  23  24
ENDBRANCH  22  23
ENDBRANCH   7  22
ENDBRANCH   6   7
ENDBRANCH   4   6
ENDBRANCH   3   4
ENDBRANCH   2   3
TORSDOF 14
ENDMDL
MODEL       16
REMARK 921   NORMALIZED FREE ENERGY PREDICTED BY IDOCK:   -5.32 KCAL/MOL
REMARK 922        TOTAL FREE ENERGY PREDICTED BY IDOCK:  -10.77 KCAL/MOL
REMARK 923 INTER-LIGAND FREE ENERGY PREDICTED BY IDOCK:   -9.79 KCAL/MOL
REMARK 924 INTRA-LIGAND FREE ENERGY PREDICTED BY IDOCK:   -0.98 KCAL/MOL
REMARK 927      BINDING AFFINITY PREDICTED BY RF-SCORE:    0.00 PKD
ROOT
HETATM    1  C   UNK     1     -12.375  16.322  74.046  1.00  0.00    -0.650 C  
HETATM    2  C   UNK     1     -13.026  15.135  73.349  1.00  0.00    -0.642 C  
ENDROOT
BRANCH   2   3
HETATM    3  C   UNK     1     -12.266  14.703  72.099  1.00  0.00    -0.352 C  
BRANCH   3   4
HETATM    4  C   UNK     1     -12.790  15.411  70.876  1.00  0.00    -0.476 C  
HETATM    5  O   UNK     1     -13.963  15.409  70.531  1.00  0.00    -0.154 OA 
BRANCH   4   6
HETATM    6  O   UNK     1     -11.779  16.015  70.207  1.00  0.00    -0.338 OA 
BRANCH   6   7
HETATM    7  C   UNK     1     -10.766  15.197  69.575  1.00  0.00    -0.266 C  
BRANCH   7   8
HETATM    8  C   UNK     1     -11.348  14.168  68.596  1.00  0.00    -0.277 C  
BRANCH   8   9
HETATM    9  O   UNK     1     -10.766  12.878  68.789  1.00  0.00    -0.247 OA 
BRANCH   9  10
HETATM   10  P   UNK     1     -11.866  11.715  69.444  1.00  0.00    -0.320 P  
HETATM   11  O   UNK     1     -12.075  11.010  67.984  1.00  0.00    -0.615 OA 
HETATM   12  O   UNK     1     -10.694  11.005  70.125  1.00  0.00    -0.052 OA 
BRANCH  10  13
HETATM   13  O   UNK     1     -12.966  10.552  70.100  1.00  0.00    -0.218 OA 
BRANCH  13  14
HETATM   14  C   UNK     1     -12.722  10.288  71.490  1.00  0.00    -0.452 C  
BRANCH  14  15
HETATM   15  C   UNK     1     -13.194   8.886  71.879  1.00  0.00    -0.393 C  
HETATM   16  N   UNK     1     -13.938   8.856  73.172  1.00  0.00    -1.215 NA 
HETATM   17  C   UNK     1     -11.959   7.997  72.006  1.00  0.00    -0.327 C  
HETATM   18  O   UNK     1     -11.585   7.853  73.305  1.00  0.00    -0.252 OA 
HETATM   19  O   UNK     1     -11.344   7.516  71.066  1.00  0.00    -0.262 OA 
HETATM   20  H1  UNK     1     -14.252   7.921  73.431  1.00  0.00     0.000 HD 
HETATM   21  H2  UNK     1     -14.720   9.511  73.156  1.00  0.00     0.000 HD 
ENDBRANCH  14  15
ENDBRANCH  13  14
ENDBRANCH  10  13
ENDBRANCH   9  10
ENDBRANCH   8   9
ENDBRANCH   7   8
BRANCH   7  22
HETATM   22  C   UNK     1      -9.672  16.055  68.913  1.00  0.00    -0.232 C  
BRANCH  22  23
HETATM   23  O   UNK     1     -10.195  17.311  68.442  1.00  0.00    -0.313 OA 
BRANCH  23  24
HETATM   24  C   UNK     1      -9.283  18.320  68.365  1.00  0.00    -0.317 C  
HETATM   25  O   UNK     1      -8.074  18.165  68.355  1.00  0.00    -0.287 OA 
BRANCH  24  26
HETATM   26  C   UNK     1     -10.000  19.648  68.273  1.00  0.00    -0.543 C  
HETATM   27  C   UNK     1      -9.750  20.318  66.934  1.00  0.00    -0.584 C  
ENDBRANCH  24  26
ENDBRANCH  23  24
ENDBRANCH  22  23
ENDBRANCH   7  22
ENDBRANCH   6   7
ENDBRANCH   4   6
ENDBRANCH   3   4
ENDBRANCH   2   3
TORSDOF 14
ENDMDL
MODEL       17
REMARK 921   NORMALIZED FREE ENERGY PREDICTED BY IDOCK:   -5.30 KCAL/MOL
REMARK 922        TOTAL FREE ENERGY PREDICTED BY IDOCK:  -10.73 KCAL/MOL
REMARK 923 INTER-LIGAND FREE ENERGY PREDICTED BY IDOCK:   -9.51 KCAL/MOL
REMARK 924 INTRA-LIGAND FREE ENERGY PREDICTED BY IDOCK:   -1.22 KCAL/MOL
REMARK 927      BINDING AFFINITY PREDICTED BY RF-SCORE:    0.00 PKD
ROOT
HETATM    1  C   UNK     1     -12.652  15.520  73.926  1.00  0.00    -0.767 C  
HETATM    2  C   UNK     1     -12.066  15.951  72.589  1.00  0.00    -0.615 C  
ENDROOT
BRANCH   2   3
HETATM    3  C   UNK     1     -12.988  15.632  71.416  1.00  0.00    -0.555 C  
BRANCH   3   4
HETATM    4  C   UNK     1     -12.376  14.592  70.515  1.00  0.00    -0.337 C  
HETATM    5  O   UNK     1     -12.318  13.399  70.781  1.00  0.00    -0.353 OA 
BRANCH   4   6
HETATM    6  O   UNK     1     -11.877  15.168  69.395  1.00  0.00    -0.305 OA 
BRANCH   6   7
HETATM    7  C   UNK     1     -10.446  15.352  69.277  1.00  0.00    -0.251 C  
BRANCH   7   8
HETATM    8  C   UNK     1      -9.764  14.255  68.448  1.00  0.00    -0.225 C  
BRANCH   8   9
HETATM    9  O   UNK     1     -10.543  13.906  67.303  1.00  0.00    -0.272 OA 
BRANCH   9  10
HETATM   10  P   UNK     1     -11.054  12.254  67.291  1.00  0.00    -0.313 P  
HETATM   11  O   UNK     1     -12.274  12.583  66.253  1.00  0.00    -0.600 OA 
HETATM   12  O   UNK     1      -9.830  11.891  66.448  1.00  0.00    -0.204 OA 
BRANCH  10  13
HETATM   13  O   UNK     1     -11.565  10.601  67.279  1.00  0.00    -0.392 OA 
BRANCH  13  14
HETATM   14  C   UNK     1     -10.768   9.773  68.139  1.00  0.00    -0.233 C  
BRANCH  14  15
HETATM   15  C   UNK     1     -10.410  10.504  69.435  1.00  0.00    -0.234 C  
HETATM   16  N   UNK     1      -8.980  10.334  69.826  1.00  0.00    -0.391 NA 
HETATM   17  C   UNK     1     -11.291   9.940  70.547  1.00  0.00    -0.327 C  
HETATM   18  O   UNK     1     -10.620   9.020  71.290  1.00  0.00    -0.254 OA 
HETATM   19  O   UNK     1     -12.465  10.228  70.723  1.00  0.00    -0.308 OA 
HETATM   20  H1  UNK     1      -8.741  10.822  70.690  1.00  0.00     0.000 HD 
HETATM   21  H2  UNK     1      -8.359  10.615  69.067  1.00  0.00     0.000 HD 
ENDBRANCH  14  15
ENDBRANCH  13  14
ENDBRANCH  10  13
ENDBRANCH   9  10
ENDBRANCH   8   9
ENDBRANCH   7   8
BRANCH   7  22
HETATM   22  C   UNK     1     -10.094  16.758  68.757  1.00  0.00    -0.286 C  
BRANCH  22  23
HETATM   23  O   UNK     1     -11.038  17.210  67.768  1.00  0.00    -0.263 OA 
BRANCH  23  24
HETATM   24  C   UNK     1     -10.592  18.217  66.967  1.00  0.00    -0.349 C  
HETATM   25  O   UNK     1     -10.430  18.126  65.761  1.00  0.00    -0.584 OA 
BRANCH  24  26
HETATM   26  C   UNK     1     -10.351  19.459  67.794  1.00  0.00    -0.547 C  
HETATM   27  C   UNK     1      -9.442  20.436  67.071  1.00  0.00    -0.544 C  
ENDBRANCH  24  26
ENDBRANCH  23  24
ENDBRANCH  22  23
ENDBRANCH   7  22
ENDBRANCH   6   7
ENDBRANCH   4   6
ENDBRANCH   3   4
ENDBRANCH   2   3
TORSDOF 14
ENDMDL
MODEL       18
REMARK 921   NORMALIZED FREE ENERGY PREDICTED BY IDOCK:   -5.30 KCAL/MOL
REMARK 922        TOTAL FREE ENERGY PREDICTED BY IDOCK:  -10.73 KCAL/MOL
REMARK 923 INTER-LIGAND FREE ENERGY PREDICTED BY IDOCK:   -9.90 KCAL/MOL
REMARK 924 INTRA-LIGAND FREE ENERGY PREDICTED BY IDOCK:   -0.83 KCAL/MOL
REMARK 927      BINDING AFFINITY PREDICTED BY RF-SCORE:    0.00 PKD
ROOT
HETATM    1  C   UNK     1     -12.514  15.897  74.232  1.00  0.00    -0.773 C  
HETATM    2  C   UNK     1     -12.621  14.838  73.143  1.00  0.00    -0.531 C  
ENDROOT
BRANCH   2   3
HETATM    3  C   UNK     1     -11.723  15.137  71.947  1.00  0.00    -0.490 C  
BRANCH   3   4
HETATM    4  C   UNK     1     -12.238  14.460  70.703  1.00  0.00    -0.344 C  
HETATM    5  O   UNK     1     -13.423  14.281  70.458  1.00  0.00    -0.082 OA 
BRANCH   4   6
HETATM    6  O   UNK     1     -11.207  14.055  69.922  1.00  0.00    -0.190 OA 
BRANCH   6   7
HETATM    7  C   UNK     1     -11.082  14.598  68.586  1.00  0.00    -0.262 C  
BRANCH   7   8
HETATM    8  C   UNK     1     -11.787  13.748  67.521  1.00  0.00    -0.387 C  
BRANCH   8   9
HETATM    9  O   UNK     1     -12.264  14.554  66.443  1.00  0.00    -0.373 OA 
BRANCH   9  10
HETATM   10  P   UNK     1     -12.044  13.830  64.888  1.00  0.00    -0.436 P  
HETATM   11  O   UNK     1     -13.283  12.792  65.137  1.00  0.00    -0.686 OA 
HETATM   12  O   UNK     1     -12.630  15.082  64.232  1.00  0.00    -0.677 OA 
BRANCH  10  13
HETATM   13  O   UNK     1     -11.824  13.106  63.332  1.00  0.00    -0.510 OA 
BRANCH  13  14
HETATM   14  C   UNK     1     -11.284  11.779  63.416  1.00  0.00    -0.352 C  
BRANCH  14  15
HETATM   15  C   UNK     1      -9.858  11.794  63.970  1.00  0.00    -0.240 C  
HETATM   16  N   UNK     1      -8.824  11.509  62.932  1.00  0.00    -0.596 NA 
HETATM   17  C   UNK     1      -9.769  10.724  65.056  1.00  0.00    -0.269 C  
HETATM   18  O   UNK     1      -9.200   9.585  64.581  1.00  0.00    -0.239 OA 
HETATM   19  O   UNK     1     -10.199  10.845  66.192  1.00  0.00    -0.235 OA 
HETATM   20  H1  UNK     1      -7.873  11.519  63.302  1.00  0.00     0.000 HD 
HETATM   21  H2  UNK     1      -8.914  12.149  62.144  1.00  0.00     0.000 HD 
ENDBRANCH  14  15
ENDBRANCH  13  14
ENDBRANCH  10  13
ENDBRANCH   9  10
ENDBRANCH   8   9
ENDBRANCH   7   8
BRANCH   7  22
HETATM   22  C   UNK     1     -11.531  16.070  68.527  1.00  0.00    -0.357 C  
BRANCH  22  23
HETATM   23  O   UNK     1     -10.515  16.957  69.033  1.00  0.00    -0.307 OA 
BRANCH  23  24
HETATM   24  C   UNK     1      -9.853  17.674  68.083  1.00  0.00    -0.318 C  
HETATM   25  O   UNK     1      -9.544  17.250  66.982  1.00  0.00    -0.248 OA 
BRANCH  24  26
HETATM   26  C   UNK     1      -9.583  19.070  68.594  1.00  0.00    -0.458 C  
HETATM   27  C   UNK     1     -10.111  20.120  67.634  1.00  0.00    -0.542 C  
ENDBRANCH  24  26
ENDBRANCH  23  24
ENDBRANCH  22  23
ENDBRANCH   7  22
ENDBRANCH   6   7
ENDBRANCH   4   6
ENDBRANCH   3   4
ENDBRANCH   2   3
TORSDOF 14
ENDMDL
MODEL       19
REMARK 921   NORMALIZED FREE ENERGY PREDICTED BY IDOCK:   -5.30 KCAL/MOL
REMARK 922        TOTAL FREE ENERGY PREDICTED BY IDOCK:  -10.73 KCAL/MOL
REMARK 923 INTER-LIGAND FREE ENERGY PREDICTED BY IDOCK:   -9.65 KCAL/MOL
REMARK 924 INTRA-LIGAND FREE ENERGY PREDICTED BY IDOCK:   -1.08 KCAL/MOL
REMARK 927      BINDING AFFINITY PREDICTED BY RF-SCORE:    0.00 PKD
ROOT
HETATM    1  C   UNK     1      -9.593  10.263  64.259  1.00  0.00    -0.375 C  
HETATM    2  C   UNK     1     -10.622  11.292  63.812  1.00  0.00    -0.455 C  
ENDROOT
BRANCH   2   3
HETATM    3  C   UNK     1     -10.761  12.447  64.799  1.00  0.00    -0.332 C  
BRANCH   3   4
HETATM    4  C   UNK     1     -12.174  12.554  65.309  1.00  0.00    -0.433 C  
HETATM    5  O   UNK     1     -13.148  12.758  64.598  1.00  0.00    -0.760 OA 
BRANCH   4   6
HETATM    6  O   UNK     1     -12.204  12.425  66.658  1.00  0.00    -0.562 OA 
BRANCH   6   7
HETATM    7  C   UNK     1     -11.491  13.387  67.471  1.00  0.00    -0.323 C  
BRANCH   7   8
HETATM    8  C   UNK     1     -11.676  14.834  66.995  1.00  0.00    -0.315 C  
BRANCH   8   9
HETATM    9  O   UNK     1     -10.420  15.464  66.743  1.00  0.00    -0.286 OA 
BRANCH   9  10
HETATM   10  P   UNK     1     -10.317  17.075  67.366  1.00  0.00    -0.291 P  
HETATM   11  O   UNK     1      -8.804  16.817  67.930  1.00  0.00    -0.211 OA 
HETATM   12  O   UNK     1     -10.182  17.609  65.939  1.00  0.00    -0.517 OA 
BRANCH  10  13
HETATM   13  O   UNK     1     -10.215  18.686  67.990  1.00  0.00    -0.352 OA 
BRANCH  13  14
HETATM   14  C   UNK     1      -8.859  19.129  68.147  1.00  0.00    -0.319 C  
BRANCH  14  15
HETATM   15  C   UNK     1      -8.560  20.331  67.250  1.00  0.00    -0.347 C  
HETATM   16  N   UNK     1      -9.618  20.574  66.225  1.00  0.00    -0.657 NA 
HETATM   17  C   UNK     1      -7.239  20.063  66.534  1.00  0.00    -0.257 C  
HETATM   18  O   UNK     1      -7.446  19.612  65.268  1.00  0.00    -0.382 OA 
HETATM   19  O   UNK     1      -6.133  20.181  67.039  1.00  0.00    -0.176 OA 
HETATM   20  H1  UNK     1      -9.419  21.377  65.627  1.00  0.00     0.000 HD 
HETATM   21  H2  UNK     1     -10.534  20.666  66.664  1.00  0.00     0.000 HD 
ENDBRANCH  14  15
ENDBRANCH  13  14
ENDBRANCH  10  13
ENDBRANCH   9  10
ENDBRANCH   8   9
ENDBRANCH   7   8
BRANCH   7  22
HETATM   22  C   UNK     1     -11.832  13.233  68.965  1.00  0.00    -0.321 C  
BRANCH  22  23
HETATM   23  O   UNK     1     -11.379  14.363  69.733  1.00  0.00    -0.249 OA 
BRANCH  23  24
HETATM   24  C   UNK     1     -12.201  14.729  70.756  1.00  0.00    -0.314 C  
HETATM   25  O   UNK     1     -13.401  14.516  70.794  1.00  0.00    -0.341 OA 
BRANCH  24  26
HETATM   26  C   UNK     1     -11.397  15.418  71.834  1.00  0.00    -0.466 C  
HETATM   27  C   UNK     1     -12.301  16.059  72.872  1.00  0.00    -0.609 C  
ENDBRANCH  24  26
ENDBRANCH  23  24
ENDBRANCH  22  23
ENDBRANCH   7  22
ENDBRANCH   6   7
ENDBRANCH   4   6
ENDBRANCH   3   4
ENDBRANCH   2   3
TORSDOF 14
ENDMDL
MODEL       20
REMARK 921   NORMALIZED FREE ENERGY PREDICTED BY IDOCK:   -5.28 KCAL/MOL
REMARK 922        TOTAL FREE ENERGY PREDICTED BY IDOCK:  -10.70 KCAL/MOL
REMARK 923 INTER-LIGAND FREE ENERGY PREDICTED BY IDOCK:   -9.77 KCAL/MOL
REMARK 924 INTRA-LIGAND FREE ENERGY PREDICTED BY IDOCK:   -0.93 KCAL/MOL
REMARK 927      BINDING AFFINITY PREDICTED BY RF-SCORE:    0.00 PKD
ROOT
HETATM    1  C   UNK     1     -10.363  10.743  64.020  1.00  0.00    -0.357 C  
HETATM    2  C   UNK     1     -10.968  12.089  63.646  1.00  0.00    -0.517 C  
ENDROOT
BRANCH   2   3
HETATM    3  C   UNK     1     -12.356  12.292  64.245  1.00  0.00    -0.519 C  
BRANCH   3   4
HETATM    4  C   UNK     1     -12.521  13.698  64.762  1.00  0.00    -0.350 C  
HETATM    5  O   UNK     1     -12.687  14.678  64.048  1.00  0.00    -0.772 OA 
BRANCH   4   6
HETATM    6  O   UNK     1     -12.427  13.722  66.113  1.00  0.00    -0.446 OA 
BRANCH   6   7
HETATM    7  C   UNK     1     -11.395  12.939  66.760  1.00  0.00    -0.322 C  
BRANCH   7   8
HETATM    8  C   UNK     1     -10.002  13.575  66.654  1.00  0.00    -0.282 C  
BRANCH   8   9
HETATM    9  O   UNK     1      -9.920  14.778  67.418  1.00  0.00    -0.223 OA 
BRANCH   9  10
HETATM   10  P   UNK     1      -9.048  16.044  66.623  1.00  0.00    -0.310 P  
HETATM   11  O   UNK     1     -10.276  16.303  65.575  1.00  0.00    -0.456 OA 
HETATM   12  O   UNK     1      -9.286  16.953  67.830  1.00  0.00    -0.226 OA 
BRANCH  10  13
HETATM   13  O   UNK     1      -8.176  17.309  65.828  1.00  0.00    -0.533 OA 
BRANCH  13  14
HETATM   14  C   UNK     1      -7.861  18.396  66.710  1.00  0.00    -0.235 C  
BRANCH  14  15
HETATM   15  C   UNK     1      -8.175  19.746  66.061  1.00  0.00    -0.311 C  
HETATM   16  N   UNK     1      -7.316  20.855  66.571  1.00  0.00    -0.533 NA 
HETATM   17  C   UNK     1      -9.634  20.079  66.362  1.00  0.00    -0.421 C  
HETATM   18  O   UNK     1      -9.737  20.949  67.402  1.00  0.00    -0.456 OA 
HETATM   19  O   UNK     1     -10.595  19.593  65.787  1.00  0.00    -0.522 OA 
HETATM   20  H1  UNK     1      -7.526  21.754  66.138  1.00  0.00     0.000 HD 
HETATM   21  H2  UNK     1      -6.328  20.624  66.470  1.00  0.00     0.000 HD 
ENDBRANCH  14  15
ENDBRANCH  13  14
ENDBRANCH  10  13
ENDBRANCH   9  10
ENDBRANCH   8   9
ENDBRANCH   7   8
BRANCH   7  22
HETATM   22  C   UNK     1     -11.761  12.612  68.219  1.00  0.00    -0.342 C  
BRANCH  22  23
HETATM   23  O   UNK     1     -12.081  11.218  68.387  1.00  0.00    -0.598 OA 
BRANCH  23  24
HETATM   24  C   UNK     1     -11.101  10.468  68.963  1.00  0.00    -0.249 C  
HETATM   25  O   UNK     1     -10.809  10.497  70.146  1.00  0.00    -0.283 OA 
BRANCH  24  26
HETATM   26  C   UNK     1     -10.454   9.587  67.919  1.00  0.00    -0.293 C  
HETATM   27  C   UNK     1     -10.103   8.224  68.489  1.00  0.00    -0.217 C  
ENDBRANCH  24  26
ENDBRANCH  23  24
ENDBRANCH  22  23
ENDBRANCH   7  22
ENDBRANCH   6   7
ENDBRANCH   4   6
ENDBRANCH   3   4
ENDBRANCH   2   3
TORSDOF 14
ENDMDL
MODEL       21
REMARK 921   NORMALIZED FREE ENERGY PREDICTED BY IDOCK:   -5.28 KCAL/MOL
REMARK 922        TOTAL FREE ENERGY PREDICTED BY IDOCK:  -10.68 KCAL/MOL
REMARK 923 INTER-LIGAND FREE ENERGY PREDICTED BY IDOCK:   -9.54 KCAL/MOL
REMARK 924 INTRA-LIGAND FREE ENERGY PREDICTED BY IDOCK:   -1.14 KCAL/MOL
REMARK 927      BINDING AFFINITY PREDICTED BY RF-SCORE:    0.00 PKD
ROOT
HETATM    1  C   UNK     1     -11.396   9.217  71.537  1.00  0.00    -0.455 C  
HETATM    2  C   UNK     1     -11.042  10.173  70.406  1.00  0.00    -0.393 C  
ENDROOT
BRANCH   2   3
HETATM    3  C   UNK     1     -11.978  11.376  70.344  1.00  0.00    -0.465 C  
BRANCH   3   4
HETATM    4  C   UNK     1     -12.102  11.891  68.933  1.00  0.00    -0.155 C  
HETATM    5  O   UNK     1     -12.115  11.178  67.939  1.00  0.00    -0.627 OA 
BRANCH   4   6
HETATM    6  O   UNK     1     -12.164  13.245  68.925  1.00  0.00    -0.275 OA 
BRANCH   6   7
HETATM    7  C   UNK     1     -11.010  14.004  69.358  1.00  0.00    -0.155 C  
BRANCH   7   8
HETATM    8  C   UNK     1      -9.888  14.043  68.313  1.00  0.00    -0.233 C  
BRANCH   8   9
HETATM    9  O   UNK     1     -10.376  14.469  67.041  1.00  0.00    -0.260 OA 
BRANCH   9  10
HETATM   10  P   UNK     1      -9.481  15.785  66.362  1.00  0.00    -0.355 P  
HETATM   11  O   UNK     1     -10.567  16.877  66.912  1.00  0.00    -0.297 OA 
HETATM   12  O   UNK     1      -8.421  15.614  67.451  1.00  0.00    -0.155 OA 
BRANCH  10  13
HETATM   13  O   UNK     1      -8.586  17.101  65.683  1.00  0.00    -0.470 OA 
BRANCH  13  14
HETATM   14  C   UNK     1      -8.274  18.111  66.653  1.00  0.00    -0.262 C  
BRANCH  14  15
HETATM   15  C   UNK     1      -8.373  19.512  66.047  1.00  0.00    -0.249 C  
HETATM   16  N   UNK     1      -7.482  20.504  66.718  1.00  0.00    -0.422 NA 
HETATM   17  C   UNK     1      -9.819  19.980  66.188  1.00  0.00    -0.443 C  
HETATM   18  O   UNK     1      -9.968  20.810  67.255  1.00  0.00    -0.433 OA 
HETATM   19  O   UNK     1     -10.743  19.619  65.476  1.00  0.00    -0.473 OA 
HETATM   20  H1  UNK     1      -7.549  21.439  66.313  1.00  0.00     0.000 HD 
HETATM   21  H2  UNK     1      -6.516  20.179  66.725  1.00  0.00     0.000 HD 
ENDBRANCH  14  15
ENDBRANCH  13  14
ENDBRANCH  10  13
ENDBRANCH   9  10
ENDBRANCH   8   9
ENDBRANCH   7   8
BRANCH   7  22
HETATM   22  C   UNK     1     -11.402  15.418  69.825  1.00  0.00    -0.306 C  
BRANCH  22  23
HETATM   23  O   UNK     1     -12.723  15.441  70.398  1.00  0.00    -0.404 OA 
BRANCH  23  24
HETATM   24  C   UNK     1     -12.765  15.707  71.734  1.00  0.00    -0.451 C  
HETATM   25  O   UNK     1     -11.906  16.316  72.348  1.00  0.00    -0.509 OA 
BRANCH  24  26
HETATM   26  C   UNK     1     -14.041  15.152  72.324  1.00  0.00    -0.633 C  
HETATM   27  C   UNK     1     -14.033  13.634  72.325  1.00  0.00    -0.661 C  
ENDBRANCH  24  26
ENDBRANCH  23  24
ENDBRANCH  22  23
ENDBRANCH   7  22
ENDBRANCH   6   7
ENDBRANCH   4   6
ENDBRANCH   3   4
ENDBRANCH   2   3
TORSDOF 14
ENDMDL
MODEL       22
REMARK 921   NORMALIZED FREE ENERGY PREDICTED BY IDOCK:   -5.27 KCAL/MOL
REMARK 922        TOTAL FREE ENERGY PREDICTED BY IDOCK:  -10.68 KCAL/MOL
REMARK 923 INTER-LIGAND FREE ENERGY PREDICTED BY IDOCK:   -9.52 KCAL/MOL
REMARK 924 INTRA-LIGAND FREE ENERGY PREDICTED BY IDOCK:   -1.16 KCAL/MOL
REMARK 927      BINDING AFFINITY PREDICTED BY RF-SCORE:    0.00 PKD
ROOT
HETATM    1  C   UNK     1     -13.204   9.269  72.298  1.00  0.00    -0.535 C  
HETATM    2  C   UNK     1     -13.244  10.131  71.044  1.00  0.00    -0.412 C  
ENDROOT
BRANCH   2   3
HETATM    3  C   UNK     1     -11.992  10.987  70.882  1.00  0.00    -0.391 C  
BRANCH   3   4
HETATM    4  C   UNK     1     -11.205  10.569  69.667  1.00  0.00    -0.282 C  
HETATM    5  O   UNK     1     -10.925   9.409  69.395  1.00  0.00    -0.222 OA 
BRANCH   4   6
HETATM    6  O   UNK     1     -10.830  11.654  68.947  1.00  0.00    -0.208 OA 
BRANCH   6   7
HETATM    7  C   UNK     1     -11.778  12.253  68.033  1.00  0.00    -0.356 C  
BRANCH   7   8
HETATM    8  C   UNK     1     -12.073  13.725  68.349  1.00  0.00    -0.289 C  
BRANCH   8   9
HETATM    9  O   UNK     1     -11.235  14.210  69.399  1.00  0.00    -0.256 OA 
BRANCH   9  10
HETATM   10  P   UNK     1     -10.793  15.873  69.219  1.00  0.00    -0.334 P  
HETATM   11  O   UNK     1     -11.535  16.277  70.620  1.00  0.00    -0.377 OA 
HETATM   12  O   UNK     1      -9.346  15.516  69.562  1.00  0.00    -0.270 OA 
BRANCH  10  13
HETATM   13  O   UNK     1     -10.352  17.536  69.039  1.00  0.00    -0.356 OA 
BRANCH  13  14
HETATM   14  C   UNK     1      -9.136  17.704  68.295  1.00  0.00    -0.276 C  
BRANCH  14  15
HETATM   15  C   UNK     1      -9.400  17.676  66.788  1.00  0.00    -0.278 C  
HETATM   16  N   UNK     1      -8.226  17.201  65.997  1.00  0.00    -0.526 NA 
HETATM   17  C   UNK     1      -9.743  19.097  66.349  1.00  0.00    -0.364 C  
HETATM   18  O   UNK     1      -8.667  19.717  65.796  1.00  0.00    -0.398 OA 
HETATM   19  O   UNK     1     -10.825  19.638  66.516  1.00  0.00    -0.447 OA 
HETATM   20  H1  UNK     1      -8.403  17.183  64.993  1.00  0.00     0.000 HD 
HETATM   21  H2  UNK     1      -7.910  16.290  66.328  1.00  0.00     0.000 HD 
ENDBRANCH  14  15
ENDBRANCH  13  14
ENDBRANCH  10  13
ENDBRANCH   9  10
ENDBRANCH   8   9
ENDBRANCH   7   8
BRANCH   7  22
HETATM   22  C   UNK     1     -11.352  12.061  66.566  1.00  0.00    -0.354 C  
BRANCH  22  23
HETATM   23  O   UNK     1     -12.427  12.363  65.656  1.00  0.00    -0.640 OA 
BRANCH  23  24
HETATM   24  C   UNK     1     -12.043  12.939  64.483  1.00  0.00    -0.413 C  
HETATM   25  O   UNK     1     -12.595  12.765  63.410  1.00  0.00    -0.701 OA 
BRANCH  24  26
HETATM   26  C   UNK     1     -10.849  13.834  64.722  1.00  0.00    -0.410 C  
HETATM   27  C   UNK     1     -11.266  15.289  64.845  1.00  0.00    -0.422 C  
ENDBRANCH  24  26
ENDBRANCH  23  24
ENDBRANCH  22  23
ENDBRANCH   7  22
ENDBRANCH   6   7
ENDBRANCH   4   6
ENDBRANCH   3   4
ENDBRANCH   2   3
TORSDOF 14
ENDMDL
MODEL       23
REMARK 921   NORMALIZED FREE ENERGY PREDICTED BY IDOCK:   -5.26 KCAL/MOL
REMARK 922        TOTAL FREE ENERGY PREDICTED BY IDOCK:  -10.66 KCAL/MOL
REMARK 923 INTER-LIGAND FREE ENERGY PREDICTED BY IDOCK:   -9.72 KCAL/MOL
REMARK 924 INTRA-LIGAND FREE ENERGY PREDICTED BY IDOCK:   -0.93 KCAL/MOL
REMARK 927      BINDING AFFINITY PREDICTED BY RF-SCORE:    0.00 PKD
ROOT
HETATM    1  C   UNK     1     -13.898  15.624  72.569  1.00  0.00    -0.642 C  
HETATM    2  C   UNK     1     -14.045  14.474  71.583  1.00  0.00    -0.540 C  
ENDROOT
BRANCH   2   3
HETATM    3  C   UNK     1     -13.090  13.322  71.882  1.00  0.00    -0.483 C  
BRANCH   3   4
HETATM    4  C   UNK     1     -12.395  12.857  70.629  1.00  0.00    -0.302 C  
HETATM    5  O   UNK     1     -11.939  11.732  70.473  1.00  0.00    -0.356 OA 
BRANCH   4   6
HETATM    6  O   UNK     1     -12.320  13.864  69.725  1.00  0.00    -0.329 OA 
BRANCH   6   7
HETATM    7  C   UNK     1     -11.088  14.613  69.608  1.00  0.00    -0.253 C  
BRANCH   7   8
HETATM    8  C   UNK     1     -10.174  14.097  68.488  1.00  0.00    -0.247 C  
BRANCH   8   9
HETATM    9  O   UNK     1     -10.314  12.688  68.308  1.00  0.00    -0.229 OA 
BRANCH   9  10
HETATM   10  P   UNK     1     -10.732  12.235  66.691  1.00  0.00    -0.266 P  
HETATM   11  O   UNK     1      -9.337  11.400  66.509  1.00  0.00    -0.179 OA 
HETATM   12  O   UNK     1     -11.773  11.259  67.243  1.00  0.00    -0.566 OA 
BRANCH  10  13
HETATM   13  O   UNK     1     -11.149  11.782  65.074  1.00  0.00    -0.308 OA 
BRANCH  13  14
HETATM   14  C   UNK     1     -11.652  12.886  64.308  1.00  0.00    -0.378 C  
BRANCH  14  15
HETATM   15  C   UNK     1     -12.040  14.058  65.211  1.00  0.00    -0.408 C  
HETATM   16  N   UNK     1     -13.516  14.217  65.364  1.00  0.00    -0.541 NA 
HETATM   17  C   UNK     1     -11.473  15.332  64.591  1.00  0.00    -0.354 C  
HETATM   18  O   UNK     1     -12.424  16.008  63.894  1.00  0.00    -0.806 OA 
HETATM   19  O   UNK     1     -10.305  15.683  64.657  1.00  0.00    -0.352 OA 
HETATM   20  H1  UNK     1     -13.774  14.998  65.966  1.00  0.00     0.000 HD 
HETATM   21  H2  UNK     1     -13.943  13.350  65.690  1.00  0.00     0.000 HD 
ENDBRANCH  14  15
ENDBRANCH  13  14
ENDBRANCH  10  13
ENDBRANCH   9  10
ENDBRANCH   8   9
ENDBRANCH   7   8
BRANCH   7  22
HETATM   22  C   UNK     1     -11.351  16.124  69.475  1.00  0.00    -0.321 C  
BRANCH  22  23
HETATM   23  O   UNK     1     -10.124  16.873  69.397  1.00  0.00    -0.244 OA 
BRANCH  23  24
HETATM   24  C   UNK     1     -10.208  18.044  68.706  1.00  0.00    -0.354 C  
HETATM   25  O   UNK     1     -10.092  19.152  69.201  1.00  0.00    -0.383 OA 
BRANCH  24  26
HETATM   26  C   UNK     1     -10.443  17.756  67.242  1.00  0.00    -0.356 C  
HETATM   27  C   UNK     1     -10.412  19.030  66.417  1.00  0.00    -0.524 C  
ENDBRANCH  24  26
ENDBRANCH  23  24
ENDBRANCH  22  23
ENDBRANCH   7  22
ENDBRANCH   6   7
ENDBRANCH   4   6
ENDBRANCH   3   4
ENDBRANCH   2   3
TORSDOF 14
ENDMDL
MODEL       24
REMARK 921   NORMALIZED FREE ENERGY PREDICTED BY IDOCK:   -5.26 KCAL/MOL
REMARK 922        TOTAL FREE ENERGY PREDICTED BY IDOCK:  -10.65 KCAL/MOL
REMARK 923 INTER-LIGAND FREE ENERGY PREDICTED BY IDOCK:   -9.37 KCAL/MOL
REMARK 924 INTRA-LIGAND FREE ENERGY PREDICTED BY IDOCK:   -1.28 KCAL/MOL
REMARK 927      BINDING AFFINITY PREDICTED BY RF-SCORE:    0.00 PKD
ROOT
HETATM    1  C   UNK     1     -11.946  12.140  63.724  1.00  0.00    -0.607 C  
HETATM    2  C   UNK     1     -12.368  13.578  63.457  1.00  0.00    -0.343 C  
ENDROOT
BRANCH   2   3
HETATM    3  C   UNK     1     -12.317  14.444  64.712  1.00  0.00    -0.427 C  
BRANCH   3   4
HETATM    4  C   UNK     1     -11.170  15.420  64.649  1.00  0.00    -0.364 C  
HETATM    5  O   UNK     1     -11.269  16.572  64.248  1.00  0.00    -0.992 OA 
BRANCH   4   6
HETATM    6  O   UNK     1     -10.023  14.832  65.065  1.00  0.00    -0.333 OA 
BRANCH   6   7
HETATM    7  C   UNK     1      -9.603  15.003  66.439  1.00  0.00    -0.289 C  
BRANCH   7   8
HETATM    8  C   UNK     1      -9.062  13.713  67.069  1.00  0.00    -0.248 C  
BRANCH   8   9
HETATM    9  O   UNK     1      -9.731  12.561  66.555  1.00  0.00    -0.234 OA 
BRANCH   9  10
HETATM   10  P   UNK     1     -11.010  11.993  67.573  1.00  0.00    -0.290 P  
HETATM   11  O   UNK     1     -10.946  10.500  66.910  1.00  0.00    -0.227 OA 
HETATM   12  O   UNK     1     -10.051  11.999  68.765  1.00  0.00    -0.190 OA 
BRANCH  10  13
HETATM   13  O   UNK     1     -12.289  11.425  68.591  1.00  0.00    -0.491 OA 
BRANCH  13  14
HETATM   14  C   UNK     1     -11.929  11.434  69.980  1.00  0.00    -0.363 C  
BRANCH  14  15
HETATM   15  C   UNK     1     -12.502  10.217  70.709  1.00  0.00    -0.326 C  
HETATM   16  N   UNK     1     -12.983  10.531  72.086  1.00  0.00    -0.469 NA 
HETATM   17  C   UNK     1     -11.396   9.168  70.805  1.00  0.00    -0.280 C  
HETATM   18  O   UNK     1     -10.804   9.185  72.028  1.00  0.00    -0.352 OA 
HETATM   19  O   UNK     1     -11.043   8.440  69.891  1.00  0.00    -0.216 OA 
HETATM   20  H1  UNK     1     -13.364   9.719  72.572  1.00  0.00     0.000 HD 
HETATM   21  H2  UNK     1     -13.657  11.296  72.070  1.00  0.00     0.000 HD 
ENDBRANCH  14  15
ENDBRANCH  13  14
ENDBRANCH  10  13
ENDBRANCH   9  10
ENDBRANCH   8   9
ENDBRANCH   7   8
BRANCH   7  22
HETATM   22  C   UNK     1      -8.609  16.169  66.589  1.00  0.00    -0.276 C  
BRANCH  22  23
HETATM   23  O   UNK     1      -9.273  17.389  66.966  1.00  0.00    -0.235 OA 
BRANCH  23  24
HETATM   24  C   UNK     1      -8.811  18.511  66.346  1.00  0.00    -0.256 C  
HETATM   25  O   UNK     1      -7.799  18.563  65.668  1.00  0.00    -0.491 OA 
BRANCH  24  26
HETATM   26  C   UNK     1      -9.752  19.664  66.611  1.00  0.00    -0.494 C  
HETATM   27  C   UNK     1     -10.295  19.618  68.027  1.00  0.00    -0.579 C  
ENDBRANCH  24  26
ENDBRANCH  23  24
ENDBRANCH  22  23
ENDBRANCH   7  22
ENDBRANCH   6   7
ENDBRANCH   4   6
ENDBRANCH   3   4
ENDBRANCH   2   3
TORSDOF 14
ENDMDL
MODEL       25
REMARK 921   NORMALIZED FREE ENERGY PREDICTED BY IDOCK:   -5.24 KCAL/MOL
REMARK 922        TOTAL FREE ENERGY PREDICTED BY IDOCK:  -10.62 KCAL/MOL
REMARK 923 INTER-LIGAND FREE ENERGY PREDICTED BY IDOCK:   -9.16 KCAL/MOL
REMARK 924 INTRA-LIGAND FREE ENERGY PREDICTED BY IDOCK:   -1.46 KCAL/MOL
REMARK 927      BINDING AFFINITY PREDICTED BY RF-SCORE:    0.00 PKD
ROOT
HETATM    1  C   UNK     1      -8.845  10.949  62.894  1.00  0.00    -0.265 C  
HETATM    2  C   UNK     1     -10.261  10.877  63.448  1.00  0.00    -0.356 C  
ENDROOT
BRANCH   2   3
HETATM    3  C   UNK     1     -10.776  12.235  63.913  1.00  0.00    -0.463 C  
BRANCH   3   4
HETATM    4  C   UNK     1     -12.268  12.205  64.121  1.00  0.00    -0.413 C  
HETATM    5  O   UNK     1     -13.083  12.032  63.225  1.00  0.00    -0.701 OA 
BRANCH   4   6
HETATM    6  O   UNK     1     -12.571  12.427  65.422  1.00  0.00    -0.637 OA 
BRANCH   6   7
HETATM    7  C   UNK     1     -11.563  12.995  66.292  1.00  0.00    -0.360 C  
BRANCH   7   8
HETATM    8  C   UNK     1     -11.832  14.463  66.647  1.00  0.00    -0.398 C  
BRANCH   8   9
HETATM    9  O   UNK     1     -11.153  15.348  65.756  1.00  0.00    -0.324 OA 
BRANCH   9  10
HETATM   10  P   UNK     1     -10.138  16.495  66.559  1.00  0.00    -0.320 P  
HETATM   11  O   UNK     1      -8.799  15.611  66.243  1.00  0.00    -0.306 OA 
HETATM   12  O   UNK     1     -10.325  17.465  65.391  1.00  0.00    -0.631 OA 
BRANCH  10  13
HETATM   13  O   UNK     1      -9.122  17.642  67.363  1.00  0.00    -0.236 OA 
BRANCH  13  14
HETATM   14  C   UNK     1      -9.871  18.695  67.987  1.00  0.00    -0.342 C  
BRANCH  14  15
HETATM   15  C   UNK     1      -9.400  20.070  67.508  1.00  0.00    -0.367 C  
HETATM   16  N   UNK     1      -9.974  20.457  66.186  1.00  0.00    -0.606 NA 
HETATM   17  C   UNK     1      -7.879  20.025  67.386  1.00  0.00    -0.295 C  
HETATM   18  O   UNK     1      -7.492  19.830  66.097  1.00  0.00    -0.278 OA 
HETATM   19  O   UNK     1      -7.100  20.099  68.324  1.00  0.00    -0.297 OA 
HETATM   20  H1  UNK     1      -9.661  21.373  65.867  1.00  0.00     0.000 HD 
HETATM   21  H2  UNK     1     -10.993  20.407  66.204  1.00  0.00     0.000 HD 
ENDBRANCH  14  15
ENDBRANCH  13  14
ENDBRANCH  10  13
ENDBRANCH   9  10
ENDBRANCH   8   9
ENDBRANCH   7   8
BRANCH   7  22
HETATM   22  C   UNK     1     -11.350  12.136  67.552  1.00  0.00    -0.326 C  
BRANCH  22  23
HETATM   23  O   UNK     1     -11.559  10.737  67.283  1.00  0.00    -0.439 OA 
BRANCH  23  24
HETATM   24  C   UNK     1     -10.423  10.014  67.078  1.00  0.00    -0.238 C  
HETATM   25  O   UNK     1     -10.373   8.952  66.482  1.00  0.00    -0.276 OA 
BRANCH  24  26
HETATM   26  C   UNK     1      -9.242  10.740  67.681  1.00  0.00    -0.152 C  
HETATM   27  C   UNK     1      -8.026  10.662  66.776  1.00  0.00    -0.132 C  
ENDBRANCH  24  26
ENDBRANCH  23  24
ENDBRANCH  22  23
ENDBRANCH   7  22
ENDBRANCH   6   7
ENDBRANCH   4   6
ENDBRANCH   3   4
ENDBRANCH   2   3
TORSDOF 14
ENDMDL
MODEL       26
REMARK 921   NORMALIZED FREE ENERGY PREDICTED BY IDOCK:   -5.24 KCAL/MOL
REMARK 922        TOTAL FREE ENERGY PREDICTED BY IDOCK:  -10.61 KCAL/MOL
REMARK 923 INTER-LIGAND FREE ENERGY PREDICTED BY IDOCK:   -9.47 KCAL/MOL
REMARK 924 INTRA-LIGAND FREE ENERGY PREDICTED BY IDOCK:   -1.14 KCAL/MOL
REMARK 927      BINDING AFFINITY PREDICTED BY RF-SCORE:    0.00 PKD
ROOT
HETATM    1  C   UNK     1      -9.094  10.809  63.076  1.00  0.00    -0.290 C  
HETATM    2  C   UNK     1     -10.318  11.098  63.933  1.00  0.00    -0.441 C  
ENDROOT
BRANCH   2   3
HETATM    3  C   UNK     1     -10.928  12.465  63.640  1.00  0.00    -0.525 C  
BRANCH   3   4
HETATM    4  C   UNK     1     -12.052  12.770  64.595  1.00  0.00    -0.423 C  
HETATM    5  O   UNK     1     -13.168  12.272  64.526  1.00  0.00    -0.799 OA 
BRANCH   4   6
HETATM    6  O   UNK     1     -11.662  13.690  65.510  1.00  0.00    -0.319 OA 
BRANCH   6   7
HETATM    7  C   UNK     1     -11.013  13.242  66.724  1.00  0.00    -0.287 C  
BRANCH   7   8
HETATM    8  C   UNK     1      -9.870  14.162  67.171  1.00  0.00    -0.253 C  
BRANCH   8   9
HETATM    9  O   UNK     1      -9.717  15.271  66.285  1.00  0.00    -0.259 OA 
BRANCH   9  10
HETATM   10  P   UNK     1      -9.860  16.807  67.068  1.00  0.00    -0.281 P  
HETATM   11  O   UNK     1     -10.298  17.538  65.672  1.00  0.00    -0.601 OA 
HETATM   12  O   UNK     1     -11.144  16.329  67.750  1.00  0.00    -0.310 OA 
BRANCH  10  13
HETATM   13  O   UNK     1     -10.004  18.343  67.851  1.00  0.00    -0.318 OA 
BRANCH  13  14
HETATM   14  C   UNK     1      -8.728  18.918  68.170  1.00  0.00    -0.309 C  
BRANCH  14  15
HETATM   15  C   UNK     1      -8.454  20.163  67.324  1.00  0.00    -0.342 C  
HETATM   16  N   UNK     1      -9.578  20.504  66.403  1.00  0.00    -0.654 NA 
HETATM   17  C   UNK     1      -7.204  19.895  66.491  1.00  0.00    -0.254 C  
HETATM   18  O   UNK     1      -7.525  19.530  65.221  1.00  0.00    -0.382 OA 
HETATM   19  O   UNK     1      -6.059  19.945  66.912  1.00  0.00    -0.176 OA 
HETATM   20  H1  UNK     1      -9.395  21.335  65.840  1.00  0.00     0.000 HD 
HETATM   21  H2  UNK     1     -10.453  20.600  66.918  1.00  0.00     0.000 HD 
ENDBRANCH  14  15
ENDBRANCH  13  14
ENDBRANCH  10  13
ENDBRANCH   9  10
ENDBRANCH   8   9
ENDBRANCH   7   8
BRANCH   7  22
HETATM   22  C   UNK     1     -12.029  13.006  67.857  1.00  0.00    -0.291 C  
BRANCH  22  23
HETATM   23  O   UNK     1     -12.191  11.604  68.143  1.00  0.00    -0.537 OA 
BRANCH  23  24
HETATM   24  C   UNK     1     -11.462  11.144  69.198  1.00  0.00    -0.298 C  
HETATM   25  O   UNK     1     -10.281  10.847  69.150  1.00  0.00    -0.213 OA 
BRANCH  24  26
HETATM   26  C   UNK     1     -12.335  11.080  70.430  1.00  0.00    -0.442 C  
HETATM   27  C   UNK     1     -12.093   9.801  71.211  1.00  0.00    -0.470 C  
ENDBRANCH  24  26
ENDBRANCH  23  24
ENDBRANCH  22  23
ENDBRANCH   7  22
ENDBRANCH   6   7
ENDBRANCH   4   6
ENDBRANCH   3   4
ENDBRANCH   2   3
TORSDOF 14
ENDMDL
MODEL       27
REMARK 921   NORMALIZED FREE ENERGY PREDICTED BY IDOCK:   -5.23 KCAL/MOL
REMARK 922        TOTAL FREE ENERGY PREDICTED BY IDOCK:  -10.61 KCAL/MOL
REMARK 923 INTER-LIGAND FREE ENERGY PREDICTED BY IDOCK:   -9.71 KCAL/MOL
REMARK 924 INTRA-LIGAND FREE ENERGY PREDICTED BY IDOCK:   -0.90 KCAL/MOL
REMARK 927      BINDING AFFINITY PREDICTED BY RF-SCORE:    0.00 PKD
ROOT
HETATM    1  C   UNK     1      -9.668  10.522  64.349  1.00  0.00    -0.388 C  
HETATM    2  C   UNK     1     -10.280  11.391  63.259  1.00  0.00    -0.430 C  
ENDROOT
BRANCH   2   3
HETATM    3  C   UNK     1     -11.715  11.802  63.577  1.00  0.00    -0.485 C  
BRANCH   3   4
HETATM    4  C   UNK     1     -11.842  13.301  63.655  1.00  0.00    -0.458 C  
HETATM    5  O   UNK     1     -12.759  13.940  63.156  1.00  0.00    -0.718 OA 
BRANCH   4   6
HETATM    6  O   UNK     1     -10.790  13.834  64.322  1.00  0.00    -0.368 OA 
BRANCH   6   7
HETATM    7  C   UNK     1     -11.031  14.550  65.556  1.00  0.00    -0.335 C  
BRANCH   7   8
HETATM    8  C   UNK     1     -10.948  13.655  66.799  1.00  0.00    -0.292 C  
BRANCH   8   9
HETATM    9  O   UNK     1     -12.194  13.615  67.496  1.00  0.00    -0.342 OA 
BRANCH   9  10
HETATM   10  P   UNK     1     -12.022  13.545  69.217  1.00  0.00    -0.254 P  
HETATM   11  O   UNK     1     -11.634  11.957  69.166  1.00  0.00    -0.262 OA 
HETATM   12  O   UNK     1     -10.715  14.333  69.109  1.00  0.00    -0.247 OA 
BRANCH  10  13
HETATM   13  O   UNK     1     -11.850  13.475  70.937  1.00  0.00    -0.196 OA 
BRANCH  13  14
HETATM   14  C   UNK     1     -13.114  13.404  71.612  1.00  0.00    -0.375 C  
BRANCH  14  15
HETATM   15  C   UNK     1     -13.602  14.795  72.024  1.00  0.00    -0.403 C  
HETATM   16  N   UNK     1     -14.204  15.562  70.894  1.00  0.00    -0.829 NA 
HETATM   17  C   UNK     1     -12.401  15.571  72.557  1.00  0.00    -0.411 C  
HETATM   18  O   UNK     1     -11.896  16.410  71.614  1.00  0.00    -0.456 OA 
HETATM   19  O   UNK     1     -11.912  15.427  73.667  1.00  0.00    -0.471 OA 
HETATM   20  H1  UNK     1     -14.529  16.489  71.169  1.00  0.00     0.000 HD 
HETATM   21  H2  UNK     1     -14.953  15.030  70.452  1.00  0.00     0.000 HD 
ENDBRANCH  14  15
ENDBRANCH  13  14
ENDBRANCH  10  13
ENDBRANCH   9  10
ENDBRANCH   8   9
ENDBRANCH   7   8
BRANCH   7  22
HETATM   22  C   UNK     1     -10.118  15.784  65.684  1.00  0.00    -0.371 C  
BRANCH  22  23
HETATM   23  O   UNK     1     -10.508  16.621  66.789  1.00  0.00    -0.298 OA 
BRANCH  23  24
HETATM   24  C   UNK     1      -9.550  17.490  67.217  1.00  0.00    -0.273 C  
HETATM   25  O   UNK     1      -8.526  17.166  67.795  1.00  0.00    -0.202 OA 
BRANCH  24  26
HETATM   26  C   UNK     1      -9.943  18.902  66.850  1.00  0.00    -0.391 C  
HETATM   27  C   UNK     1      -9.303  19.913  67.785  1.00  0.00    -0.454 C  
ENDBRANCH  24  26
ENDBRANCH  23  24
ENDBRANCH  22  23
ENDBRANCH   7  22
ENDBRANCH   6   7
ENDBRANCH   4   6
ENDBRANCH   3   4
ENDBRANCH   2   3
TORSDOF 14
ENDMDL
MODEL       28
REMARK 921   NORMALIZED FREE ENERGY PREDICTED BY IDOCK:   -5.23 KCAL/MOL
REMARK 922        TOTAL FREE ENERGY PREDICTED BY IDOCK:  -10.59 KCAL/MOL
REMARK 923 INTER-LIGAND FREE ENERGY PREDICTED BY IDOCK:   -9.41 KCAL/MOL
REMARK 924 INTRA-LIGAND FREE ENERGY PREDICTED BY IDOCK:   -1.18 KCAL/MOL
REMARK 927      BINDING AFFINITY PREDICTED BY RF-SCORE:    0.00 PKD
ROOT
HETATM    1  C   UNK     1     -12.059  13.303  63.801  1.00  0.00    -0.546 C  
HETATM    2  C   UNK     1     -12.365  12.752  65.187  1.00  0.00    -0.555 C  
ENDROOT
BRANCH   2   3
HETATM    3  C   UNK     1     -11.245  11.867  65.724  1.00  0.00    -0.365 C  
BRANCH   3   4
HETATM    4  C   UNK     1     -11.324  11.746  67.224  1.00  0.00    -0.315 C  
HETATM    5  O   UNK     1     -10.818  10.837  67.868  1.00  0.00    -0.221 OA 
BRANCH   4   6
HETATM    6  O   UNK     1     -12.055  12.761  67.745  1.00  0.00    -0.314 OA 
BRANCH   6   7
HETATM    7  C   UNK     1     -11.493  13.554  68.817  1.00  0.00    -0.311 C  
BRANCH   7   8
HETATM    8  C   UNK     1     -11.502  15.060  68.522  1.00  0.00    -0.317 C  
BRANCH   8   9
HETATM    9  O   UNK     1     -11.553  15.315  67.117  1.00  0.00    -0.265 OA 
BRANCH   9  10
HETATM   10  P   UNK     1     -10.219  16.251  66.536  1.00  0.00    -0.311 P  
HETATM   11  O   UNK     1      -9.823  16.725  68.050  1.00  0.00    -0.252 OA 
HETATM   12  O   UNK     1      -9.449  14.959  66.252  1.00  0.00    -0.279 OA 
BRANCH  10  13
HETATM   13  O   UNK     1      -8.885  17.186  65.954  1.00  0.00    -0.520 OA 
BRANCH  13  14
HETATM   14  C   UNK     1      -8.922  18.543  66.418  1.00  0.00    -0.266 C  
BRANCH  14  15
HETATM   15  C   UNK     1      -7.577  18.962  67.015  1.00  0.00    -0.228 C  
HETATM   16  N   UNK     1      -7.607  19.073  68.503  1.00  0.00    -0.316 NA 
HETATM   17  C   UNK     1      -7.212  20.325  66.431  1.00  0.00    -0.264 C  
HETATM   18  O   UNK     1      -7.514  21.330  67.296  1.00  0.00    -0.449 OA 
HETATM   19  O   UNK     1      -6.758  20.507  65.312  1.00  0.00    -0.271 OA 
HETATM   20  H1  UNK     1      -6.710  19.352  68.901  1.00  0.00     0.000 HD 
HETATM   21  H2  UNK     1      -7.937  18.205  68.926  1.00  0.00     0.000 HD 
ENDBRANCH  14  15
ENDBRANCH  13  14
ENDBRANCH  10  13
ENDBRANCH   9  10
ENDBRANCH   8   9
ENDBRANCH   7   8
BRANCH   7  22
HETATM   22  C   UNK     1     -12.159  13.237  70.168  1.00  0.00    -0.333 C  
BRANCH  22  23
HETATM   23  O   UNK     1     -12.933  14.350  70.654  1.00  0.00    -0.356 OA 
BRANCH  23  24
HETATM   24  C   UNK     1     -13.528  14.152  71.863  1.00  0.00    -0.405 C  
HETATM   25  O   UNK     1     -13.713  13.061  72.376  1.00  0.00    -0.578 OA 
BRANCH  24  26
HETATM   26  C   UNK     1     -13.901  15.484  72.472  1.00  0.00    -0.669 C  
HETATM   27  C   UNK     1     -12.854  15.947  73.468  1.00  0.00    -0.705 C  
ENDBRANCH  24  26
ENDBRANCH  23  24
ENDBRANCH  22  23
ENDBRANCH   7  22
ENDBRANCH   6   7
ENDBRANCH   4   6
ENDBRANCH   3   4
ENDBRANCH   2   3
TORSDOF 14
ENDMDL
MODEL       29
REMARK 921   NORMALIZED FREE ENERGY PREDICTED BY IDOCK:   -5.22 KCAL/MOL
REMARK 922        TOTAL FREE ENERGY PREDICTED BY IDOCK:  -10.58 KCAL/MOL
REMARK 923 INTER-LIGAND FREE ENERGY PREDICTED BY IDOCK:   -9.69 KCAL/MOL
REMARK 924 INTRA-LIGAND FREE ENERGY PREDICTED BY IDOCK:   -0.89 KCAL/MOL
REMARK 927      BINDING AFFINITY PREDICTED BY RF-SCORE:    0.00 PKD
ROOT
HETATM    1  C   UNK     1     -11.882  12.158  63.209  1.00  0.00    -0.466 C  
HETATM    2  C   UNK     1     -10.422  11.772  63.400  1.00  0.00    -0.485 C  
ENDROOT
BRANCH   2   3
HETATM    3  C   UNK     1     -10.216  10.836  64.587  1.00  0.00    -0.419 C  
BRANCH   3   4
HETATM    4  C   UNK     1     -10.017  11.616  65.861  1.00  0.00    -0.231 C  
HETATM    5  O   UNK     1      -8.924  11.930  66.312  1.00  0.00    -0.207 OA 
BRANCH   4   6
HETATM    6  O   UNK     1     -11.210  11.888  66.443  1.00  0.00    -0.307 OA 
BRANCH   6   7
HETATM    7  C   UNK     1     -11.342  13.080  67.253  1.00  0.00    -0.306 C  
BRANCH   7   8
HETATM    8  C   UNK     1     -12.206  14.163  66.595  1.00  0.00    -0.418 C  
BRANCH   8   9
HETATM    9  O   UNK     1     -11.631  14.615  65.368  1.00  0.00    -0.346 OA 
BRANCH   9  10
HETATM   10  P   UNK     1     -10.968  16.210  65.461  1.00  0.00    -0.021 P  
HETATM   11  O   UNK     1      -9.438  15.635  65.397  1.00  0.00    -0.275 OA 
HETATM   12  O   UNK     1     -11.414  16.469  64.020  1.00  0.00    -1.137 OA 
BRANCH  10  13
HETATM   13  O   UNK     1     -10.305  17.805  65.554  1.00  0.00    -0.623 OA 
BRANCH  13  14
HETATM   14  C   UNK     1     -10.655  18.475  66.774  1.00  0.00    -0.354 C  
BRANCH  14  15
HETATM   15  C   UNK     1      -9.519  19.379  67.256  1.00  0.00    -0.318 C  
HETATM   16  N   UNK     1      -9.560  20.743  66.651  1.00  0.00    -0.640 NA 
HETATM   17  C   UNK     1      -8.199  18.714  66.872  1.00  0.00    -0.261 C  
HETATM   18  O   UNK     1      -7.683  19.258  65.738  1.00  0.00    -0.427 OA 
HETATM   19  O   UNK     1      -7.690  17.778  67.467  1.00  0.00    -0.202 OA 
HETATM   20  H1  UNK     1      -8.803  21.346  66.973  1.00  0.00     0.000 HD 
HETATM   21  H2  UNK     1     -10.467  21.183  66.809  1.00  0.00     0.000 HD 
ENDBRANCH  14  15
ENDBRANCH  13  14
ENDBRANCH  10  13
ENDBRANCH   9  10
ENDBRANCH   8   9
ENDBRANCH   7   8
BRANCH   7  22
HETATM   22  C   UNK     1     -11.832  12.749  68.675  1.00  0.00    -0.304 C  
BRANCH  22  23
HETATM   23  O   UNK     1     -12.172  11.357  68.810  1.00  0.00    -0.502 OA 
BRANCH  23  24
HETATM   24  C   UNK     1     -11.558  10.712  69.841  1.00  0.00    -0.316 C  
HETATM   25  O   UNK     1     -10.352  10.583  69.960  1.00  0.00    -0.195 OA 
BRANCH  24  26
HETATM   26  C   UNK     1     -12.596  10.204  70.815  1.00  0.00    -0.406 C  
HETATM   27  C   UNK     1     -13.055  11.305  71.754  1.00  0.00    -0.527 C  
ENDBRANCH  24  26
ENDBRANCH  23  24
ENDBRANCH  22  23
ENDBRANCH   7  22
ENDBRANCH   6   7
ENDBRANCH   4   6
ENDBRANCH   3   4
ENDBRANCH   2   3
TORSDOF 14
ENDMDL
MODEL       30
REMARK 921   NORMALIZED FREE ENERGY PREDICTED BY IDOCK:   -5.22 KCAL/MOL
REMARK 922        TOTAL FREE ENERGY PREDICTED BY IDOCK:  -10.58 KCAL/MOL
REMARK 923 INTER-LIGAND FREE ENERGY PREDICTED BY IDOCK:   -9.59 KCAL/MOL
REMARK 924 INTRA-LIGAND FREE ENERGY PREDICTED BY IDOCK:   -0.99 KCAL/MOL
REMARK 927      BINDING AFFINITY PREDICTED BY RF-SCORE:    0.00 PKD
ROOT
HETATM    1  C   UNK     1     -11.649  11.753  63.282  1.00  0.00    -0.325 C  
HETATM    2  C   UNK     1     -10.166  11.516  63.530  1.00  0.00    -0.462 C  
ENDROOT
BRANCH   2   3
HETATM    3  C   UNK     1      -9.899  10.831  64.866  1.00  0.00    -0.350 C  
BRANCH   3   4
HETATM    4  C   UNK     1      -9.911  11.828  65.996  1.00  0.00    -0.229 C  
HETATM    5  O   UNK     1      -8.913  12.384  66.433  1.00  0.00    -0.192 OA 
BRANCH   4   6
HETATM    6  O   UNK     1     -11.169  11.992  66.472  1.00  0.00    -0.301 OA 
BRANCH   6   7
HETATM    7  C   UNK     1     -11.574  13.295  66.953  1.00  0.00    -0.364 C  
BRANCH   7   8
HETATM    8  C   UNK     1     -12.621  13.970  66.056  1.00  0.00    -0.414 C  
BRANCH   8   9
HETATM    9  O   UNK     1     -12.021  14.534  64.889  1.00  0.00    -0.392 OA 
BRANCH   9  10
HETATM   10  P   UNK     1     -11.212  16.035  65.184  1.00  0.00    -0.022 P  
HETATM   11  O   UNK     1      -9.750  15.365  64.891  1.00  0.00    -0.157 OA 
HETATM   12  O   UNK     1     -11.739  16.570  63.851  1.00  0.00    -1.148 OA 
BRANCH  10  13
HETATM   13  O   UNK     1     -10.404  17.536  65.479  1.00  0.00    -0.620 OA 
BRANCH  13  14
HETATM   14  C   UNK     1     -10.336  17.858  66.876  1.00  0.00    -0.355 C  
BRANCH  14  15
HETATM   15  C   UNK     1      -9.854  19.294  67.091  1.00  0.00    -0.339 C  
HETATM   16  N   UNK     1     -10.090  20.174  65.910  1.00  0.00    -0.562 NA 
HETATM   17  C   UNK     1      -8.355  19.245  67.373  1.00  0.00    -0.287 C  
HETATM   18  O   UNK     1      -7.633  19.540  66.259  1.00  0.00    -0.260 OA 
HETATM   19  O   UNK     1      -7.854  18.929  68.441  1.00  0.00    -0.301 OA 
HETATM   20  H1  UNK     1      -9.768  21.132  66.054  1.00  0.00     0.000 HD 
HETATM   21  H2  UNK     1     -11.072  20.158  65.634  1.00  0.00     0.000 HD 
ENDBRANCH  14  15
ENDBRANCH  13  14
ENDBRANCH  10  13
ENDBRANCH   9  10
ENDBRANCH   8   9
ENDBRANCH   7   8
BRANCH   7  22
HETATM   22  C   UNK     1     -12.034  13.242  68.421  1.00  0.00    -0.301 C  
BRANCH  22  23
HETATM   23  O   UNK     1     -11.898  14.521  69.068  1.00  0.00    -0.299 OA 
BRANCH  23  24
HETATM   24  C   UNK     1     -12.502  14.617  70.285  1.00  0.00    -0.346 C  
HETATM   25  O   UNK     1     -12.961  15.644  70.754  1.00  0.00    -0.478 OA 
BRANCH  24  26
HETATM   26  C   UNK     1     -12.532  13.259  70.947  1.00  0.00    -0.424 C  
HETATM   27  C   UNK     1     -13.534  13.223  72.087  1.00  0.00    -0.655 C  
ENDBRANCH  24  26
ENDBRANCH  23  24
ENDBRANCH  22  23
ENDBRANCH   7  22
ENDBRANCH   6   7
ENDBRANCH   4   6
ENDBRANCH   3   4
ENDBRANCH   2   3
TORSDOF 14
ENDMDL
MODEL       31
REMARK 921   NORMALIZED FREE ENERGY PREDICTED BY IDOCK:   -5.21 KCAL/MOL
REMARK 922        TOTAL FREE ENERGY PREDICTED BY IDOCK:  -10.56 KCAL/MOL
REMARK 923 INTER-LIGAND FREE ENERGY PREDICTED BY IDOCK:   -9.77 KCAL/MOL
REMARK 924 INTRA-LIGAND FREE ENERGY PREDICTED BY IDOCK:   -0.79 KCAL/MOL
REMARK 927      BINDING AFFINITY PREDICTED BY RF-SCORE:    0.00 PKD
ROOT
HETATM    1  C   UNK     1     -10.241  10.650  64.315  1.00  0.00    -0.391 C  
HETATM    2  C   UNK     1     -11.268  11.745  64.065  1.00  0.00    -0.461 C  
ENDROOT
BRANCH   2   3
HETATM    3  C   UNK     1     -10.668  13.143  64.170  1.00  0.00    -0.399 C  
BRANCH   3   4
HETATM    4  C   UNK     1     -11.635  14.099  64.819  1.00  0.00    -0.396 C  
HETATM    5  O   UNK     1     -12.749  14.353  64.381  1.00  0.00    -0.665 OA 
BRANCH   4   6
HETATM    6  O   UNK     1     -11.085  14.653  65.927  1.00  0.00    -0.325 OA 
BRANCH   6   7
HETATM    7  C   UNK     1     -11.852  14.680  67.154  1.00  0.00    -0.345 C  
BRANCH   7   8
HETATM    8  C   UNK     1     -12.141  13.281  67.715  1.00  0.00    -0.237 C  
BRANCH   8   9
HETATM    9  O   UNK     1     -10.970  12.696  68.285  1.00  0.00    -0.225 OA 
BRANCH   9  10
HETATM   10  P   UNK     1     -11.305  11.602  69.583  1.00  0.00    -0.143 P  
HETATM   11  O   UNK     1     -12.119  12.753  70.413  1.00  0.00    -0.363 OA 
HETATM   12  O   UNK     1     -12.323  10.880  68.698  1.00  0.00    -0.501 OA 
BRANCH  10  13
HETATM   13  O   UNK     1     -11.640  10.509  70.881  1.00  0.00    -0.338 OA 
BRANCH  13  14
HETATM   14  C   UNK     1     -13.030  10.490  71.238  1.00  0.00    -0.433 C  
BRANCH  14  15
HETATM   15  C   UNK     1     -13.477   9.088  71.657  1.00  0.00    -0.386 C  
HETATM   16  N   UNK     1     -14.056   9.044  73.031  1.00  0.00    -1.146 NA 
HETATM   17  C   UNK     1     -12.254   8.176  71.612  1.00  0.00    -0.308 C  
HETATM   18  O   UNK     1     -11.725   7.998  72.851  1.00  0.00    -0.369 OA 
HETATM   19  O   UNK     1     -11.770   7.705  70.594  1.00  0.00    -0.273 OA 
HETATM   20  H1  UNK     1     -14.354   8.109  73.310  1.00  0.00     0.000 HD 
HETATM   21  H2  UNK     1     -14.820   9.713  73.126  1.00  0.00     0.000 HD 
ENDBRANCH  14  15
ENDBRANCH  13  14
ENDBRANCH  10  13
ENDBRANCH   9  10
ENDBRANCH   8   9
ENDBRANCH   7   8
BRANCH   7  22
HETATM   22  C   UNK     1     -11.202  15.592  68.210  1.00  0.00    -0.343 C  
BRANCH  22  23
HETATM   23  O   UNK     1      -9.826  15.875  67.895  1.00  0.00    -0.217 OA 
BRANCH  23  24
HETATM   24  C   UNK     1      -9.490  17.195  67.920  1.00  0.00    -0.257 C  
HETATM   25  O   UNK     1      -8.675  17.690  68.680  1.00  0.00    -0.293 OA 
BRANCH  24  26
HETATM   26  C   UNK     1     -10.262  17.938  66.855  1.00  0.00    -0.358 C  
HETATM   27  C   UNK     1     -10.724  19.295  67.354  1.00  0.00    -0.594 C  
ENDBRANCH  24  26
ENDBRANCH  23  24
ENDBRANCH  22  23
ENDBRANCH   7  22
ENDBRANCH   6   7
ENDBRANCH   4   6
ENDBRANCH   3   4
ENDBRANCH   2   3
TORSDOF 14
ENDMDL
MODEL       32
REMARK 921   NORMALIZED FREE ENERGY PREDICTED BY IDOCK:   -5.21 KCAL/MOL
REMARK 922        TOTAL FREE ENERGY PREDICTED BY IDOCK:  -10.56 KCAL/MOL
REMARK 923 INTER-LIGAND FREE ENERGY PREDICTED BY IDOCK:   -9.82 KCAL/MOL
REMARK 924 INTRA-LIGAND FREE ENERGY PREDICTED BY IDOCK:   -0.73 KCAL/MOL
REMARK 927      BINDING AFFINITY PREDICTED BY RF-SCORE:    0.00 PKD
ROOT
HETATM    1  C   UNK     1     -10.731  19.380  67.301  1.00  0.00    -0.603 C  
HETATM    2  C   UNK     1     -10.358  18.540  66.087  1.00  0.00    -0.457 C  
ENDROOT
BRANCH   2   3
HETATM    3  C   UNK     1     -10.365  17.044  66.389  1.00  0.00    -0.304 C  
BRANCH   3   4
HETATM    4  C   UNK     1     -10.724  16.248  65.161  1.00  0.00    -0.331 C  
HETATM    5  O   UNK     1     -11.393  16.681  64.233  1.00  0.00    -1.116 OA 
BRANCH   4   6
HETATM    6  O   UNK     1     -10.233  14.988  65.251  1.00  0.00    -0.361 OA 
BRANCH   6   7
HETATM    7  C   UNK     1     -11.152  13.886  65.436  1.00  0.00    -0.310 C  
BRANCH   7   8
HETATM    8  C   UNK     1     -12.237  14.176  66.482  1.00  0.00    -0.433 C  
BRANCH   8   9
HETATM    9  O   UNK     1     -11.717  14.092  67.809  1.00  0.00    -0.332 OA 
BRANCH   9  10
HETATM   10  P   UNK     1     -11.774  12.496  68.474  1.00  0.00    -0.269 P  
HETATM   11  O   UNK     1     -10.149  12.338  68.372  1.00  0.00    -0.214 OA 
HETATM   12  O   UNK     1     -12.084  13.090  69.850  1.00  0.00    -0.313 OA 
BRANCH  10  13
HETATM   13  O   UNK     1     -11.831  10.900  69.139  1.00  0.00    -0.310 OA 
BRANCH  13  14
HETATM   14  C   UNK     1     -11.854  10.903  70.574  1.00  0.00    -0.360 C  
BRANCH  14  15
HETATM   15  C   UNK     1     -12.758   9.794  71.116  1.00  0.00    -0.340 C  
HETATM   16  N   UNK     1     -13.431  10.161  72.396  1.00  0.00    -0.594 NA 
HETATM   17  C   UNK     1     -11.890   8.561  71.356  1.00  0.00    -0.296 C  
HETATM   18  O   UNK     1     -11.549   8.445  72.667  1.00  0.00    -0.385 OA 
HETATM   19  O   UNK     1     -11.500   7.800  70.485  1.00  0.00    -0.271 OA 
HETATM   20  H1  UNK     1     -14.034   9.422  72.758  1.00  0.00     0.000 HD 
HETATM   21  H2  UNK     1     -13.948  11.035  72.298  1.00  0.00     0.000 HD 
ENDBRANCH  14  15
ENDBRANCH  13  14
ENDBRANCH  10  13
ENDBRANCH   9  10
ENDBRANCH   8   9
ENDBRANCH   7   8
BRANCH   7  22
HETATM   22  C   UNK     1     -11.761  13.423  64.100  1.00  0.00    -0.419 C  
BRANCH  22  23
HETATM   23  O   UNK     1     -11.667  11.995  63.939  1.00  0.00    -0.397 OA 
BRANCH  23  24
HETATM   24  C   UNK     1     -10.402  11.517  63.779  1.00  0.00    -0.399 C  
HETATM   25  O   UNK     1      -9.609  11.917  62.944  1.00  0.00    -0.367 OA 
BRANCH  24  26
HETATM   26  C   UNK     1     -10.132  10.439  64.803  1.00  0.00    -0.387 C  
HETATM   27  C   UNK     1      -9.020   9.511  64.346  1.00  0.00    -0.255 C  
ENDBRANCH  24  26
ENDBRANCH  23  24
ENDBRANCH  22  23
ENDBRANCH   7  22
ENDBRANCH   6   7
ENDBRANCH   4   6
ENDBRANCH   3   4
ENDBRANCH   2   3
TORSDOF 14
ENDMDL
MODEL       33
REMARK 921   NORMALIZED FREE ENERGY PREDICTED BY IDOCK:   -5.20 KCAL/MOL
REMARK 922        TOTAL FREE ENERGY PREDICTED BY IDOCK:  -10.55 KCAL/MOL
REMARK 923 INTER-LIGAND FREE ENERGY PREDICTED BY IDOCK:   -9.70 KCAL/MOL
REMARK 924 INTRA-LIGAND FREE ENERGY PREDICTED BY IDOCK:   -0.84 KCAL/MOL
REMARK 927      BINDING AFFINITY PREDICTED BY RF-SCORE:    0.00 PKD
ROOT
HETATM    1  C   UNK     1      -9.539   8.820  68.223  1.00  0.00    -0.160 C  
HETATM    2  C   UNK     1      -9.755   9.969  69.197  1.00  0.00    -0.217 C  
ENDROOT
BRANCH   2   3
HETATM    3  C   UNK     1     -11.190  10.488  69.180  1.00  0.00    -0.314 C  
BRANCH   3   4
HETATM    4  C   UNK     1     -11.336  11.639  68.219  1.00  0.00    -0.285 C  
HETATM    5  O   UNK     1     -12.062  11.625  67.234  1.00  0.00    -0.595 OA 
BRANCH   4   6
HETATM    6  O   UNK     1     -10.531  12.667  68.582  1.00  0.00    -0.237 OA 
BRANCH   6   7
HETATM    7  C   UNK     1     -11.131  13.921  68.987  1.00  0.00    -0.268 C  
BRANCH   7   8
HETATM    8  C   UNK     1     -11.639  14.755  67.803  1.00  0.00    -0.357 C  
BRANCH   8   9
HETATM    9  O   UNK     1     -10.728  14.709  66.704  1.00  0.00    -0.294 OA 
BRANCH   9  10
HETATM   10  P   UNK     1     -10.119  16.262  66.245  1.00  0.00    -0.358 P  
HETATM   11  O   UNK     1     -10.977  16.245  64.853  1.00  0.00    -0.565 OA 
HETATM   12  O   UNK     1     -11.002  16.913  67.311  1.00  0.00    -0.188 OA 
BRANCH  10  13
HETATM   13  O   UNK     1      -9.510  17.814  65.786  1.00  0.00    -0.518 OA 
BRANCH  13  14
HETATM   14  C   UNK     1     -10.414  18.879  66.118  1.00  0.00    -0.457 C  
BRANCH  14  15
HETATM   15  C   UNK     1      -9.673  20.057  66.753  1.00  0.00    -0.435 C  
HETATM   16  N   UNK     1      -8.399  20.394  66.053  1.00  0.00    -0.549 NA 
HETATM   17  C   UNK     1      -9.354  19.684  68.198  1.00  0.00    -0.352 C  
HETATM   18  O   UNK     1      -8.068  19.259  68.325  1.00  0.00    -0.306 OA 
HETATM   19  O   UNK     1     -10.154  19.706  69.119  1.00  0.00    -0.438 OA 
HETATM   20  H1  UNK     1      -7.906  21.180  66.476  1.00  0.00     0.000 HD 
HETATM   21  H2  UNK     1      -8.562  20.559  65.060  1.00  0.00     0.000 HD 
ENDBRANCH  14  15
ENDBRANCH  13  14
ENDBRANCH  10  13
ENDBRANCH   9  10
ENDBRANCH   8   9
ENDBRANCH   7   8
BRANCH   7  22
HETATM   22  C   UNK     1     -12.228  13.710  70.046  1.00  0.00    -0.329 C  
BRANCH  22  23
HETATM   23  O   UNK     1     -12.856  14.952  70.415  1.00  0.00    -0.338 OA 
BRANCH  23  24
HETATM   24  C   UNK     1     -12.379  15.519  71.558  1.00  0.00    -0.401 C  
HETATM   25  O   UNK     1     -11.631  16.481  71.597  1.00  0.00    -0.399 OA 
BRANCH  24  26
HETATM   26  C   UNK     1     -12.933  14.789  72.760  1.00  0.00    -0.553 C  
HETATM   27  C   UNK     1     -12.396  15.370  74.055  1.00  0.00    -0.792 C  
ENDBRANCH  24  26
ENDBRANCH  23  24
ENDBRANCH  22  23
ENDBRANCH   7  22
ENDBRANCH   6   7
ENDBRANCH   4   6
ENDBRANCH   3   4
ENDBRANCH   2   3
TORSDOF 14
ENDMDL
MODEL       34
REMARK 921   NORMALIZED FREE ENERGY PREDICTED BY IDOCK:   -5.18 KCAL/MOL
REMARK 922        TOTAL FREE ENERGY PREDICTED BY IDOCK:  -10.52 KCAL/MOL
REMARK 923 INTER-LIGAND FREE ENERGY PREDICTED BY IDOCK:   -9.39 KCAL/MOL
REMARK 924 INTRA-LIGAND FREE ENERGY PREDICTED BY IDOCK:   -1.13 KCAL/MOL
REMARK 927      BINDING AFFINITY PREDICTED BY RF-SCORE:    0.00 PKD
ROOT
HETATM    1  C   UNK     1     -10.376  11.437  63.783  1.00  0.00    -0.447 C  
HETATM    2  C   UNK     1     -11.798  11.867  63.450  1.00  0.00    -0.512 C  
ENDROOT
BRANCH   2   3
HETATM    3  C   UNK     1     -12.438  12.683  64.569  1.00  0.00    -0.525 C  
BRANCH   3   4
HETATM    4  C   UNK     1     -12.094  14.144  64.436  1.00  0.00    -0.463 C  
HETATM    5  O   UNK     1     -12.709  14.935  63.734  1.00  0.00    -0.754 OA 
BRANCH   4   6
HETATM    6  O   UNK     1     -10.997  14.443  65.174  1.00  0.00    -0.331 OA 
BRANCH   6   7
HETATM    7  C   UNK     1     -11.084  15.491  66.168  1.00  0.00    -0.177 C  
BRANCH   7   8
HETATM    8  C   UNK     1     -11.147  14.955  67.605  1.00  0.00    -0.311 C  
BRANCH   8   9
HETATM    9  O   UNK     1     -12.167  13.967  67.748  1.00  0.00    -0.338 OA 
BRANCH   9  10
HETATM   10  P   UNK     1     -11.876  12.854  69.040  1.00  0.00    -0.222 P  
HETATM   11  O   UNK     1     -12.328  11.582  68.118  1.00  0.00    -0.473 OA 
HETATM   12  O   UNK     1     -10.370  13.039  68.847  1.00  0.00    -0.170 OA 
BRANCH  10  13
HETATM   13  O   UNK     1     -11.585  11.742  70.333  1.00  0.00    -0.237 OA 
BRANCH  13  14
HETATM   14  C   UNK     1     -11.607  10.375  69.896  1.00  0.00    -0.284 C  
BRANCH  14  15
HETATM   15  C   UNK     1     -10.303   9.658  70.252  1.00  0.00    -0.280 C  
HETATM   16  N   UNK     1      -9.105  10.265  69.602  1.00  0.00    -0.371 NA 
HETATM   17  C   UNK     1     -10.428   8.208  69.791  1.00  0.00    -0.227 C  
HETATM   18  O   UNK     1      -9.802   8.013  68.600  1.00  0.00    -0.165 OA 
HETATM   19  O   UNK     1     -11.053   7.339  70.379  1.00  0.00    -0.257 OA 
HETATM   20  H1  UNK     1      -8.236   9.787  69.840  1.00  0.00     0.000 HD 
HETATM   21  H2  UNK     1      -9.042  11.261  69.814  1.00  0.00     0.000 HD 
ENDBRANCH  14  15
ENDBRANCH  13  14
ENDBRANCH  10  13
ENDBRANCH   9  10
ENDBRANCH   8   9
ENDBRANCH   7   8
BRANCH   7  22
HETATM   22  C   UNK     1      -9.960  16.530  65.999  1.00  0.00    -0.337 C  
BRANCH  22  23
HETATM   23  O   UNK     1     -10.475  17.808  65.583  1.00  0.00    -0.613 OA 
BRANCH  23  24
HETATM   24  C   UNK     1      -9.936  18.882  66.224  1.00  0.00    -0.388 C  
HETATM   25  O   UNK     1      -8.903  19.441  65.896  1.00  0.00    -0.425 OA 
BRANCH  24  26
HETATM   26  C   UNK     1     -10.821  19.281  67.382  1.00  0.00    -0.554 C  
HETATM   27  C   UNK     1     -10.022  19.418  68.666  1.00  0.00    -0.527 C  
ENDBRANCH  24  26
ENDBRANCH  23  24
ENDBRANCH  22  23
ENDBRANCH   7  22
ENDBRANCH   6   7
ENDBRANCH   4   6
ENDBRANCH   3   4
ENDBRANCH   2   3
TORSDOF 14
ENDMDL
MODEL       35
REMARK 921   NORMALIZED FREE ENERGY PREDICTED BY IDOCK:   -5.18 KCAL/MOL
REMARK 922        TOTAL FREE ENERGY PREDICTED BY IDOCK:  -10.51 KCAL/MOL
REMARK 923 INTER-LIGAND FREE ENERGY PREDICTED BY IDOCK:   -9.47 KCAL/MOL
REMARK 924 INTRA-LIGAND FREE ENERGY PREDICTED BY IDOCK:   -1.04 KCAL/MOL
REMARK 927      BINDING AFFINITY PREDICTED BY RF-SCORE:    0.00 PKD
ROOT
HETATM    1  C   UNK     1     -12.445  12.161  63.592  1.00  0.00    -0.658 C  
HETATM    2  C   UNK     1     -12.235  12.418  65.077  1.00  0.00    -0.465 C  
ENDROOT
BRANCH   2   3
HETATM    3  C   UNK     1     -12.493  13.872  65.460  1.00  0.00    -0.541 C  
BRANCH   3   4
HETATM    4  C   UNK     1     -11.226  14.541  65.928  1.00  0.00    -0.331 C  
HETATM    5  O   UNK     1     -10.168  14.513  65.315  1.00  0.00    -0.367 OA 
BRANCH   4   6
HETATM    6  O   UNK     1     -11.421  15.141  67.127  1.00  0.00    -0.330 OA 
BRANCH   6   7
HETATM    7  C   UNK     1     -11.819  14.335  68.261  1.00  0.00    -0.335 C  
BRANCH   7   8
HETATM    8  C   UNK     1     -10.867  13.162  68.530  1.00  0.00    -0.262 C  
BRANCH   8   9
HETATM    9  O   UNK     1     -11.557  11.912  68.495  1.00  0.00    -0.270 OA 
BRANCH   9  10
HETATM   10  P   UNK     1     -11.110  10.839  69.776  1.00  0.00    -0.239 P  
HETATM   11  O   UNK     1     -12.657  10.726  70.293  1.00  0.00    -0.325 OA 
HETATM   12  O   UNK     1     -10.894   9.722  68.753  1.00  0.00    -0.220 OA 
BRANCH  10  13
HETATM   13  O   UNK     1     -10.663   9.766  71.057  1.00  0.00    -0.324 OA 
BRANCH  13  14
HETATM   14  C   UNK     1     -10.307   8.460  70.580  1.00  0.00    -0.197 C  
BRANCH  14  15
HETATM   15  C   UNK     1     -11.126   7.372  71.278  1.00  0.00    -0.246 C  
HETATM   16  N   UNK     1     -12.489   7.200  70.694  1.00  0.00    -0.610 NA 
HETATM   17  C   UNK     1     -11.269   7.767  72.746  1.00  0.00    -0.398 C  
HETATM   18  O   UNK     1     -12.477   8.342  72.987  1.00  0.00    -0.205 OA 
HETATM   19  O   UNK     1     -10.399   7.638  73.593  1.00  0.00    -0.324 OA 
HETATM   20  H1  UNK     1     -13.034   6.475  71.160  1.00  0.00     0.000 HD 
HETATM   21  H2  UNK     1     -12.435   7.027  69.691  1.00  0.00     0.000 HD 
ENDBRANCH  14  15
ENDBRANCH  13  14
ENDBRANCH  10  13
ENDBRANCH   9  10
ENDBRANCH   8   9
ENDBRANCH   7   8
BRANCH   7  22
HETATM   22  C   UNK     1     -12.033  15.193  69.521  1.00  0.00    -0.321 C  
BRANCH  22  23
HETATM   23  O   UNK     1     -12.686  14.448  70.566  1.00  0.00    -0.343 OA 
BRANCH  23  24
HETATM   24  C   UNK     1     -13.072  15.187  71.644  1.00  0.00    -0.388 C  
HETATM   25  O   UNK     1     -14.179  15.677  71.790  1.00  0.00    -0.446 OA 
BRANCH  24  26
HETATM   26  C   UNK     1     -11.930  15.286  72.629  1.00  0.00    -0.535 C  
HETATM   27  C   UNK     1     -12.439  15.473  74.047  1.00  0.00    -0.789 C  
ENDBRANCH  24  26
ENDBRANCH  23  24
ENDBRANCH  22  23
ENDBRANCH   7  22
ENDBRANCH   6   7
ENDBRANCH   4   6
ENDBRANCH   3   4
ENDBRANCH   2   3
TORSDOF 14
ENDMDL
MODEL       36
REMARK 921   NORMALIZED FREE ENERGY PREDICTED BY IDOCK:   -5.18 KCAL/MOL
REMARK 922        TOTAL FREE ENERGY PREDICTED BY IDOCK:  -10.50 KCAL/MOL
REMARK 923 INTER-LIGAND FREE ENERGY PREDICTED BY IDOCK:   -9.27 KCAL/MOL
REMARK 924 INTRA-LIGAND FREE ENERGY PREDICTED BY IDOCK:   -1.23 KCAL/MOL
REMARK 927      BINDING AFFINITY PREDICTED BY RF-SCORE:    0.00 PKD
ROOT
HETATM    1  C   UNK     1     -13.708  13.413  72.338  1.00  0.00    -0.698 C  
HETATM    2  C   UNK     1     -13.025  14.774  72.338  1.00  0.00    -0.445 C  
ENDROOT
BRANCH   2   3
HETATM    3  C   UNK     1     -13.012  15.420  70.956  1.00  0.00    -0.556 C  
BRANCH   3   4
HETATM    4  C   UNK     1     -11.867  14.899  70.127  1.00  0.00    -0.308 C  
HETATM    5  O   UNK     1     -10.700  15.236  70.277  1.00  0.00    -0.285 OA 
BRANCH   4   6
HETATM    6  O   UNK     1     -12.317  14.038  69.182  1.00  0.00    -0.313 OA 
BRANCH   6   7
HETATM    7  C   UNK     1     -11.361  13.239  68.447  1.00  0.00    -0.291 C  
BRANCH   7   8
HETATM    8  C   UNK     1     -11.466  11.739  68.754  1.00  0.00    -0.291 C  
BRANCH   8   9
HETATM    9  O   UNK     1     -12.228  11.502  69.939  1.00  0.00    -0.290 OA 
BRANCH   9  10
HETATM   10  P   UNK     1     -11.650  10.169  70.878  1.00  0.00    -0.335 P  
HETATM   11  O   UNK     1     -13.133   9.480  70.909  1.00  0.00    -0.238 OA 
HETATM   12  O   UNK     1     -10.927   9.626  69.644  1.00  0.00    -0.236 OA 
BRANCH  10  13
HETATM   13  O   UNK     1     -11.072   8.835  71.816  1.00  0.00    -0.297 OA 
BRANCH  13  14
HETATM   14  C   UNK     1     -10.222   7.960  71.061  1.00  0.00    -0.197 C  
BRANCH  14  15
HETATM   15  C   UNK     1     -10.918   6.629  70.767  1.00  0.00    -0.270 C  
HETATM   16  N   UNK     1     -11.933   6.727  69.677  1.00  0.00    -0.605 NA 
HETATM   17  C   UNK     1     -11.617   6.176  72.047  1.00  0.00    -0.310 C  
HETATM   18  O   UNK     1     -12.943   6.476  72.018  1.00  0.00    -0.244 OA 
HETATM   19  O   UNK     1     -11.060   5.660  73.002  1.00  0.00    -0.262 OA 
HETATM   20  H1  UNK     1     -12.396   5.840  69.481  1.00  0.00     0.000 HD 
HETATM   21  H2  UNK     1     -11.519   7.116  68.830  1.00  0.00     0.000 HD 
ENDBRANCH  14  15
ENDBRANCH  13  14
ENDBRANCH  10  13
ENDBRANCH   9  10
ENDBRANCH   8   9
ENDBRANCH   7   8
BRANCH   7  22
HETATM   22  C   UNK     1     -11.434  13.515  66.934  1.00  0.00    -0.344 C  
BRANCH  22  23
HETATM   23  O   UNK     1     -12.483  12.755  66.305  1.00  0.00    -0.477 OA 
BRANCH  23  24
HETATM   24  C   UNK     1     -12.238  12.397  65.014  1.00  0.00    -0.399 C  
HETATM   25  O   UNK     1     -13.009  12.574  64.085  1.00  0.00    -0.740 OA 
BRANCH  24  26
HETATM   26  C   UNK     1     -10.868  11.769  64.910  1.00  0.00    -0.353 C  
HETATM   27  C   UNK     1     -10.494  11.495  63.465  1.00  0.00    -0.486 C  
ENDBRANCH  24  26
ENDBRANCH  23  24
ENDBRANCH  22  23
ENDBRANCH   7  22
ENDBRANCH   6   7
ENDBRANCH   4   6
ENDBRANCH   3   4
ENDBRANCH   2   3
TORSDOF 14
ENDMDL
MODEL       37
REMARK 921   NORMALIZED FREE ENERGY PREDICTED BY IDOCK:   -5.15 KCAL/MOL
REMARK 922        TOTAL FREE ENERGY PREDICTED BY IDOCK:  -10.46 KCAL/MOL
REMARK 923 INTER-LIGAND FREE ENERGY PREDICTED BY IDOCK:   -9.44 KCAL/MOL
REMARK 924 INTRA-LIGAND FREE ENERGY PREDICTED BY IDOCK:   -1.02 KCAL/MOL
REMARK 927      BINDING AFFINITY PREDICTED BY RF-SCORE:    0.00 PKD
ROOT
HETATM    1  C   UNK     1     -11.354  16.072  70.199  1.00  0.00    -0.369 C  
HETATM    2  C   UNK     1     -12.713  15.651  70.741  1.00  0.00    -0.483 C  
ENDROOT
BRANCH   2   3
HETATM    3  C   UNK     1     -12.609  14.928  72.080  1.00  0.00    -0.398 C  
BRANCH   3   4
HETATM    4  C   UNK     1     -13.140  13.521  71.976  1.00  0.00    -0.387 C  
HETATM    5  O   UNK     1     -14.229  13.165  72.405  1.00  0.00    -0.556 OA 
BRANCH   4   6
HETATM    6  O   UNK     1     -12.233  12.714  71.375  1.00  0.00    -0.081 OA 
BRANCH   6   7
HETATM    7  C   UNK     1     -12.608  12.015  70.164  1.00  0.00     0.072 C  
BRANCH   7   8
HETATM    8  C   UNK     1     -11.821  12.480  68.932  1.00  0.00    -0.301 C  
BRANCH   8   9
HETATM    9  O   UNK     1     -12.218  11.768  67.760  1.00  0.00    -0.536 OA 
BRANCH   9  10
HETATM   10  P   UNK     1     -11.175  12.029  66.405  1.00  0.00    -0.328 P  
HETATM   11  O   UNK     1     -10.105  12.860  67.321  1.00  0.00    -0.227 OA 
HETATM   12  O   UNK     1     -10.761  10.557  66.452  1.00  0.00    -0.191 OA 
BRANCH  10  13
HETATM   13  O   UNK     1     -10.132  12.290  65.050  1.00  0.00    -0.271 OA 
BRANCH  13  14
HETATM   14  C   UNK     1     -10.165  13.647  64.585  1.00  0.00    -0.311 C  
BRANCH  14  15
HETATM   15  C   UNK     1     -11.545  14.273  64.796  1.00  0.00    -0.401 C  
HETATM   16  N   UNK     1     -12.418  14.186  63.588  1.00  0.00    -1.071 NA 
HETATM   17  C   UNK     1     -11.342  15.744  65.148  1.00  0.00    -0.154 C  
HETATM   18  O   UNK     1     -11.531  16.542  64.064  1.00  0.00    -1.137 OA 
HETATM   19  O   UNK     1     -10.999  16.160  66.244  1.00  0.00    -0.190 OA 
HETATM   20  H1  UNK     1     -13.338  14.603  63.729  1.00  0.00     0.000 HD 
HETATM   21  H2  UNK     1     -12.501  13.222  63.267  1.00  0.00     0.000 HD 
ENDBRANCH  14  15
ENDBRANCH  13  14
ENDBRANCH  10  13
ENDBRANCH   9  10
ENDBRANCH   8   9
ENDBRANCH   7   8
BRANCH   7  22
HETATM   22  C   UNK     1     -12.533  10.488  70.343  1.00  0.00    -0.310 C  
BRANCH  22  23
HETATM   23  O   UNK     1     -11.973  10.128  71.620  1.00  0.00    -0.361 OA 
BRANCH  23  24
HETATM   24  C   UNK     1     -11.734   8.798  71.789  1.00  0.00    -0.346 C  
HETATM   25  O   UNK     1     -12.552   7.915  71.595  1.00  0.00    -0.305 OA 
BRANCH  24  26
HETATM   26  C   UNK     1     -10.305   8.589  72.232  1.00  0.00    -0.402 C  
HETATM   27  C   UNK     1     -10.214   7.545  73.330  1.00  0.00    -0.399 C  
ENDBRANCH  24  26
ENDBRANCH  23  24
ENDBRANCH  22  23
ENDBRANCH   7  22
ENDBRANCH   6   7
ENDBRANCH   4   6
ENDBRANCH   3   4
ENDBRANCH   2   3
TORSDOF 14
ENDMDL
MODEL       38
REMARK 921   NORMALIZED FREE ENERGY PREDICTED BY IDOCK:   -5.15 KCAL/MOL
REMARK 922        TOTAL FREE ENERGY PREDICTED BY IDOCK:  -10.46 KCAL/MOL
REMARK 923 INTER-LIGAND FREE ENERGY PREDICTED BY IDOCK:   -9.20 KCAL/MOL
REMARK 924 INTRA-LIGAND FREE ENERGY PREDICTED BY IDOCK:   -1.26 KCAL/MOL
REMARK 927      BINDING AFFINITY PREDICTED BY RF-SCORE:    0.00 PKD
ROOT
HETATM    1  C   UNK     1     -12.160   9.338  72.039  1.00  0.00    -0.406 C  
HETATM    2  C   UNK     1     -12.869  10.132  70.952  1.00  0.00    -0.442 C  
ENDROOT
BRANCH   2   3
HETATM    3  C   UNK     1     -11.975  11.202  70.332  1.00  0.00    -0.469 C  
BRANCH   3   4
HETATM    4  C   UNK     1     -11.491  10.778  68.970  1.00  0.00    -0.298 C  
HETATM    5  O   UNK     1     -10.773   9.808  68.766  1.00  0.00    -0.216 OA 
BRANCH   4   6
HETATM    6  O   UNK     1     -11.935  11.636  68.020  1.00  0.00    -0.577 OA 
BRANCH   6   7
HETATM    7  C   UNK     1     -11.673  13.051  68.173  1.00  0.00    -0.351 C  
BRANCH   7   8
HETATM    8  C   UNK     1     -10.206  13.361  68.500  1.00  0.00    -0.223 C  
BRANCH   8   9
HETATM    9  O   UNK     1      -9.446  13.596  67.314  1.00  0.00    -0.215 OA 
BRANCH   9  10
HETATM   10  P   UNK     1      -8.819  15.204  67.203  1.00  0.00    -0.247 P  
HETATM   11  O   UNK     1      -9.225  15.527  68.754  1.00  0.00    -0.186 OA 
HETATM   12  O   UNK     1      -7.396  14.640  67.217  1.00  0.00    -0.193 OA 
BRANCH  10  13
HETATM   13  O   UNK     1      -8.191  16.813  67.091  1.00  0.00    -0.170 OA 
BRANCH  13  14
HETATM   14  C   UNK     1      -8.750  17.546  65.992  1.00  0.00    -0.034 C  
BRANCH  14  15
HETATM   15  C   UNK     1     -10.279  17.552  66.050  1.00  0.00    -0.299 C  
HETATM   16  N   UNK     1     -10.916  17.240  64.737  1.00  0.00    -0.911 NA 
HETATM   17  C   UNK     1     -10.723  18.944  66.490  1.00  0.00    -0.296 C  
HETATM   18  O   UNK     1     -11.108  19.699  65.427  1.00  0.00    -0.412 OA 
HETATM   19  O   UNK     1     -10.690  19.359  67.638  1.00  0.00    -0.453 OA 
HETATM   20  H1  UNK     1     -11.936  17.244  64.776  1.00  0.00     0.000 HD 
HETATM   21  H2  UNK     1     -10.570  16.355  64.366  1.00  0.00     0.000 HD 
ENDBRANCH  14  15
ENDBRANCH  13  14
ENDBRANCH  10  13
ENDBRANCH   9  10
ENDBRANCH   8   9
ENDBRANCH   7   8
BRANCH   7  22
HETATM   22  C   UNK     1     -12.165  13.856  66.956  1.00  0.00    -0.355 C  
BRANCH  22  23
HETATM   23  O   UNK     1     -12.310  13.022  65.791  1.00  0.00    -0.452 OA 
BRANCH  23  24
HETATM   24  C   UNK     1     -11.982  13.619  64.612  1.00  0.00    -0.407 C  
HETATM   25  O   UNK     1     -12.523  14.615  64.163  1.00  0.00    -0.736 OA 
BRANCH  24  26
HETATM   26  C   UNK     1     -10.839  12.873  63.964  1.00  0.00    -0.443 C  
HETATM   27  C   UNK     1     -10.776  11.434  64.444  1.00  0.00    -0.405 C  
ENDBRANCH  24  26
ENDBRANCH  23  24
ENDBRANCH  22  23
ENDBRANCH   7  22
ENDBRANCH   6   7
ENDBRANCH   4   6
ENDBRANCH   3   4
ENDBRANCH   2   3
TORSDOF 14
ENDMDL
MODEL       39
REMARK 921   NORMALIZED FREE ENERGY PREDICTED BY IDOCK:   -5.14 KCAL/MOL
REMARK 922        TOTAL FREE ENERGY PREDICTED BY IDOCK:  -10.44 KCAL/MOL
REMARK 923 INTER-LIGAND FREE ENERGY PREDICTED BY IDOCK:   -9.42 KCAL/MOL
REMARK 924 INTRA-LIGAND FREE ENERGY PREDICTED BY IDOCK:   -1.02 KCAL/MOL
REMARK 927      BINDING AFFINITY PREDICTED BY RF-SCORE:    0.00 PKD
ROOT
HETATM    1  C   UNK     1     -13.870  15.589  72.466  1.00  0.00    -0.669 C  
HETATM    2  C   UNK     1     -13.916  14.421  71.491  1.00  0.00    -0.454 C  
ENDROOT
BRANCH   2   3
HETATM    3  C   UNK     1     -12.537  13.826  71.227  1.00  0.00    -0.444 C  
BRANCH   3   4
HETATM    4  C   UNK     1     -11.803  14.610  70.171  1.00  0.00    -0.307 C  
HETATM    5  O   UNK     1     -10.868  15.365  70.400  1.00  0.00    -0.297 OA 
BRANCH   4   6
HETATM    6  O   UNK     1     -12.345  14.384  68.949  1.00  0.00    -0.229 OA 
BRANCH   6   7
HETATM    7  C   UNK     1     -11.544  13.734  67.934  1.00  0.00    -0.341 C  
BRANCH   7   8
HETATM    8  C   UNK     1     -11.781  12.220  67.858  1.00  0.00    -0.347 C  
BRANCH   8   9
HETATM    9  O   UNK     1     -10.585  11.491  68.134  1.00  0.00    -0.182 OA 
BRANCH   9  10
HETATM   10  P   UNK     1     -10.813  10.183  69.243  1.00  0.00    -0.245 P  
HETATM   11  O   UNK     1     -12.293  10.733  69.670  1.00  0.00    -0.316 OA 
HETATM   12  O   UNK     1     -11.009   9.229  68.064  1.00  0.00    -0.155 OA 
BRANCH  10  13
HETATM   13  O   UNK     1     -11.041   8.876  70.353  1.00  0.00    -0.240 OA 
BRANCH  13  14
HETATM   14  C   UNK     1     -10.977   9.300  71.722  1.00  0.00    -0.313 C  
BRANCH  14  15
HETATM   15  C   UNK     1     -11.858   8.425  72.616  1.00  0.00    -0.290 C  
HETATM   16  N   UNK     1     -11.190   7.158  73.036  1.00  0.00    -0.513 NA 
HETATM   17  C   UNK     1     -13.119   8.076  71.830  1.00  0.00    -0.336 C  
HETATM   18  O   UNK     1     -13.035   6.832  71.288  1.00  0.00    -0.301 OA 
HETATM   19  O   UNK     1     -14.065   8.828  71.655  1.00  0.00    -0.401 OA 
HETATM   20  H1  UNK     1     -11.778   6.575  73.632  1.00  0.00     0.000 HD 
HETATM   21  H2  UNK     1     -10.295   7.350  73.484  1.00  0.00     0.000 HD 
ENDBRANCH  14  15
ENDBRANCH  13  14
ENDBRANCH  10  13
ENDBRANCH   9  10
ENDBRANCH   8   9
ENDBRANCH   7   8
BRANCH   7  22
HETATM   22  C   UNK     1     -11.715  14.406  66.559  1.00  0.00    -0.391 C  
BRANCH  22  23
HETATM   23  O   UNK     1     -12.531  13.613  65.678  1.00  0.00    -0.457 OA 
BRANCH  23  24
HETATM   24  C   UNK     1     -12.430  13.932  64.357  1.00  0.00    -0.279 C  
HETATM   25  O   UNK     1     -12.538  15.059  63.905  1.00  0.00    -0.813 OA 
BRANCH  24  26
HETATM   26  C   UNK     1     -12.144  12.686  63.552  1.00  0.00    -0.648 C  
HETATM   27  C   UNK     1     -10.657  12.386  63.509  1.00  0.00    -0.451 C  
ENDBRANCH  24  26
ENDBRANCH  23  24
ENDBRANCH  22  23
ENDBRANCH   7  22
ENDBRANCH   6   7
ENDBRANCH   4   6
ENDBRANCH   3   4
ENDBRANCH   2   3
TORSDOF 14
ENDMDL
MODEL       40
REMARK 921   NORMALIZED FREE ENERGY PREDICTED BY IDOCK:   -5.14 KCAL/MOL
REMARK 922        TOTAL FREE ENERGY PREDICTED BY IDOCK:  -10.43 KCAL/MOL
REMARK 923 INTER-LIGAND FREE ENERGY PREDICTED BY IDOCK:   -9.30 KCAL/MOL
REMARK 924 INTRA-LIGAND FREE ENERGY PREDICTED BY IDOCK:   -1.14 KCAL/MOL
REMARK 927      BINDING AFFINITY PREDICTED BY RF-SCORE:    0.00 PKD
ROOT
HETATM    1  C   UNK     1      -9.734  11.569  63.305  1.00  0.00    -0.405 C  
HETATM    2  C   UNK     1     -11.112  11.399  63.929  1.00  0.00    -0.410 C  
ENDROOT
BRANCH   2   3
HETATM    3  C   UNK     1     -12.007  12.614  63.709  1.00  0.00    -0.588 C  
BRANCH   3   4
HETATM    4  C   UNK     1     -12.474  13.186  65.022  1.00  0.00    -0.460 C  
HETATM    5  O   UNK     1     -13.365  14.017  65.132  1.00  0.00    -0.703 OA 
BRANCH   4   6
HETATM    6  O   UNK     1     -11.749  12.676  66.047  1.00  0.00    -0.373 OA 
BRANCH   6   7
HETATM    7  C   UNK     1     -11.126  13.583  66.987  1.00  0.00    -0.296 C  
BRANCH   7   8
HETATM    8  C   UNK     1     -10.785  12.920  68.328  1.00  0.00    -0.244 C  
BRANCH   8   9
HETATM    9  O   UNK     1     -10.621  11.509  68.186  1.00  0.00    -0.182 OA 
BRANCH   9  10
HETATM   10  P   UNK     1     -11.406  10.593  69.426  1.00  0.00    -0.305 P  
HETATM   11  O   UNK     1      -9.973  10.109  70.049  1.00  0.00    -0.240 OA 
HETATM   12  O   UNK     1     -11.788  11.895  70.133  1.00  0.00    -0.329 OA 
BRANCH  10  13
HETATM   13  O   UNK     1     -12.190   9.677  70.666  1.00  0.00    -0.252 OA 
BRANCH  13  14
HETATM   14  C   UNK     1     -11.261   9.115  71.605  1.00  0.00    -0.377 C  
BRANCH  14  15
HETATM   15  C   UNK     1     -11.752   7.765  72.132  1.00  0.00    -0.320 C  
HETATM   16  N   UNK     1     -11.204   7.428  73.478  1.00  0.00    -0.588 NA 
HETATM   17  C   UNK     1     -11.313   6.691  71.140  1.00  0.00    -0.306 C  
HETATM   18  O   UNK     1     -10.189   6.055  71.567  1.00  0.00    -0.195 OA 
HETATM   19  O   UNK     1     -11.858   6.459  70.073  1.00  0.00    -0.404 OA 
HETATM   20  H1  UNK     1     -11.531   6.527  73.828  1.00  0.00     0.000 HD 
HETATM   21  H2  UNK     1     -11.399   8.172  74.147  1.00  0.00     0.000 HD 
ENDBRANCH  14  15
ENDBRANCH  13  14
ENDBRANCH  10  13
ENDBRANCH   9  10
ENDBRANCH   8   9
ENDBRANCH   7   8
BRANCH   7  22
HETATM   22  C   UNK     1      -9.901  14.285  66.373  1.00  0.00    -0.296 C  
BRANCH  22  23
HETATM   23  O   UNK     1      -9.840  15.674  66.747  1.00  0.00    -0.233 OA 
BRANCH  23  24
HETATM   24  C   UNK     1     -10.325  16.542  65.816  1.00  0.00    -0.341 C  
HETATM   25  O   UNK     1     -10.718  16.223  64.706  1.00  0.00    -0.680 OA 
BRANCH  24  26
HETATM   26  C   UNK     1     -10.320  17.945  66.376  1.00  0.00    -0.365 C  
HETATM   27  C   UNK     1     -10.461  17.937  67.887  1.00  0.00    -0.404 C  
ENDBRANCH  24  26
ENDBRANCH  23  24
ENDBRANCH  22  23
ENDBRANCH   7  22
ENDBRANCH   6   7
ENDBRANCH   4   6
ENDBRANCH   3   4
ENDBRANCH   2   3
TORSDOF 14
ENDMDL
MODEL       41
REMARK 921   NORMALIZED FREE ENERGY PREDICTED BY IDOCK:   -5.13 KCAL/MOL
REMARK 922        TOTAL FREE ENERGY PREDICTED BY IDOCK:  -10.43 KCAL/MOL
REMARK 923 INTER-LIGAND FREE ENERGY PREDICTED BY IDOCK:   -9.06 KCAL/MOL
REMARK 924 INTRA-LIGAND FREE ENERGY PREDICTED BY IDOCK:   -1.37 KCAL/MOL
REMARK 927      BINDING AFFINITY PREDICTED BY RF-SCORE:    0.00 PKD
ROOT
HETATM    1  C   UNK     1     -14.281  14.811  72.188  1.00  0.00    -0.608 C  
HETATM    2  C   UNK     1     -13.197  15.519  71.387  1.00  0.00    -0.587 C  
ENDROOT
BRANCH   2   3
HETATM    3  C   UNK     1     -12.110  14.565  70.904  1.00  0.00    -0.404 C  
BRANCH   3   4
HETATM    4  C   UNK     1     -11.896  14.698  69.418  1.00  0.00    -0.329 C  
HETATM    5  O   UNK     1     -11.771  15.766  68.835  1.00  0.00    -0.383 OA 
BRANCH   4   6
HETATM    6  O   UNK     1     -11.894  13.479  68.827  1.00  0.00    -0.319 OA 
BRANCH   6   7
HETATM    7  C   UNK     1     -11.069  13.266  67.657  1.00  0.00    -0.269 C  
BRANCH   7   8
HETATM    8  C   UNK     1      -9.823  12.419  67.944  1.00  0.00    -0.202 C  
BRANCH   8   9
HETATM    9  O   UNK     1      -8.749  13.222  68.436  1.00  0.00    -0.175 OA 
BRANCH   9  10
HETATM   10  P   UNK     1      -8.440  14.628  67.477  1.00  0.00    -0.214 P  
HETATM   11  O   UNK     1      -8.367  15.582  68.803  1.00  0.00    -0.160 OA 
HETATM   12  O   UNK     1      -7.022  14.120  67.207  1.00  0.00    -0.189 OA 
BRANCH  10  13
HETATM   13  O   UNK     1      -8.131  16.034  66.517  1.00  0.00    -0.269 OA 
BRANCH  13  14
HETATM   14  C   UNK     1      -9.320  16.793  66.257  1.00  0.00    -0.279 C  
BRANCH  14  15
HETATM   15  C   UNK     1      -9.341  18.088  67.072  1.00  0.00    -0.265 C  
HETATM   16  N   UNK     1     -10.579  18.245  67.889  1.00  0.00    -0.398 NA 
HETATM   17  C   UNK     1      -9.249  19.256  66.093  1.00  0.00    -0.260 C  
HETATM   18  O   UNK     1     -10.473  19.798  65.854  1.00  0.00    -0.504 OA 
HETATM   19  O   UNK     1      -8.224  19.631  65.546  1.00  0.00    -0.332 OA 
HETATM   20  H1  UNK     1     -10.593  19.109  68.432  1.00  0.00     0.000 HD 
HETATM   21  H2  UNK     1     -10.723  17.435  68.491  1.00  0.00     0.000 HD 
ENDBRANCH  14  15
ENDBRANCH  13  14
ENDBRANCH  10  13
ENDBRANCH   9  10
ENDBRANCH   8   9
ENDBRANCH   7   8
BRANCH   7  22
HETATM   22  C   UNK     1     -11.886  12.696  66.482  1.00  0.00    -0.396 C  
BRANCH  22  23
HETATM   23  O   UNK     1     -12.292  13.729  65.566  1.00  0.00    -0.415 OA 
BRANCH  23  24
HETATM   24  C   UNK     1     -11.982  13.495  64.261  1.00  0.00    -0.432 C  
HETATM   25  O   UNK     1     -12.697  13.778  63.314  1.00  0.00    -0.783 OA 
BRANCH  24  26
HETATM   26  C   UNK     1     -10.616  12.854  64.169  1.00  0.00    -0.442 C  
HETATM   27  C   UNK     1     -10.675  11.534  63.422  1.00  0.00    -0.444 C  
ENDBRANCH  24  26
ENDBRANCH  23  24
ENDBRANCH  22  23
ENDBRANCH   7  22
ENDBRANCH   6   7
ENDBRANCH   4   6
ENDBRANCH   3   4
ENDBRANCH   2   3
TORSDOF 14
ENDMDL
MODEL       42
REMARK 921   NORMALIZED FREE ENERGY PREDICTED BY IDOCK:   -5.13 KCAL/MOL
REMARK 922        TOTAL FREE ENERGY PREDICTED BY IDOCK:  -10.42 KCAL/MOL
REMARK 923 INTER-LIGAND FREE ENERGY PREDICTED BY IDOCK:   -9.24 KCAL/MOL
REMARK 924 INTRA-LIGAND FREE ENERGY PREDICTED BY IDOCK:   -1.18 KCAL/MOL
REMARK 927      BINDING AFFINITY PREDICTED BY RF-SCORE:    0.00 PKD
ROOT
HETATM    1  C   UNK     1     -11.656  11.990  63.469  1.00  0.00    -0.553 C  
HETATM    2  C   UNK     1     -12.646  12.573  64.467  1.00  0.00    -0.503 C  
ENDROOT
BRANCH   2   3
HETATM    3  C   UNK     1     -12.342  14.028  64.809  1.00  0.00    -0.437 C  
BRANCH   3   4
HETATM    4  C   UNK     1     -11.333  14.121  65.925  1.00  0.00    -0.323 C  
HETATM    5  O   UNK     1     -10.121  14.104  65.759  1.00  0.00    -0.310 OA 
BRANCH   4   6
HETATM    6  O   UNK     1     -11.957  14.192  67.125  1.00  0.00    -0.401 OA 
BRANCH   6   7
HETATM    7  C   UNK     1     -11.193  13.948  68.330  1.00  0.00    -0.264 C  
BRANCH   7   8
HETATM    8  C   UNK     1     -10.818  15.235  69.077  1.00  0.00    -0.244 C  
BRANCH   8   9
HETATM    9  O   UNK     1     -11.288  16.393  68.387  1.00  0.00    -0.366 OA 
BRANCH   9  10
HETATM   10  P   UNK     1     -10.242  17.762  68.541  1.00  0.00    -0.343 P  
HETATM   11  O   UNK     1      -8.921  16.856  68.210  1.00  0.00    -0.221 OA 
HETATM   12  O   UNK     1     -10.765  18.300  67.208  1.00  0.00    -0.404 OA 
BRANCH  10  13
HETATM   13  O   UNK     1      -9.195  19.131  68.695  1.00  0.00    -0.355 OA 
BRANCH  13  14
HETATM   14  C   UNK     1      -7.922  18.923  68.065  1.00  0.00    -0.286 C  
BRANCH  14  15
HETATM   15  C   UNK     1      -7.623  20.020  67.042  1.00  0.00    -0.282 C  
HETATM   16  N   UNK     1      -8.761  20.280  66.112  1.00  0.00    -0.576 NA 
HETATM   17  C   UNK     1      -6.414  19.577  66.223  1.00  0.00    -0.192 C  
HETATM   18  O   UNK     1      -6.793  19.051  65.028  1.00  0.00    -0.478 OA 
HETATM   19  O   UNK     1      -5.254  19.631  66.602  1.00  0.00    -0.164 OA 
HETATM   20  H1  UNK     1      -8.561  21.012  65.430  1.00  0.00     0.000 HD 
HETATM   21  H2  UNK     1      -9.614  20.490  66.631  1.00  0.00     0.000 HD 
ENDBRANCH  14  15
ENDBRANCH  13  14
ENDBRANCH  10  13
ENDBRANCH   9  10
ENDBRANCH   8   9
ENDBRANCH   7   8
BRANCH   7  22
HETATM   22  C   UNK     1     -11.899  12.940  69.256  1.00  0.00    -0.309 C  
BRANCH  22  23
HETATM   23  O   UNK     1     -12.405  13.574  70.445  1.00  0.00    -0.338 OA 
BRANCH  23  24
HETATM   24  C   UNK     1     -12.840  12.718  71.412  1.00  0.00    -0.275 C  
HETATM   25  O   UNK     1     -13.448  13.054  72.414  1.00  0.00    -0.567 OA 
BRANCH  24  26
HETATM   26  C   UNK     1     -12.475  11.300  71.040  1.00  0.00    -0.503 C  
HETATM   27  C   UNK     1     -13.267  10.294  71.855  1.00  0.00    -0.550 C  
ENDBRANCH  24  26
ENDBRANCH  23  24
ENDBRANCH  22  23
ENDBRANCH   7  22
ENDBRANCH   6   7
ENDBRANCH   4   6
ENDBRANCH   3   4
ENDBRANCH   2   3
TORSDOF 14
ENDMDL
MODEL       43
REMARK 921   NORMALIZED FREE ENERGY PREDICTED BY IDOCK:   -5.13 KCAL/MOL
REMARK 922        TOTAL FREE ENERGY PREDICTED BY IDOCK:  -10.42 KCAL/MOL
REMARK 923 INTER-LIGAND FREE ENERGY PREDICTED BY IDOCK:   -9.28 KCAL/MOL
REMARK 924 INTRA-LIGAND FREE ENERGY PREDICTED BY IDOCK:   -1.14 KCAL/MOL
REMARK 927      BINDING AFFINITY PREDICTED BY RF-SCORE:    0.00 PKD
ROOT
HETATM    1  C   UNK     1     -10.970   7.722  72.799  1.00  0.00    -0.447 C  
HETATM    2  C   UNK     1     -11.849   8.649  71.970  1.00  0.00    -0.443 C  
ENDROOT
BRANCH   2   3
HETATM    3  C   UNK     1     -11.035   9.623  71.125  1.00  0.00    -0.430 C  
BRANCH   3   4
HETATM    4  C   UNK     1     -11.913  10.708  70.556  1.00  0.00    -0.352 C  
HETATM    5  O   UNK     1     -13.115  10.801  70.768  1.00  0.00    -0.308 OA 
BRANCH   4   6
HETATM    6  O   UNK     1     -11.193  11.535  69.760  1.00  0.00    -0.240 OA 
BRANCH   6   7
HETATM    7  C   UNK     1     -11.880  12.320  68.758  1.00  0.00    -0.306 C  
BRANCH   7   8
HETATM    8  C   UNK     1     -12.283  13.714  69.257  1.00  0.00    -0.238 C  
BRANCH   8   9
HETATM    9  O   UNK     1     -11.235  14.319  70.015  1.00  0.00    -0.206 OA 
BRANCH   9  10
HETATM   10  P   UNK     1     -10.869  15.937  69.523  1.00  0.00    -0.366 P  
HETATM   11  O   UNK     1      -9.402  15.489  68.956  1.00  0.00    -0.201 OA 
HETATM   12  O   UNK     1     -11.861  15.799  68.366  1.00  0.00    -0.338 OA 
BRANCH  10  13
HETATM   13  O   UNK     1     -10.504  17.555  69.031  1.00  0.00    -0.350 OA 
BRANCH  13  14
HETATM   14  C   UNK     1     -10.584  17.727  67.608  1.00  0.00    -0.379 C  
BRANCH  14  15
HETATM   15  C   UNK     1     -10.014  19.081  67.180  1.00  0.00    -0.338 C  
HETATM   16  N   UNK     1     -10.525  19.538  65.855  1.00  0.00    -0.511 NA 
HETATM   17  C   UNK     1      -8.496  18.942  67.098  1.00  0.00    -0.276 C  
HETATM   18  O   UNK     1      -8.086  18.756  65.815  1.00  0.00    -0.473 OA 
HETATM   19  O   UNK     1      -7.741  18.941  68.058  1.00  0.00    -0.258 OA 
HETATM   20  H1  UNK     1     -10.144  20.441  65.570  1.00  0.00     0.000 HD 
HETATM   21  H2  UNK     1     -11.544  19.554  65.844  1.00  0.00     0.000 HD 
ENDBRANCH  14  15
ENDBRANCH  13  14
ENDBRANCH  10  13
ENDBRANCH   9  10
ENDBRANCH   8   9
ENDBRANCH   7   8
BRANCH   7  22
HETATM   22  C   UNK     1     -11.077  12.397  67.446  1.00  0.00    -0.272 C  
BRANCH  22  23
HETATM   23  O   UNK     1     -11.920  12.209  66.295  1.00  0.00    -0.605 OA 
BRANCH  23  24
HETATM   24  C   UNK     1     -12.179  13.340  65.581  1.00  0.00    -0.462 C  
HETATM   25  O   UNK     1     -13.284  13.681  65.196  1.00  0.00    -0.739 OA 
BRANCH  24  26
HETATM   26  C   UNK     1     -10.896  14.108  65.360  1.00  0.00    -0.341 C  
HETATM   27  C   UNK     1     -11.167  15.471  64.750  1.00  0.00    -0.399 C  
ENDBRANCH  24  26
ENDBRANCH  23  24
ENDBRANCH  22  23
ENDBRANCH   7  22
ENDBRANCH   6   7
ENDBRANCH   4   6
ENDBRANCH   3   4
ENDBRANCH   2   3
TORSDOF 14
ENDMDL
MODEL       44
REMARK 921   NORMALIZED FREE ENERGY PREDICTED BY IDOCK:   -5.13 KCAL/MOL
REMARK 922        TOTAL FREE ENERGY PREDICTED BY IDOCK:  -10.41 KCAL/MOL
REMARK 923 INTER-LIGAND FREE ENERGY PREDICTED BY IDOCK:   -9.77 KCAL/MOL
REMARK 924 INTRA-LIGAND FREE ENERGY PREDICTED BY IDOCK:   -0.64 KCAL/MOL
REMARK 927      BINDING AFFINITY PREDICTED BY RF-SCORE:    0.00 PKD
ROOT
HETATM    1  C   UNK     1     -11.336   4.681  73.413  1.00  0.00    -0.394 C  
HETATM    2  C   UNK     1     -10.779   6.065  73.114  1.00  0.00    -0.285 C  
ENDROOT
BRANCH   2   3
HETATM    3  C   UNK     1     -10.995   6.481  71.663  1.00  0.00    -0.291 C  
BRANCH   3   4
HETATM    4  C   UNK     1     -12.172   7.413  71.537  1.00  0.00    -0.337 C  
HETATM    5  O   UNK     1     -13.155   7.190  70.843  1.00  0.00    -0.240 OA 
BRANCH   4   6
HETATM    6  O   UNK     1     -11.972   8.534  72.272  1.00  0.00    -0.359 OA 
BRANCH   6   7
HETATM    7  C   UNK     1     -11.641   9.769  71.593  1.00  0.00    -0.274 C  
BRANCH   7   8
HETATM    8  C   UNK     1     -10.736   9.561  70.371  1.00  0.00    -0.284 C  
BRANCH   8   9
HETATM    9  O   UNK     1     -11.497   9.494  69.165  1.00  0.00     0.040 OA 
BRANCH   9  10
HETATM   10  P   UNK     1     -10.882  10.505  67.903  1.00  0.00    -0.313 P  
HETATM   11  O   UNK     1     -12.251  11.400  67.880  1.00  0.00    -0.592 OA 
HETATM   12  O   UNK     1      -9.931  11.162  68.905  1.00  0.00    -0.201 OA 
BRANCH  10  13
HETATM   13  O   UNK     1     -10.268  11.516  66.640  1.00  0.00    -0.209 OA 
BRANCH  13  14
HETATM   14  C   UNK     1     -11.285  12.339  66.051  1.00  0.00    -0.332 C  
BRANCH  14  15
HETATM   15  C   UNK     1     -10.941  12.697  64.605  1.00  0.00    -0.313 C  
HETATM   16  N   UNK     1     -10.088  13.916  64.491  1.00  0.00    -0.718 NA 
HETATM   17  C   UNK     1     -12.251  12.946  63.861  1.00  0.00    -0.449 C  
HETATM   18  O   UNK     1     -12.516  14.275  63.760  1.00  0.00    -0.810 OA 
HETATM   19  O   UNK     1     -13.000  12.072  63.454  1.00  0.00    -0.772 OA 
HETATM   20  H1  UNK     1      -9.858  14.155  63.526  1.00  0.00     0.000 HD 
HETATM   21  H2  UNK     1      -9.242  13.822  65.053  1.00  0.00     0.000 HD 
ENDBRANCH  14  15
ENDBRANCH  13  14
ENDBRANCH  10  13
ENDBRANCH   9  10
ENDBRANCH   8   9
ENDBRANCH   7   8
BRANCH   7  22
HETATM   22  C   UNK     1     -12.902  10.576  71.235  1.00  0.00    -0.431 C  
BRANCH  22  23
HETATM   23  O   UNK     1     -13.288  11.460  72.303  1.00  0.00    -0.410 OA 
BRANCH  23  24
HETATM   24  C   UNK     1     -13.413  12.770  71.949  1.00  0.00    -0.358 C  
HETATM   25  O   UNK     1     -14.224  13.545  72.426  1.00  0.00    -0.654 OA 
BRANCH  24  26
HETATM   26  C   UNK     1     -12.383  13.113  70.898  1.00  0.00    -0.393 C  
HETATM   27  C   UNK     1     -12.114  14.607  70.856  1.00  0.00    -0.393 C  
ENDBRANCH  24  26
ENDBRANCH  23  24
ENDBRANCH  22  23
ENDBRANCH   7  22
ENDBRANCH   6   7
ENDBRANCH   4   6
ENDBRANCH   3   4
ENDBRANCH   2   3
TORSDOF 14
ENDMDL
MODEL       45
REMARK 921   NORMALIZED FREE ENERGY PREDICTED BY IDOCK:   -5.09 KCAL/MOL
REMARK 922        TOTAL FREE ENERGY PREDICTED BY IDOCK:  -10.35 KCAL/MOL
REMARK 923 INTER-LIGAND FREE ENERGY PREDICTED BY IDOCK:   -9.22 KCAL/MOL
REMARK 924 INTRA-LIGAND FREE ENERGY PREDICTED BY IDOCK:   -1.14 KCAL/MOL
REMARK 927      BINDING AFFINITY PREDICTED BY RF-SCORE:    0.00 PKD
ROOT
HETATM    1  C   UNK     1     -13.179  15.408  71.128  1.00  0.00    -0.583 C  
HETATM    2  C   UNK     1     -12.257  14.810  70.074  1.00  0.00    -0.383 C  
ENDROOT
BRANCH   2   3
HETATM    3  C   UNK     1     -12.210  13.287  70.135  1.00  0.00    -0.376 C  
BRANCH   3   4
HETATM    4  C   UNK     1     -11.750  12.707  68.822  1.00  0.00    -0.323 C  
HETATM    5  O   UNK     1     -12.156  11.651  68.356  1.00  0.00    -0.522 OA 
BRANCH   4   6
HETATM    6  O   UNK     1     -10.809  13.501  68.256  1.00  0.00    -0.243 OA 
BRANCH   6   7
HETATM    7  C   UNK     1     -10.374  13.222  66.904  1.00  0.00    -0.255 C  
BRANCH   7   8
HETATM    8  C   UNK     1     -10.049  14.488  66.102  1.00  0.00    -0.305 C  
BRANCH   8   9
HETATM    9  O   UNK     1     -11.177  15.361  66.026  1.00  0.00    -0.284 OA 
BRANCH   9  10
HETATM   10  P   UNK     1     -10.755  17.013  65.732  1.00  0.00     0.122 P  
HETATM   11  O   UNK     1      -9.157  16.670  65.790  1.00  0.00    -0.503 OA 
HETATM   12  O   UNK     1     -11.197  16.857  64.276  1.00  0.00    -1.204 OA 
BRANCH  10  13
HETATM   13  O   UNK     1     -10.333  18.665  65.438  1.00  0.00    -0.460 OA 
BRANCH  13  14
HETATM   14  C   UNK     1     -10.878  19.554  66.423  1.00  0.00    -0.340 C  
BRANCH  14  15
HETATM   15  C   UNK     1      -9.775  20.348  67.126  1.00  0.00    -0.460 C  
HETATM   16  N   UNK     1      -8.539  20.489  66.301  1.00  0.00    -0.536 NA 
HETATM   17  C   UNK     1      -9.422  19.613  68.416  1.00  0.00    -0.370 C  
HETATM   18  O   UNK     1      -8.301  18.859  68.264  1.00  0.00    -0.306 OA 
HETATM   19  O   UNK     1     -10.083  19.645  69.442  1.00  0.00    -0.390 OA 
HETATM   20  H1  UNK     1      -7.804  21.018  66.770  1.00  0.00     0.000 HD 
HETATM   21  H2  UNK     1      -8.754  20.893  65.390  1.00  0.00     0.000 HD 
ENDBRANCH  14  15
ENDBRANCH  13  14
ENDBRANCH  10  13
ENDBRANCH   9  10
ENDBRANCH   8   9
ENDBRANCH   7   8
BRANCH   7  22
HETATM   22  C   UNK     1      -9.207  12.218  66.878  1.00  0.00    -0.209 C  
BRANCH  22  23
HETATM   23  O   UNK     1      -9.095  11.565  65.600  1.00  0.00    -0.203 OA 
BRANCH  23  24
HETATM   24  C   UNK     1      -9.955  10.525  65.409  1.00  0.00    -0.289 C  
HETATM   25  O   UNK     1      -9.956   9.496  66.061  1.00  0.00    -0.278 OA 
BRANCH  24  26
HETATM   26  C   UNK     1     -10.911  10.855  64.285  1.00  0.00    -0.121 C  
HETATM   27  C   UNK     1     -10.214  11.621  63.175  1.00  0.00    -0.396 C  
ENDBRANCH  24  26
ENDBRANCH  23  24
ENDBRANCH  22  23
ENDBRANCH   7  22
ENDBRANCH   6   7
ENDBRANCH   4   6
ENDBRANCH   3   4
ENDBRANCH   2   3
TORSDOF 14
ENDMDL
MODEL       46
REMARK 921   NORMALIZED FREE ENERGY PREDICTED BY IDOCK:   -5.09 KCAL/MOL
REMARK 922        TOTAL FREE ENERGY PREDICTED BY IDOCK:  -10.34 KCAL/MOL
REMARK 923 INTER-LIGAND FREE ENERGY PREDICTED BY IDOCK:   -9.08 KCAL/MOL
REMARK 924 INTRA-LIGAND FREE ENERGY PREDICTED BY IDOCK:   -1.26 KCAL/MOL
REMARK 927      BINDING AFFINITY PREDICTED BY RF-SCORE:    0.00 PKD
ROOT
HETATM    1  C   UNK     1      -9.832  11.561  62.994  1.00  0.00    -0.367 C  
HETATM    2  C   UNK     1     -11.040  11.344  63.894  1.00  0.00    -0.410 C  
ENDROOT
BRANCH   2   3
HETATM    3  C   UNK     1     -12.196  12.281  63.556  1.00  0.00    -0.669 C  
BRANCH   3   4
HETATM    4  C   UNK     1     -12.134  13.536  64.386  1.00  0.00    -0.420 C  
HETATM    5  O   UNK     1     -12.775  14.551  64.146  1.00  0.00    -0.711 OA 
BRANCH   4   6
HETATM    6  O   UNK     1     -11.253  13.390  65.405  1.00  0.00    -0.287 OA 
BRANCH   6   7
HETATM    7  C   UNK     1     -11.591  13.921  66.708  1.00  0.00    -0.378 C  
BRANCH   7   8
HETATM    8  C   UNK     1     -11.688  12.840  67.792  1.00  0.00    -0.359 C  
BRANCH   8   9
HETATM    9  O   UNK     1     -11.583  11.530  67.233  1.00  0.00    -0.506 OA 
BRANCH   9  10
HETATM   10  P   UNK     1     -10.816  10.389  68.283  1.00  0.00    -0.273 P  
HETATM   11  O   UNK     1      -9.450  11.285  68.346  1.00  0.00    -0.179 OA 
HETATM   12  O   UNK     1     -11.715  10.856  69.430  1.00  0.00    -0.277 OA 
BRANCH  10  13
HETATM   13  O   UNK     1     -10.050   9.248  69.334  1.00  0.00    -0.183 OA 
BRANCH  13  14
HETATM   14  C   UNK     1     -10.218   7.893  68.890  1.00  0.00    -0.205 C  
BRANCH  14  15
HETATM   15  C   UNK     1     -10.146   7.797  67.365  1.00  0.00    -0.222 C  
HETATM   16  N   UNK     1     -11.134   6.835  66.792  1.00  0.00    -0.642 NA 
HETATM   17  C   UNK     1      -8.740   7.333  66.993  1.00  0.00    -0.123 C  
HETATM   18  O   UNK     1      -8.713   6.000  66.730  1.00  0.00    -0.116 OA 
HETATM   19  O   UNK     1      -7.749   8.046  66.983  1.00  0.00    -0.097 OA 
HETATM   20  H1  UNK     1     -11.085   6.771  65.775  1.00  0.00     0.000 HD 
HETATM   21  H2  UNK     1     -12.080   7.061  67.098  1.00  0.00     0.000 HD 
ENDBRANCH  14  15
ENDBRANCH  13  14
ENDBRANCH  10  13
ENDBRANCH   9  10
ENDBRANCH   8   9
ENDBRANCH   7   8
BRANCH   7  22
HETATM   22  C   UNK     1     -10.638  15.057  67.123  1.00  0.00    -0.295 C  
BRANCH  22  23
HETATM   23  O   UNK     1      -9.979  15.641  65.984  1.00  0.00    -0.284 OA 
BRANCH  23  24
HETATM   24  C   UNK     1     -10.427  16.878  65.633  1.00  0.00    -0.238 C  
HETATM   25  O   UNK     1     -10.937  17.154  64.559  1.00  0.00    -1.003 OA 
BRANCH  24  26
HETATM   26  C   UNK     1     -10.216  17.842  66.777  1.00  0.00    -0.360 C  
HETATM   27  C   UNK     1     -10.756  19.221  66.444  1.00  0.00    -0.479 C  
ENDBRANCH  24  26
ENDBRANCH  23  24
ENDBRANCH  22  23
ENDBRANCH   7  22
ENDBRANCH   6   7
ENDBRANCH   4   6
ENDBRANCH   3   4
ENDBRANCH   2   3
TORSDOF 14
ENDMDL
MODEL       47
REMARK 921   NORMALIZED FREE ENERGY PREDICTED BY IDOCK:   -5.08 KCAL/MOL
REMARK 922        TOTAL FREE ENERGY PREDICTED BY IDOCK:  -10.33 KCAL/MOL
REMARK 923 INTER-LIGAND FREE ENERGY PREDICTED BY IDOCK:   -9.02 KCAL/MOL
REMARK 924 INTRA-LIGAND FREE ENERGY PREDICTED BY IDOCK:   -1.31 KCAL/MOL
REMARK 927      BINDING AFFINITY PREDICTED BY RF-SCORE:    0.00 PKD
ROOT
HETATM    1  C   UNK     1     -10.039  11.476  63.280  1.00  0.00    -0.439 C  
HETATM    2  C   UNK     1     -10.737  12.055  64.502  1.00  0.00    -0.358 C  
ENDROOT
BRANCH   2   3
HETATM    3  C   UNK     1     -11.040  13.542  64.352  1.00  0.00    -0.397 C  
BRANCH   3   4
HETATM    4  C   UNK     1     -12.021  14.002  65.399  1.00  0.00    -0.380 C  
HETATM    5  O   UNK     1     -13.200  13.679  65.426  1.00  0.00    -0.678 OA 
BRANCH   4   6
HETATM    6  O   UNK     1     -11.420  14.842  66.277  1.00  0.00    -0.350 OA 
BRANCH   6   7
HETATM    7  C   UNK     1     -11.121  14.367  67.611  1.00  0.00    -0.300 C  
BRANCH   7   8
HETATM    8  C   UNK     1      -9.617  14.323  67.913  1.00  0.00    -0.221 C  
BRANCH   8   9
HETATM    9  O   UNK     1      -8.847  14.725  66.780  1.00  0.00    -0.246 OA 
BRANCH   9  10
HETATM   10  P   UNK     1      -8.085  16.266  66.974  1.00  0.00    -0.264 P  
HETATM   11  O   UNK     1      -8.617  16.395  68.515  1.00  0.00    -0.202 OA 
HETATM   12  O   UNK     1      -6.721  15.575  67.025  1.00  0.00    -0.266 OA 
BRANCH  10  13
HETATM   13  O   UNK     1      -7.323  17.807  67.168  1.00  0.00    -0.179 OA 
BRANCH  13  14
HETATM   14  C   UNK     1      -7.766  18.766  66.196  1.00  0.00    -0.247 C  
BRANCH  14  15
HETATM   15  C   UNK     1      -8.697  19.804  66.826  1.00  0.00    -0.339 C  
HETATM   16  N   UNK     1      -8.681  19.776  68.318  1.00  0.00    -0.309 NA 
HETATM   17  C   UNK     1     -10.116  19.510  66.346  1.00  0.00    -0.455 C  
HETATM   18  O   UNK     1     -10.821  18.821  67.283  1.00  0.00    -0.443 OA 
HETATM   19  O   UNK     1     -10.557  19.800  65.245  1.00  0.00    -0.368 OA 
HETATM   20  H1  UNK     1      -9.302  20.469  68.737  1.00  0.00     0.000 HD 
HETATM   21  H2  UNK     1      -7.731  19.877  68.673  1.00  0.00     0.000 HD 
ENDBRANCH  14  15
ENDBRANCH  13  14
ENDBRANCH  10  13
ENDBRANCH   9  10
ENDBRANCH   8   9
ENDBRANCH   7   8
BRANCH   7  22
HETATM   22  C   UNK     1     -11.892  15.160  68.682  1.00  0.00    -0.302 C  
BRANCH  22  23
HETATM   23  O   UNK     1     -11.486  14.790  70.013  1.00  0.00    -0.257 OA 
BRANCH  23  24
HETATM   24  C   UNK     1     -12.297  15.243  71.009  1.00  0.00    -0.367 C  
HETATM   25  O   UNK     1     -13.468  15.551  70.865  1.00  0.00    -0.507 OA 
BRANCH  24  26
HETATM   26  C   UNK     1     -11.531  15.284  72.311  1.00  0.00    -0.480 C  
HETATM   27  C   UNK     1     -12.470  15.265  73.504  1.00  0.00    -0.670 C  
ENDBRANCH  24  26
ENDBRANCH  23  24
ENDBRANCH  22  23
ENDBRANCH   7  22
ENDBRANCH   6   7
ENDBRANCH   4   6
ENDBRANCH   3   4
ENDBRANCH   2   3
TORSDOF 14
ENDMDL
MODEL       48
REMARK 921   NORMALIZED FREE ENERGY PREDICTED BY IDOCK:   -5.08 KCAL/MOL
REMARK 922        TOTAL FREE ENERGY PREDICTED BY IDOCK:  -10.32 KCAL/MOL
REMARK 923 INTER-LIGAND FREE ENERGY PREDICTED BY IDOCK:   -9.12 KCAL/MOL
REMARK 924 INTRA-LIGAND FREE ENERGY PREDICTED BY IDOCK:   -1.20 KCAL/MOL
REMARK 927      BINDING AFFINITY PREDICTED BY RF-SCORE:    0.00 PKD
ROOT
HETATM    1  C   UNK     1     -13.031   9.795  72.039  1.00  0.00    -0.515 C  
HETATM    2  C   UNK     1     -12.722  10.948  71.094  1.00  0.00    -0.530 C  
ENDROOT
BRANCH   2   3
HETATM    3  C   UNK     1     -13.043  12.308  71.708  1.00  0.00    -0.449 C  
BRANCH   3   4
HETATM    4  C   UNK     1     -12.658  13.426  70.774  1.00  0.00    -0.294 C  
HETATM    5  O   UNK     1     -13.131  14.553  70.820  1.00  0.00    -0.360 OA 
BRANCH   4   6
HETATM    6  O   UNK     1     -11.745  12.996  69.869  1.00  0.00    -0.304 OA 
BRANCH   6   7
HETATM    7  C   UNK     1     -11.648  13.674  68.594  1.00  0.00    -0.329 C  
BRANCH   7   8
HETATM    8  C   UNK     1     -10.287  14.346  68.371  1.00  0.00    -0.244 C  
BRANCH   8   9
HETATM    9  O   UNK     1      -9.966  14.426  66.982  1.00  0.00    -0.249 OA 
BRANCH   9  10
HETATM   10  P   UNK     1      -9.671  16.040  66.432  1.00  0.00    -0.336 P  
HETATM   11  O   UNK     1     -10.657  15.838  65.143  1.00  0.00    -0.403 OA 
HETATM   12  O   UNK     1     -10.531  16.577  67.578  1.00  0.00    -0.299 OA 
BRANCH  10  13
HETATM   13  O   UNK     1      -9.376  17.653  65.882  1.00  0.00    -0.520 OA 
BRANCH  13  14
HETATM   14  C   UNK     1     -10.454  18.547  66.198  1.00  0.00    -0.413 C  
BRANCH  14  15
HETATM   15  C   UNK     1      -9.930  19.923  66.614  1.00  0.00    -0.457 C  
HETATM   16  N   UNK     1      -8.841  20.427  65.728  1.00  0.00    -0.482 NA 
HETATM   17  C   UNK     1      -9.388  19.805  68.037  1.00  0.00    -0.352 C  
HETATM   18  O   UNK     1      -8.035  19.675  68.040  1.00  0.00    -0.292 OA 
HETATM   19  O   UNK     1     -10.075  19.774  69.046  1.00  0.00    -0.448 OA 
HETATM   20  H1  UNK     1      -8.492  21.345  66.006  1.00  0.00     0.000 HD 
HETATM   21  H2  UNK     1      -9.138  20.431  64.753  1.00  0.00     0.000 HD 
ENDBRANCH  14  15
ENDBRANCH  13  14
ENDBRANCH  10  13
ENDBRANCH   9  10
ENDBRANCH   8   9
ENDBRANCH   7   8
BRANCH   7  22
HETATM   22  C   UNK     1     -12.019  12.742  67.425  1.00  0.00    -0.272 C  
BRANCH  22  23
HETATM   23  O   UNK     1     -11.961  11.356  67.811  1.00  0.00    -0.637 OA 
BRANCH  23  24
HETATM   24  C   UNK     1     -10.893  10.667  67.320  1.00  0.00    -0.287 C  
HETATM   25  O   UNK     1     -10.354  10.892  66.250  1.00  0.00    -0.239 OA 
BRANCH  24  26
HETATM   26  C   UNK     1     -10.475   9.604  68.309  1.00  0.00    -0.259 C  
HETATM   27  C   UNK     1      -9.187   8.925  67.877  1.00  0.00    -0.148 C  
ENDBRANCH  24  26
ENDBRANCH  23  24
ENDBRANCH  22  23
ENDBRANCH   7  22
ENDBRANCH   6   7
ENDBRANCH   4   6
ENDBRANCH   3   4
ENDBRANCH   2   3
TORSDOF 14
ENDMDL
MODEL       49
REMARK 921   NORMALIZED FREE ENERGY PREDICTED BY IDOCK:   -5.07 KCAL/MOL
REMARK 922        TOTAL FREE ENERGY PREDICTED BY IDOCK:  -10.31 KCAL/MOL
REMARK 923 INTER-LIGAND FREE ENERGY PREDICTED BY IDOCK:   -9.18 KCAL/MOL
REMARK 924 INTRA-LIGAND FREE ENERGY PREDICTED BY IDOCK:   -1.13 KCAL/MOL
REMARK 927      BINDING AFFINITY PREDICTED BY RF-SCORE:    0.00 PKD
ROOT
HETATM    1  C   UNK     1     -12.579  11.982  63.488  1.00  0.00    -0.625 C  
HETATM    2  C   UNK     1     -11.151  12.131  63.996  1.00  0.00    -0.449 C  
ENDROOT
BRANCH   2   3
HETATM    3  C   UNK     1     -10.613  10.844  64.612  1.00  0.00    -0.332 C  
BRANCH   3   4
HETATM    4  C   UNK     1     -10.336  11.024  66.083  1.00  0.00    -0.251 C  
HETATM    5  O   UNK     1      -9.273  10.748  66.621  1.00  0.00    -0.162 OA 
BRANCH   4   6
HETATM    6  O   UNK     1     -11.434  11.499  66.718  1.00  0.00    -0.436 OA 
BRANCH   6   7
HETATM    7  C   UNK     1     -11.274  12.174  67.988  1.00  0.00    -0.264 C  
BRANCH   7   8
HETATM    8  C   UNK     1     -11.590  13.674  67.917  1.00  0.00    -0.341 C  
BRANCH   8   9
HETATM    9  O   UNK     1     -11.940  14.071  66.591  1.00  0.00    -0.402 OA 
BRANCH   9  10
HETATM   10  P   UNK     1     -11.008  15.402  65.998  1.00  0.00    -0.183 P  
HETATM   11  O   UNK     1     -11.124  16.188  67.427  1.00  0.00    -0.258 OA 
HETATM   12  O   UNK     1      -9.748  14.536  66.061  1.00  0.00    -0.298 OA 
BRANCH  10  13
HETATM   13  O   UNK     1     -10.075  16.733  65.405  1.00  0.00    -0.587 OA 
BRANCH  13  14
HETATM   14  C   UNK     1     -10.257  17.922  66.188  1.00  0.00    -0.343 C  
BRANCH  14  15
HETATM   15  C   UNK     1      -8.918  18.605  66.478  1.00  0.00    -0.304 C  
HETATM   16  N   UNK     1      -7.764  17.938  65.807  1.00  0.00    -0.551 NA 
HETATM   17  C   UNK     1      -8.694  18.568  67.988  1.00  0.00    -0.295 C  
HETATM   18  O   UNK     1      -7.857  17.556  68.338  1.00  0.00    -0.243 OA 
HETATM   19  O   UNK     1      -9.234  19.311  68.793  1.00  0.00    -0.365 OA 
HETATM   20  H1  UNK     1      -6.872  18.394  66.001  1.00  0.00     0.000 HD 
HETATM   21  H2  UNK     1      -7.923  17.861  64.803  1.00  0.00     0.000 HD 
ENDBRANCH  14  15
ENDBRANCH  13  14
ENDBRANCH  10  13
ENDBRANCH   9  10
ENDBRANCH   8   9
ENDBRANCH   7   8
BRANCH   7  22
HETATM   22  C   UNK     1     -12.071  11.478  69.107  1.00  0.00    -0.263 C  
BRANCH  22  23
HETATM   23  O   UNK     1     -11.994  12.206  70.347  1.00  0.00    -0.343 OA 
BRANCH  23  24
HETATM   24  C   UNK     1     -12.672  11.645  71.386  1.00  0.00    -0.339 C  
HETATM   25  O   UNK     1     -13.314  12.268  72.215  1.00  0.00    -0.515 OA 
BRANCH  24  26
HETATM   26  C   UNK     1     -12.523  10.141  71.339  1.00  0.00    -0.524 C  
HETATM   27  C   UNK     1     -13.419   9.467  72.362  1.00  0.00    -0.506 C  
ENDBRANCH  24  26
ENDBRANCH  23  24
ENDBRANCH  22  23
ENDBRANCH   7  22
ENDBRANCH   6   7
ENDBRANCH   4   6
ENDBRANCH   3   4
ENDBRANCH   2   3
TORSDOF 14
ENDMDL
MODEL       50
REMARK 921   NORMALIZED FREE ENERGY PREDICTED BY IDOCK:   -5.06 KCAL/MOL
REMARK 922        TOTAL FREE ENERGY PREDICTED BY IDOCK:  -10.29 KCAL/MOL
REMARK 923 INTER-LIGAND FREE ENERGY PREDICTED BY IDOCK:   -9.15 KCAL/MOL
REMARK 924 INTRA-LIGAND FREE ENERGY PREDICTED BY IDOCK:   -1.15 KCAL/MOL
REMARK 927      BINDING AFFINITY PREDICTED BY RF-SCORE:    0.00 PKD
ROOT
HETATM    1  C   UNK     1     -12.463  11.972  63.347  1.00  0.00    -0.625 C  
HETATM    2  C   UNK     1     -12.109  13.373  63.823  1.00  0.00    -0.516 C  
ENDROOT
BRANCH   2   3
HETATM    3  C   UNK     1     -12.330  13.554  65.322  1.00  0.00    -0.506 C  
BRANCH   3   4
HETATM    4  C   UNK     1     -11.281  12.819  66.115  1.00  0.00    -0.298 C  
HETATM    5  O   UNK     1     -10.076  12.984  65.980  1.00  0.00    -0.275 OA 
BRANCH   4   6
HETATM    6  O   UNK     1     -11.860  11.937  66.966  1.00  0.00    -0.585 OA 
BRANCH   6   7
HETATM    7  C   UNK     1     -11.528  11.998  68.373  1.00  0.00    -0.301 C  
BRANCH   7   8
HETATM    8  C   UNK     1     -12.028  13.278  69.056  1.00  0.00    -0.293 C  
BRANCH   8   9
HETATM    9  O   UNK     1     -10.940  14.096  69.489  1.00  0.00    -0.224 OA 
BRANCH   9  10
HETATM   10  P   UNK     1     -10.793  15.576  68.605  1.00  0.00    -0.303 P  
HETATM   11  O   UNK     1     -10.832  16.462  69.979  1.00  0.00    -0.345 OA 
HETATM   12  O   UNK     1      -9.326  15.249  68.320  1.00  0.00    -0.188 OA 
BRANCH  10  13
HETATM   13  O   UNK     1     -10.646  17.056  67.721  1.00  0.00    -0.341 OA 
BRANCH  13  14
HETATM   14  C   UNK     1      -9.304  17.563  67.719  1.00  0.00    -0.257 C  
BRANCH  14  15
HETATM   15  C   UNK     1      -9.289  19.092  67.781  1.00  0.00    -0.302 C  
HETATM   16  N   UNK     1     -10.473  19.661  68.489  1.00  0.00    -0.509 NA 
HETATM   17  C   UNK     1      -9.276  19.617  66.348  1.00  0.00    -0.381 C  
HETATM   18  O   UNK     1     -10.520  19.993  65.949  1.00  0.00    -0.474 OA 
HETATM   19  O   UNK     1      -8.294  19.648  65.623  1.00  0.00    -0.385 OA 
HETATM   20  H1  UNK     1     -10.462  20.680  68.530  1.00  0.00     0.000 HD 
HETATM   21  H2  UNK     1     -10.566  19.260  69.422  1.00  0.00     0.000 HD 
ENDBRANCH  14  15
ENDBRANCH  13  14
ENDBRANCH  10  13
ENDBRANCH   9  10
ENDBRANCH   8   9
ENDBRANCH   7   8
BRANCH   7  22
HETATM   22  C   UNK     1     -11.995  10.736  69.122  1.00  0.00    -0.230 C  
BRANCH  22  23
HETATM   23  O   UNK     1     -11.830  10.871  70.546  1.00  0.00    -0.313 OA 
BRANCH  23  24
HETATM   24  C   UNK     1     -12.334   9.843  71.283  1.00  0.00    -0.381 C  
HETATM   25  O   UNK     1     -13.289   9.930  72.036  1.00  0.00    -0.423 OA 
BRANCH  24  26
HETATM   26  C   UNK     1     -11.545   8.583  71.008  1.00  0.00    -0.317 C  
HETATM   27  C   UNK     1     -10.514   8.330  72.093  1.00  0.00    -0.371 C  
ENDBRANCH  24  26
ENDBRANCH  23  24
ENDBRANCH  22  23
ENDBRANCH   7  22
ENDBRANCH   6   7
ENDBRANCH   4   6
ENDBRANCH   3   4
ENDBRANCH   2   3
TORSDOF 14
ENDMDL
MODEL       51
REMARK 921   NORMALIZED FREE ENERGY PREDICTED BY IDOCK:   -5.05 KCAL/MOL
REMARK 922        TOTAL FREE ENERGY PREDICTED BY IDOCK:  -10.28 KCAL/MOL
REMARK 923 INTER-LIGAND FREE ENERGY PREDICTED BY IDOCK:   -8.97 KCAL/MOL
REMARK 924 INTRA-LIGAND FREE ENERGY PREDICTED BY IDOCK:   -1.30 KCAL/MOL
REMARK 927      BINDING AFFINITY PREDICTED BY RF-SCORE:    0.00 PKD
ROOT
HETATM    1  C   UNK     1      -8.245  11.101  66.844  1.00  0.00    -0.149 C  
HETATM    2  C   UNK     1      -8.919   9.803  67.267  1.00  0.00    -0.146 C  
ENDROOT
BRANCH   2   3
HETATM    3  C   UNK     1     -10.431   9.838  67.066  1.00  0.00    -0.295 C  
BRANCH   3   4
HETATM    4  C   UNK     1     -11.120  10.453  68.257  1.00  0.00    -0.281 C  
HETATM    5  O   UNK     1     -10.831  10.208  69.420  1.00  0.00    -0.214 OA 
BRANCH   4   6
HETATM    6  O   UNK     1     -12.115  11.280  67.856  1.00  0.00    -0.634 OA 
BRANCH   6   7
HETATM    7  C   UNK     1     -11.819  12.679  67.635  1.00  0.00    -0.329 C  
BRANCH   7   8
HETATM    8  C   UNK     1     -10.673  13.199  68.513  1.00  0.00    -0.259 C  
BRANCH   8   9
HETATM    9  O   UNK     1     -11.157  14.052  69.550  1.00  0.00    -0.230 OA 
BRANCH   9  10
HETATM   10  P   UNK     1     -10.671  15.703  69.372  1.00  0.00    -0.307 P  
HETATM   11  O   UNK     1      -9.460  15.291  68.353  1.00  0.00    -0.196 OA 
HETATM   12  O   UNK     1     -11.911  15.965  68.515  1.00  0.00    -0.366 OA 
BRANCH  10  13
HETATM   13  O   UNK     1     -10.185  17.354  69.193  1.00  0.00    -0.329 OA 
BRANCH  13  14
HETATM   14  C   UNK     1      -9.225  17.533  68.141  1.00  0.00    -0.277 C  
BRANCH  14  15
HETATM   15  C   UNK     1      -9.754  18.479  67.062  1.00  0.00    -0.310 C  
HETATM   16  N   UNK     1     -10.161  17.773  65.812  1.00  0.00    -0.581 NA 
HETATM   17  C   UNK     1      -8.642  19.469  66.725  1.00  0.00    -0.318 C  
HETATM   18  O   UNK     1      -7.984  19.106  65.591  1.00  0.00    -0.433 OA 
HETATM   19  O   UNK     1      -8.336  20.435  67.405  1.00  0.00    -0.333 OA 
HETATM   20  H1  UNK     1     -10.513  18.404  65.093  1.00  0.00     0.000 HD 
HETATM   21  H2  UNK     1     -10.838  17.037  66.014  1.00  0.00     0.000 HD 
ENDBRANCH  14  15
ENDBRANCH  13  14
ENDBRANCH  10  13
ENDBRANCH   9  10
ENDBRANCH   8   9
ENDBRANCH   7   8
BRANCH   7  22
HETATM   22  C   UNK     1     -11.573  12.980  66.144  1.00  0.00    -0.366 C  
BRANCH  22  23
HETATM   23  O   UNK     1     -12.622  12.447  65.315  1.00  0.00    -0.636 OA 
BRANCH  23  24
HETATM   24  C   UNK     1     -12.269  12.217  64.019  1.00  0.00    -0.475 C  
HETATM   25  O   UNK     1     -13.051  11.945  63.124  1.00  0.00    -0.605 OA 
BRANCH  24  26
HETATM   26  C   UNK     1     -10.774  12.371  63.863  1.00  0.00    -0.465 C  
HETATM   27  C   UNK     1     -10.140  11.094  63.343  1.00  0.00    -0.439 C  
ENDBRANCH  24  26
ENDBRANCH  23  24
ENDBRANCH  22  23
ENDBRANCH   7  22
ENDBRANCH   6   7
ENDBRANCH   4   6
ENDBRANCH   3   4
ENDBRANCH   2   3
TORSDOF 14
ENDMDL
MODEL       52
REMARK 921   NORMALIZED FREE ENERGY PREDICTED BY IDOCK:   -5.05 KCAL/MOL
REMARK 922        TOTAL FREE ENERGY PREDICTED BY IDOCK:  -10.27 KCAL/MOL
REMARK 923 INTER-LIGAND FREE ENERGY PREDICTED BY IDOCK:   -8.79 KCAL/MOL
REMARK 924 INTRA-LIGAND FREE ENERGY PREDICTED BY IDOCK:   -1.48 KCAL/MOL
REMARK 927      BINDING AFFINITY PREDICTED BY RF-SCORE:    0.00 PKD
ROOT
HETATM    1  C   UNK     1      -9.745  20.532  67.429  1.00  0.00    -0.587 C  
HETATM    2  C   UNK     1     -10.590  19.277  67.599  1.00  0.00    -0.553 C  
ENDROOT
BRANCH   2   3
HETATM    3  C   UNK     1     -10.089  18.385  68.731  1.00  0.00    -0.393 C  
BRANCH   3   4
HETATM    4  C   UNK     1     -10.361  16.933  68.434  1.00  0.00    -0.338 C  
HETATM    5  O   UNK     1     -10.196  16.025  69.237  1.00  0.00    -0.218 OA 
BRANCH   4   6
HETATM    6  O   UNK     1     -10.778  16.779  67.154  1.00  0.00    -0.287 OA 
BRANCH   6   7
HETATM    7  C   UNK     1     -10.161  15.761  66.332  1.00  0.00    -0.291 C  
BRANCH   7   8
HETATM    8  C   UNK     1     -10.791  15.648  64.937  1.00  0.00    -0.418 C  
BRANCH   8   9
HETATM    9  O   UNK     1     -11.022  14.286  64.578  1.00  0.00    -0.372 OA 
BRANCH   9  10
HETATM   10  P   UNK     1     -11.587  13.311  65.891  1.00  0.00    -0.385 P  
HETATM   11  O   UNK     1     -13.149  13.614  65.513  1.00  0.00    -0.639 OA 
HETATM   12  O   UNK     1     -11.173  12.054  65.123  1.00  0.00    -0.311 OA 
BRANCH  10  13
HETATM   13  O   UNK     1     -12.152  12.336  67.203  1.00  0.00    -0.560 OA 
BRANCH  13  14
HETATM   14  C   UNK     1     -12.013  12.990  68.473  1.00  0.00    -0.261 C  
BRANCH  14  15
HETATM   15  C   UNK     1     -11.104  12.194  69.411  1.00  0.00    -0.117 C  
HETATM   16  N   UNK     1      -9.697  12.099  68.921  1.00  0.00    -0.416 NA 
HETATM   17  C   UNK     1     -11.677  10.784  69.530  1.00  0.00    -0.312 C  
HETATM   18  O   UNK     1     -11.018   9.914  68.720  1.00  0.00    -0.223 OA 
HETATM   19  O   UNK     1     -12.637  10.475  70.218  1.00  0.00    -0.310 OA 
HETATM   20  H1  UNK     1      -9.091  11.569  69.547  1.00  0.00     0.000 HD 
HETATM   21  H2  UNK     1      -9.312  13.026  68.741  1.00  0.00     0.000 HD 
ENDBRANCH  14  15
ENDBRANCH  13  14
ENDBRANCH  10  13
ENDBRANCH   9  10
ENDBRANCH   8   9
ENDBRANCH   7   8
BRANCH   7  22
HETATM   22  C   UNK     1      -8.634  15.943  66.251  1.00  0.00    -0.313 C  
BRANCH  22  23
HETATM   23  O   UNK     1      -8.279  17.232  65.716  1.00  0.00    -0.533 OA 
BRANCH  23  24
HETATM   24  C   UNK     1      -7.251  17.857  66.355  1.00  0.00    -0.263 C  
HETATM   25  O   UNK     1      -7.075  17.849  67.561  1.00  0.00    -0.190 OA 
BRANCH  24  26
HETATM   26  C   UNK     1      -6.359  18.536  65.341  1.00  0.00    -0.306 C  
HETATM   27  C   UNK     1      -6.836  19.946  65.044  1.00  0.00    -0.197 C  
ENDBRANCH  24  26
ENDBRANCH  23  24
ENDBRANCH  22  23
ENDBRANCH   7  22
ENDBRANCH   6   7
ENDBRANCH   4   6
ENDBRANCH   3   4
ENDBRANCH   2   3
TORSDOF 14
ENDMDL
MODEL       53
REMARK 921   NORMALIZED FREE ENERGY PREDICTED BY IDOCK:   -5.04 KCAL/MOL
REMARK 922        TOTAL FREE ENERGY PREDICTED BY IDOCK:  -10.25 KCAL/MOL
REMARK 923 INTER-LIGAND FREE ENERGY PREDICTED BY IDOCK:   -9.84 KCAL/MOL
REMARK 924 INTRA-LIGAND FREE ENERGY PREDICTED BY IDOCK:   -0.41 KCAL/MOL
REMARK 927      BINDING AFFINITY PREDICTED BY RF-SCORE:    0.00 PKD
ROOT
HETATM    1  C   UNK     1     -10.446  19.760  66.804  1.00  0.00    -0.610 C  
HETATM    2  C   UNK     1     -10.519  18.634  67.825  1.00  0.00    -0.457 C  
ENDROOT
BRANCH   2   3
HETATM    3  C   UNK     1     -10.090  17.290  67.244  1.00  0.00    -0.300 C  
BRANCH   3   4
HETATM    4  C   UNK     1     -10.719  16.149  68.001  1.00  0.00    -0.321 C  
HETATM    5  O   UNK     1     -11.814  16.205  68.544  1.00  0.00    -0.300 OA 
BRANCH   4   6
HETATM    6  O   UNK     1      -9.891  15.077  68.019  1.00  0.00    -0.214 OA 
BRANCH   6   7
HETATM    7  C   UNK     1     -10.187  13.946  67.166  1.00  0.00    -0.258 C  
BRANCH   7   8
HETATM    8  C   UNK     1     -10.586  12.688  67.948  1.00  0.00    -0.220 C  
BRANCH   8   9
HETATM    9  O   UNK     1     -11.337  13.018  69.117  1.00  0.00    -0.261 OA 
BRANCH   9  10
HETATM   10  P   UNK     1     -11.714  11.650  70.106  1.00  0.00    -0.151 P  
HETATM   11  O   UNK     1     -12.701  12.542  71.057  1.00  0.00    -0.326 OA 
HETATM   12  O   UNK     1     -12.573  11.080  68.975  1.00  0.00    -0.378 OA 
BRANCH  10  13
HETATM   13  O   UNK     1     -12.091  10.281  71.095  1.00  0.00    -0.341 OA 
BRANCH  13  14
HETATM   14  C   UNK     1     -13.423   9.793  70.873  1.00  0.00    -0.109 C  
BRANCH  14  15
HETATM   15  C   UNK     1     -13.717   8.568  71.741  1.00  0.00    -0.407 C  
HETATM   16  N   UNK     1     -13.989   8.913  73.167  1.00  0.00    -1.215 NA 
HETATM   17  C   UNK     1     -12.496   7.653  71.683  1.00  0.00    -0.335 C  
HETATM   18  O   UNK     1     -11.710   7.808  72.781  1.00  0.00    -0.337 OA 
HETATM   19  O   UNK     1     -12.221   6.912  70.752  1.00  0.00    -0.381 OA 
HETATM   20  H1  UNK     1     -14.185   8.096  73.745  1.00  0.00     0.000 HD 
HETATM   21  H2  UNK     1     -14.741   9.598  73.238  1.00  0.00     0.000 HD 
ENDBRANCH  14  15
ENDBRANCH  13  14
ENDBRANCH  10  13
ENDBRANCH   9  10
ENDBRANCH   8   9
ENDBRANCH   7   8
BRANCH   7  22
HETATM   22  C   UNK     1     -11.232  14.302  66.092  1.00  0.00    -0.331 C  
BRANCH  22  23
HETATM   23  O   UNK     1     -12.234  13.277  65.965  1.00  0.00    -0.421 OA 
BRANCH  23  24
HETATM   24  C   UNK     1     -12.389  12.777  64.708  1.00  0.00    -0.478 C  
HETATM   25  O   UNK     1     -13.377  12.181  64.313  1.00  0.00    -0.761 OA 
BRANCH  24  26
HETATM   26  C   UNK     1     -11.164  13.091  63.880  1.00  0.00    -0.434 C  
HETATM   27  C   UNK     1     -10.382  11.832  63.553  1.00  0.00    -0.490 C  
ENDBRANCH  24  26
ENDBRANCH  23  24
ENDBRANCH  22  23
ENDBRANCH   7  22
ENDBRANCH   6   7
ENDBRANCH   4   6
ENDBRANCH   3   4
ENDBRANCH   2   3
TORSDOF 14
ENDMDL
MODEL       54
REMARK 921   NORMALIZED FREE ENERGY PREDICTED BY IDOCK:   -5.02 KCAL/MOL
REMARK 922        TOTAL FREE ENERGY PREDICTED BY IDOCK:  -10.22 KCAL/MOL
REMARK 923 INTER-LIGAND FREE ENERGY PREDICTED BY IDOCK:   -9.05 KCAL/MOL
REMARK 924 INTRA-LIGAND FREE ENERGY PREDICTED BY IDOCK:   -1.17 KCAL/MOL
REMARK 927      BINDING AFFINITY PREDICTED BY RF-SCORE:    0.00 PKD
ROOT
HETATM    1  C   UNK     1     -13.525   9.209  71.800  1.00  0.00    -0.478 C  
HETATM    2  C   UNK     1     -13.184  10.685  71.652  1.00  0.00    -0.495 C  
ENDROOT
BRANCH   2   3
HETATM    3  C   UNK     1     -12.190  10.945  70.524  1.00  0.00    -0.459 C  
BRANCH   3   4
HETATM    4  C   UNK     1     -12.062  12.421  70.247  1.00  0.00    -0.297 C  
HETATM    5  O   UNK     1     -12.607  13.294  70.908  1.00  0.00    -0.345 OA 
BRANCH   4   6
HETATM    6  O   UNK     1     -11.290  12.634  69.154  1.00  0.00    -0.267 OA 
BRANCH   6   7
HETATM    7  C   UNK     1     -11.911  13.118  67.940  1.00  0.00    -0.348 C  
BRANCH   7   8
HETATM    8  C   UNK     1     -11.830  14.643  67.789  1.00  0.00    -0.329 C  
BRANCH   8   9
HETATM    9  O   UNK     1     -10.577  15.147  68.252  1.00  0.00    -0.236 OA 
BRANCH   9  10
HETATM   10  P   UNK     1      -9.722  16.073  67.067  1.00  0.00    -0.243 P  
HETATM   11  O   UNK     1      -8.803  14.787  66.648  1.00  0.00    -0.255 OA 
HETATM   12  O   UNK     1     -10.962  16.052  66.170  1.00  0.00    -0.225 OA 
BRANCH  10  13
HETATM   13  O   UNK     1      -8.868  16.999  65.881  1.00  0.00    -0.518 OA 
BRANCH  13  14
HETATM   14  C   UNK     1      -7.917  17.899  66.468  1.00  0.00    -0.270 C  
BRANCH  14  15
HETATM   15  C   UNK     1      -8.381  18.376  67.846  1.00  0.00    -0.261 C  
HETATM   16  N   UNK     1      -8.994  19.736  67.819  1.00  0.00    -0.320 NA 
HETATM   17  C   UNK     1      -7.161  18.407  68.763  1.00  0.00    -0.284 C  
HETATM   18  O   UNK     1      -6.664  19.667  68.881  1.00  0.00    -0.289 OA 
HETATM   19  O   UNK     1      -6.654  17.427  69.286  1.00  0.00    -0.236 OA 
HETATM   20  H1  UNK     1      -9.303  20.053  68.737  1.00  0.00     0.000 HD 
HETATM   21  H2  UNK     1      -9.757  19.777  67.143  1.00  0.00     0.000 HD 
ENDBRANCH  14  15
ENDBRANCH  13  14
ENDBRANCH  10  13
ENDBRANCH   9  10
ENDBRANCH   8   9
ENDBRANCH   7   8
BRANCH   7  22
HETATM   22  C   UNK     1     -11.365  12.395  66.695  1.00  0.00    -0.339 C  
BRANCH  22  23
HETATM   23  O   UNK     1     -12.315  12.408  65.613  1.00  0.00    -0.639 OA 
BRANCH  23  24
HETATM   24  C   UNK     1     -11.994  13.232  64.577  1.00  0.00    -0.400 C  
HETATM   25  O   UNK     1     -12.726  14.096  64.124  1.00  0.00    -0.656 OA 
BRANCH  24  26
HETATM   26  C   UNK     1     -10.595  12.924  64.095  1.00  0.00    -0.442 C  
HETATM   27  C   UNK     1     -10.564  11.649  63.272  1.00  0.00    -0.420 C  
ENDBRANCH  24  26
ENDBRANCH  23  24
ENDBRANCH  22  23
ENDBRANCH   7  22
ENDBRANCH   6   7
ENDBRANCH   4   6
ENDBRANCH   3   4
ENDBRANCH   2   3
TORSDOF 14
ENDMDL
MODEL       55
REMARK 921   NORMALIZED FREE ENERGY PREDICTED BY IDOCK:   -5.02 KCAL/MOL
REMARK 922        TOTAL FREE ENERGY PREDICTED BY IDOCK:  -10.21 KCAL/MOL
REMARK 923 INTER-LIGAND FREE ENERGY PREDICTED BY IDOCK:   -9.26 KCAL/MOL
REMARK 924 INTRA-LIGAND FREE ENERGY PREDICTED BY IDOCK:   -0.96 KCAL/MOL
REMARK 927      BINDING AFFINITY PREDICTED BY RF-SCORE:    0.00 PKD
ROOT
HETATM    1  C   UNK     1     -14.373   8.348  71.631  1.00  0.00    -0.536 C  
HETATM    2  C   UNK     1     -13.120   9.032  72.159  1.00  0.00    -0.496 C  
ENDROOT
BRANCH   2   3
HETATM    3  C   UNK     1     -12.236   9.575  71.041  1.00  0.00    -0.385 C  
BRANCH   3   4
HETATM    4  C   UNK     1     -12.301  11.080  70.983  1.00  0.00    -0.385 C  
HETATM    5  O   UNK     1     -13.096  11.758  71.620  1.00  0.00    -0.441 OA 
BRANCH   4   6
HETATM    6  O   UNK     1     -11.385  11.562  70.109  1.00  0.00    -0.215 OA 
BRANCH   6   7
HETATM    7  C   UNK     1     -11.798  12.539  69.125  1.00  0.00    -0.296 C  
BRANCH   7   8
HETATM    8  C   UNK     1     -11.514  13.984  69.554  1.00  0.00    -0.275 C  
BRANCH   8   9
HETATM    9  O   UNK     1     -10.370  14.512  68.881  1.00  0.00    -0.233 OA 
BRANCH   9  10
HETATM   10  P   UNK     1     -10.593  16.126  68.298  1.00  0.00    -0.315 P  
HETATM   11  O   UNK     1     -10.961  15.590  66.798  1.00  0.00    -0.314 OA 
HETATM   12  O   UNK     1     -11.906  16.216  69.079  1.00  0.00    -0.327 OA 
BRANCH  10  13
HETATM   13  O   UNK     1     -10.817  17.739  67.716  1.00  0.00    -0.371 OA 
BRANCH  13  14
HETATM   14  C   UNK     1      -9.859  18.097  66.709  1.00  0.00    -0.337 C  
BRANCH  14  15
HETATM   15  C   UNK     1      -9.099  19.367  67.093  1.00  0.00    -0.303 C  
HETATM   16  N   UNK     1      -8.992  20.347  65.972  1.00  0.00    -0.585 NA 
HETATM   17  C   UNK     1      -7.691  18.957  67.519  1.00  0.00    -0.233 C  
HETATM   18  O   UNK     1      -6.796  19.144  66.513  1.00  0.00    -0.193 OA 
HETATM   19  O   UNK     1      -7.403  18.471  68.602  1.00  0.00    -0.277 OA 
HETATM   20  H1  UNK     1      -8.485  21.194  66.229  1.00  0.00     0.000 HD 
HETATM   21  H2  UNK     1      -9.913  20.574  65.599  1.00  0.00     0.000 HD 
ENDBRANCH  14  15
ENDBRANCH  13  14
ENDBRANCH  10  13
ENDBRANCH   9  10
ENDBRANCH   8   9
ENDBRANCH   7   8
BRANCH   7  22
HETATM   22  C   UNK     1     -11.208  12.232  67.736  1.00  0.00    -0.276 C  
BRANCH  22  23
HETATM   23  O   UNK     1     -12.235  11.897  66.784  1.00  0.00    -0.489 OA 
BRANCH  23  24
HETATM   24  C   UNK     1     -12.124  12.518  65.577  1.00  0.00    -0.419 C  
HETATM   25  O   UNK     1     -13.004  13.177  65.051  1.00  0.00    -0.729 OA 
BRANCH  24  26
HETATM   26  C   UNK     1     -10.744  12.282  65.008  1.00  0.00    -0.336 C  
HETATM   27  C   UNK     1     -10.813  11.560  63.674  1.00  0.00    -0.488 C  
ENDBRANCH  24  26
ENDBRANCH  23  24
ENDBRANCH  22  23
ENDBRANCH   7  22
ENDBRANCH   6   7
ENDBRANCH   4   6
ENDBRANCH   3   4
ENDBRANCH   2   3
TORSDOF 14
ENDMDL
MODEL       56
REMARK 921   NORMALIZED FREE ENERGY PREDICTED BY IDOCK:   -5.02 KCAL/MOL
REMARK 922        TOTAL FREE ENERGY PREDICTED BY IDOCK:  -10.21 KCAL/MOL
REMARK 923 INTER-LIGAND FREE ENERGY PREDICTED BY IDOCK:   -9.06 KCAL/MOL
REMARK 924 INTRA-LIGAND FREE ENERGY PREDICTED BY IDOCK:   -1.16 KCAL/MOL
REMARK 927      BINDING AFFINITY PREDICTED BY RF-SCORE:    0.00 PKD
ROOT
HETATM    1  C   UNK     1     -14.410   6.968  71.587  1.00  0.00    -0.462 C  
HETATM    2  C   UNK     1     -14.398   8.474  71.807  1.00  0.00    -0.522 C  
ENDROOT
BRANCH   2   3
HETATM    3  C   UNK     1     -13.044   8.983  72.290  1.00  0.00    -0.508 C  
BRANCH   3   4
HETATM    4  C   UNK     1     -12.756  10.357  71.743  1.00  0.00    -0.421 C  
HETATM    5  O   UNK     1     -13.577  11.263  71.694  1.00  0.00    -0.114 OA 
BRANCH   4   6
HETATM    6  O   UNK     1     -11.482  10.431  71.289  1.00  0.00    -0.268 OA 
BRANCH   6   7
HETATM    7  C   UNK     1     -11.128   9.734  70.071  1.00  0.00    -0.267 C  
BRANCH   7   8
HETATM    8  C   UNK     1     -11.113  10.646  68.837  1.00  0.00    -0.261 C  
BRANCH   8   9
HETATM    9  O   UNK     1     -11.188  12.024  69.207  1.00  0.00    -0.244 OA 
BRANCH   9  10
HETATM   10  P   UNK     1     -11.589  13.072  67.891  1.00  0.00    -0.358 P  
HETATM   11  O   UNK     1     -10.012  13.369  67.577  1.00  0.00    -0.224 OA 
HETATM   12  O   UNK     1     -11.993  11.855  67.057  1.00  0.00    -0.615 OA 
BRANCH  10  13
HETATM   13  O   UNK     1     -11.991  14.121  66.574  1.00  0.00    -0.406 OA 
BRANCH  13  14
HETATM   14  C   UNK     1     -10.871  14.375  65.714  1.00  0.00    -0.307 C  
BRANCH  14  15
HETATM   15  C   UNK     1     -11.282  14.332  64.241  1.00  0.00    -0.132 C  
HETATM   16  N   UNK     1     -12.536  15.091  63.961  1.00  0.00    -0.993 NA 
HETATM   17  C   UNK     1     -11.499  12.870  63.860  1.00  0.00    -0.446 C  
HETATM   18  O   UNK     1     -12.819  12.546  63.877  1.00  0.00    -0.714 OA 
HETATM   19  O   UNK     1     -10.608  12.070  63.623  1.00  0.00    -0.371 OA 
HETATM   20  H1  UNK     1     -12.810  15.062  62.978  1.00  0.00     0.000 HD 
HETATM   21  H2  UNK     1     -12.460  16.053  64.289  1.00  0.00     0.000 HD 
ENDBRANCH  14  15
ENDBRANCH  13  14
ENDBRANCH  10  13
ENDBRANCH   9  10
ENDBRANCH   8   9
ENDBRANCH   7   8
BRANCH   7  22
HETATM   22  C   UNK     1      -9.804   8.962  70.222  1.00  0.00    -0.183 C  
BRANCH  22  23
HETATM   23  O   UNK     1      -9.972   7.560  69.940  1.00  0.00    -0.185 OA 
BRANCH  23  24
HETATM   24  C   UNK     1     -10.330   6.797  71.010  1.00  0.00    -0.206 C  
HETATM   25  O   UNK     1     -11.181   5.923  70.987  1.00  0.00    -0.279 OA 
BRANCH  24  26
HETATM   26  C   UNK     1      -9.502   7.185  72.213  1.00  0.00    -0.157 C  
HETATM   27  C   UNK     1     -10.374   7.403  73.436  1.00  0.00    -0.411 C  
ENDBRANCH  24  26
ENDBRANCH  23  24
ENDBRANCH  22  23
ENDBRANCH   7  22
ENDBRANCH   6   7
ENDBRANCH   4   6
ENDBRANCH   3   4
ENDBRANCH   2   3
TORSDOF 14
ENDMDL
MODEL       57
REMARK 921   NORMALIZED FREE ENERGY PREDICTED BY IDOCK:   -4.98 KCAL/MOL
REMARK 922        TOTAL FREE ENERGY PREDICTED BY IDOCK:  -10.15 KCAL/MOL
REMARK 923 INTER-LIGAND FREE ENERGY PREDICTED BY IDOCK:   -9.02 KCAL/MOL
REMARK 924 INTRA-LIGAND FREE ENERGY PREDICTED BY IDOCK:   -1.13 KCAL/MOL
REMARK 927      BINDING AFFINITY PREDICTED BY RF-SCORE:    0.00 PKD
ROOT
HETATM    1  C   UNK     1     -12.383  15.631  74.382  1.00  0.00    -0.802 C  
HETATM    2  C   UNK     1     -12.036  15.515  72.904  1.00  0.00    -0.575 C  
ENDROOT
BRANCH   2   3
HETATM    3  C   UNK     1     -13.273  15.383  72.022  1.00  0.00    -0.521 C  
BRANCH   3   4
HETATM    4  C   UNK     1     -13.690  13.941  71.890  1.00  0.00    -0.435 C  
HETATM    5  O   UNK     1     -14.148  13.272  72.806  1.00  0.00    -0.691 OA 
BRANCH   4   6
HETATM    6  O   UNK     1     -13.458  13.493  70.632  1.00  0.00     0.157 OA 
BRANCH   6   7
HETATM    7  C   UNK     1     -12.116  13.094  70.265  1.00  0.00    -0.328 C  
BRANCH   7   8
HETATM    8  C   UNK     1     -11.972  11.580  70.062  1.00  0.00    -0.357 C  
BRANCH   8   9
HETATM    9  O   UNK     1     -13.012  10.863  70.729  1.00  0.00    -0.314 OA 
BRANCH   9  10
HETATM   10  P   UNK     1     -12.548   9.271  71.222  1.00  0.00    -0.247 P  
HETATM   11  O   UNK     1     -10.992   9.731  71.427  1.00  0.00    -0.342 OA 
HETATM   12  O   UNK     1     -13.262   9.488  72.558  1.00  0.00    -0.408 OA 
BRANCH  10  13
HETATM   13  O   UNK     1     -12.084   7.679  71.716  1.00  0.00    -0.285 OA 
BRANCH  13  14
HETATM   14  C   UNK     1     -12.136   6.733  70.638  1.00  0.00    -0.314 C  
BRANCH  14  15
HETATM   15  C   UNK     1     -10.731   6.319  70.196  1.00  0.00    -0.286 C  
HETATM   16  N   UNK     1      -9.652   6.921  71.034  1.00  0.00    -0.171 NA 
HETATM   17  C   UNK     1     -10.542   6.779  68.752  1.00  0.00    -0.226 C  
HETATM   18  O   UNK     1      -9.840   7.941  68.692  1.00  0.00    -0.162 OA 
HETATM   19  O   UNK     1     -11.004   6.214  67.773  1.00  0.00    -0.313 OA 
HETATM   20  H1  UNK     1      -8.716   6.644  70.739  1.00  0.00     0.000 HD 
HETATM   21  H2  UNK     1      -9.800   6.711  72.021  1.00  0.00     0.000 HD 
ENDBRANCH  14  15
ENDBRANCH  13  14
ENDBRANCH  10  13
ENDBRANCH   9  10
ENDBRANCH   8   9
ENDBRANCH   7   8
BRANCH   7  22
HETATM   22  C   UNK     1     -11.603  13.882  69.046  1.00  0.00    -0.310 C  
BRANCH  22  23
HETATM   23  O   UNK     1     -11.883  13.195  67.812  1.00  0.00    -0.344 OA 
BRANCH  23  24
HETATM   24  C   UNK     1     -11.859  13.979  66.699  1.00  0.00    -0.419 C  
HETATM   25  O   UNK     1     -11.381  15.099  66.649  1.00  0.00    -0.320 OA 
BRANCH  24  26
HETATM   26  C   UNK     1     -12.494  13.242  65.542  1.00  0.00    -0.531 C  
HETATM   27  C   UNK     1     -11.950  13.731  64.212  1.00  0.00    -0.481 C  
ENDBRANCH  24  26
ENDBRANCH  23  24
ENDBRANCH  22  23
ENDBRANCH   7  22
ENDBRANCH   6   7
ENDBRANCH   4   6
ENDBRANCH   3   4
ENDBRANCH   2   3
TORSDOF 14
ENDMDL
MODEL       58
REMARK 921   NORMALIZED FREE ENERGY PREDICTED BY IDOCK:   -4.98 KCAL/MOL
REMARK 922        TOTAL FREE ENERGY PREDICTED BY IDOCK:  -10.15 KCAL/MOL
REMARK 923 INTER-LIGAND FREE ENERGY PREDICTED BY IDOCK:   -8.72 KCAL/MOL
REMARK 924 INTRA-LIGAND FREE ENERGY PREDICTED BY IDOCK:   -1.43 KCAL/MOL
REMARK 927      BINDING AFFINITY PREDICTED BY RF-SCORE:    0.00 PKD
ROOT
HETATM    1  C   UNK     1     -12.243   8.218  72.266  1.00  0.00    -0.428 C  
HETATM    2  C   UNK     1     -13.185   9.414  72.287  1.00  0.00    -0.528 C  
ENDROOT
BRANCH   2   3
HETATM    3  C   UNK     1     -13.122  10.229  70.999  1.00  0.00    -0.458 C  
BRANCH   3   4
HETATM    4  C   UNK     1     -12.794  11.671  71.289  1.00  0.00    -0.328 C  
HETATM    5  O   UNK     1     -13.330  12.336  72.165  1.00  0.00    -0.526 OA 
BRANCH   4   6
HETATM    6  O   UNK     1     -11.854  12.127  70.426  1.00  0.00    -0.311 OA 
BRANCH   6   7
HETATM    7  C   UNK     1     -12.277  12.808  69.221  1.00  0.00    -0.054 C  
BRANCH   7   8
HETATM    8  C   UNK     1     -12.265  14.336  69.357  1.00  0.00    -0.278 C  
BRANCH   8   9
HETATM    9  O   UNK     1     -11.062  14.795  69.975  1.00  0.00    -0.249 OA 
BRANCH   9  10
HETATM   10  P   UNK     1     -10.317  16.116  69.141  1.00  0.00    -0.302 P  
HETATM   11  O   UNK     1      -8.990  15.222  68.803  1.00  0.00    -0.178 OA 
HETATM   12  O   UNK     1     -11.297  15.925  67.982  1.00  0.00    -0.342 OA 
BRANCH  10  13
HETATM   13  O   UNK     1      -9.572  17.436  68.308  1.00  0.00    -0.270 OA 
BRANCH  13  14
HETATM   14  C   UNK     1     -10.517  18.441  67.915  1.00  0.00    -0.391 C  
BRANCH  14  15
HETATM   15  C   UNK     1     -10.271  18.903  66.478  1.00  0.00    -0.414 C  
HETATM   16  N   UNK     1     -10.611  17.864  65.463  1.00  0.00    -0.611 NA 
HETATM   17  C   UNK     1      -8.790  19.249  66.346  1.00  0.00    -0.348 C  
HETATM   18  O   UNK     1      -8.095  18.234  65.769  1.00  0.00    -0.513 OA 
HETATM   19  O   UNK     1      -8.274  20.279  66.753  1.00  0.00    -0.303 OA 
HETATM   20  H1  UNK     1     -10.447  18.172  64.504  1.00  0.00     0.000 HD 
HETATM   21  H2  UNK     1     -11.571  17.540  65.581  1.00  0.00     0.000 HD 
ENDBRANCH  14  15
ENDBRANCH  13  14
ENDBRANCH  10  13
ENDBRANCH   9  10
ENDBRANCH   8   9
ENDBRANCH   7   8
BRANCH   7  22
HETATM   22  C   UNK     1     -11.474  12.341  67.993  1.00  0.00    -0.321 C  
BRANCH  22  23
HETATM   23  O   UNK     1     -11.803  10.988  67.626  1.00  0.00    -0.599 OA 
BRANCH  23  24
HETATM   24  C   UNK     1     -10.733  10.168  67.431  1.00  0.00    -0.277 C  
HETATM   25  O   UNK     1     -10.059  10.135  66.415  1.00  0.00    -0.220 OA 
BRANCH  24  26
HETATM   26  C   UNK     1     -10.501   9.330  68.667  1.00  0.00    -0.236 C  
HETATM   27  C   UNK     1      -9.361   9.882  69.502  1.00  0.00    -0.236 C  
ENDBRANCH  24  26
ENDBRANCH  23  24
ENDBRANCH  22  23
ENDBRANCH   7  22
ENDBRANCH   6   7
ENDBRANCH   4   6
ENDBRANCH   3   4
ENDBRANCH   2   3
TORSDOF 14
ENDMDL
MODEL       59
REMARK 921   NORMALIZED FREE ENERGY PREDICTED BY IDOCK:   -4.98 KCAL/MOL
REMARK 922        TOTAL FREE ENERGY PREDICTED BY IDOCK:  -10.15 KCAL/MOL
REMARK 923 INTER-LIGAND FREE ENERGY PREDICTED BY IDOCK:   -9.12 KCAL/MOL
REMARK 924 INTRA-LIGAND FREE ENERGY PREDICTED BY IDOCK:   -1.03 KCAL/MOL
REMARK 927      BINDING AFFINITY PREDICTED BY RF-SCORE:    0.00 PKD
ROOT
HETATM    1  C   UNK     1     -12.123   8.925  72.148  1.00  0.00    -0.430 C  
HETATM    2  C   UNK     1     -13.060  10.087  71.847  1.00  0.00    -0.563 C  
ENDROOT
BRANCH   2   3
HETATM    3  C   UNK     1     -12.782  10.724  70.490  1.00  0.00    -0.388 C  
BRANCH   3   4
HETATM    4  C   UNK     1     -12.520  12.202  70.631  1.00  0.00    -0.242 C  
HETATM    5  O   UNK     1     -13.015  12.907  71.499  1.00  0.00    -0.369 OA 
BRANCH   4   6
HETATM    6  O   UNK     1     -11.693  12.634  69.648  1.00  0.00    -0.303 OA 
BRANCH   6   7
HETATM    7  C   UNK     1     -11.913  13.942  69.070  1.00  0.00    -0.364 C  
BRANCH   7   8
HETATM    8  C   UNK     1     -10.805  14.946  69.413  1.00  0.00    -0.264 C  
BRANCH   8   9
HETATM    9  O   UNK     1      -9.571  14.596  68.785  1.00  0.00    -0.211 OA 
BRANCH   9  10
HETATM   10  P   UNK     1      -8.572  15.959  68.414  1.00  0.00    -0.196 P  
HETATM   11  O   UNK     1      -9.657  16.997  69.063  1.00  0.00    -0.255 OA 
HETATM   12  O   UNK     1      -7.614  15.550  69.534  1.00  0.00    -0.215 OA 
BRANCH  10  13
HETATM   13  O   UNK     1      -7.573  17.322  68.043  1.00  0.00    -0.186 OA 
BRANCH  13  14
HETATM   14  C   UNK     1      -8.296  18.561  68.089  1.00  0.00    -0.296 C  
BRANCH  14  15
HETATM   15  C   UNK     1      -8.380  19.206  66.705  1.00  0.00    -0.300 C  
HETATM   16  N   UNK     1      -8.009  20.651  66.708  1.00  0.00    -0.549 NA 
HETATM   17  C   UNK     1      -9.820  19.072  66.215  1.00  0.00    -0.374 C  
HETATM   18  O   UNK     1     -10.517  20.223  66.410  1.00  0.00    -0.377 OA 
HETATM   19  O   UNK     1     -10.311  18.052  65.757  1.00  0.00    -0.583 OA 
HETATM   20  H1  UNK     1      -8.065  21.081  65.784  1.00  0.00     0.000 HD 
HETATM   21  H2  UNK     1      -7.085  20.788  67.117  1.00  0.00     0.000 HD 
ENDBRANCH  14  15
ENDBRANCH  13  14
ENDBRANCH  10  13
ENDBRANCH   9  10
ENDBRANCH   8   9
ENDBRANCH   7   8
BRANCH   7  22
HETATM   22  C   UNK     1     -12.153  13.858  67.551  1.00  0.00    -0.331 C  
BRANCH  22  23
HETATM   23  O   UNK     1     -12.106  12.499  67.079  1.00  0.00    -0.521 OA 
BRANCH  23  24
HETATM   24  C   UNK     1     -11.588  12.342  65.829  1.00  0.00    -0.398 C  
HETATM   25  O   UNK     1     -10.441  12.005  65.589  1.00  0.00    -0.240 OA 
BRANCH  24  26
HETATM   26  C   UNK     1     -12.654  12.628  64.797  1.00  0.00    -0.530 C  
HETATM   27  C   UNK     1     -12.206  12.206  63.409  1.00  0.00    -0.635 C  
ENDBRANCH  24  26
ENDBRANCH  23  24
ENDBRANCH  22  23
ENDBRANCH   7  22
ENDBRANCH   6   7
ENDBRANCH   4   6
ENDBRANCH   3   4
ENDBRANCH   2   3
TORSDOF 14
ENDMDL
MODEL       60
REMARK 921   NORMALIZED FREE ENERGY PREDICTED BY IDOCK:   -4.97 KCAL/MOL
REMARK 922        TOTAL FREE ENERGY PREDICTED BY IDOCK:  -10.13 KCAL/MOL
REMARK 923 INTER-LIGAND FREE ENERGY PREDICTED BY IDOCK:   -9.38 KCAL/MOL
REMARK 924 INTRA-LIGAND FREE ENERGY PREDICTED BY IDOCK:   -0.75 KCAL/MOL
REMARK 927      BINDING AFFINITY PREDICTED BY RF-SCORE:    0.00 PKD
ROOT
HETATM    1  C   UNK     1      -9.865  19.447  66.192  1.00  0.00    -0.461 C  
HETATM    2  C   UNK     1     -10.811  19.262  67.370  1.00  0.00    -0.554 C  
ENDROOT
BRANCH   2   3
HETATM    3  C   UNK     1     -10.104  18.711  68.605  1.00  0.00    -0.412 C  
BRANCH   3   4
HETATM    4  C   UNK     1      -9.775  17.251  68.433  1.00  0.00    -0.293 C  
HETATM    5  O   UNK     1      -8.676  16.763  68.658  1.00  0.00    -0.237 OA 
BRANCH   4   6
HETATM    6  O   UNK     1     -10.852  16.573  67.968  1.00  0.00    -0.334 OA 
BRANCH   6   7
HETATM    7  C   UNK     1     -11.677  15.837  68.902  1.00  0.00    -0.394 C  
BRANCH   7   8
HETATM    8  C   UNK     1     -12.003  14.415  68.428  1.00  0.00    -0.293 C  
BRANCH   8   9
HETATM    9  O   UNK     1     -10.833  13.596  68.393  1.00  0.00    -0.241 OA 
BRANCH   9  10
HETATM   10  P   UNK     1     -11.067  12.025  69.078  1.00  0.00    -0.198 P  
HETATM   11  O   UNK     1     -12.175  11.636  67.940  1.00  0.00    -0.560 OA 
HETATM   12  O   UNK     1      -9.700  11.598  68.541  1.00  0.00    -0.195 OA 
BRANCH  10  13
HETATM   13  O   UNK     1     -11.301  10.454  69.763  1.00  0.00    -0.252 OA 
BRANCH  13  14
HETATM   14  C   UNK     1     -12.239  10.462  70.849  1.00  0.00    -0.383 C  
BRANCH  14  15
HETATM   15  C   UNK     1     -11.917   9.368  71.869  1.00  0.00    -0.346 C  
HETATM   16  N   UNK     1     -10.512   8.874  71.774  1.00  0.00    -0.341 NA 
HETATM   17  C   UNK     1     -12.865   8.199  71.613  1.00  0.00    -0.326 C  
HETATM   18  O   UNK     1     -12.258   7.220  70.892  1.00  0.00    -0.320 OA 
HETATM   19  O   UNK     1     -14.036   8.160  71.958  1.00  0.00    -0.357 OA 
HETATM   20  H1  UNK     1     -10.298   8.145  72.454  1.00  0.00     0.000 HD 
HETATM   21  H2  UNK     1      -9.850   9.646  71.847  1.00  0.00     0.000 HD 
ENDBRANCH  14  15
ENDBRANCH  13  14
ENDBRANCH  10  13
ENDBRANCH   9  10
ENDBRANCH   8   9
ENDBRANCH   7   8
BRANCH   7  22
HETATM   22  C   UNK     1     -11.071  15.839  70.318  1.00  0.00    -0.361 C  
BRANCH  22  23
HETATM   23  O   UNK     1     -11.794  14.966  71.207  1.00  0.00    -0.307 OA 
BRANCH  23  24
HETATM   24  C   UNK     1     -12.502  15.598  72.183  1.00  0.00    -0.427 C  
HETATM   25  O   UNK     1     -12.074  16.505  72.876  1.00  0.00    -0.517 OA 
BRANCH  24  26
HETATM   26  C   UNK     1     -13.896  15.018  72.258  1.00  0.00    -0.596 C  
HETATM   27  C   UNK     1     -13.860  13.501  72.301  1.00  0.00    -0.680 C  
ENDBRANCH  24  26
ENDBRANCH  23  24
ENDBRANCH  22  23
ENDBRANCH   7  22
ENDBRANCH   6   7
ENDBRANCH   4   6
ENDBRANCH   3   4
ENDBRANCH   2   3
TORSDOF 14
ENDMDL
MODEL       61
REMARK 921   NORMALIZED FREE ENERGY PREDICTED BY IDOCK:   -4.97 KCAL/MOL
REMARK 922        TOTAL FREE ENERGY PREDICTED BY IDOCK:  -10.12 KCAL/MOL
REMARK 923 INTER-LIGAND FREE ENERGY PREDICTED BY IDOCK:   -8.93 KCAL/MOL
REMARK 924 INTRA-LIGAND FREE ENERGY PREDICTED BY IDOCK:   -1.19 KCAL/MOL
REMARK 927      BINDING AFFINITY PREDICTED BY RF-SCORE:    0.00 PKD
ROOT
HETATM    1  C   UNK     1     -14.334   7.393  71.488  1.00  0.00    -0.594 C  
HETATM    2  C   UNK     1     -14.196   8.511  72.512  1.00  0.00    -0.322 C  
ENDROOT
BRANCH   2   3
HETATM    3  C   UNK     1     -13.069   9.481  72.170  1.00  0.00    -0.522 C  
BRANCH   3   4
HETATM    4  C   UNK     1     -11.732   8.788  72.199  1.00  0.00    -0.363 C  
HETATM    5  O   UNK     1     -11.478   7.814  72.895  1.00  0.00    -0.378 OA 
BRANCH   4   6
HETATM    6  O   UNK     1     -10.855   9.412  71.376  1.00  0.00    -0.336 OA 
BRANCH   6   7
HETATM    7  C   UNK     1     -10.672   8.908  70.032  1.00  0.00    -0.228 C  
BRANCH   7   8
HETATM    8  C   UNK     1     -11.153   9.886  68.952  1.00  0.00    -0.140 C  
BRANCH   8   9
HETATM    9  O   UNK     1     -10.930  11.242  69.340  1.00  0.00    -0.242 OA 
BRANCH   9  10
HETATM   10  P   UNK     1     -10.662  12.309  68.005  1.00  0.00    -0.241 P  
HETATM   11  O   UNK     1      -9.802  11.173  67.201  1.00  0.00    -0.183 OA 
HETATM   12  O   UNK     1     -12.125  12.144  67.590  1.00  0.00    -0.522 OA 
BRANCH  10  13
HETATM   13  O   UNK     1     -10.393  13.376  66.669  1.00  0.00    -0.262 OA 
BRANCH  13  14
HETATM   14  C   UNK     1     -11.613  13.759  66.018  1.00  0.00    -0.346 C  
BRANCH  14  15
HETATM   15  C   UNK     1     -11.448  13.779  64.498  1.00  0.00    -0.384 C  
HETATM   16  N   UNK     1     -12.336  14.772  63.826  1.00  0.00    -1.082 NA 
HETATM   17  C   UNK     1     -11.786  12.386  63.973  1.00  0.00    -0.439 C  
HETATM   18  O   UNK     1     -13.054  12.337  63.485  1.00  0.00    -0.766 OA 
HETATM   19  O   UNK     1     -11.043  11.419  64.028  1.00  0.00    -0.374 OA 
HETATM   20  H1  UNK     1     -12.226  14.786  62.812  1.00  0.00     0.000 HD 
HETATM   21  H2  UNK     1     -12.203  15.704  64.219  1.00  0.00     0.000 HD 
ENDBRANCH  14  15
ENDBRANCH  13  14
ENDBRANCH  10  13
ENDBRANCH   9  10
ENDBRANCH   8   9
ENDBRANCH   7   8
BRANCH   7  22
HETATM   22  C   UNK     1      -9.220   8.459  69.785  1.00  0.00    -0.157 C  
BRANCH  22  23
HETATM   23  O   UNK     1      -8.906   8.422  68.381  1.00  0.00    -0.139 OA 
BRANCH  23  24
HETATM   24  C   UNK     1      -8.678   7.178  67.875  1.00  0.00    -0.126 C  
HETATM   25  O   UNK     1      -7.916   6.359  68.362  1.00  0.00    -0.104 OA 
BRANCH  24  26
HETATM   26  C   UNK     1      -9.524   6.966  66.642  1.00  0.00    -0.209 C  
HETATM   27  C   UNK     1     -10.928   6.517  67.006  1.00  0.00    -0.466 C  
ENDBRANCH  24  26
ENDBRANCH  23  24
ENDBRANCH  22  23
ENDBRANCH   7  22
ENDBRANCH   6   7
ENDBRANCH   4   6
ENDBRANCH   3   4
ENDBRANCH   2   3
TORSDOF 14
ENDMDL
MODEL       62
REMARK 921   NORMALIZED FREE ENERGY PREDICTED BY IDOCK:   -4.97 KCAL/MOL
REMARK 922        TOTAL FREE ENERGY PREDICTED BY IDOCK:  -10.12 KCAL/MOL
REMARK 923 INTER-LIGAND FREE ENERGY PREDICTED BY IDOCK:   -9.19 KCAL/MOL
REMARK 924 INTRA-LIGAND FREE ENERGY PREDICTED BY IDOCK:   -0.93 KCAL/MOL
REMARK 927      BINDING AFFINITY PREDICTED BY RF-SCORE:    0.00 PKD
ROOT
HETATM    1  C   UNK     1      -8.084  17.130  66.248  1.00  0.00    -0.325 C  
HETATM    2  C   UNK     1      -9.189  16.092  66.117  1.00  0.00    -0.388 C  
ENDROOT
BRANCH   2   3
HETATM    3  C   UNK     1      -9.517  15.417  67.445  1.00  0.00    -0.207 C  
BRANCH   3   4
HETATM    4  C   UNK     1     -10.993  15.484  67.736  1.00  0.00    -0.317 C  
HETATM    5  O   UNK     1     -11.518  16.339  68.437  1.00  0.00    -0.357 OA 
BRANCH   4   6
HETATM    6  O   UNK     1     -11.643  14.454  67.142  1.00  0.00    -0.351 OA 
BRANCH   6   7
HETATM    7  C   UNK     1     -11.292  13.098  67.507  1.00  0.00    -0.298 C  
BRANCH   7   8
HETATM    8  C   UNK     1     -11.937  12.643  68.823  1.00  0.00    -0.237 C  
BRANCH   8   9
HETATM    9  O   UNK     1     -12.325  11.269  68.765  1.00  0.00    -0.518 OA 
BRANCH   9  10
HETATM   10  P   UNK     1     -11.830  10.353  70.146  1.00  0.00    -0.275 P  
HETATM   11  O   UNK     1     -10.251  10.659  69.851  1.00  0.00    -0.148 OA 
HETATM   12  O   UNK     1     -12.343  11.468  71.059  1.00  0.00    -0.371 OA 
BRANCH  10  13
HETATM   13  O   UNK     1     -11.335   9.436  71.527  1.00  0.00    -0.354 OA 
BRANCH  13  14
HETATM   14  C   UNK     1     -12.391   8.615  72.049  1.00  0.00    -0.371 C  
BRANCH  14  15
HETATM   15  C   UNK     1     -11.917   7.178  72.273  1.00  0.00    -0.218 C  
HETATM   16  N   UNK     1     -11.014   7.037  73.453  1.00  0.00    -0.536 NA 
HETATM   17  C   UNK     1     -11.161   6.736  71.023  1.00  0.00    -0.290 C  
HETATM   18  O   UNK     1      -9.817   6.836  71.197  1.00  0.00    -0.178 OA 
HETATM   19  O   UNK     1     -11.685   6.387  69.976  1.00  0.00    -0.429 OA 
HETATM   20  H1  UNK     1     -10.699   6.078  73.602  1.00  0.00     0.000 HD 
HETATM   21  H2  UNK     1     -11.454   7.411  74.294  1.00  0.00     0.000 HD 
ENDBRANCH  14  15
ENDBRANCH  13  14
ENDBRANCH  10  13
ENDBRANCH   9  10
ENDBRANCH   8   9
ENDBRANCH   7   8
BRANCH   7  22
HETATM   22  C   UNK     1     -11.578  12.109  66.362  1.00  0.00    -0.364 C  
BRANCH  22  23
HETATM   23  O   UNK     1     -12.518  12.649  65.415  1.00  0.00    -0.601 OA 
BRANCH  23  24
HETATM   24  C   UNK     1     -12.191  12.456  64.107  1.00  0.00    -0.468 C  
HETATM   25  O   UNK     1     -12.980  12.135  63.234  1.00  0.00    -0.735 OA 
BRANCH  24  26
HETATM   26  C   UNK     1     -10.716  12.718  63.905  1.00  0.00    -0.443 C  
HETATM   27  C   UNK     1     -10.066  11.616  63.089  1.00  0.00    -0.409 C  
ENDBRANCH  24  26
ENDBRANCH  23  24
ENDBRANCH  22  23
ENDBRANCH   7  22
ENDBRANCH   6   7
ENDBRANCH   4   6
ENDBRANCH   3   4
ENDBRANCH   2   3
TORSDOF 14
ENDMDL
MODEL       63
REMARK 921   NORMALIZED FREE ENERGY PREDICTED BY IDOCK:   -4.96 KCAL/MOL
REMARK 922        TOTAL FREE ENERGY PREDICTED BY IDOCK:  -10.11 KCAL/MOL
REMARK 923 INTER-LIGAND FREE ENERGY PREDICTED BY IDOCK:   -8.99 KCAL/MOL
REMARK 924 INTRA-LIGAND FREE ENERGY PREDICTED BY IDOCK:   -1.12 KCAL/MOL
REMARK 927      BINDING AFFINITY PREDICTED BY RF-SCORE:    0.00 PKD
ROOT
HETATM    1  C   UNK     1      -8.781  20.143  67.536  1.00  0.00    -0.415 C  
HETATM    2  C   UNK     1     -10.064  19.674  68.208  1.00  0.00    -0.560 C  
ENDROOT
BRANCH   2   3
HETATM    3  C   UNK     1     -10.993  18.941  67.246  1.00  0.00    -0.314 C  
BRANCH   3   4
HETATM    4  C   UNK     1     -10.415  17.608  66.846  1.00  0.00    -0.290 C  
HETATM    5  O   UNK     1     -10.104  17.309  65.702  1.00  0.00    -0.566 OA 
BRANCH   4   6
HETATM    6  O   UNK     1     -10.321  16.789  67.922  1.00  0.00    -0.293 OA 
BRANCH   6   7
HETATM    7  C   UNK     1     -11.494  16.062  68.356  1.00  0.00    -0.331 C  
BRANCH   7   8
HETATM    8  C   UNK     1     -11.773  14.809  67.515  1.00  0.00    -0.348 C  
BRANCH   8   9
HETATM    9  O   UNK     1     -11.962  13.659  68.340  1.00  0.00    -0.355 OA 
BRANCH   9  10
HETATM   10  P   UNK     1     -10.896  12.351  67.958  1.00  0.00    -0.249 P  
HETATM   11  O   UNK     1     -12.145  11.305  67.814  1.00  0.00    -0.631 OA 
HETATM   12  O   UNK     1     -10.657  12.962  66.575  1.00  0.00    -0.256 OA 
BRANCH  10  13
HETATM   13  O   UNK     1      -9.830  11.043  67.576  1.00  0.00    -0.167 OA 
BRANCH  13  14
HETATM   14  C   UNK     1     -10.183  10.388  66.348  1.00  0.00    -0.230 C  
BRANCH  14  15
HETATM   15  C   UNK     1     -10.253   8.870  66.530  1.00  0.00    -0.249 C  
HETATM   16  N   UNK     1     -10.869   8.464  67.827  1.00  0.00    -0.494 NA 
HETATM   17  C   UNK     1      -8.827   8.328  66.474  1.00  0.00    -0.150 C  
HETATM   18  O   UNK     1      -8.335   8.104  67.721  1.00  0.00    -0.126 OA 
HETATM   19  O   UNK     1      -8.181   8.164  65.451  1.00  0.00    -0.131 OA 
HETATM   20  H1  UNK     1     -10.915   7.452  67.947  1.00  0.00     0.000 HD 
HETATM   21  H2  UNK     1     -11.790   8.886  67.940  1.00  0.00     0.000 HD 
ENDBRANCH  14  15
ENDBRANCH  13  14
ENDBRANCH  10  13
ENDBRANCH   9  10
ENDBRANCH   8   9
ENDBRANCH   7   8
BRANCH   7  22
HETATM   22  C   UNK     1     -11.436  15.735  69.860  1.00  0.00    -0.346 C  
BRANCH  22  23
HETATM   23  O   UNK     1     -12.718  15.907  70.491  1.00  0.00    -0.387 OA 
BRANCH  23  24
HETATM   24  C   UNK     1     -13.008  14.997  71.462  1.00  0.00    -0.358 C  
HETATM   25  O   UNK     1     -12.980  13.788  71.311  1.00  0.00    -0.338 OA 
BRANCH  24  26
HETATM   26  C   UNK     1     -13.346  15.714  72.749  1.00  0.00    -0.640 C  
HETATM   27  C   UNK     1     -12.365  15.360  73.852  1.00  0.00    -0.764 C  
ENDBRANCH  24  26
ENDBRANCH  23  24
ENDBRANCH  22  23
ENDBRANCH   7  22
ENDBRANCH   6   7
ENDBRANCH   4   6
ENDBRANCH   3   4
ENDBRANCH   2   3
TORSDOF 14
ENDMDL
MODEL       64
REMARK 921   NORMALIZED FREE ENERGY PREDICTED BY IDOCK:   -4.96 KCAL/MOL
REMARK 922        TOTAL FREE ENERGY PREDICTED BY IDOCK:  -10.10 KCAL/MOL
REMARK 923 INTER-LIGAND FREE ENERGY PREDICTED BY IDOCK:   -9.11 KCAL/MOL
REMARK 924 INTRA-LIGAND FREE ENERGY PREDICTED BY IDOCK:   -0.99 KCAL/MOL
REMARK 927      BINDING AFFINITY PREDICTED BY RF-SCORE:    0.00 PKD
ROOT
HETATM    1  C   UNK     1     -12.551  15.237  73.489  1.00  0.00    -0.681 C  
HETATM    2  C   UNK     1     -12.741  15.946  72.155  1.00  0.00    -0.506 C  
ENDROOT
BRANCH   2   3
HETATM    3  C   UNK     1     -13.162  14.992  71.041  1.00  0.00    -0.483 C  
BRANCH   3   4
HETATM    4  C   UNK     1     -12.024  14.744  70.085  1.00  0.00    -0.312 C  
HETATM    5  O   UNK     1     -10.928  15.280  70.167  1.00  0.00    -0.261 OA 
BRANCH   4   6
HETATM    6  O   UNK     1     -12.400  13.877  69.114  1.00  0.00    -0.314 OA 
BRANCH   6   7
HETATM    7  C   UNK     1     -11.519  12.781  68.770  1.00  0.00    -0.304 C  
BRANCH   7   8
HETATM    8  C   UNK     1     -11.698  11.557  69.677  1.00  0.00    -0.351 C  
BRANCH   8   9
HETATM    9  O   UNK     1     -10.653  10.604  69.479  1.00  0.00    -0.227 OA 
BRANCH   9  10
HETATM   10  P   UNK     1     -10.885   9.130  70.353  1.00  0.00    -0.270 P  
HETATM   11  O   UNK     1      -9.521   9.367  71.222  1.00  0.00    -0.224 OA 
HETATM   12  O   UNK     1     -12.032   9.781  71.128  1.00  0.00    -0.320 OA 
BRANCH  10  13
HETATM   13  O   UNK     1     -11.118   7.655  71.228  1.00  0.00    -0.241 OA 
BRANCH  13  14
HETATM   14  C   UNK     1     -11.543   7.880  72.580  1.00  0.00    -0.386 C  
BRANCH  14  15
HETATM   15  C   UNK     1     -10.595   7.213  73.578  1.00  0.00    -0.374 C  
HETATM   16  N   UNK     1      -9.302   7.941  73.733  1.00  0.00    -0.333 NA 
HETATM   17  C   UNK     1     -10.304   5.802  73.073  1.00  0.00    -0.204 C  
HETATM   18  O   UNK     1      -9.107   5.745  72.430  1.00  0.00    -0.141 OA 
HETATM   19  O   UNK     1     -11.063   4.851  73.177  1.00  0.00    -0.274 OA 
HETATM   20  H1  UNK     1      -8.670   7.496  74.399  1.00  0.00     0.000 HD 
HETATM   21  H2  UNK     1      -9.462   8.918  73.981  1.00  0.00     0.000 HD 
ENDBRANCH  14  15
ENDBRANCH  13  14
ENDBRANCH  10  13
ENDBRANCH   9  10
ENDBRANCH   8   9
ENDBRANCH   7   8
BRANCH   7  22
HETATM   22  C   UNK     1     -11.632  12.406  67.281  1.00  0.00    -0.365 C  
BRANCH  22  23
HETATM   23  O   UNK     1     -11.348  13.530  66.427  1.00  0.00    -0.303 OA 
BRANCH  23  24
HETATM   24  C   UNK     1     -12.196  13.680  65.372  1.00  0.00    -0.444 C  
HETATM   25  O   UNK     1     -13.330  14.121  65.450  1.00  0.00    -0.705 OA 
BRANCH  24  26
HETATM   26  C   UNK     1     -11.511  13.237  64.100  1.00  0.00    -0.438 C  
HETATM   27  C   UNK     1     -12.315  12.168  63.383  1.00  0.00    -0.648 C  
ENDBRANCH  24  26
ENDBRANCH  23  24
ENDBRANCH  22  23
ENDBRANCH   7  22
ENDBRANCH   6   7
ENDBRANCH   4   6
ENDBRANCH   3   4
ENDBRANCH   2   3
TORSDOF 14
ENDMDL
MODEL       65
REMARK 921   NORMALIZED FREE ENERGY PREDICTED BY IDOCK:   -4.95 KCAL/MOL
REMARK 922        TOTAL FREE ENERGY PREDICTED BY IDOCK:  -10.08 KCAL/MOL
REMARK 923 INTER-LIGAND FREE ENERGY PREDICTED BY IDOCK:   -9.06 KCAL/MOL
REMARK 924 INTRA-LIGAND FREE ENERGY PREDICTED BY IDOCK:   -1.02 KCAL/MOL
REMARK 927      BINDING AFFINITY PREDICTED BY RF-SCORE:    0.00 PKD
ROOT
HETATM    1  C   UNK     1     -14.054  14.442  72.058  1.00  0.00    -0.620 C  
HETATM    2  C   UNK     1     -13.524  13.018  72.144  1.00  0.00    -0.638 C  
ENDROOT
BRANCH   2   3
HETATM    3  C   UNK     1     -12.619  12.659  70.969  1.00  0.00    -0.354 C  
BRANCH   3   4
HETATM    4  C   UNK     1     -12.292  11.188  70.968  1.00  0.00    -0.382 C  
HETATM    5  O   UNK     1     -12.878  10.354  71.644  1.00  0.00    -0.404 OA 
BRANCH   4   6
HETATM    6  O   UNK     1     -11.247  10.934  70.144  1.00  0.00    -0.288 OA 
BRANCH   6   7
HETATM    7  C   UNK     1     -11.456  10.095  68.983  1.00  0.00    -0.078 C  
BRANCH   7   8
HETATM    8  C   UNK     1     -11.263  10.842  67.657  1.00  0.00    -0.299 C  
BRANCH   8   9
HETATM    9  O   UNK     1     -12.103  11.994  67.580  1.00  0.00    -0.547 OA 
BRANCH   9  10
HETATM   10  P   UNK     1     -11.346  13.354  66.826  1.00  0.00    -0.356 P  
HETATM   11  O   UNK     1     -12.144  13.088  65.424  1.00  0.00    -0.390 OA 
HETATM   12  O   UNK     1     -12.212  14.292  67.668  1.00  0.00    -0.337 OA 
BRANCH  10  13
HETATM   13  O   UNK     1     -10.588  14.714  66.071  1.00  0.00    -0.290 OA 
BRANCH  13  14
HETATM   14  C   UNK     1      -9.737  15.438  66.972  1.00  0.00    -0.224 C  
BRANCH  14  15
HETATM   15  C   UNK     1      -9.932  16.948  66.827  1.00  0.00    -0.289 C  
HETATM   16  N   UNK     1     -10.474  17.343  65.493  1.00  0.00    -0.638 NA 
HETATM   17  C   UNK     1      -8.572  17.614  67.018  1.00  0.00    -0.237 C  
HETATM   18  O   UNK     1      -8.001  17.925  65.824  1.00  0.00    -0.540 OA 
HETATM   19  O   UNK     1      -8.030  17.800  68.097  1.00  0.00    -0.244 OA 
HETATM   20  H1  UNK     1     -10.604  18.350  65.397  1.00  0.00     0.000 HD 
HETATM   21  H2  UNK     1     -11.339  16.843  65.291  1.00  0.00     0.000 HD 
ENDBRANCH  14  15
ENDBRANCH  13  14
ENDBRANCH  10  13
ENDBRANCH   9  10
ENDBRANCH   8   9
ENDBRANCH   7   8
BRANCH   7  22
HETATM   22  C   UNK     1     -10.600   8.817  69.045  1.00  0.00    -0.171 C  
BRANCH  22  23
HETATM   23  O   UNK     1     -10.688   8.179  70.333  1.00  0.00    -0.224 OA 
BRANCH  23  24
HETATM   24  C   UNK     1     -11.378   7.005  70.348  1.00  0.00    -0.310 C  
HETATM   25  O   UNK     1     -11.582   6.307  69.369  1.00  0.00    -0.403 OA 
BRANCH  24  26
HETATM   26  C   UNK     1     -11.830   6.697  71.757  1.00  0.00    -0.380 C  
HETATM   27  C   UNK     1     -11.071   7.531  72.773  1.00  0.00    -0.416 C  
ENDBRANCH  24  26
ENDBRANCH  23  24
ENDBRANCH  22  23
ENDBRANCH   7  22
ENDBRANCH   6   7
ENDBRANCH   4   6
ENDBRANCH   3   4
ENDBRANCH   2   3
TORSDOF 14
ENDMDL
MODEL       66
REMARK 921   NORMALIZED FREE ENERGY PREDICTED BY IDOCK:   -4.94 KCAL/MOL
REMARK 922        TOTAL FREE ENERGY PREDICTED BY IDOCK:  -10.07 KCAL/MOL
REMARK 923 INTER-LIGAND FREE ENERGY PREDICTED BY IDOCK:   -8.54 KCAL/MOL
REMARK 924 INTRA-LIGAND FREE ENERGY PREDICTED BY IDOCK:   -1.53 KCAL/MOL
REMARK 927      BINDING AFFINITY PREDICTED BY RF-SCORE:    0.00 PKD
ROOT
HETATM    1  C   UNK     1     -12.745  15.640  73.724  1.00  0.00    -0.742 C  
HETATM    2  C   UNK     1     -13.720  15.516  72.561  1.00  0.00    -0.668 C  
ENDROOT
BRANCH   2   3
HETATM    3  C   UNK     1     -14.068  14.066  72.242  1.00  0.00    -0.633 C  
BRANCH   3   4
HETATM    4  C   UNK     1     -13.087  13.479  71.260  1.00  0.00    -0.262 C  
HETATM    5  O   UNK     1     -12.647  12.339  71.326  1.00  0.00    -0.343 OA 
BRANCH   4   6
HETATM    6  O   UNK     1     -12.744  14.397  70.324  1.00  0.00    -0.348 OA 
BRANCH   6   7
HETATM    7  C   UNK     1     -11.514  14.219  69.584  1.00  0.00    -0.282 C  
BRANCH   7   8
HETATM    8  C   UNK     1     -11.699  13.411  68.293  1.00  0.00    -0.356 C  
BRANCH   8   9
HETATM    9  O   UNK     1     -10.506  12.709  67.942  1.00  0.00    -0.209 OA 
BRANCH   9  10
HETATM   10  P   UNK     1     -10.635  10.993  68.119  1.00  0.00    -0.228 P  
HETATM   11  O   UNK     1      -9.963  11.043  69.609  1.00  0.00    -0.003 OA 
HETATM   12  O   UNK     1     -12.148  11.136  68.301  1.00  0.00    -0.620 OA 
BRANCH  10  13
HETATM   13  O   UNK     1     -10.765   9.277  68.296  1.00  0.00    -0.209 OA 
BRANCH  13  14
HETATM   14  C   UNK     1     -10.427   8.834  69.618  1.00  0.00    -0.220 C  
BRANCH  14  15
HETATM   15  C   UNK     1     -11.657   8.303  70.357  1.00  0.00    -0.060 C  
HETATM   16  N   UNK     1     -12.524   9.387  70.905  1.00  0.00    -0.469 NA 
HETATM   17  C   UNK     1     -11.168   7.436  71.514  1.00  0.00    -0.243 C  
HETATM   18  O   UNK     1     -11.191   8.120  72.688  1.00  0.00    -0.370 OA 
HETATM   19  O   UNK     1     -10.755   6.292  71.404  1.00  0.00    -0.231 OA 
HETATM   20  H1  UNK     1     -13.345   9.032  71.397  1.00  0.00     0.000 HD 
HETATM   21  H2  UNK     1     -12.795  10.042  70.171  1.00  0.00     0.000 HD 
ENDBRANCH  14  15
ENDBRANCH  13  14
ENDBRANCH  10  13
ENDBRANCH   9  10
ENDBRANCH   8   9
ENDBRANCH   7   8
BRANCH   7  22
HETATM   22  C   UNK     1     -10.812  15.564  69.316  1.00  0.00    -0.252 C  
BRANCH  22  23
HETATM   23  O   UNK     1     -11.423  16.275  68.224  1.00  0.00    -0.333 OA 
BRANCH  23  24
HETATM   24  C   UNK     1     -10.619  17.184  67.608  1.00  0.00    -0.343 C  
HETATM   25  O   UNK     1     -10.389  17.210  66.410  1.00  0.00    -0.321 OA 
BRANCH  24  26
HETATM   26  C   UNK     1     -10.077  18.159  68.628  1.00  0.00    -0.406 C  
HETATM   27  C   UNK     1      -9.322  19.294  67.959  1.00  0.00    -0.388 C  
ENDBRANCH  24  26
ENDBRANCH  23  24
ENDBRANCH  22  23
ENDBRANCH   7  22
ENDBRANCH   6   7
ENDBRANCH   4   6
ENDBRANCH   3   4
ENDBRANCH   2   3
TORSDOF 14
ENDMDL
MODEL       67
REMARK 921   NORMALIZED FREE ENERGY PREDICTED BY IDOCK:   -4.91 KCAL/MOL
REMARK 922        TOTAL FREE ENERGY PREDICTED BY IDOCK:  -10.02 KCAL/MOL
REMARK 923 INTER-LIGAND FREE ENERGY PREDICTED BY IDOCK:   -9.02 KCAL/MOL
REMARK 924 INTRA-LIGAND FREE ENERGY PREDICTED BY IDOCK:   -1.00 KCAL/MOL
REMARK 927      BINDING AFFINITY PREDICTED BY RF-SCORE:    0.00 PKD
ROOT
HETATM    1  C   UNK     1     -12.163  12.686  63.548  1.00  0.00    -0.638 C  
HETATM    2  C   UNK     1     -12.421  12.984  65.018  1.00  0.00    -0.534 C  
ENDROOT
BRANCH   2   3
HETATM    3  C   UNK     1     -11.854  14.333  65.450  1.00  0.00    -0.363 C  
BRANCH   3   4
HETATM    4  C   UNK     1     -10.571  14.158  66.219  1.00  0.00    -0.284 C  
HETATM    5  O   UNK     1      -9.890  13.141  66.199  1.00  0.00    -0.281 OA 
BRANCH   4   6
HETATM    6  O   UNK     1     -10.301  15.266  66.952  1.00  0.00    -0.267 OA 
BRANCH   6   7
HETATM    7  C   UNK     1     -11.141  15.578  68.088  1.00  0.00    -0.325 C  
BRANCH   7   8
HETATM    8  C   UNK     1     -11.046  14.537  69.211  1.00  0.00    -0.270 C  
BRANCH   8   9
HETATM    9  O   UNK     1     -12.092  13.569  69.114  1.00  0.00    -0.329 OA 
BRANCH   9  10
HETATM   10  P   UNK     1     -11.590  11.966  69.527  1.00  0.00    -0.296 P  
HETATM   11  O   UNK     1     -12.684  11.879  70.740  1.00  0.00    -0.255 OA 
HETATM   12  O   UNK     1     -12.274  11.437  68.265  1.00  0.00    -0.588 OA 
BRANCH  10  13
HETATM   13  O   UNK     1     -11.089  10.362  69.939  1.00  0.00    -0.263 OA 
BRANCH  13  14
HETATM   14  C   UNK     1     -11.720   9.880  71.135  1.00  0.00    -0.396 C  
BRANCH  14  15
HETATM   15  C   UNK     1     -10.941   8.710  71.740  1.00  0.00    -0.326 C  
HETATM   16  N   UNK     1      -9.490   9.006  71.924  1.00  0.00    -0.344 NA 
HETATM   17  C   UNK     1     -11.082   7.519  70.796  1.00  0.00    -0.265 C  
HETATM   18  O   UNK     1      -9.986   7.384  70.004  1.00  0.00    -0.182 OA 
HETATM   19  O   UNK     1     -12.069   6.804  70.715  1.00  0.00    -0.387 OA 
HETATM   20  H1  UNK     1      -8.971   8.225  72.328  1.00  0.00     0.000 HD 
HETATM   21  H2  UNK     1      -9.359   9.854  72.475  1.00  0.00     0.000 HD 
ENDBRANCH  14  15
ENDBRANCH  13  14
ENDBRANCH  10  13
ENDBRANCH   9  10
ENDBRANCH   8   9
ENDBRANCH   7   8
BRANCH   7  22
HETATM   22  C   UNK     1     -10.882  17.003  68.611  1.00  0.00    -0.284 C  
BRANCH  22  23
HETATM   23  O   UNK     1      -9.681  17.565  68.051  1.00  0.00    -0.268 OA 
BRANCH  23  24
HETATM   24  C   UNK     1      -9.594  18.923  68.121  1.00  0.00    -0.338 C  
HETATM   25  O   UNK     1      -8.696  19.534  68.674  1.00  0.00    -0.364 OA 
BRANCH  24  26
HETATM   26  C   UNK     1     -10.764  19.546  67.395  1.00  0.00    -0.589 C  
HETATM   27  C   UNK     1     -10.527  19.579  65.895  1.00  0.00    -0.585 C  
ENDBRANCH  24  26
ENDBRANCH  23  24
ENDBRANCH  22  23
ENDBRANCH   7  22
ENDBRANCH   6   7
ENDBRANCH   4   6
ENDBRANCH   3   4
ENDBRANCH   2   3
TORSDOF 14
ENDMDL
MODEL       68
REMARK 921   NORMALIZED FREE ENERGY PREDICTED BY IDOCK:   -4.91 KCAL/MOL
REMARK 922        TOTAL FREE ENERGY PREDICTED BY IDOCK:  -10.01 KCAL/MOL
REMARK 923 INTER-LIGAND FREE ENERGY PREDICTED BY IDOCK:   -9.09 KCAL/MOL
REMARK 924 INTRA-LIGAND FREE ENERGY PREDICTED BY IDOCK:   -0.92 KCAL/MOL
REMARK 927      BINDING AFFINITY PREDICTED BY RF-SCORE:    0.00 PKD
ROOT
HETATM    1  C   UNK     1     -14.401   7.531  71.918  1.00  0.00    -0.520 C  
HETATM    2  C   UNK     1     -12.963   7.555  71.419  1.00  0.00    -0.379 C  
ENDROOT
BRANCH   2   3
HETATM    3  C   UNK     1     -12.104   8.574  72.161  1.00  0.00    -0.449 C  
BRANCH   3   4
HETATM    4  C   UNK     1     -11.322   9.427  71.196  1.00  0.00    -0.351 C  
HETATM    5  O   UNK     1     -10.102   9.424  71.108  1.00  0.00    -0.296 OA 
BRANCH   4   6
HETATM    6  O   UNK     1     -12.157  10.210  70.471  1.00  0.00    -0.283 OA 
BRANCH   6   7
HETATM    7  C   UNK     1     -11.927  11.639  70.437  1.00  0.00    -0.358 C  
BRANCH   7   8
HETATM    8  C   UNK     1     -11.848  12.203  69.012  1.00  0.00    -0.306 C  
BRANCH   8   9
HETATM    9  O   UNK     1     -10.558  12.751  68.740  1.00  0.00    -0.240 OA 
BRANCH   9  10
HETATM   10  P   UNK     1     -10.607  14.198  67.793  1.00  0.00    -0.247 P  
HETATM   11  O   UNK     1      -9.557  13.583  66.701  1.00  0.00    -0.264 OA 
HETATM   12  O   UNK     1     -12.015  13.830  67.321  1.00  0.00    -0.385 OA 
BRANCH  10  13
HETATM   13  O   UNK     1     -10.656  15.645  66.846  1.00  0.00    -0.303 OA 
BRANCH  13  14
HETATM   14  C   UNK     1     -10.891  16.815  67.643  1.00  0.00    -0.252 C  
BRANCH  14  15
HETATM   15  C   UNK     1     -10.251  18.053  67.014  1.00  0.00    -0.362 C  
HETATM   16  N   UNK     1      -9.251  17.722  65.957  1.00  0.00    -0.522 NA 
HETATM   17  C   UNK     1      -9.549  18.831  68.124  1.00  0.00    -0.332 C  
HETATM   18  O   UNK     1      -8.213  18.576  68.137  1.00  0.00    -0.278 OA 
HETATM   19  O   UNK     1     -10.109  19.549  68.937  1.00  0.00    -0.442 OA 
HETATM   20  H1  UNK     1      -8.823  18.548  65.537  1.00  0.00     0.000 HD 
HETATM   21  H2  UNK     1      -9.663  17.122  65.242  1.00  0.00     0.000 HD 
ENDBRANCH  14  15
ENDBRANCH  13  14
ENDBRANCH  10  13
ENDBRANCH   9  10
ENDBRANCH   8   9
ENDBRANCH   7   8
BRANCH   7  22
HETATM   22  C   UNK     1     -12.956  12.400  71.292  1.00  0.00    -0.203 C  
BRANCH  22  23
HETATM   23  O   UNK     1     -12.919  13.816  71.033  1.00  0.00    -0.306 OA 
BRANCH  23  24
HETATM   24  C   UNK     1     -13.286  14.602  72.083  1.00  0.00    -0.363 C  
HETATM   25  O   UNK     1     -14.240  14.388  72.812  1.00  0.00    -0.491 OA 
BRANCH  24  26
HETATM   26  C   UNK     1     -12.322  15.759  72.215  1.00  0.00    -0.540 C  
HETATM   27  C   UNK     1     -12.165  16.184  73.664  1.00  0.00    -0.619 C  
ENDBRANCH  24  26
ENDBRANCH  23  24
ENDBRANCH  22  23
ENDBRANCH   7  22
ENDBRANCH   6   7
ENDBRANCH   4   6
ENDBRANCH   3   4
ENDBRANCH   2   3
TORSDOF 14
ENDMDL
MODEL       69
REMARK 921   NORMALIZED FREE ENERGY PREDICTED BY IDOCK:   -4.90 KCAL/MOL
REMARK 922        TOTAL FREE ENERGY PREDICTED BY IDOCK:   -9.99 KCAL/MOL
REMARK 923 INTER-LIGAND FREE ENERGY PREDICTED BY IDOCK:   -8.93 KCAL/MOL
REMARK 924 INTRA-LIGAND FREE ENERGY PREDICTED BY IDOCK:   -1.06 KCAL/MOL
REMARK 927      BINDING AFFINITY PREDICTED BY RF-SCORE:    0.00 PKD
ROOT
HETATM    1  C   UNK     1     -10.896   5.891  70.428  1.00  0.00    -0.378 C  
HETATM    2  C   UNK     1     -11.756   6.485  71.535  1.00  0.00    -0.376 C  
ENDROOT
BRANCH   2   3
HETATM    3  C   UNK     1     -12.094   7.952  71.289  1.00  0.00    -0.317 C  
BRANCH   3   4
HETATM    4  C   UNK     1     -10.991   8.850  71.786  1.00  0.00    -0.361 C  
HETATM    5  O   UNK     1     -10.226   8.560  72.696  1.00  0.00    -0.284 OA 
BRANCH   4   6
HETATM    6  O   UNK     1     -10.993  10.024  71.110  1.00  0.00    -0.302 OA 
BRANCH   6   7
HETATM    7  C   UNK     1     -11.065  10.003  69.665  1.00  0.00    -0.259 C  
BRANCH   7   8
HETATM    8  C   UNK     1     -12.017  11.061  69.092  1.00  0.00    -0.324 C  
BRANCH   8   9
HETATM    9  O   UNK     1     -11.492  12.379  69.260  1.00  0.00    -0.266 OA 
BRANCH   9  10
HETATM   10  P   UNK     1     -11.800  13.422  67.914  1.00  0.00    -0.289 P  
HETATM   11  O   UNK     1     -10.220  13.830  67.801  1.00  0.00    -0.234 OA 
HETATM   12  O   UNK     1     -12.014  12.196  67.025  1.00  0.00    -0.593 OA 
BRANCH  10  13
HETATM   13  O   UNK     1     -12.108  14.465  66.569  1.00  0.00    -0.418 OA 
BRANCH  13  14
HETATM   14  C   UNK     1     -10.942  15.197  66.164  1.00  0.00    -0.331 C  
BRANCH  14  15
HETATM   15  C   UNK     1     -10.808  15.227  64.640  1.00  0.00    -0.257 C  
HETATM   16  N   UNK     1     -11.474  16.407  64.016  1.00  0.00    -1.573 NA 
HETATM   17  C   UNK     1     -11.450  13.956  64.090  1.00  0.00    -0.249 C  
HETATM   18  O   UNK     1     -12.709  14.196  63.635  1.00  0.00    -0.790 OA 
HETATM   19  O   UNK     1     -10.933  12.849  64.102  1.00  0.00    -0.363 OA 
HETATM   20  H1  UNK     1     -11.384  16.427  63.000  1.00  0.00     0.000 HD 
HETATM   21  H2  UNK     1     -11.134  17.276  64.429  1.00  0.00     0.000 HD 
ENDBRANCH  14  15
ENDBRANCH  13  14
ENDBRANCH  10  13
ENDBRANCH   9  10
ENDBRANCH   8   9
ENDBRANCH   7   8
BRANCH   7  22
HETATM   22  C   UNK     1      -9.667  10.091  69.025  1.00  0.00    -0.199 C  
BRANCH  22  23
HETATM   23  O   UNK     1      -9.547   9.216  67.888  1.00  0.00    -0.143 OA 
BRANCH  23  24
HETATM   24  C   UNK     1      -8.607   9.586  66.974  1.00  0.00    -0.128 C  
HETATM   25  O   UNK     1      -7.407   9.617  67.185  1.00  0.00    -0.087 OA 
BRANCH  24  26
HETATM   26  C   UNK     1      -9.278   9.930  65.664  1.00  0.00    -0.245 C  
HETATM   27  C   UNK     1      -8.258  10.114  64.554  1.00  0.00    -0.162 C  
ENDBRANCH  24  26
ENDBRANCH  23  24
ENDBRANCH  22  23
ENDBRANCH   7  22
ENDBRANCH   6   7
ENDBRANCH   4   6
ENDBRANCH   3   4
ENDBRANCH   2   3
TORSDOF 14
ENDMDL
MODEL       70
REMARK 921   NORMALIZED FREE ENERGY PREDICTED BY IDOCK:   -4.87 KCAL/MOL
REMARK 922        TOTAL FREE ENERGY PREDICTED BY IDOCK:   -9.95 KCAL/MOL
REMARK 923 INTER-LIGAND FREE ENERGY PREDICTED BY IDOCK:   -8.91 KCAL/MOL
REMARK 924 INTRA-LIGAND FREE ENERGY PREDICTED BY IDOCK:   -1.03 KCAL/MOL
REMARK 927      BINDING AFFINITY PREDICTED BY RF-SCORE:    0.00 PKD
ROOT
HETATM    1  C   UNK     1      -9.730  10.438  64.120  1.00  0.00    -0.387 C  
HETATM    2  C   UNK     1     -10.468  11.705  63.710  1.00  0.00    -0.454 C  
ENDROOT
BRANCH   2   3
HETATM    3  C   UNK     1     -10.726  12.638  64.890  1.00  0.00    -0.327 C  
BRANCH   3   4
HETATM    4  C   UNK     1     -12.142  12.501  65.387  1.00  0.00    -0.435 C  
HETATM    5  O   UNK     1     -13.132  12.580  64.672  1.00  0.00    -0.845 OA 
BRANCH   4   6
HETATM    6  O   UNK     1     -12.158  12.312  66.728  1.00  0.00    -0.593 OA 
BRANCH   6   7
HETATM    7  C   UNK     1     -10.942  11.902  67.396  1.00  0.00    -0.263 C  
BRANCH   7   8
HETATM    8  C   UNK     1     -10.561  12.813  68.570  1.00  0.00    -0.252 C  
BRANCH   8   9
HETATM    9  O   UNK     1     -11.651  13.651  68.954  1.00  0.00    -0.274 OA 
BRANCH   9  10
HETATM   10  P   UNK     1     -11.191  15.292  69.251  1.00  0.00    -0.335 P  
HETATM   11  O   UNK     1     -11.773  15.773  67.801  1.00  0.00    -0.183 OA 
HETATM   12  O   UNK     1     -12.334  15.420  70.260  1.00  0.00    -0.357 OA 
BRANCH  10  13
HETATM   13  O   UNK     1     -10.731  16.933  69.548  1.00  0.00    -0.326 OA 
BRANCH  13  14
HETATM   14  C   UNK     1     -10.839  17.754  68.376  1.00  0.00    -0.078 C  
BRANCH  14  15
HETATM   15  C   UNK     1      -9.757  18.836  68.356  1.00  0.00    -0.376 C  
HETATM   16  N   UNK     1     -10.189  20.108  69.007  1.00  0.00    -0.428 NA 
HETATM   17  C   UNK     1      -9.415  19.125  66.897  1.00  0.00    -0.320 C  
HETATM   18  O   UNK     1     -10.049  20.242  66.453  1.00  0.00    -0.439 OA 
HETATM   19  O   UNK     1      -8.708  18.422  66.192  1.00  0.00    -0.462 OA 
HETATM   20  H1  UNK     1      -9.467  20.829  68.993  1.00  0.00     0.000 HD 
HETATM   21  H2  UNK     1     -10.514  19.937  69.958  1.00  0.00     0.000 HD 
ENDBRANCH  14  15
ENDBRANCH  13  14
ENDBRANCH  10  13
ENDBRANCH   9  10
ENDBRANCH   8   9
ENDBRANCH   7   8
BRANCH   7  22
HETATM   22  C   UNK     1     -10.997  10.422  67.820  1.00  0.00    -0.309 C  
BRANCH  22  23
HETATM   23  O   UNK     1     -10.087  10.144  68.900  1.00  0.00    -0.181 OA 
BRANCH  23  24
HETATM   24  C   UNK     1     -10.335   8.989  69.578  1.00  0.00    -0.209 C  
HETATM   25  O   UNK     1     -10.412   7.885  69.065  1.00  0.00    -0.214 OA 
BRANCH  24  26
HETATM   26  C   UNK     1     -10.478   9.284  71.053  1.00  0.00    -0.384 C  
HETATM   27  C   UNK     1     -11.910   9.643  71.408  1.00  0.00    -0.484 C  
ENDBRANCH  24  26
ENDBRANCH  23  24
ENDBRANCH  22  23
ENDBRANCH   7  22
ENDBRANCH   6   7
ENDBRANCH   4   6
ENDBRANCH   3   4
ENDBRANCH   2   3
TORSDOF 14
ENDMDL
MODEL       71
REMARK 921   NORMALIZED FREE ENERGY PREDICTED BY IDOCK:   -4.86 KCAL/MOL
REMARK 922        TOTAL FREE ENERGY PREDICTED BY IDOCK:   -9.93 KCAL/MOL
REMARK 923 INTER-LIGAND FREE ENERGY PREDICTED BY IDOCK:   -8.80 KCAL/MOL
REMARK 924 INTRA-LIGAND FREE ENERGY PREDICTED BY IDOCK:   -1.13 KCAL/MOL
REMARK 927      BINDING AFFINITY PREDICTED BY RF-SCORE:    0.00 PKD
ROOT
HETATM    1  C   UNK     1     -12.424  15.558  73.888  1.00  0.00    -0.769 C  
HETATM    2  C   UNK     1     -12.311  16.031  72.446  1.00  0.00    -0.581 C  
ENDROOT
BRANCH   2   3
HETATM    3  C   UNK     1     -11.385  15.151  71.613  1.00  0.00    -0.394 C  
BRANCH   3   4
HETATM    4  C   UNK     1     -12.172  14.158  70.797  1.00  0.00    -0.365 C  
HETATM    5  O   UNK     1     -13.282  13.743  71.103  1.00  0.00    -0.289 OA 
BRANCH   4   6
HETATM    6  O   UNK     1     -11.466  13.773  69.707  1.00  0.00    -0.253 OA 
BRANCH   6   7
HETATM    7  C   UNK     1     -11.948  12.663  68.914  1.00  0.00    -0.242 C  
BRANCH   7   8
HETATM    8  C   UNK     1     -11.612  12.796  67.423  1.00  0.00    -0.356 C  
BRANCH   8   9
HETATM    9  O   UNK     1     -12.022  14.063  66.907  1.00  0.00    -0.407 OA 
BRANCH   9  10
HETATM   10  P   UNK     1     -10.724  14.988  66.234  1.00  0.00    -0.335 P  
HETATM   11  O   UNK     1     -11.611  15.371  64.915  1.00  0.00    -0.329 OA 
HETATM   12  O   UNK     1     -10.972  16.079  67.277  1.00  0.00    -0.300 OA 
BRANCH  10  13
HETATM   13  O   UNK     1      -9.426  15.912  65.560  1.00  0.00    -0.369 OA 
BRANCH  13  14
HETATM   14  C   UNK     1      -8.356  16.118  66.494  1.00  0.00    -0.317 C  
BRANCH  14  15
HETATM   15  C   UNK     1      -7.616  17.427  66.211  1.00  0.00    -0.313 C  
HETATM   16  N   UNK     1      -6.177  17.383  66.604  1.00  0.00    -0.185 NA 
HETATM   17  C   UNK     1      -8.306  18.534  67.003  1.00  0.00    -0.255 C  
HETATM   18  O   UNK     1      -7.636  18.810  68.153  1.00  0.00    -0.257 OA 
HETATM   19  O   UNK     1      -9.355  19.072  66.685  1.00  0.00    -0.307 OA 
HETATM   20  H1  UNK     1      -5.684  18.256  66.415  1.00  0.00     0.000 HD 
HETATM   21  H2  UNK     1      -5.704  16.595  66.163  1.00  0.00     0.000 HD 
ENDBRANCH  14  15
ENDBRANCH  13  14
ENDBRANCH  10  13
ENDBRANCH   9  10
ENDBRANCH   8   9
ENDBRANCH   7   8
BRANCH   7  22
HETATM   22  C   UNK     1     -11.478  11.311  69.484  1.00  0.00    -0.307 C  
BRANCH  22  23
HETATM   23  O   UNK     1     -12.581  10.534  69.987  1.00  0.00    -0.277 OA 
BRANCH  23  24
HETATM   24  C   UNK     1     -12.452  10.121  71.278  1.00  0.00    -0.406 C  
HETATM   25  O   UNK     1     -13.283  10.302  72.152  1.00  0.00    -0.452 OA 
BRANCH  24  26
HETATM   26  C   UNK     1     -11.139   9.393  71.452  1.00  0.00    -0.450 C  
HETATM   27  C   UNK     1     -11.321   7.891  71.331  1.00  0.00    -0.285 C  
ENDBRANCH  24  26
ENDBRANCH  23  24
ENDBRANCH  22  23
ENDBRANCH   7  22
ENDBRANCH   6   7
ENDBRANCH   4   6
ENDBRANCH   3   4
ENDBRANCH   2   3
TORSDOF 14
ENDMDL
MODEL       72
REMARK 921   NORMALIZED FREE ENERGY PREDICTED BY IDOCK:   -4.85 KCAL/MOL
REMARK 922        TOTAL FREE ENERGY PREDICTED BY IDOCK:   -9.91 KCAL/MOL
REMARK 923 INTER-LIGAND FREE ENERGY PREDICTED BY IDOCK:   -8.92 KCAL/MOL
REMARK 924 INTRA-LIGAND FREE ENERGY PREDICTED BY IDOCK:   -0.99 KCAL/MOL
REMARK 927      BINDING AFFINITY PREDICTED BY RF-SCORE:    0.00 PKD
ROOT
HETATM    1  C   UNK     1     -12.175  12.452  63.456  1.00  0.00    -0.661 C  
HETATM    2  C   UNK     1     -12.235  13.902  63.915  1.00  0.00    -0.375 C  
ENDROOT
BRANCH   2   3
HETATM    3  C   UNK     1     -10.968  14.338  64.643  1.00  0.00    -0.379 C  
BRANCH   3   4
HETATM    4  C   UNK     1     -11.012  15.808  64.971  1.00  0.00    -0.417 C  
HETATM    5  O   UNK     1     -11.403  16.673  64.200  1.00  0.00    -1.141 OA 
BRANCH   4   6
HETATM    6  O   UNK     1     -10.530  16.031  66.218  1.00  0.00    -0.307 OA 
BRANCH   6   7
HETATM    7  C   UNK     1     -10.712  15.017  67.234  1.00  0.00    -0.298 C  
BRANCH   7   8
HETATM    8  C   UNK     1      -9.389  14.445  67.759  1.00  0.00    -0.200 C  
BRANCH   8   9
HETATM    9  O   UNK     1      -8.890  13.415  66.904  1.00  0.00    -0.220 OA 
BRANCH   9  10
HETATM   10  P   UNK     1      -9.146  11.820  67.521  1.00  0.00    -0.188 P  
HETATM   11  O   UNK     1      -9.941  12.396  68.829  1.00  0.00    -0.152 OA 
HETATM   12  O   UNK     1     -10.190  11.575  66.430  1.00  0.00    -0.212 OA 
BRANCH  10  13
HETATM   13  O   UNK     1      -9.401  10.224  68.139  1.00  0.00    -0.137 OA 
BRANCH  13  14
HETATM   14  C   UNK     1      -9.799  10.226  69.517  1.00  0.00    -0.220 C  
BRANCH  14  15
HETATM   15  C   UNK     1     -11.184   9.600  69.696  1.00  0.00    -0.141 C  
HETATM   16  N   UNK     1     -12.281  10.434  69.124  1.00  0.00    -0.695 NA 
HETATM   17  C   UNK     1     -11.429   9.429  71.193  1.00  0.00    -0.352 C  
HETATM   18  O   UNK     1     -12.203  10.432  71.684  1.00  0.00    -0.355 OA 
HETATM   19  O   UNK     1     -10.952   8.541  71.882  1.00  0.00    -0.276 OA 
HETATM   20  H1  UNK     1     -13.205  10.016  69.243  1.00  0.00     0.000 HD 
HETATM   21  H2  UNK     1     -12.103  10.647  68.143  1.00  0.00     0.000 HD 
ENDBRANCH  14  15
ENDBRANCH  13  14
ENDBRANCH  10  13
ENDBRANCH   9  10
ENDBRANCH   8   9
ENDBRANCH   7   8
BRANCH   7  22
HETATM   22  C   UNK     1     -11.610  15.516  68.381  1.00  0.00    -0.357 C  
BRANCH  22  23
HETATM   23  O   UNK     1     -10.909  15.526  69.639  1.00  0.00    -0.240 OA 
BRANCH  23  24
HETATM   24  C   UNK     1     -11.707  15.522  70.742  1.00  0.00    -0.362 C  
HETATM   25  O   UNK     1     -11.488  16.155  71.761  1.00  0.00    -0.414 OA 
BRANCH  24  26
HETATM   26  C   UNK     1     -12.907  14.636  70.500  1.00  0.00    -0.371 C  
HETATM   27  C   UNK     1     -13.162  13.719  71.682  1.00  0.00    -0.450 C  
ENDBRANCH  24  26
ENDBRANCH  23  24
ENDBRANCH  22  23
ENDBRANCH   7  22
ENDBRANCH   6   7
ENDBRANCH   4   6
ENDBRANCH   3   4
ENDBRANCH   2   3
TORSDOF 14
ENDMDL
MODEL       73
REMARK 921   NORMALIZED FREE ENERGY PREDICTED BY IDOCK:   -4.85 KCAL/MOL
REMARK 922        TOTAL FREE ENERGY PREDICTED BY IDOCK:   -9.91 KCAL/MOL
REMARK 923 INTER-LIGAND FREE ENERGY PREDICTED BY IDOCK:   -8.95 KCAL/MOL
REMARK 924 INTRA-LIGAND FREE ENERGY PREDICTED BY IDOCK:   -0.95 KCAL/MOL
REMARK 927      BINDING AFFINITY PREDICTED BY RF-SCORE:    0.00 PKD
ROOT
HETATM    1  C   UNK     1     -12.448  15.165  74.105  1.00  0.00    -0.682 C  
HETATM    2  C   UNK     1     -13.068  16.003  72.996  1.00  0.00    -0.593 C  
ENDROOT
BRANCH   2   3
HETATM    3  C   UNK     1     -13.970  15.182  72.079  1.00  0.00    -0.629 C  
BRANCH   3   4
HETATM    4  C   UNK     1     -13.155  14.351  71.122  1.00  0.00    -0.352 C  
HETATM    5  O   UNK     1     -12.904  13.165  71.284  1.00  0.00    -0.353 OA 
BRANCH   4   6
HETATM    6  O   UNK     1     -12.720  15.109  70.087  1.00  0.00    -0.311 OA 
BRANCH   6   7
HETATM    7  C   UNK     1     -11.353  14.962  69.634  1.00  0.00    -0.282 C  
BRANCH   7   8
HETATM    8  C   UNK     1     -11.220  14.054  68.405  1.00  0.00    -0.266 C  
BRANCH   8   9
HETATM    9  O   UNK     1     -10.230  13.045  68.608  1.00  0.00    -0.232 OA 
BRANCH   9  10
HETATM   10  P   UNK     1     -10.746  11.464  68.132  1.00  0.00    -0.238 P  
HETATM   11  O   UNK     1     -10.856  10.974  69.689  1.00  0.00    -0.240 OA 
HETATM   12  O   UNK     1     -12.110  12.037  67.742  1.00  0.00    -0.537 OA 
BRANCH  10  13
HETATM   13  O   UNK     1     -11.262   9.882  67.657  1.00  0.00    -0.211 OA 
BRANCH  13  14
HETATM   14  C   UNK     1     -10.275   9.194  66.876  1.00  0.00    -0.266 C  
BRANCH  14  15
HETATM   15  C   UNK     1     -10.116   7.744  67.336  1.00  0.00    -0.222 C  
HETATM   16  N   UNK     1     -11.285   6.886  66.985  1.00  0.00    -0.699 NA 
HETATM   17  C   UNK     1      -9.952   7.751  68.853  1.00  0.00    -0.182 C  
HETATM   18  O   UNK     1     -11.123   7.454  69.477  1.00  0.00    -0.187 OA 
HETATM   19  O   UNK     1      -8.923   8.040  69.445  1.00  0.00    -0.147 OA 
HETATM   20  H1  UNK     1     -11.179   5.919  67.292  1.00  0.00     0.000 HD 
HETATM   21  H2  UNK     1     -11.482   6.931  65.985  1.00  0.00     0.000 HD 
ENDBRANCH  14  15
ENDBRANCH  13  14
ENDBRANCH  10  13
ENDBRANCH   9  10
ENDBRANCH   8   9
ENDBRANCH   7   8
BRANCH   7  22
HETATM   22  C   UNK     1     -10.680  16.328  69.406  1.00  0.00    -0.318 C  
BRANCH  22  23
HETATM   23  O   UNK     1     -10.872  16.798  68.059  1.00  0.00    -0.355 OA 
BRANCH  23  24
HETATM   24  C   UNK     1     -10.001  17.764  67.657  1.00  0.00    -0.322 C  
HETATM   25  O   UNK     1      -8.786  17.655  67.671  1.00  0.00    -0.232 OA 
BRANCH  24  26
HETATM   26  C   UNK     1     -10.768  18.974  67.175  1.00  0.00    -0.541 C  
HETATM   27  C   UNK     1     -10.087  19.619  65.982  1.00  0.00    -0.553 C  
ENDBRANCH  24  26
ENDBRANCH  23  24
ENDBRANCH  22  23
ENDBRANCH   7  22
ENDBRANCH   6   7
ENDBRANCH   4   6
ENDBRANCH   3   4
ENDBRANCH   2   3
TORSDOF 14
ENDMDL
MODEL       74
REMARK 921   NORMALIZED FREE ENERGY PREDICTED BY IDOCK:   -4.83 KCAL/MOL
REMARK 922        TOTAL FREE ENERGY PREDICTED BY IDOCK:   -9.87 KCAL/MOL
REMARK 923 INTER-LIGAND FREE ENERGY PREDICTED BY IDOCK:   -8.80 KCAL/MOL
REMARK 924 INTRA-LIGAND FREE ENERGY PREDICTED BY IDOCK:   -1.07 KCAL/MOL
REMARK 927      BINDING AFFINITY PREDICTED BY RF-SCORE:    0.00 PKD
ROOT
HETATM    1  C   UNK     1     -12.031  12.763  63.247  1.00  0.00    -0.522 C  
HETATM    2  C   UNK     1     -10.591  12.403  63.584  1.00  0.00    -0.481 C  
ENDROOT
BRANCH   2   3
HETATM    3  C   UNK     1     -10.453  10.976  64.105  1.00  0.00    -0.434 C  
BRANCH   3   4
HETATM    4  C   UNK     1      -9.710  10.949  65.415  1.00  0.00    -0.238 C  
HETATM    5  O   UNK     1      -9.073  11.892  65.864  1.00  0.00    -0.186 OA 
BRANCH   4   6
HETATM    6  O   UNK     1      -9.824   9.733  66.002  1.00  0.00    -0.236 OA 
BRANCH   6   7
HETATM    7  C   UNK     1     -10.075   9.659  67.425  1.00  0.00    -0.204 C  
BRANCH   7   8
HETATM    8  C   UNK     1     -11.357  10.389  67.849  1.00  0.00    -0.173 C  
BRANCH   8   9
HETATM    9  O   UNK     1     -11.092  11.360  68.862  1.00  0.00    -0.200 OA 
BRANCH   9  10
HETATM   10  P   UNK     1     -11.236  12.993  68.310  1.00  0.00    -0.322 P  
HETATM   11  O   UNK     1     -12.220  12.547  67.082  1.00  0.00    -0.474 OA 
HETATM   12  O   UNK     1     -12.129  13.311  69.511  1.00  0.00    -0.303 OA 
BRANCH  10  13
HETATM   13  O   UNK     1     -11.380  14.626  67.757  1.00  0.00    -0.294 OA 
BRANCH  13  14
HETATM   14  C   UNK     1     -11.785  14.707  66.383  1.00  0.00    -0.322 C  
BRANCH  14  15
HETATM   15  C   UNK     1     -10.608  15.077  65.478  1.00  0.00    -0.363 C  
HETATM   16  N   UNK     1      -9.304  15.120  66.202  1.00  0.00    -0.332 NA 
HETATM   17  C   UNK     1     -10.887  16.459  64.891  1.00  0.00    -0.250 C  
HETATM   18  O   UNK     1     -10.218  17.428  65.570  1.00  0.00    -0.604 OA 
HETATM   19  O   UNK     1     -11.653  16.684  63.967  1.00  0.00    -1.197 OA 
HETATM   20  H1  UNK     1      -8.519  15.367  65.599  1.00  0.00     0.000 HD 
HETATM   21  H2  UNK     1      -9.128  14.240  66.686  1.00  0.00     0.000 HD 
ENDBRANCH  14  15
ENDBRANCH  13  14
ENDBRANCH  10  13
ENDBRANCH   9  10
ENDBRANCH   8   9
ENDBRANCH   7   8
BRANCH   7  22
HETATM   22  C   UNK     1     -10.056   8.205  67.931  1.00  0.00    -0.196 C  
BRANCH  22  23
HETATM   23  O   UNK     1      -9.856   8.140  69.355  1.00  0.00    -0.176 OA 
BRANCH  23  24
HETATM   24  C   UNK     1     -10.907   7.639  70.062  1.00  0.00    -0.243 C  
HETATM   25  O   UNK     1     -11.545   6.648  69.749  1.00  0.00    -0.351 OA 
BRANCH  24  26
HETATM   26  C   UNK     1     -11.143   8.483  71.293  1.00  0.00    -0.320 C  
HETATM   27  C   UNK     1      -9.868   8.651  72.099  1.00  0.00    -0.387 C  
ENDBRANCH  24  26
ENDBRANCH  23  24
ENDBRANCH  22  23
ENDBRANCH   7  22
ENDBRANCH   6   7
ENDBRANCH   4   6
ENDBRANCH   3   4
ENDBRANCH   2   3
TORSDOF 14
ENDMDL
MODEL       75
REMARK 921   NORMALIZED FREE ENERGY PREDICTED BY IDOCK:   -4.81 KCAL/MOL
REMARK 922        TOTAL FREE ENERGY PREDICTED BY IDOCK:   -9.84 KCAL/MOL
REMARK 923 INTER-LIGAND FREE ENERGY PREDICTED BY IDOCK:   -8.43 KCAL/MOL
REMARK 924 INTRA-LIGAND FREE ENERGY PREDICTED BY IDOCK:   -1.41 KCAL/MOL
REMARK 927      BINDING AFFINITY PREDICTED BY RF-SCORE:    0.00 PKD
ROOT
HETATM    1  C   UNK     1     -13.936   9.045  71.993  1.00  0.00    -0.472 C  
HETATM    2  C   UNK     1     -13.156  10.350  71.912  1.00  0.00    -0.563 C  
ENDROOT
BRANCH   2   3
HETATM    3  C   UNK     1     -12.221  10.398  70.707  1.00  0.00    -0.457 C  
BRANCH   3   4
HETATM    4  C   UNK     1     -12.199  11.776  70.097  1.00  0.00    -0.263 C  
HETATM    5  O   UNK     1     -12.180  12.814  70.743  1.00  0.00    -0.367 OA 
BRANCH   4   6
HETATM    6  O   UNK     1     -12.234  11.697  68.744  1.00  0.00    -0.416 OA 
BRANCH   6   7
HETATM    7  C   UNK     1     -11.093  12.158  67.984  1.00  0.00    -0.244 C  
BRANCH   7   8
HETATM    8  C   UNK     1     -10.442  11.052  67.143  1.00  0.00    -0.232 C  
BRANCH   8   9
HETATM    9  O   UNK     1      -9.289  10.514  67.792  1.00  0.00    -0.147 OA 
BRANCH   9  10
HETATM   10  P   UNK     1      -9.314   8.789  67.927  1.00  0.00    -0.144 P  
HETATM   11  O   UNK     1      -9.201   8.863  69.557  1.00  0.00    -0.146 OA 
HETATM   12  O   UNK     1     -10.804   8.793  67.578  1.00  0.00    -0.206 OA 
BRANCH  10  13
HETATM   13  O   UNK     1      -9.339   7.065  68.062  1.00  0.00    -0.129 OA 
BRANCH  13  14
HETATM   14  C   UNK     1     -10.643   6.514  67.824  1.00  0.00    -0.259 C  
BRANCH  14  15
HETATM   15  C   UNK     1     -11.263   5.978  69.115  1.00  0.00    -0.267 C  
HETATM   16  N   UNK     1     -11.764   7.057  70.016  1.00  0.00    -0.578 NA 
HETATM   17  C   UNK     1     -10.189   5.184  69.854  1.00  0.00    -0.291 C  
HETATM   18  O   UNK     1      -9.622   5.922  70.845  1.00  0.00    -0.166 OA 
HETATM   19  O   UNK     1      -9.836   4.050  69.567  1.00  0.00    -0.195 OA 
HETATM   20  H1  UNK     1     -12.178   6.699  70.877  1.00  0.00     0.000 HD 
HETATM   21  H2  UNK     1     -12.418   7.666  69.524  1.00  0.00     0.000 HD 
ENDBRANCH  14  15
ENDBRANCH  13  14
ENDBRANCH  10  13
ENDBRANCH   9  10
ENDBRANCH   8   9
ENDBRANCH   7   8
BRANCH   7  22
HETATM   22  C   UNK     1     -11.440  13.391  67.129  1.00  0.00    -0.339 C  
BRANCH  22  23
HETATM   23  O   UNK     1     -11.232  13.142  65.726  1.00  0.00    -0.283 OA 
BRANCH  23  24
HETATM   24  C   UNK     1     -12.304  13.407  64.930  1.00  0.00    -0.412 C  
HETATM   25  O   UNK     1     -13.242  14.122  65.242  1.00  0.00    -0.760 OA 
BRANCH  24  26
HETATM   26  C   UNK     1     -12.141  12.701  63.604  1.00  0.00    -0.632 C  
HETATM   27  C   UNK     1     -10.719  12.208  63.412  1.00  0.00    -0.461 C  
ENDBRANCH  24  26
ENDBRANCH  23  24
ENDBRANCH  22  23
ENDBRANCH   7  22
ENDBRANCH   6   7
ENDBRANCH   4   6
ENDBRANCH   3   4
ENDBRANCH   2   3
TORSDOF 14
ENDMDL
MODEL       76
REMARK 921   NORMALIZED FREE ENERGY PREDICTED BY IDOCK:   -4.81 KCAL/MOL
REMARK 922        TOTAL FREE ENERGY PREDICTED BY IDOCK:   -9.83 KCAL/MOL
REMARK 923 INTER-LIGAND FREE ENERGY PREDICTED BY IDOCK:   -9.31 KCAL/MOL
REMARK 924 INTRA-LIGAND FREE ENERGY PREDICTED BY IDOCK:   -0.52 KCAL/MOL
REMARK 927      BINDING AFFINITY PREDICTED BY RF-SCORE:    0.00 PKD
ROOT
HETATM    1  C   UNK     1     -10.841  11.625  63.570  1.00  0.00    -0.497 C  
HETATM    2  C   UNK     1     -10.995  11.717  65.082  1.00  0.00    -0.326 C  
ENDROOT
BRANCH   2   3
HETATM    3  C   UNK     1     -10.766  13.130  65.608  1.00  0.00    -0.294 C  
BRANCH   3   4
HETATM    4  C   UNK     1     -12.076  13.828  65.869  1.00  0.00    -0.433 C  
HETATM    5  O   UNK     1     -12.873  14.144  64.996  1.00  0.00    -0.687 OA 
BRANCH   4   6
HETATM    6  O   UNK     1     -12.225  14.079  67.193  1.00  0.00    -0.419 OA 
BRANCH   6   7
HETATM    7  C   UNK     1     -11.299  14.979  67.845  1.00  0.00    -0.333 C  
BRANCH   7   8
HETATM    8  C   UNK     1     -10.693  16.016  66.891  1.00  0.00    -0.262 C  
BRANCH   8   9
HETATM    9  O   UNK     1     -11.032  17.347  67.284  1.00  0.00    -0.190 OA 
BRANCH   9  10
HETATM   10  P   UNK     1      -9.661  18.391  67.441  1.00  0.00    -0.324 P  
HETATM   11  O   UNK     1     -10.456  19.629  66.727  1.00  0.00    -0.429 OA 
HETATM   12  O   UNK     1      -9.925  18.494  68.945  1.00  0.00    -0.384 OA 
BRANCH  10  13
HETATM   13  O   UNK     1      -8.291  19.436  67.599  1.00  0.00    -0.286 OA 
BRANCH  13  14
HETATM   14  C   UNK     1      -7.824  19.528  68.953  1.00  0.00    -0.314 C  
BRANCH  14  15
HETATM   15  C   UNK     1      -6.297  19.606  69.009  1.00  0.00    -0.297 C  
HETATM   16  N   UNK     1      -5.628  18.429  68.381  1.00  0.00    -0.174 NA 
HETATM   17  C   UNK     1      -5.888  19.676  70.478  1.00  0.00    -0.257 C  
HETATM   18  O   UNK     1      -5.495  18.459  70.939  1.00  0.00    -0.245 OA 
HETATM   19  O   UNK     1      -5.952  20.676  71.175  1.00  0.00    -0.585 OA 
HETATM   20  H1  UNK     1      -4.610  18.481  68.419  1.00  0.00     0.000 HD 
HETATM   21  H2  UNK     1      -5.950  18.296  67.423  1.00  0.00     0.000 HD 
ENDBRANCH  14  15
ENDBRANCH  13  14
ENDBRANCH  10  13
ENDBRANCH   9  10
ENDBRANCH   8   9
ENDBRANCH   7   8
BRANCH   7  22
HETATM   22  C   UNK     1     -11.931  15.646  69.081  1.00  0.00    -0.310 C  
BRANCH  22  23
HETATM   23  O   UNK     1     -11.374  15.133  70.306  1.00  0.00    -0.251 OA 
BRANCH  23  24
HETATM   24  C   UNK     1     -12.274  14.939  71.310  1.00  0.00    -0.325 C  
HETATM   25  O   UNK     1     -13.194  14.140  71.273  1.00  0.00    -0.338 OA 
BRANCH  24  26
HETATM   26  C   UNK     1     -11.942  15.845  72.473  1.00  0.00    -0.622 C  
HETATM   27  C   UNK     1     -12.368  15.227  73.792  1.00  0.00    -0.731 C  
ENDBRANCH  24  26
ENDBRANCH  23  24
ENDBRANCH  22  23
ENDBRANCH   7  22
ENDBRANCH   6   7
ENDBRANCH   4   6
ENDBRANCH   3   4
ENDBRANCH   2   3
TORSDOF 14
ENDMDL
MODEL       77
REMARK 921   NORMALIZED FREE ENERGY PREDICTED BY IDOCK:   -4.80 KCAL/MOL
REMARK 922        TOTAL FREE ENERGY PREDICTED BY IDOCK:   -9.81 KCAL/MOL
REMARK 923 INTER-LIGAND FREE ENERGY PREDICTED BY IDOCK:   -8.55 KCAL/MOL
REMARK 924 INTRA-LIGAND FREE ENERGY PREDICTED BY IDOCK:   -1.26 KCAL/MOL
REMARK 927      BINDING AFFINITY PREDICTED BY RF-SCORE:    0.00 PKD
ROOT
HETATM    1  C   UNK     1      -9.031  11.093  62.512  1.00  0.00    -0.347 C  
HETATM    2  C   UNK     1     -10.193  11.005  63.492  1.00  0.00    -0.424 C  
ENDROOT
BRANCH   2   3
HETATM    3  C   UNK     1     -10.708  12.378  63.911  1.00  0.00    -0.465 C  
BRANCH   3   4
HETATM    4  C   UNK     1     -12.204  12.362  64.088  1.00  0.00    -0.468 C  
HETATM    5  O   UNK     1     -13.006  12.371  63.164  1.00  0.00    -0.602 OA 
BRANCH   4   6
HETATM    6  O   UNK     1     -12.527  12.370  65.404  1.00  0.00    -0.637 OA 
BRANCH   6   7
HETATM    7  C   UNK     1     -11.620  12.988  66.347  1.00  0.00    -0.363 C  
BRANCH   7   8
HETATM    8  C   UNK     1     -11.894  14.483  66.555  1.00  0.00    -0.352 C  
BRANCH   8   9
HETATM    9  O   UNK     1     -12.236  14.766  67.913  1.00  0.00    -0.209 OA 
BRANCH   9  10
HETATM   10  P   UNK     1     -11.282  16.026  68.618  1.00  0.00    -0.353 P  
HETATM   11  O   UNK     1     -12.271  16.120  69.917  1.00  0.00    -0.158 OA 
HETATM   12  O   UNK     1     -10.195  15.003  68.952  1.00  0.00    -0.221 OA 
BRANCH  10  13
HETATM   13  O   UNK     1     -10.329  17.286  69.323  1.00  0.00    -0.322 OA 
BRANCH  13  14
HETATM   14  C   UNK     1      -9.213  17.657  68.500  1.00  0.00    -0.281 C  
BRANCH  14  15
HETATM   15  C   UNK     1      -9.184  19.166  68.252  1.00  0.00    -0.335 C  
HETATM   16  N   UNK     1     -10.275  19.897  68.960  1.00  0.00    -0.584 NA 
HETATM   17  C   UNK     1      -9.336  19.395  66.750  1.00  0.00    -0.333 C  
HETATM   18  O   UNK     1     -10.616  19.719  66.427  1.00  0.00    -0.464 OA 
HETATM   19  O   UNK     1      -8.444  19.255  65.928  1.00  0.00    -0.441 OA 
HETATM   20  H1  UNK     1     -10.255  20.903  68.795  1.00  0.00     0.000 HD 
HETATM   21  H2  UNK     1     -10.262  19.692  69.959  1.00  0.00     0.000 HD 
ENDBRANCH  14  15
ENDBRANCH  13  14
ENDBRANCH  10  13
ENDBRANCH   9  10
ENDBRANCH   8   9
ENDBRANCH   7   8
BRANCH   7  22
HETATM   22  C   UNK     1     -11.584  12.226  67.685  1.00  0.00    -0.354 C  
BRANCH  22  23
HETATM   23  O   UNK     1     -10.269  11.712  67.969  1.00  0.00    -0.180 OA 
BRANCH  23  24
HETATM   24  C   UNK     1      -9.905  10.626  67.232  1.00  0.00    -0.176 C  
HETATM   25  O   UNK     1     -10.609   9.650  67.037  1.00  0.00    -0.241 OA 
BRANCH  24  26
HETATM   26  C   UNK     1      -8.512  10.828  66.682  1.00  0.00    -0.142 C  
HETATM   27  C   UNK     1      -7.497  10.997  67.798  1.00  0.00    -0.094 C  
ENDBRANCH  24  26
ENDBRANCH  23  24
ENDBRANCH  22  23
ENDBRANCH   7  22
ENDBRANCH   6   7
ENDBRANCH   4   6
ENDBRANCH   3   4
ENDBRANCH   2   3
TORSDOF 14
ENDMDL
MODEL       78
REMARK 921   NORMALIZED FREE ENERGY PREDICTED BY IDOCK:   -4.79 KCAL/MOL
REMARK 922        TOTAL FREE ENERGY PREDICTED BY IDOCK:   -9.80 KCAL/MOL
REMARK 923 INTER-LIGAND FREE ENERGY PREDICTED BY IDOCK:   -8.05 KCAL/MOL
REMARK 924 INTRA-LIGAND FREE ENERGY PREDICTED BY IDOCK:   -1.76 KCAL/MOL
REMARK 927      BINDING AFFINITY PREDICTED BY RF-SCORE:    0.00 PKD
ROOT
HETATM    1  C   UNK     1      -9.858  11.222  63.161  1.00  0.00    -0.403 C  
HETATM    2  C   UNK     1     -11.082  11.507  64.020  1.00  0.00    -0.441 C  
ENDROOT
BRANCH   2   3
HETATM    3  C   UNK     1     -11.064  12.911  64.614  1.00  0.00    -0.352 C  
BRANCH   3   4
HETATM    4  C   UNK     1     -12.145  13.072  65.652  1.00  0.00    -0.454 C  
HETATM    5  O   UNK     1     -13.061  13.878  65.571  1.00  0.00    -0.699 OA 
BRANCH   4   6
HETATM    6  O   UNK     1     -11.937  12.226  66.690  1.00  0.00    -0.598 OA 
BRANCH   6   7
HETATM    7  C   UNK     1     -11.322  12.733  67.897  1.00  0.00    -0.293 C  
BRANCH   7   8
HETATM    8  C   UNK     1     -12.154  12.462  69.157  1.00  0.00    -0.146 C  
BRANCH   8   9
HETATM    9  O   UNK     1     -11.987  13.499  70.125  1.00  0.00    -0.319 OA 
BRANCH   9  10
HETATM   10  P   UNK     1     -11.637  15.044  69.430  1.00  0.00    -0.357 P  
HETATM   11  O   UNK     1     -12.862  15.750  70.252  1.00  0.00    -0.348 OA 
HETATM   12  O   UNK     1     -10.388  15.146  70.307  1.00  0.00    -0.199 OA 
BRANCH  10  13
HETATM   13  O   UNK     1     -11.288  16.589  68.735  1.00  0.00    -0.318 OA 
BRANCH  13  14
HETATM   14  C   UNK     1      -9.944  16.677  68.239  1.00  0.00    -0.261 C  
BRANCH  14  15
HETATM   15  C   UNK     1      -9.898  16.488  66.722  1.00  0.00    -0.266 C  
HETATM   16  N   UNK     1      -9.084  15.310  66.303  1.00  0.00    -0.345 NA 
HETATM   17  C   UNK     1      -9.287  17.747  66.113  1.00  0.00    -0.132 C  
HETATM   18  O   UNK     1      -7.970  17.567  65.825  1.00  0.00    -0.548 OA 
HETATM   19  O   UNK     1      -9.877  18.804  65.952  1.00  0.00    -0.496 OA 
HETATM   20  H1  UNK     1      -9.054  15.184  65.291  1.00  0.00     0.000 HD 
HETATM   21  H2  UNK     1      -9.408  14.461  66.766  1.00  0.00     0.000 HD 
ENDBRANCH  14  15
ENDBRANCH  13  14
ENDBRANCH  10  13
ENDBRANCH   9  10
ENDBRANCH   8   9
ENDBRANCH   7   8
BRANCH   7  22
HETATM   22  C   UNK     1      -9.875  12.228  68.053  1.00  0.00    -0.204 C  
BRANCH  22  23
HETATM   23  O   UNK     1      -9.715  10.900  67.520  1.00  0.00    -0.165 OA 
BRANCH  23  24
HETATM   24  C   UNK     1      -8.624  10.728  66.723  1.00  0.00    -0.136 C  
HETATM   25  O   UNK     1      -7.760  11.568  66.538  1.00  0.00    -0.134 OA 
BRANCH  24  26
HETATM   26  C   UNK     1      -8.641   9.339  66.128  1.00  0.00    -0.146 C  
HETATM   27  C   UNK     1      -9.992   8.674  66.319  1.00  0.00    -0.287 C  
ENDBRANCH  24  26
ENDBRANCH  23  24
ENDBRANCH  22  23
ENDBRANCH   7  22
ENDBRANCH   6   7
ENDBRANCH   4   6
ENDBRANCH   3   4
ENDBRANCH   2   3
TORSDOF 14
ENDMDL
MODEL       79
REMARK 921   NORMALIZED FREE ENERGY PREDICTED BY IDOCK:   -4.79 KCAL/MOL
REMARK 922        TOTAL FREE ENERGY PREDICTED BY IDOCK:   -9.80 KCAL/MOL
REMARK 923 INTER-LIGAND FREE ENERGY PREDICTED BY IDOCK:   -8.64 KCAL/MOL
REMARK 924 INTRA-LIGAND FREE ENERGY PREDICTED BY IDOCK:   -1.16 KCAL/MOL
REMARK 927      BINDING AFFINITY PREDICTED BY RF-SCORE:    0.00 PKD
ROOT
HETATM    1  C   UNK     1     -13.611   7.134  71.409  1.00  0.00    -0.368 C  
HETATM    2  C   UNK     1     -14.188   8.532  71.589  1.00  0.00    -0.496 C  
ENDROOT
BRANCH   2   3
HETATM    3  C   UNK     1     -13.261   9.449  72.380  1.00  0.00    -0.483 C  
BRANCH   3   4
HETATM    4  C   UNK     1     -12.554  10.418  71.469  1.00  0.00    -0.439 C  
HETATM    5  O   UNK     1     -13.078  11.411  70.983  1.00  0.00    -0.245 OA 
BRANCH   4   6
HETATM    6  O   UNK     1     -11.280  10.017  71.245  1.00  0.00    -0.341 OA 
BRANCH   6   7
HETATM    7  C   UNK     1     -10.878   9.674  69.897  1.00  0.00    -0.256 C  
BRANCH   7   8
HETATM    8  C   UNK     1      -9.892  10.680  69.288  1.00  0.00    -0.180 C  
BRANCH   8   9
HETATM    9  O   UNK     1     -10.544  11.903  68.940  1.00  0.00    -0.217 OA 
BRANCH   9  10
HETATM   10  P   UNK     1     -10.459  12.276  67.253  1.00  0.00    -0.224 P  
HETATM   11  O   UNK     1      -9.529  10.964  66.955  1.00  0.00    -0.163 OA 
HETATM   12  O   UNK     1     -11.917  11.841  67.093  1.00  0.00    -0.617 OA 
BRANCH  10  13
HETATM   13  O   UNK     1     -10.374  12.649  65.566  1.00  0.00    -0.276 OA 
BRANCH  13  14
HETATM   14  C   UNK     1     -10.106  14.038  65.324  1.00  0.00    -0.318 C  
BRANCH  14  15
HETATM   15  C   UNK     1     -11.338  14.899  65.609  1.00  0.00    -0.325 C  
HETATM   16  N   UNK     1     -12.588  14.350  65.005  1.00  0.00    -0.561 NA 
HETATM   17  C   UNK     1     -11.082  16.286  65.026  1.00  0.00    -0.254 C  
HETATM   18  O   UNK     1     -11.689  16.435  63.819  1.00  0.00    -1.049 OA 
HETATM   19  O   UNK     1     -10.380  17.142  65.542  1.00  0.00    -0.599 OA 
HETATM   20  H1  UNK     1     -13.409  14.924  65.196  1.00  0.00     0.000 HD 
HETATM   21  H2  UNK     1     -12.741  13.386  65.301  1.00  0.00     0.000 HD 
ENDBRANCH  14  15
ENDBRANCH  13  14
ENDBRANCH  10  13
ENDBRANCH   9  10
ENDBRANCH   8   9
ENDBRANCH   7   8
BRANCH   7  22
HETATM   22  C   UNK     1     -10.342   8.233  69.813  1.00  0.00    -0.216 C  
BRANCH  22  23
HETATM   23  O   UNK     1      -9.945   7.891  68.472  1.00  0.00    -0.176 OA 
BRANCH  23  24
HETATM   24  C   UNK     1      -9.568   6.594  68.298  1.00  0.00    -0.125 C  
HETATM   25  O   UNK     1      -8.442   6.166  68.486  1.00  0.00    -0.113 OA 
BRANCH  24  26
HETATM   26  C   UNK     1     -10.758   5.772  67.859  1.00  0.00    -0.295 C  
HETATM   27  C   UNK     1     -10.450   4.984  66.599  1.00  0.00    -0.301 C  
ENDBRANCH  24  26
ENDBRANCH  23  24
ENDBRANCH  22  23
ENDBRANCH   7  22
ENDBRANCH   6   7
ENDBRANCH   4   6
ENDBRANCH   3   4
ENDBRANCH   2   3
TORSDOF 14
ENDMDL
MODEL       80
REMARK 921   NORMALIZED FREE ENERGY PREDICTED BY IDOCK:   -4.79 KCAL/MOL
REMARK 922        TOTAL FREE ENERGY PREDICTED BY IDOCK:   -9.79 KCAL/MOL
REMARK 923 INTER-LIGAND FREE ENERGY PREDICTED BY IDOCK:   -8.57 KCAL/MOL
REMARK 924 INTRA-LIGAND FREE ENERGY PREDICTED BY IDOCK:   -1.22 KCAL/MOL
REMARK 927      BINDING AFFINITY PREDICTED BY RF-SCORE:    0.00 PKD
ROOT
HETATM    1  C   UNK     1      -9.987  11.000  64.593  1.00  0.00    -0.357 C  
HETATM    2  C   UNK     1     -10.553  12.176  63.808  1.00  0.00    -0.482 C  
ENDROOT
BRANCH   2   3
HETATM    3  C   UNK     1     -10.530  13.476  64.606  1.00  0.00    -0.439 C  
BRANCH   3   4
HETATM    4  C   UNK     1     -11.921  14.031  64.773  1.00  0.00    -0.417 C  
HETATM    5  O   UNK     1     -12.555  14.578  63.881  1.00  0.00    -0.827 OA 
BRANCH   4   6
HETATM    6  O   UNK     1     -12.349  13.867  66.048  1.00  0.00    -0.443 OA 
BRANCH   6   7
HETATM    7  C   UNK     1     -11.381  13.561  67.080  1.00  0.00    -0.321 C  
BRANCH   7   8
HETATM    8  C   UNK     1     -11.124  14.736  68.033  1.00  0.00    -0.286 C  
BRANCH   8   9
HETATM    9  O   UNK     1     -11.279  15.990  67.368  1.00  0.00    -0.226 OA 
BRANCH   9  10
HETATM   10  P   UNK     1      -9.846  16.959  67.377  1.00  0.00    -0.275 P  
HETATM   11  O   UNK     1      -8.959  15.736  68.003  1.00  0.00    -0.177 OA 
HETATM   12  O   UNK     1      -9.766  16.840  65.854  1.00  0.00    -0.457 OA 
BRANCH  10  13
HETATM   13  O   UNK     1      -8.413  17.928  67.387  1.00  0.00    -0.230 OA 
BRANCH  13  14
HETATM   14  C   UNK     1      -7.528  17.612  66.302  1.00  0.00    -0.305 C  
BRANCH  14  15
HETATM   15  C   UNK     1      -6.124  17.280  66.811  1.00  0.00    -0.201 C  
HETATM   16  N   UNK     1      -5.977  15.858  67.239  1.00  0.00    -0.325 NA 
HETATM   17  C   UNK     1      -5.836  18.183  68.007  1.00  0.00    -0.164 C  
HETATM   18  O   UNK     1      -6.037  17.527  69.181  1.00  0.00    -0.195 OA 
HETATM   19  O   UNK     1      -5.518  19.360  67.934  1.00  0.00    -0.181 OA 
HETATM   20  H1  UNK     1      -5.040  15.637  67.577  1.00  0.00     0.000 HD 
HETATM   21  H2  UNK     1      -6.252  15.223  66.490  1.00  0.00     0.000 HD 
ENDBRANCH  14  15
ENDBRANCH  13  14
ENDBRANCH  10  13
ENDBRANCH   9  10
ENDBRANCH   8   9
ENDBRANCH   7   8
BRANCH   7  22
HETATM   22  C   UNK     1     -11.753  12.279  67.847  1.00  0.00    -0.347 C  
BRANCH  22  23
HETATM   23  O   UNK     1     -11.757  12.493  69.271  1.00  0.00    -0.291 OA 
BRANCH  23  24
HETATM   24  C   UNK     1     -11.662  11.361  70.022  1.00  0.00    -0.334 C  
HETATM   25  O   UNK     1     -10.838  10.479  69.849  1.00  0.00    -0.269 OA 
BRANCH  24  26
HETATM   26  C   UNK     1     -12.715  11.380  71.106  1.00  0.00    -0.479 C  
HETATM   27  C   UNK     1     -12.897  10.004  71.722  1.00  0.00    -0.546 C  
ENDBRANCH  24  26
ENDBRANCH  23  24
ENDBRANCH  22  23
ENDBRANCH   7  22
ENDBRANCH   6   7
ENDBRANCH   4   6
ENDBRANCH   3   4
ENDBRANCH   2   3
TORSDOF 14
ENDMDL
MODEL       81
REMARK 921   NORMALIZED FREE ENERGY PREDICTED BY IDOCK:   -4.78 KCAL/MOL
REMARK 922        TOTAL FREE ENERGY PREDICTED BY IDOCK:   -9.78 KCAL/MOL
REMARK 923 INTER-LIGAND FREE ENERGY PREDICTED BY IDOCK:   -8.20 KCAL/MOL
REMARK 924 INTRA-LIGAND FREE ENERGY PREDICTED BY IDOCK:   -1.59 KCAL/MOL
REMARK 927      BINDING AFFINITY PREDICTED BY RF-SCORE:    0.00 PKD
ROOT
HETATM    1  C   UNK     1     -10.248   4.892  73.026  1.00  0.00    -0.216 C  
HETATM    2  C   UNK     1     -11.463   5.611  72.456  1.00  0.00    -0.335 C  
ENDROOT
BRANCH   2   3
HETATM    3  C   UNK     1     -11.135   7.021  71.974  1.00  0.00    -0.276 C  
BRANCH   3   4
HETATM    4  C   UNK     1     -11.087   7.080  70.470  1.00  0.00    -0.280 C  
HETATM    5  O   UNK     1     -11.706   6.326  69.732  1.00  0.00    -0.403 OA 
BRANCH   4   6
HETATM    6  O   UNK     1     -10.242   8.056  70.059  1.00  0.00    -0.197 OA 
BRANCH   6   7
HETATM    7  C   UNK     1     -10.616   8.880  68.929  1.00  0.00    -0.165 C  
BRANCH   7   8
HETATM    8  C   UNK     1     -10.579  10.382  69.240  1.00  0.00    -0.232 C  
BRANCH   8   9
HETATM    9  O   UNK     1     -11.824  11.008  68.930  1.00  0.00    -0.314 OA 
BRANCH   9  10
HETATM   10  P   UNK     1     -11.652  12.508  68.084  1.00  0.00    -0.349 P  
HETATM   11  O   UNK     1     -10.030  12.327  67.985  1.00  0.00    -0.190 OA 
HETATM   12  O   UNK     1     -12.255  11.862  66.835  1.00  0.00    -0.493 OA 
BRANCH  10  13
HETATM   13  O   UNK     1     -11.480  14.007  67.238  1.00  0.00    -0.314 OA 
BRANCH  13  14
HETATM   14  C   UNK     1     -11.624  13.856  65.818  1.00  0.00    -0.338 C  
BRANCH  14  15
HETATM   15  C   UNK     1     -10.438  14.470  65.072  1.00  0.00    -0.429 C  
HETATM   16  N   UNK     1      -9.134  14.251  65.764  1.00  0.00    -0.360 NA 
HETATM   17  C   UNK     1     -10.685  15.972  64.959  1.00  0.00    -0.378 C  
HETATM   18  O   UNK     1      -9.996  16.659  65.908  1.00  0.00    -0.392 OA 
HETATM   19  O   UNK     1     -11.445  16.498  64.160  1.00  0.00    -1.059 OA 
HETATM   20  H1  UNK     1      -8.344  14.660  65.266  1.00  0.00     0.000 HD 
HETATM   21  H2  UNK     1      -8.979  13.259  65.941  1.00  0.00     0.000 HD 
ENDBRANCH  14  15
ENDBRANCH  13  14
ENDBRANCH  10  13
ENDBRANCH   9  10
ENDBRANCH   8   9
ENDBRANCH   7   8
BRANCH   7  22
HETATM   22  C   UNK     1      -9.786   8.538  67.678  1.00  0.00    -0.160 C  
BRANCH  22  23
HETATM   23  O   UNK     1     -10.285   9.212  66.508  1.00  0.00    -0.278 OA 
BRANCH  23  24
HETATM   24  C   UNK     1      -9.393   9.326  65.485  1.00  0.00    -0.238 C  
HETATM   25  O   UNK     1      -8.692   8.419  65.071  1.00  0.00    -0.154 OA 
BRANCH  24  26
HETATM   26  C   UNK     1      -9.424  10.734  64.936  1.00  0.00    -0.288 C  
HETATM   27  C   UNK     1     -10.487  10.884  63.862  1.00  0.00    -0.359 C  
ENDBRANCH  24  26
ENDBRANCH  23  24
ENDBRANCH  22  23
ENDBRANCH   7  22
ENDBRANCH   6   7
ENDBRANCH   4   6
ENDBRANCH   3   4
ENDBRANCH   2   3
TORSDOF 14
ENDMDL
MODEL       82
REMARK 921   NORMALIZED FREE ENERGY PREDICTED BY IDOCK:   -4.78 KCAL/MOL
REMARK 922        TOTAL FREE ENERGY PREDICTED BY IDOCK:   -9.78 KCAL/MOL
REMARK 923 INTER-LIGAND FREE ENERGY PREDICTED BY IDOCK:   -8.52 KCAL/MOL
REMARK 924 INTRA-LIGAND FREE ENERGY PREDICTED BY IDOCK:   -1.26 KCAL/MOL
REMARK 927      BINDING AFFINITY PREDICTED BY RF-SCORE:    0.00 PKD
ROOT
HETATM    1  C   UNK     1      -9.853   9.876  65.553  1.00  0.00    -0.381 C  
HETATM    2  C   UNK     1     -10.084   8.906  66.703  1.00  0.00    -0.357 C  
ENDROOT
BRANCH   2   3
HETATM    3  C   UNK     1      -8.939   8.913  67.712  1.00  0.00    -0.140 C  
BRANCH   3   4
HETATM    4  C   UNK     1      -9.271   9.779  68.899  1.00  0.00    -0.155 C  
HETATM    5  O   UNK     1      -8.436  10.327  69.605  1.00  0.00    -0.169 OA 
BRANCH   4   6
HETATM    6  O   UNK     1     -10.612   9.833  69.088  1.00  0.00    -0.204 OA 
BRANCH   6   7
HETATM    7  C   UNK     1     -11.130  10.491  70.268  1.00  0.00    -0.285 C  
BRANCH   7   8
HETATM    8  C   UNK     1     -12.266  11.475  69.961  1.00  0.00    -0.278 C  
BRANCH   8   9
HETATM    9  O   UNK     1     -11.851  12.828  70.155  1.00  0.00    -0.319 OA 
BRANCH   9  10
HETATM   10  P   UNK     1     -11.857  13.769  68.704  1.00  0.00    -0.344 P  
HETATM   11  O   UNK     1     -11.764  15.167  69.547  1.00  0.00    -0.290 OA 
HETATM   12  O   UNK     1     -10.423  13.318  68.417  1.00  0.00    -0.243 OA 
BRANCH  10  13
HETATM   13  O   UNK     1     -11.862  14.710  67.252  1.00  0.00    -0.392 OA 
BRANCH  13  14
HETATM   14  C   UNK     1     -11.888  13.896  66.070  1.00  0.00    -0.393 C  
BRANCH  14  15
HETATM   15  C   UNK     1     -10.882  14.394  65.031  1.00  0.00    -0.407 C  
HETATM   16  N   UNK     1      -9.495  14.513  65.569  1.00  0.00    -0.507 NA 
HETATM   17  C   UNK     1     -11.343  15.771  64.559  1.00  0.00    -0.316 C  
HETATM   18  O   UNK     1     -10.657  16.763  65.187  1.00  0.00    -0.663 OA 
HETATM   19  O   UNK     1     -12.246  15.971  63.762  1.00  0.00    -0.895 OA 
HETATM   20  H1  UNK     1      -8.824  14.845  64.876  1.00  0.00     0.000 HD 
HETATM   21  H2  UNK     1      -9.188  13.631  65.979  1.00  0.00     0.000 HD 
ENDBRANCH  14  15
ENDBRANCH  13  14
ENDBRANCH  10  13
ENDBRANCH   9  10
ENDBRANCH   8   9
ENDBRANCH   7   8
BRANCH   7  22
HETATM   22  C   UNK     1     -11.536   9.476  71.352  1.00  0.00    -0.395 C  
BRANCH  22  23
HETATM   23  O   UNK     1     -12.135   8.298  70.780  1.00  0.00    -0.206 OA 
BRANCH  23  24
HETATM   24  C   UNK     1     -11.463   7.137  71.019  1.00  0.00    -0.297 C  
HETATM   25  O   UNK     1     -11.540   6.135  70.330  1.00  0.00    -0.362 OA 
BRANCH  24  26
HETATM   26  C   UNK     1     -10.599   7.293  72.249  1.00  0.00    -0.257 C  
HETATM   27  C   UNK     1     -10.859   6.181  73.250  1.00  0.00    -0.268 C  
ENDBRANCH  24  26
ENDBRANCH  23  24
ENDBRANCH  22  23
ENDBRANCH   7  22
ENDBRANCH   6   7
ENDBRANCH   4   6
ENDBRANCH   3   4
ENDBRANCH   2   3
TORSDOF 14
ENDMDL
MODEL       83
REMARK 921   NORMALIZED FREE ENERGY PREDICTED BY IDOCK:   -4.78 KCAL/MOL
REMARK 922        TOTAL FREE ENERGY PREDICTED BY IDOCK:   -9.78 KCAL/MOL
REMARK 923 INTER-LIGAND FREE ENERGY PREDICTED BY IDOCK:   -8.53 KCAL/MOL
REMARK 924 INTRA-LIGAND FREE ENERGY PREDICTED BY IDOCK:   -1.25 KCAL/MOL
REMARK 927      BINDING AFFINITY PREDICTED BY RF-SCORE:    0.00 PKD
ROOT
HETATM    1  C   UNK     1     -14.378  15.320  71.802  1.00  0.00    -0.678 C  
HETATM    2  C   UNK     1     -12.862  15.409  71.689  1.00  0.00    -0.492 C  
ENDROOT
BRANCH   2   3
HETATM    3  C   UNK     1     -12.373  15.265  70.252  1.00  0.00    -0.407 C  
BRANCH   3   4
HETATM    4  C   UNK     1     -12.174  13.816  69.891  1.00  0.00    -0.321 C  
HETATM    5  O   UNK     1     -11.953  12.930  70.705  1.00  0.00    -0.258 OA 
BRANCH   4   6
HETATM    6  O   UNK     1     -12.243  13.646  68.549  1.00  0.00    -0.342 OA 
BRANCH   6   7
HETATM    7  C   UNK     1     -11.125  14.060  67.730  1.00  0.00    -0.267 C  
BRANCH   7   8
HETATM    8  C   UNK     1      -9.820  13.332  68.078  1.00  0.00    -0.230 C  
BRANCH   8   9
HETATM    9  O   UNK     1      -9.772  12.035  67.482  1.00  0.00    -0.183 OA 
BRANCH   9  10
HETATM   10  P   UNK     1      -9.661  10.748  68.633  1.00  0.00    -0.190 P  
HETATM   11  O   UNK     1     -11.196  10.273  68.329  1.00  0.00    -0.276 OA 
HETATM   12  O   UNK     1      -8.752   9.980  67.672  1.00  0.00    -0.122 OA 
BRANCH  10  13
HETATM   13  O   UNK     1      -9.550   9.462  69.784  1.00  0.00    -0.176 OA 
BRANCH  13  14
HETATM   14  C   UNK     1     -10.737   9.332  70.579  1.00  0.00    -0.257 C  
BRANCH  14  15
HETATM   15  C   UNK     1     -11.130   7.864  70.755  1.00  0.00    -0.256 C  
HETATM   16  N   UNK     1     -12.607   7.652  70.788  1.00  0.00    -0.537 NA 
HETATM   17  C   UNK     1     -10.536   7.377  72.074  1.00  0.00    -0.208 C  
HETATM   18  O   UNK     1     -11.467   7.382  73.066  1.00  0.00    -0.277 OA 
HETATM   19  O   UNK     1      -9.366   7.072  72.245  1.00  0.00    -0.138 OA 
HETATM   20  H1  UNK     1     -12.868   6.673  70.905  1.00  0.00     0.000 HD 
HETATM   21  H2  UNK     1     -13.049   8.051  69.960  1.00  0.00     0.000 HD 
ENDBRANCH  14  15
ENDBRANCH  13  14
ENDBRANCH  10  13
ENDBRANCH   9  10
ENDBRANCH   8   9
ENDBRANCH   7   8
BRANCH   7  22
HETATM   22  C   UNK     1     -11.450  13.955  66.228  1.00  0.00    -0.339 C  
BRANCH  22  23
HETATM   23  O   UNK     1     -12.306  12.832  65.947  1.00  0.00    -0.551 OA 
BRANCH  23  24
HETATM   24  C   UNK     1     -12.371  12.473  64.635  1.00  0.00    -0.474 C  
HETATM   25  O   UNK     1     -13.403  12.253  64.024  1.00  0.00    -0.677 OA 
BRANCH  24  26
HETATM   26  C   UNK     1     -10.977  12.410  64.055  1.00  0.00    -0.442 C  
HETATM   27  C   UNK     1     -10.426  10.997  64.096  1.00  0.00    -0.434 C  
ENDBRANCH  24  26
ENDBRANCH  23  24
ENDBRANCH  22  23
ENDBRANCH   7  22
ENDBRANCH   6   7
ENDBRANCH   4   6
ENDBRANCH   3   4
ENDBRANCH   2   3
TORSDOF 14
ENDMDL
MODEL       84
REMARK 921   NORMALIZED FREE ENERGY PREDICTED BY IDOCK:   -4.78 KCAL/MOL
REMARK 922        TOTAL FREE ENERGY PREDICTED BY IDOCK:   -9.78 KCAL/MOL
REMARK 923 INTER-LIGAND FREE ENERGY PREDICTED BY IDOCK:   -8.71 KCAL/MOL
REMARK 924 INTRA-LIGAND FREE ENERGY PREDICTED BY IDOCK:   -1.07 KCAL/MOL
REMARK 927      BINDING AFFINITY PREDICTED BY RF-SCORE:    0.00 PKD
ROOT
HETATM    1  C   UNK     1     -10.371   5.979  73.997  1.00  0.00    -0.301 C  
HETATM    2  C   UNK     1     -10.984   5.559  72.668  1.00  0.00    -0.320 C  
ENDROOT
BRANCH   2   3
HETATM    3  C   UNK     1      -9.947   5.457  71.554  1.00  0.00    -0.237 C  
BRANCH   3   4
HETATM    4  C   UNK     1     -10.366   6.264  70.352  1.00  0.00    -0.208 C  
HETATM    5  O   UNK     1     -11.444   6.147  69.787  1.00  0.00    -0.433 OA 
BRANCH   4   6
HETATM    6  O   UNK     1      -9.372   7.104  69.974  1.00  0.00    -0.155 OA 
BRANCH   6   7
HETATM    7  C   UNK     1      -9.623   8.529  69.961  1.00  0.00    -0.169 C  
BRANCH   7   8
HETATM    8  C   UNK     1     -10.371   8.997  68.706  1.00  0.00    -0.215 C  
BRANCH   8   9
HETATM    9  O   UNK     1      -9.806  10.199  68.180  1.00  0.00    -0.142 OA 
BRANCH   9  10
HETATM   10  P   UNK     1     -10.967  11.240  67.432  1.00  0.00    -0.303 P  
HETATM   11  O   UNK     1     -10.777  10.501  65.986  1.00  0.00    -0.139 OA 
HETATM   12  O   UNK     1     -12.087  10.506  68.171  1.00  0.00    -0.279 OA 
BRANCH  10  13
HETATM   13  O   UNK     1     -12.128  12.282  66.684  1.00  0.00    -0.612 OA 
BRANCH  13  14
HETATM   14  C   UNK     1     -11.650  12.843  65.453  1.00  0.00    -0.350 C  
BRANCH  14  15
HETATM   15  C   UNK     1     -12.147  14.278  65.267  1.00  0.00    -0.400 C  
HETATM   16  N   UNK     1     -12.411  14.626  63.840  1.00  0.00    -1.060 NA 
HETATM   17  C   UNK     1     -11.073  15.217  65.809  1.00  0.00    -0.301 C  
HETATM   18  O   UNK     1     -10.307  15.723  64.806  1.00  0.00    -0.461 OA 
HETATM   19  O   UNK     1     -10.880  15.450  66.992  1.00  0.00    -0.315 OA 
HETATM   20  H1  UNK     1     -12.742  15.583  63.717  1.00  0.00     0.000 HD 
HETATM   21  H2  UNK     1     -13.056  13.960  63.417  1.00  0.00     0.000 HD 
ENDBRANCH  14  15
ENDBRANCH  13  14
ENDBRANCH  10  13
ENDBRANCH   9  10
ENDBRANCH   8   9
ENDBRANCH   7   8
BRANCH   7  22
HETATM   22  C   UNK     1     -10.328   8.993  71.249  1.00  0.00    -0.313 C  
BRANCH  22  23
HETATM   23  O   UNK     1     -11.129  10.168  71.022  1.00  0.00    -0.323 OA 
BRANCH  23  24
HETATM   24  C   UNK     1     -12.397  10.104  71.517  1.00  0.00    -0.408 C  
HETATM   25  O   UNK     1     -13.244  10.968  71.370  1.00  0.00    -0.356 OA 
BRANCH  24  26
HETATM   26  C   UNK     1     -12.592   8.797  72.250  1.00  0.00    -0.460 C  
HETATM   27  C   UNK     1     -13.815   8.056  71.740  1.00  0.00    -0.452 C  
ENDBRANCH  24  26
ENDBRANCH  23  24
ENDBRANCH  22  23
ENDBRANCH   7  22
ENDBRANCH   6   7
ENDBRANCH   4   6
ENDBRANCH   3   4
ENDBRANCH   2   3
TORSDOF 14
ENDMDL
MODEL       85
REMARK 921   NORMALIZED FREE ENERGY PREDICTED BY IDOCK:   -4.78 KCAL/MOL
REMARK 922        TOTAL FREE ENERGY PREDICTED BY IDOCK:   -9.78 KCAL/MOL
REMARK 923 INTER-LIGAND FREE ENERGY PREDICTED BY IDOCK:   -8.20 KCAL/MOL
REMARK 924 INTRA-LIGAND FREE ENERGY PREDICTED BY IDOCK:   -1.58 KCAL/MOL
REMARK 927      BINDING AFFINITY PREDICTED BY RF-SCORE:    0.00 PKD
ROOT
HETATM    1  C   UNK     1      -9.353   8.866  65.693  1.00  0.00    -0.259 C  
HETATM    2  C   UNK     1      -9.821   8.204  66.981  1.00  0.00    -0.299 C  
ENDROOT
BRANCH   2   3
HETATM    3  C   UNK     1      -8.933   8.551  68.172  1.00  0.00    -0.142 C  
BRANCH   3   4
HETATM    4  C   UNK     1      -9.367   9.844  68.811  1.00  0.00    -0.157 C  
HETATM    5  O   UNK     1      -8.619  10.787  69.031  1.00  0.00    -0.163 OA 
BRANCH   4   6
HETATM    6  O   UNK     1     -10.682   9.799  69.131  1.00  0.00    -0.212 OA 
BRANCH   6   7
HETATM    7  C   UNK     1     -11.155  10.557  70.270  1.00  0.00    -0.285 C  
BRANCH   7   8
HETATM    8  C   UNK     1     -12.280  11.538  69.915  1.00  0.00    -0.258 C  
BRANCH   8   9
HETATM    9  O   UNK     1     -11.858  12.893  70.070  1.00  0.00    -0.326 OA 
BRANCH   9  10
HETATM   10  P   UNK     1     -11.846  13.787  68.588  1.00  0.00    -0.344 P  
HETATM   11  O   UNK     1     -11.972  15.210  69.384  1.00  0.00    -0.313 OA 
HETATM   12  O   UNK     1     -10.353  13.489  68.432  1.00  0.00    -0.238 OA 
BRANCH  10  13
HETATM   13  O   UNK     1     -11.833  14.680  67.107  1.00  0.00    -0.391 OA 
BRANCH  13  14
HETATM   14  C   UNK     1     -12.464  13.970  66.032  1.00  0.00    -0.455 C  
BRANCH  14  15
HETATM   15  C   UNK     1     -11.597  13.985  64.772  1.00  0.00    -0.381 C  
HETATM   16  N   UNK     1     -12.381  14.223  63.524  1.00  0.00    -1.122 NA 
HETATM   17  C   UNK     1     -10.906  12.628  64.665  1.00  0.00    -0.319 C  
HETATM   18  O   UNK     1     -11.551  11.813  63.788  1.00  0.00    -0.414 OA 
HETATM   19  O   UNK     1      -9.932  12.286  65.317  1.00  0.00    -0.262 OA 
HETATM   20  H1  UNK     1     -11.802  14.233  62.684  1.00  0.00     0.000 HD 
HETATM   21  H2  UNK     1     -12.931  15.078  63.598  1.00  0.00     0.000 HD 
ENDBRANCH  14  15
ENDBRANCH  13  14
ENDBRANCH  10  13
ENDBRANCH   9  10
ENDBRANCH   8   9
ENDBRANCH   7   8
BRANCH   7  22
HETATM   22  C   UNK     1     -11.551   9.637  71.440  1.00  0.00    -0.400 C  
BRANCH  22  23
HETATM   23  O   UNK     1     -10.479   8.747  71.803  1.00  0.00    -0.290 OA 
BRANCH  23  24
HETATM   24  C   UNK     1     -10.855   7.458  72.030  1.00  0.00    -0.227 C  
HETATM   25  O   UNK     1     -11.526   7.087  72.978  1.00  0.00    -0.191 OA 
BRANCH  24  26
HETATM   26  C   UNK     1     -10.331   6.572  70.924  1.00  0.00    -0.243 C  
HETATM   27  C   UNK     1     -11.404   6.293  69.886  1.00  0.00    -0.504 C  
ENDBRANCH  24  26
ENDBRANCH  23  24
ENDBRANCH  22  23
ENDBRANCH   7  22
ENDBRANCH   6   7
ENDBRANCH   4   6
ENDBRANCH   3   4
ENDBRANCH   2   3
TORSDOF 14
ENDMDL
MODEL       86
REMARK 921   NORMALIZED FREE ENERGY PREDICTED BY IDOCK:   -4.76 KCAL/MOL
REMARK 922        TOTAL FREE ENERGY PREDICTED BY IDOCK:   -9.74 KCAL/MOL
REMARK 923 INTER-LIGAND FREE ENERGY PREDICTED BY IDOCK:   -8.52 KCAL/MOL
REMARK 924 INTRA-LIGAND FREE ENERGY PREDICTED BY IDOCK:   -1.22 KCAL/MOL
REMARK 927      BINDING AFFINITY PREDICTED BY RF-SCORE:    0.00 PKD
ROOT
HETATM    1  C   UNK     1      -8.427  20.238  67.414  1.00  0.00    -0.405 C  
HETATM    2  C   UNK     1      -9.249  19.410  66.436  1.00  0.00    -0.403 C  
ENDROOT
BRANCH   2   3
HETATM    3  C   UNK     1     -10.490  18.805  67.083  1.00  0.00    -0.484 C  
BRANCH   3   4
HETATM    4  C   UNK     1     -10.185  17.455  67.679  1.00  0.00    -0.342 C  
HETATM    5  O   UNK     1     -10.700  17.022  68.701  1.00  0.00    -0.345 OA 
BRANCH   4   6
HETATM    6  O   UNK     1      -9.246  16.812  66.944  1.00  0.00    -0.218 OA 
BRANCH   6   7
HETATM    7  C   UNK     1      -9.629  15.644  66.181  1.00  0.00    -0.330 C  
BRANCH   7   8
HETATM    8  C   UNK     1      -9.227  14.325  66.854  1.00  0.00    -0.254 C  
BRANCH   8   9
HETATM    9  O   UNK     1     -10.328  13.738  67.549  1.00  0.00    -0.239 OA 
BRANCH   9  10
HETATM   10  P   UNK     1     -10.337  12.009  67.494  1.00  0.00    -0.208 P  
HETATM   11  O   UNK     1     -11.970  11.962  67.572  1.00  0.00    -0.586 OA 
HETATM   12  O   UNK     1      -9.958  12.063  66.012  1.00  0.00    -0.223 OA 
BRANCH  10  13
HETATM   13  O   UNK     1     -10.347  10.280  67.438  1.00  0.00    -0.204 OA 
BRANCH  13  14
HETATM   14  C   UNK     1      -9.667   9.691  68.557  1.00  0.00    -0.150 C  
BRANCH  14  15
HETATM   15  C   UNK     1     -10.634   8.902  69.441  1.00  0.00    -0.217 C  
HETATM   16  N   UNK     1     -11.795   9.715  69.910  1.00  0.00    -0.450 NA 
HETATM   17  C   UNK     1      -9.857   8.411  70.660  1.00  0.00    -0.181 C  
HETATM   18  O   UNK     1     -10.073   9.210  71.738  1.00  0.00    -0.329 OA 
HETATM   19  O   UNK     1      -9.094   7.458  70.665  1.00  0.00    -0.155 OA 
HETATM   20  H1  UNK     1     -12.440   9.188  70.499  1.00  0.00     0.000 HD 
HETATM   21  H2  UNK     1     -12.285  10.137  69.122  1.00  0.00     0.000 HD 
ENDBRANCH  14  15
ENDBRANCH  13  14
ENDBRANCH  10  13
ENDBRANCH   9  10
ENDBRANCH   8   9
ENDBRANCH   7   8
BRANCH   7  22
HETATM   22  C   UNK     1     -11.126  15.665  65.822  1.00  0.00    -0.173 C  
BRANCH  22  23
HETATM   23  O   UNK     1     -11.368  15.111  64.515  1.00  0.00    -0.357 OA 
BRANCH  23  24
HETATM   24  C   UNK     1     -12.276  14.096  64.480  1.00  0.00    -0.445 C  
HETATM   25  O   UNK     1     -13.230  13.991  65.232  1.00  0.00    -0.782 OA 
BRANCH  24  26
HETATM   26  C   UNK     1     -11.931  13.143  63.360  1.00  0.00    -0.552 C  
HETATM   27  C   UNK     1     -12.598  11.794  63.558  1.00  0.00    -0.485 C  
ENDBRANCH  24  26
ENDBRANCH  23  24
ENDBRANCH  22  23
ENDBRANCH   7  22
ENDBRANCH   6   7
ENDBRANCH   4   6
ENDBRANCH   3   4
ENDBRANCH   2   3
TORSDOF 14
ENDMDL
MODEL       87
REMARK 921   NORMALIZED FREE ENERGY PREDICTED BY IDOCK:   -4.75 KCAL/MOL
REMARK 922        TOTAL FREE ENERGY PREDICTED BY IDOCK:   -9.73 KCAL/MOL
REMARK 923 INTER-LIGAND FREE ENERGY PREDICTED BY IDOCK:   -8.52 KCAL/MOL
REMARK 924 INTRA-LIGAND FREE ENERGY PREDICTED BY IDOCK:   -1.21 KCAL/MOL
REMARK 927      BINDING AFFINITY PREDICTED BY RF-SCORE:    0.00 PKD
ROOT
HETATM    1  C   UNK     1      -9.484   8.330  66.506  1.00  0.00    -0.284 C  
HETATM    2  C   UNK     1     -10.598   9.237  67.012  1.00  0.00    -0.263 C  
ENDROOT
BRANCH   2   3
HETATM    3  C   UNK     1     -10.164  10.696  67.109  1.00  0.00    -0.261 C  
BRANCH   3   4
HETATM    4  C   UNK     1     -11.224  11.613  66.556  1.00  0.00    -0.294 C  
HETATM    5  O   UNK     1     -11.325  11.912  65.374  1.00  0.00    -0.323 OA 
BRANCH   4   6
HETATM    6  O   UNK     1     -12.019  12.076  67.551  1.00  0.00    -0.572 OA 
BRANCH   6   7
HETATM    7  C   UNK     1     -11.413  12.757  68.675  1.00  0.00    -0.303 C  
BRANCH   7   8
HETATM    8  C   UNK     1     -11.360  14.280  68.500  1.00  0.00    -0.282 C  
BRANCH   8   9
HETATM    9  O   UNK     1     -11.690  14.662  67.164  1.00  0.00    -0.378 OA 
BRANCH   9  10
HETATM   10  P   UNK     1     -10.535  15.732  66.445  1.00  0.00    -0.291 P  
HETATM   11  O   UNK     1     -10.543  16.707  67.758  1.00  0.00    -0.325 OA 
HETATM   12  O   UNK     1      -9.442  14.685  66.668  1.00  0.00    -0.251 OA 
BRANCH  10  13
HETATM   13  O   UNK     1      -9.380  16.801  65.727  1.00  0.00    -0.515 OA 
BRANCH  13  14
HETATM   14  C   UNK     1      -9.113  17.950  66.544  1.00  0.00    -0.261 C  
BRANCH  14  15
HETATM   15  C   UNK     1      -7.630  18.038  66.909  1.00  0.00    -0.213 C  
HETATM   16  N   UNK     1      -6.895  16.758  66.687  1.00  0.00    -0.229 NA 
HETATM   17  C   UNK     1      -7.534  18.407  68.387  1.00  0.00    -0.286 C  
HETATM   18  O   UNK     1      -7.299  17.310  69.156  1.00  0.00    -0.236 OA 
HETATM   19  O   UNK     1      -7.700  19.529  68.839  1.00  0.00    -0.358 OA 
HETATM   20  H1  UNK     1      -5.906  16.817  66.930  1.00  0.00     0.000 HD 
HETATM   21  H2  UNK     1      -7.015  16.431  65.728  1.00  0.00     0.000 HD 
ENDBRANCH  14  15
ENDBRANCH  13  14
ENDBRANCH  10  13
ENDBRANCH   9  10
ENDBRANCH   8   9
ENDBRANCH   7   8
BRANCH   7  22
HETATM   22  C   UNK     1     -12.079  12.361  70.006  1.00  0.00    -0.263 C  
BRANCH  22  23
HETATM   23  O   UNK     1     -12.164  13.478  70.910  1.00  0.00    -0.351 OA 
BRANCH  23  24
HETATM   24  C   UNK     1     -13.193  13.419  71.801  1.00  0.00    -0.407 C  
HETATM   25  O   UNK     1     -13.638  12.391  72.282  1.00  0.00    -0.504 OA 
BRANCH  24  26
HETATM   26  C   UNK     1     -13.679  14.816  72.110  1.00  0.00    -0.543 C  
HETATM   27  C   UNK     1     -12.543  15.821  72.052  1.00  0.00    -0.524 C  
ENDBRANCH  24  26
ENDBRANCH  23  24
ENDBRANCH  22  23
ENDBRANCH   7  22
ENDBRANCH   6   7
ENDBRANCH   4   6
ENDBRANCH   3   4
ENDBRANCH   2   3
TORSDOF 14
ENDMDL
MODEL       88
REMARK 921   NORMALIZED FREE ENERGY PREDICTED BY IDOCK:   -4.74 KCAL/MOL
REMARK 922        TOTAL FREE ENERGY PREDICTED BY IDOCK:   -9.72 KCAL/MOL
REMARK 923 INTER-LIGAND FREE ENERGY PREDICTED BY IDOCK:   -8.76 KCAL/MOL
REMARK 924 INTRA-LIGAND FREE ENERGY PREDICTED BY IDOCK:   -0.96 KCAL/MOL
REMARK 927      BINDING AFFINITY PREDICTED BY RF-SCORE:    0.00 PKD
ROOT
HETATM    1  C   UNK     1      -9.273   4.760  66.436  1.00  0.00    -0.135 C  
HETATM    2  C   UNK     1     -10.709   5.044  66.856  1.00  0.00    -0.072 C  
ENDROOT
BRANCH   2   3
HETATM    3  C   UNK     1     -10.935   6.510  67.213  1.00  0.00    -0.475 C  
BRANCH   3   4
HETATM    4  C   UNK     1     -10.766   6.737  68.693  1.00  0.00    -0.234 C  
HETATM    5  O   UNK     1     -11.621   6.479  69.530  1.00  0.00    -0.357 OA 
BRANCH   4   6
HETATM    6  O   UNK     1      -9.557   7.291  68.955  1.00  0.00    -0.144 OA 
BRANCH   6   7
HETATM    7  C   UNK     1      -9.503   8.598  69.573  1.00  0.00    -0.162 C  
BRANCH   7   8
HETATM    8  C   UNK     1     -10.377   9.639  68.861  1.00  0.00    -0.203 C  
BRANCH   8   9
HETATM    9  O   UNK     1      -9.876   9.936  67.557  1.00  0.00    -0.158 OA 
BRANCH   9  10
HETATM   10  P   UNK     1     -10.175  11.564  67.056  1.00  0.00    -0.228 P  
HETATM   11  O   UNK     1     -11.794  11.344  67.121  1.00  0.00    -0.566 OA 
HETATM   12  O   UNK     1      -9.732  12.060  68.434  1.00  0.00    -0.208 OA 
BRANCH  10  13
HETATM   13  O   UNK     1     -10.473  13.193  66.555  1.00  0.00    -0.273 OA 
BRANCH  13  14
HETATM   14  C   UNK     1     -11.740  13.342  65.897  1.00  0.00    -0.365 C  
BRANCH  14  15
HETATM   15  C   UNK     1     -11.561  13.697  64.420  1.00  0.00    -0.393 C  
HETATM   16  N   UNK     1     -12.519  14.739  63.948  1.00  0.00    -1.049 NA 
HETATM   17  C   UNK     1     -11.780  12.425  63.605  1.00  0.00    -0.514 C  
HETATM   18  O   UNK     1     -13.035  12.383  63.083  1.00  0.00    -0.602 OA 
HETATM   19  O   UNK     1     -10.963  11.527  63.477  1.00  0.00    -0.399 OA 
HETATM   20  H1  UNK     1     -12.399  14.975  62.963  1.00  0.00     0.000 HD 
HETATM   21  H2  UNK     1     -12.465  15.573  64.531  1.00  0.00     0.000 HD 
ENDBRANCH  14  15
ENDBRANCH  13  14
ENDBRANCH  10  13
ENDBRANCH   9  10
ENDBRANCH   8   9
ENDBRANCH   7   8
BRANCH   7  22
HETATM   22  C   UNK     1      -9.816   8.528  71.079  1.00  0.00    -0.195 C  
BRANCH  22  23
HETATM   23  O   UNK     1     -10.910   9.394  71.436  1.00  0.00    -0.336 OA 
BRANCH  23  24
HETATM   24  C   UNK     1     -11.955   8.776  72.053  1.00  0.00    -0.376 C  
HETATM   25  O   UNK     1     -11.849   7.846  72.834  1.00  0.00    -0.307 OA 
BRANCH  24  26
HETATM   26  C   UNK     1     -13.252   9.432  71.638  1.00  0.00    -0.470 C  
HETATM   27  C   UNK     1     -13.132  10.945  71.647  1.00  0.00    -0.538 C  
ENDBRANCH  24  26
ENDBRANCH  23  24
ENDBRANCH  22  23
ENDBRANCH   7  22
ENDBRANCH   6   7
ENDBRANCH   4   6
ENDBRANCH   3   4
ENDBRANCH   2   3
TORSDOF 14
ENDMDL
MODEL       89
REMARK 921   NORMALIZED FREE ENERGY PREDICTED BY IDOCK:   -4.74 KCAL/MOL
REMARK 922        TOTAL FREE ENERGY PREDICTED BY IDOCK:   -9.70 KCAL/MOL
REMARK 923 INTER-LIGAND FREE ENERGY PREDICTED BY IDOCK:   -8.95 KCAL/MOL
REMARK 924 INTRA-LIGAND FREE ENERGY PREDICTED BY IDOCK:   -0.75 KCAL/MOL
REMARK 927      BINDING AFFINITY PREDICTED BY RF-SCORE:    0.00 PKD
ROOT
HETATM    1  C   UNK     1      -9.126   9.597  69.965  1.00  0.00    -0.269 C  
HETATM    2  C   UNK     1     -10.600   9.817  69.655  1.00  0.00    -0.260 C  
ENDROOT
BRANCH   2   3
HETATM    3  C   UNK     1     -11.054  11.241  69.959  1.00  0.00    -0.114 C  
BRANCH   3   4
HETATM    4  C   UNK     1     -11.373  11.989  68.691  1.00  0.00    -0.277 C  
HETATM    5  O   UNK     1     -12.256  11.667  67.907  1.00  0.00    -0.560 OA 
BRANCH   4   6
HETATM    6  O   UNK     1     -10.529  13.036  68.531  1.00  0.00    -0.249 OA 
BRANCH   6   7
HETATM    7  C   UNK     1     -11.043  14.381  68.676  1.00  0.00    -0.251 C  
BRANCH   7   8
HETATM    8  C   UNK     1     -11.585  14.964  67.364  1.00  0.00    -0.332 C  
BRANCH   8   9
HETATM    9  O   UNK     1     -10.696  14.713  66.275  1.00  0.00    -0.303 OA 
BRANCH   9  10
HETATM   10  P   UNK     1     -11.435  13.868  64.959  1.00  0.00    -0.380 P  
HETATM   11  O   UNK     1     -12.845  13.723  65.774  1.00  0.00    -0.482 OA 
HETATM   12  O   UNK     1     -11.502  15.177  64.169  1.00  0.00    -0.176 OA 
BRANCH  10  13
HETATM   13  O   UNK     1     -12.174  13.023  63.642  1.00  0.00    -0.552 OA 
BRANCH  13  14
HETATM   14  C   UNK     1     -11.525  11.775  63.358  1.00  0.00    -0.327 C  
BRANCH  14  15
HETATM   15  C   UNK     1     -10.067  11.789  63.820  1.00  0.00    -0.391 C  
HETATM   16  N   UNK     1      -9.097  11.931  62.695  1.00  0.00    -0.406 NA 
HETATM   17  C   UNK     1      -9.793  10.471  64.539  1.00  0.00    -0.337 C  
HETATM   18  O   UNK     1      -9.161   9.586  63.723  1.00  0.00    -0.209 OA 
HETATM   19  O   UNK     1     -10.140  10.212  65.681  1.00  0.00    -0.271 OA 
HETATM   20  H1  UNK     1      -8.125  11.941  63.003  1.00  0.00     0.000 HD 
HETATM   21  H2  UNK     1      -9.309  12.756  62.134  1.00  0.00     0.000 HD 
ENDBRANCH  14  15
ENDBRANCH  13  14
ENDBRANCH  10  13
ENDBRANCH   9  10
ENDBRANCH   8   9
ENDBRANCH   7   8
BRANCH   7  22
HETATM   22  C   UNK     1     -12.080  14.475  69.810  1.00  0.00    -0.331 C  
BRANCH  22  23
HETATM   23  O   UNK     1     -11.465  14.819  71.066  1.00  0.00    -0.286 OA 
BRANCH  23  24
HETATM   24  C   UNK     1     -12.259  15.520  71.922  1.00  0.00    -0.401 C  
HETATM   25  O   UNK     1     -11.880  16.443  72.622  1.00  0.00    -0.533 OA 
BRANCH  24  26
HETATM   26  C   UNK     1     -13.674  14.994  71.851  1.00  0.00    -0.548 C  
HETATM   27  C   UNK     1     -13.767  13.587  72.412  1.00  0.00    -0.704 C  
ENDBRANCH  24  26
ENDBRANCH  23  24
ENDBRANCH  22  23
ENDBRANCH   7  22
ENDBRANCH   6   7
ENDBRANCH   4   6
ENDBRANCH   3   4
ENDBRANCH   2   3
TORSDOF 14
ENDMDL
MODEL       90
REMARK 921   NORMALIZED FREE ENERGY PREDICTED BY IDOCK:   -4.73 KCAL/MOL
REMARK 922        TOTAL FREE ENERGY PREDICTED BY IDOCK:   -9.70 KCAL/MOL
REMARK 923 INTER-LIGAND FREE ENERGY PREDICTED BY IDOCK:   -8.54 KCAL/MOL
REMARK 924 INTRA-LIGAND FREE ENERGY PREDICTED BY IDOCK:   -1.16 KCAL/MOL
REMARK 927      BINDING AFFINITY PREDICTED BY RF-SCORE:    0.00 PKD
ROOT
HETATM    1  C   UNK     1      -9.450  20.523  67.191  1.00  0.00    -0.544 C  
HETATM    2  C   UNK     1     -10.388  19.332  67.332  1.00  0.00    -0.540 C  
ENDROOT
BRANCH   2   3
HETATM    3  C   UNK     1     -10.116  18.521  68.595  1.00  0.00    -0.406 C  
BRANCH   3   4
HETATM    4  C   UNK     1     -10.471  17.071  68.392  1.00  0.00    -0.370 C  
HETATM    5  O   UNK     1     -10.468  16.231  69.282  1.00  0.00    -0.244 OA 
BRANCH   4   6
HETATM    6  O   UNK     1     -10.760  16.829  67.090  1.00  0.00    -0.287 OA 
BRANCH   6   7
HETATM    7  C   UNK     1     -10.239  15.632  66.465  1.00  0.00    -0.283 C  
BRANCH   7   8
HETATM    8  C   UNK     1     -10.977  15.258  65.173  1.00  0.00    -0.416 C  
BRANCH   8   9
HETATM    9  O   UNK     1     -10.905  13.854  64.920  1.00  0.00    -0.358 OA 
BRANCH   9  10
HETATM   10  P   UNK     1     -11.496  12.885  66.226  1.00  0.00    -0.388 P  
HETATM   11  O   UNK     1     -12.723  12.308  65.313  1.00  0.00    -0.543 OA 
HETATM   12  O   UNK     1     -10.312  11.934  66.043  1.00  0.00    -0.220 OA 
BRANCH  10  13
HETATM   13  O   UNK     1     -12.086  11.916  67.532  1.00  0.00    -0.573 OA 
BRANCH  13  14
HETATM   14  C   UNK     1     -11.276  10.755  67.765  1.00  0.00    -0.316 C  
BRANCH  14  15
HETATM   15  C   UNK     1     -10.962  10.587  69.252  1.00  0.00    -0.244 C  
HETATM   16  N   UNK     1     -10.981   9.162  69.697  1.00  0.00    -0.363 NA 
HETATM   17  C   UNK     1     -12.015  11.360  70.042  1.00  0.00    -0.363 C  
HETATM   18  O   UNK     1     -12.987  10.533  70.510  1.00  0.00    -0.345 OA 
HETATM   19  O   UNK     1     -12.025  12.572  70.193  1.00  0.00    -0.347 OA 
HETATM   20  H1  UNK     1     -10.771   9.050  70.689  1.00  0.00     0.000 HD 
HETATM   21  H2  UNK     1     -10.354   8.595  69.127  1.00  0.00     0.000 HD 
ENDBRANCH  14  15
ENDBRANCH  13  14
ENDBRANCH  10  13
ENDBRANCH   9  10
ENDBRANCH   8   9
ENDBRANCH   7   8
BRANCH   7  22
HETATM   22  C   UNK     1      -8.718  15.721  66.245  1.00  0.00    -0.323 C  
BRANCH  22  23
HETATM   23  O   UNK     1      -8.005  14.788  67.078  1.00  0.00    -0.200 OA 
BRANCH  23  24
HETATM   24  C   UNK     1      -6.808  15.236  67.549  1.00  0.00    -0.189 C  
HETATM   25  O   UNK     1      -5.794  14.563  67.621  1.00  0.00    -0.298 OA 
BRANCH  24  26
HETATM   26  C   UNK     1      -6.927  16.690  67.944  1.00  0.00    -0.157 C  
HETATM   27  C   UNK     1      -6.184  16.972  69.237  1.00  0.00    -0.222 C  
ENDBRANCH  24  26
ENDBRANCH  23  24
ENDBRANCH  22  23
ENDBRANCH   7  22
ENDBRANCH   6   7
ENDBRANCH   4   6
ENDBRANCH   3   4
ENDBRANCH   2   3
TORSDOF 14
ENDMDL
MODEL       91
REMARK 921   NORMALIZED FREE ENERGY PREDICTED BY IDOCK:   -4.73 KCAL/MOL
REMARK 922        TOTAL FREE ENERGY PREDICTED BY IDOCK:   -9.69 KCAL/MOL
REMARK 923 INTER-LIGAND FREE ENERGY PREDICTED BY IDOCK:   -8.57 KCAL/MOL
REMARK 924 INTRA-LIGAND FREE ENERGY PREDICTED BY IDOCK:   -1.12 KCAL/MOL
REMARK 927      BINDING AFFINITY PREDICTED BY RF-SCORE:    0.00 PKD
ROOT
HETATM    1  C   UNK     1      -9.231   7.385  66.570  1.00  0.00    -0.206 C  
HETATM    2  C   UNK     1     -10.484   8.208  66.833  1.00  0.00    -0.379 C  
ENDROOT
BRANCH   2   3
HETATM    3  C   UNK     1     -10.184   9.506  67.576  1.00  0.00    -0.283 C  
BRANCH   3   4
HETATM    4  C   UNK     1     -10.807  10.686  66.875  1.00  0.00    -0.205 C  
HETATM    5  O   UNK     1     -10.439  11.112  65.789  1.00  0.00    -0.249 OA 
BRANCH   4   6
HETATM    6  O   UNK     1     -11.799  11.218  67.629  1.00  0.00    -0.614 OA 
BRANCH   6   7
HETATM    7  C   UNK     1     -11.463  12.183  68.653  1.00  0.00    -0.296 C  
BRANCH   7   8
HETATM    8  C   UNK     1     -11.844  13.621  68.275  1.00  0.00    -0.369 C  
BRANCH   8   9
HETATM    9  O   UNK     1     -11.975  13.770  66.860  1.00  0.00    -0.388 OA 
BRANCH   9  10
HETATM   10  P   UNK     1     -11.025  15.061  66.210  1.00  0.00    -0.303 P  
HETATM   11  O   UNK     1     -11.210  15.952  67.569  1.00  0.00    -0.279 OA 
HETATM   12  O   UNK     1      -9.764  14.214  66.394  1.00  0.00    -0.278 OA 
BRANCH  10  13
HETATM   13  O   UNK     1     -10.075  16.353  65.560  1.00  0.00    -0.508 OA 
BRANCH  13  14
HETATM   14  C   UNK     1     -10.407  17.624  66.138  1.00  0.00    -0.334 C  
BRANCH  14  15
HETATM   15  C   UNK     1      -9.158  18.482  66.346  1.00  0.00    -0.269 C  
HETATM   16  N   UNK     1      -7.916  17.845  65.819  1.00  0.00    -0.537 NA 
HETATM   17  C   UNK     1      -8.993  18.707  67.847  1.00  0.00    -0.287 C  
HETATM   18  O   UNK     1      -8.072  17.858  68.376  1.00  0.00    -0.282 OA 
HETATM   19  O   UNK     1      -9.637  19.505  68.509  1.00  0.00    -0.358 OA 
HETATM   20  H1  UNK     1      -7.083  18.418  65.958  1.00  0.00     0.000 HD 
HETATM   21  H2  UNK     1      -8.025  17.594  64.836  1.00  0.00     0.000 HD 
ENDBRANCH  14  15
ENDBRANCH  13  14
ENDBRANCH  10  13
ENDBRANCH   9  10
ENDBRANCH   8   9
ENDBRANCH   7   8
BRANCH   7  22
HETATM   22  C   UNK     1     -12.042  11.784  70.023  1.00  0.00    -0.310 C  
BRANCH  22  23
HETATM   23  O   UNK     1     -12.086  10.354  70.186  1.00  0.00    -0.275 OA 
BRANCH  23  24
HETATM   24  C   UNK     1     -12.266   9.927  71.466  1.00  0.00    -0.416 C  
HETATM   25  O   UNK     1     -13.196  10.253  72.183  1.00  0.00    -0.452 OA 
BRANCH  24  26
HETATM   26  C   UNK     1     -11.154   8.977  71.847  1.00  0.00    -0.433 C  
HETATM   27  C   UNK     1     -11.006   7.863  70.827  1.00  0.00    -0.259 C  
ENDBRANCH  24  26
ENDBRANCH  23  24
ENDBRANCH  22  23
ENDBRANCH   7  22
ENDBRANCH   6   7
ENDBRANCH   4   6
ENDBRANCH   3   4
ENDBRANCH   2   3
TORSDOF 14
ENDMDL
MODEL       92
REMARK 921   NORMALIZED FREE ENERGY PREDICTED BY IDOCK:   -4.72 KCAL/MOL
REMARK 922        TOTAL FREE ENERGY PREDICTED BY IDOCK:   -9.68 KCAL/MOL
REMARK 923 INTER-LIGAND FREE ENERGY PREDICTED BY IDOCK:   -8.18 KCAL/MOL
REMARK 924 INTRA-LIGAND FREE ENERGY PREDICTED BY IDOCK:   -1.50 KCAL/MOL
REMARK 927      BINDING AFFINITY PREDICTED BY RF-SCORE:    0.00 PKD
ROOT
HETATM    1  C   UNK     1     -12.990  10.378  71.685  1.00  0.00    -0.581 C  
HETATM    2  C   UNK     1     -12.948   8.974  72.272  1.00  0.00    -0.490 C  
ENDROOT
BRANCH   2   3
HETATM    3  C   UNK     1     -12.138   8.006  71.415  1.00  0.00    -0.332 C  
BRANCH   3   4
HETATM    4  C   UNK     1     -10.665   8.122  71.715  1.00  0.00    -0.251 C  
HETATM    5  O   UNK     1     -10.193   8.132  72.843  1.00  0.00    -0.307 OA 
BRANCH   4   6
HETATM    6  O   UNK     1      -9.955   8.244  70.568  1.00  0.00    -0.182 OA 
BRANCH   6   7
HETATM    7  C   UNK     1     -10.654   8.547  69.337  1.00  0.00    -0.195 C  
BRANCH   7   8
HETATM    8  C   UNK     1     -10.427   9.986  68.854  1.00  0.00    -0.210 C  
BRANCH   8   9
HETATM    9  O   UNK     1      -9.642  10.017  67.661  1.00  0.00    -0.146 OA 
BRANCH   9  10
HETATM   10  P   UNK     1     -10.158  11.215  66.525  1.00  0.00    -0.239 P  
HETATM   11  O   UNK     1     -10.129  10.137  65.295  1.00  0.00    -0.319 OA 
HETATM   12  O   UNK     1     -11.562  11.171  67.130  1.00  0.00    -0.495 OA 
BRANCH  10  13
HETATM   13  O   UNK     1     -10.674  12.413  65.388  1.00  0.00    -0.268 OA 
BRANCH  13  14
HETATM   14  C   UNK     1     -10.441  13.750  65.855  1.00  0.00    -0.297 C  
BRANCH  14  15
HETATM   15  C   UNK     1     -11.727  14.577  65.835  1.00  0.00    -0.345 C  
HETATM   16  N   UNK     1     -12.961  13.743  65.924  1.00  0.00    -0.389 NA 
HETATM   17  C   UNK     1     -11.758  15.359  64.525  1.00  0.00    -0.277 C  
HETATM   18  O   UNK     1     -12.550  14.748  63.604  1.00  0.00    -0.749 OA 
HETATM   19  O   UNK     1     -11.116  16.374  64.300  1.00  0.00    -0.845 OA 
HETATM   20  H1  UNK     1     -13.819  14.295  65.911  1.00  0.00     0.000 HD 
HETATM   21  H2  UNK     1     -12.932  13.136  66.743  1.00  0.00     0.000 HD 
ENDBRANCH  14  15
ENDBRANCH  13  14
ENDBRANCH  10  13
ENDBRANCH   9  10
ENDBRANCH   8   9
ENDBRANCH   7   8
BRANCH   7  22
HETATM   22  C   UNK     1     -10.335   7.521  68.235  1.00  0.00    -0.195 C  
BRANCH  22  23
HETATM   23  O   UNK     1     -11.043   6.284  68.439  1.00  0.00    -0.323 OA 
BRANCH  23  24
HETATM   24  C   UNK     1     -10.251   5.189  68.606  1.00  0.00    -0.122 C  
HETATM   25  O   UNK     1      -9.738   4.557  67.698  1.00  0.00    -0.165 OA 
BRANCH  24  26
HETATM   26  C   UNK     1     -10.092   4.895  70.080  1.00  0.00    -0.337 C  
HETATM   27  C   UNK     1      -8.641   5.011  70.511  1.00  0.00    -0.121 C  
ENDBRANCH  24  26
ENDBRANCH  23  24
ENDBRANCH  22  23
ENDBRANCH   7  22
ENDBRANCH   6   7
ENDBRANCH   4   6
ENDBRANCH   3   4
ENDBRANCH   2   3
TORSDOF 14
ENDMDL
MODEL       93
REMARK 921   NORMALIZED FREE ENERGY PREDICTED BY IDOCK:   -4.70 KCAL/MOL
REMARK 922        TOTAL FREE ENERGY PREDICTED BY IDOCK:   -9.63 KCAL/MOL
REMARK 923 INTER-LIGAND FREE ENERGY PREDICTED BY IDOCK:   -8.60 KCAL/MOL
REMARK 924 INTRA-LIGAND FREE ENERGY PREDICTED BY IDOCK:   -1.03 KCAL/MOL
REMARK 927      BINDING AFFINITY PREDICTED BY RF-SCORE:    0.00 PKD
ROOT
HETATM    1  C   UNK     1     -13.959   7.726  71.414  1.00  0.00    -0.416 C  
HETATM    2  C   UNK     1     -12.510   7.312  71.631  1.00  0.00    -0.394 C  
ENDROOT
BRANCH   2   3
HETATM    3  C   UNK     1     -11.684   8.404  72.302  1.00  0.00    -0.453 C  
BRANCH   3   4
HETATM    4  C   UNK     1     -10.601   8.905  71.382  1.00  0.00    -0.303 C  
HETATM    5  O   UNK     1      -9.445   9.108  71.728  1.00  0.00    -0.312 OA 
BRANCH   4   6
HETATM    6  O   UNK     1     -11.096   9.124  70.140  1.00  0.00    -0.241 OA 
BRANCH   6   7
HETATM    7  C   UNK     1     -11.068  10.467  69.600  1.00  0.00    -0.276 C  
BRANCH   7   8
HETATM    8  C   UNK     1     -10.683  10.511  68.115  1.00  0.00    -0.233 C  
BRANCH   8   9
HETATM    9  O   UNK     1      -9.562  11.367  67.893  1.00  0.00    -0.168 OA 
BRANCH   9  10
HETATM   10  P   UNK     1      -9.854  12.597  66.713  1.00  0.00    -0.245 P  
HETATM   11  O   UNK     1      -8.551  13.454  67.205  1.00  0.00    -0.204 OA 
HETATM   12  O   UNK     1      -9.379  11.644  65.615  1.00  0.00    -0.225 OA 
BRANCH  10  13
HETATM   13  O   UNK     1     -10.147  13.828  65.532  1.00  0.00    -0.302 OA 
BRANCH  13  14
HETATM   14  C   UNK     1     -11.507  14.283  65.540  1.00  0.00    -0.329 C  
BRANCH  14  15
HETATM   15  C   UNK     1     -11.583  15.806  65.413  1.00  0.00     0.219 C  
HETATM   16  N   UNK     1     -11.502  16.281  64.001  1.00  0.00    -1.521 NA 
HETATM   17  C   UNK     1     -10.414  16.398  66.196  1.00  0.00    -0.314 C  
HETATM   18  O   UNK     1      -9.385  16.730  65.372  1.00  0.00    -0.343 OA 
HETATM   19  O   UNK     1     -10.374  16.513  67.411  1.00  0.00    -0.279 OA 
HETATM   20  H1  UNK     1     -11.552  17.296  63.917  1.00  0.00     0.000 HD 
HETATM   21  H2  UNK     1     -12.214  15.832  63.425  1.00  0.00     0.000 HD 
ENDBRANCH  14  15
ENDBRANCH  13  14
ENDBRANCH  10  13
ENDBRANCH   9  10
ENDBRANCH   8   9
ENDBRANCH   7   8
BRANCH   7  22
HETATM   22  C   UNK     1     -12.388  11.214  69.866  1.00  0.00    -0.261 C  
BRANCH  22  23
HETATM   23  O   UNK     1     -12.292  12.066  71.023  1.00  0.00    -0.346 OA 
BRANCH  23  24
HETATM   24  C   UNK     1     -12.396  13.400  70.765  1.00  0.00    -0.354 C  
HETATM   25  O   UNK     1     -11.937  13.955  69.782  1.00  0.00    -0.298 OA 
BRANCH  24  26
HETATM   26  C   UNK     1     -13.180  14.072  71.868  1.00  0.00    -0.477 C  
HETATM   27  C   UNK     1     -12.918  15.567  71.898  1.00  0.00    -0.522 C  
ENDBRANCH  24  26
ENDBRANCH  23  24
ENDBRANCH  22  23
ENDBRANCH   7  22
ENDBRANCH   6   7
ENDBRANCH   4   6
ENDBRANCH   3   4
ENDBRANCH   2   3
TORSDOF 14
ENDMDL
MODEL       94
REMARK 921   NORMALIZED FREE ENERGY PREDICTED BY IDOCK:   -4.69 KCAL/MOL
REMARK 922        TOTAL FREE ENERGY PREDICTED BY IDOCK:   -9.62 KCAL/MOL
REMARK 923 INTER-LIGAND FREE ENERGY PREDICTED BY IDOCK:   -8.69 KCAL/MOL
REMARK 924 INTRA-LIGAND FREE ENERGY PREDICTED BY IDOCK:   -0.93 KCAL/MOL
REMARK 927      BINDING AFFINITY PREDICTED BY RF-SCORE:    0.00 PKD
ROOT
HETATM    1  C   UNK     1     -14.262   7.459  71.643  1.00  0.00    -0.583 C  
HETATM    2  C   UNK     1     -13.925   8.845  72.174  1.00  0.00    -0.520 C  
ENDROOT
BRANCH   2   3
HETATM    3  C   UNK     1     -12.435   9.160  72.080  1.00  0.00    -0.436 C  
BRANCH   3   4
HETATM    4  C   UNK     1     -12.202  10.445  71.328  1.00  0.00    -0.389 C  
HETATM    5  O   UNK     1     -12.950  11.412  71.371  1.00  0.00    -0.412 OA 
BRANCH   4   6
HETATM    6  O   UNK     1     -11.074  10.360  70.581  1.00  0.00    -0.313 OA 
BRANCH   6   7
HETATM    7  C   UNK     1     -11.177   9.945  69.199  1.00  0.00    -0.107 C  
BRANCH   7   8
HETATM    8  C   UNK     1     -10.885  11.079  68.206  1.00  0.00    -0.215 C  
BRANCH   8   9
HETATM    9  O   UNK     1     -12.067  11.820  67.900  1.00  0.00    -0.592 OA 
BRANCH   9  10
HETATM   10  P   UNK     1     -11.754  13.317  67.092  1.00  0.00    -0.369 P  
HETATM   11  O   UNK     1     -10.784  13.830  68.304  1.00  0.00    -0.239 OA 
HETATM   12  O   UNK     1     -10.868  12.579  66.087  1.00  0.00    -0.262 OA 
BRANCH  10  13
HETATM   13  O   UNK     1     -11.442  14.814  66.283  1.00  0.00    -0.350 OA 
BRANCH  13  14
HETATM   14  C   UNK     1     -10.864  15.798  67.154  1.00  0.00    -0.289 C  
BRANCH  14  15
HETATM   15  C   UNK     1     -10.646  17.125  66.424  1.00  0.00    -0.172 C  
HETATM   16  N   UNK     1     -10.798  17.011  64.944  1.00  0.00    -0.751 NA 
HETATM   17  C   UNK     1      -9.229  17.601  66.735  1.00  0.00    -0.271 C  
HETATM   18  O   UNK     1      -8.374  17.303  65.721  1.00  0.00    -0.535 OA 
HETATM   19  O   UNK     1      -8.883  18.131  67.779  1.00  0.00    -0.250 OA 
HETATM   20  H1  UNK     1     -10.653  17.896  64.458  1.00  0.00     0.000 HD 
HETATM   21  H2  UNK     1     -11.702  16.607  64.702  1.00  0.00     0.000 HD 
ENDBRANCH  14  15
ENDBRANCH  13  14
ENDBRANCH  10  13
ENDBRANCH   9  10
ENDBRANCH   8   9
ENDBRANCH   7   8
BRANCH   7  22
HETATM   22  C   UNK     1     -10.312   8.704  68.913  1.00  0.00    -0.211 C  
BRANCH  22  23
HETATM   23  O   UNK     1     -10.286   7.803  70.036  1.00  0.00    -0.210 OA 
BRANCH  23  24
HETATM   24  C   UNK     1     -10.899   6.605  69.826  1.00  0.00    -0.286 C  
HETATM   25  O   UNK     1     -11.229   6.175  68.734  1.00  0.00    -0.367 OA 
BRANCH  24  26
HETATM   26  C   UNK     1     -11.085   5.890  71.144  1.00  0.00    -0.305 C  
HETATM   27  C   UNK     1     -10.053   4.791  71.326  1.00  0.00    -0.258 C  
ENDBRANCH  24  26
ENDBRANCH  23  24
ENDBRANCH  22  23
ENDBRANCH   7  22
ENDBRANCH   6   7
ENDBRANCH   4   6
ENDBRANCH   3   4
ENDBRANCH   2   3
TORSDOF 14
ENDMDL
MODEL       95
REMARK 921   NORMALIZED FREE ENERGY PREDICTED BY IDOCK:   -4.69 KCAL/MOL
REMARK 922        TOTAL FREE ENERGY PREDICTED BY IDOCK:   -9.61 KCAL/MOL
REMARK 923 INTER-LIGAND FREE ENERGY PREDICTED BY IDOCK:   -8.50 KCAL/MOL
REMARK 924 INTRA-LIGAND FREE ENERGY PREDICTED BY IDOCK:   -1.11 KCAL/MOL
REMARK 927      BINDING AFFINITY PREDICTED BY RF-SCORE:    0.00 PKD
ROOT
HETATM    1  C   UNK     1      -8.931  10.380  64.918  1.00  0.00    -0.225 C  
HETATM    2  C   UNK     1     -10.226  10.240  65.705  1.00  0.00    -0.301 C  
ENDROOT
BRANCH   2   3
HETATM    3  C   UNK     1     -10.249  11.117  66.953  1.00  0.00    -0.260 C  
BRANCH   3   4
HETATM    4  C   UNK     1     -11.610  11.731  67.156  1.00  0.00    -0.266 C  
HETATM    5  O   UNK     1     -12.129  12.524  66.382  1.00  0.00    -0.576 OA 
BRANCH   4   6
HETATM    6  O   UNK     1     -12.153  11.307  68.323  1.00  0.00    -0.619 OA 
BRANCH   6   7
HETATM    7  C   UNK     1     -11.702  11.898  69.564  1.00  0.00    -0.345 C  
BRANCH   7   8
HETATM    8  C   UNK     1     -11.921  13.416  69.623  1.00  0.00    -0.324 C  
BRANCH   8   9
HETATM    9  O   UNK     1     -10.735  14.127  69.267  1.00  0.00    -0.223 OA 
BRANCH   9  10
HETATM   10  P   UNK     1     -11.043  15.605  68.422  1.00  0.00    -0.355 P  
HETATM   11  O   UNK     1     -10.041  16.440  69.409  1.00  0.00    -0.258 OA 
HETATM   12  O   UNK     1     -10.202  15.099  67.249  1.00  0.00    -0.239 OA 
BRANCH  10  13
HETATM   13  O   UNK     1     -11.351  17.083  67.577  1.00  0.00     0.023 OA 
BRANCH  13  14
HETATM   14  C   UNK     1     -10.462  18.137  67.973  1.00  0.00    -0.371 C  
BRANCH  14  15
HETATM   15  C   UNK     1      -9.819  18.807  66.756  1.00  0.00    -0.343 C  
HETATM   16  N   UNK     1     -10.426  18.377  65.463  1.00  0.00    -0.571 NA 
HETATM   17  C   UNK     1      -8.338  18.437  66.749  1.00  0.00    -0.259 C  
HETATM   18  O   UNK     1      -8.088  17.419  65.883  1.00  0.00    -0.537 OA 
HETATM   19  O   UNK     1      -7.487  18.944  67.463  1.00  0.00    -0.226 OA 
HETATM   20  H1  UNK     1      -9.997  18.824  64.652  1.00  0.00     0.000 HD 
HETATM   21  H2  UNK     1     -11.435  18.525  65.468  1.00  0.00     0.000 HD 
ENDBRANCH  14  15
ENDBRANCH  13  14
ENDBRANCH  10  13
ENDBRANCH   9  10
ENDBRANCH   8   9
ENDBRANCH   7   8
BRANCH   7  22
HETATM   22  C   UNK     1     -12.313  11.189  70.787  1.00  0.00    -0.406 C  
BRANCH  22  23
HETATM   23  O   UNK     1     -11.631   9.955  71.081  1.00  0.00    -0.341 OA 
BRANCH  23  24
HETATM   24  C   UNK     1     -12.401   9.000  71.673  1.00  0.00    -0.347 C  
HETATM   25  O   UNK     1     -13.620   8.996  71.680  1.00  0.00    -0.369 OA 
BRANCH  24  26
HETATM   26  C   UNK     1     -11.515   7.945  72.296  1.00  0.00    -0.403 C  
HETATM   27  C   UNK     1     -10.100   8.458  72.490  1.00  0.00    -0.362 C  
ENDBRANCH  24  26
ENDBRANCH  23  24
ENDBRANCH  22  23
ENDBRANCH   7  22
ENDBRANCH   6   7
ENDBRANCH   4   6
ENDBRANCH   3   4
ENDBRANCH   2   3
TORSDOF 14
ENDMDL
MODEL       96
REMARK 921   NORMALIZED FREE ENERGY PREDICTED BY IDOCK:   -4.69 KCAL/MOL
REMARK 922        TOTAL FREE ENERGY PREDICTED BY IDOCK:   -9.61 KCAL/MOL
REMARK 923 INTER-LIGAND FREE ENERGY PREDICTED BY IDOCK:   -8.73 KCAL/MOL
REMARK 924 INTRA-LIGAND FREE ENERGY PREDICTED BY IDOCK:   -0.88 KCAL/MOL
REMARK 927      BINDING AFFINITY PREDICTED BY RF-SCORE:    0.00 PKD
ROOT
HETATM    1  C   UNK     1     -11.176  15.896  70.218  1.00  0.00    -0.388 C  
HETATM    2  C   UNK     1     -11.740  15.046  71.348  1.00  0.00    -0.409 C  
ENDROOT
BRANCH   2   3
HETATM    3  C   UNK     1     -13.140  14.523  71.043  1.00  0.00    -0.429 C  
BRANCH   3   4
HETATM    4  C   UNK     1     -13.410  13.237  71.781  1.00  0.00    -0.393 C  
HETATM    5  O   UNK     1     -14.280  13.101  72.630  1.00  0.00    -0.677 OA 
BRANCH   4   6
HETATM    6  O   UNK     1     -12.537  12.275  71.394  1.00  0.00    -0.307 OA 
BRANCH   6   7
HETATM    7  C   UNK     1     -13.044  10.965  71.048  1.00  0.00    -0.206 C  
BRANCH   7   8
HETATM    8  C   UNK     1     -12.644  10.517  69.636  1.00  0.00     0.128 C  
BRANCH   8   9
HETATM    9  O   UNK     1     -11.224  10.462  69.490  1.00  0.00    -0.238 OA 
BRANCH   9  10
HETATM   10  P   UNK     1     -10.683  10.765  67.875  1.00  0.00    -0.284 P  
HETATM   11  O   UNK     1      -9.156  11.056  68.385  1.00  0.00    -0.148 OA 
HETATM   12  O   UNK     1     -10.779   9.268  67.572  1.00  0.00    -0.277 OA 
BRANCH  10  13
HETATM   13  O   UNK     1     -10.142  11.068  66.260  1.00  0.00    -0.219 OA 
BRANCH  13  14
HETATM   14  C   UNK     1     -10.918  12.079  65.602  1.00  0.00    -0.297 C  
BRANCH  14  15
HETATM   15  C   UNK     1     -11.052  11.789  64.106  1.00  0.00    -0.374 C  
HETATM   16  N   UNK     1     -10.014  12.474  63.281  1.00  0.00    -0.582 NA 
HETATM   17  C   UNK     1     -12.429  12.274  63.659  1.00  0.00    -0.541 C  
HETATM   18  O   UNK     1     -12.354  13.492  63.061  1.00  0.00    -0.661 OA 
HETATM   19  O   UNK     1     -13.478  11.680  63.856  1.00  0.00    -0.340 OA 
HETATM   20  H1  UNK     1     -10.104  12.280  62.283  1.00  0.00     0.000 HD 
HETATM   21  H2  UNK     1      -9.077  12.245  63.613  1.00  0.00     0.000 HD 
ENDBRANCH  14  15
ENDBRANCH  13  14
ENDBRANCH  10  13
ENDBRANCH   9  10
ENDBRANCH   8   9
ENDBRANCH   7   8
BRANCH   7  22
HETATM   22  C   UNK     1     -12.667   9.912  72.106  1.00  0.00    -0.300 C  
BRANCH  22  23
HETATM   23  O   UNK     1     -13.144   8.602  71.747  1.00  0.00    -0.330 OA 
BRANCH  23  24
HETATM   24  C   UNK     1     -12.194   7.625  71.741  1.00  0.00    -0.311 C  
HETATM   25  O   UNK     1     -12.309   6.548  71.181  1.00  0.00    -0.305 OA 
BRANCH  24  26
HETATM   26  C   UNK     1     -10.981   8.090  72.512  1.00  0.00    -0.430 C  
HETATM   27  C   UNK     1     -10.525   7.040  73.509  1.00  0.00    -0.413 C  
ENDBRANCH  24  26
ENDBRANCH  23  24
ENDBRANCH  22  23
ENDBRANCH   7  22
ENDBRANCH   6   7
ENDBRANCH   4   6
ENDBRANCH   3   4
ENDBRANCH   2   3
TORSDOF 14
ENDMDL
MODEL       97
REMARK 921   NORMALIZED FREE ENERGY PREDICTED BY IDOCK:   -4.67 KCAL/MOL
REMARK 922        TOTAL FREE ENERGY PREDICTED BY IDOCK:   -9.59 KCAL/MOL
REMARK 923 INTER-LIGAND FREE ENERGY PREDICTED BY IDOCK:   -8.52 KCAL/MOL
REMARK 924 INTRA-LIGAND FREE ENERGY PREDICTED BY IDOCK:   -1.07 KCAL/MOL
REMARK 927      BINDING AFFINITY PREDICTED BY RF-SCORE:    0.00 PKD
ROOT
HETATM    1  C   UNK     1     -12.428  12.605  64.850  1.00  0.00    -0.564 C  
HETATM    2  C   UNK     1     -12.281  14.097  64.587  1.00  0.00    -0.465 C  
ENDROOT
BRANCH   2   3
HETATM    3  C   UNK     1     -10.852  14.589  64.795  1.00  0.00    -0.410 C  
BRANCH   3   4
HETATM    4  C   UNK     1     -10.795  16.095  64.802  1.00  0.00    -0.262 C  
HETATM    5  O   UNK     1     -11.528  16.813  64.137  1.00  0.00    -1.171 OA 
BRANCH   4   6
HETATM    6  O   UNK     1      -9.803  16.529  65.617  1.00  0.00    -0.511 OA 
BRANCH   6   7
HETATM    7  C   UNK     1     -10.078  17.605  66.546  1.00  0.00    -0.350 C  
BRANCH   7   8
HETATM    8  C   UNK     1      -9.911  17.191  68.014  1.00  0.00    -0.295 C  
BRANCH   8   9
HETATM    9  O   UNK     1     -11.176  17.012  68.651  1.00  0.00    -0.215 OA 
BRANCH   9  10
HETATM   10  P   UNK     1     -11.443  15.399  69.219  1.00  0.00    -0.384 P  
HETATM   11  O   UNK     1     -12.549  15.909  70.310  1.00  0.00    -0.328 OA 
HETATM   12  O   UNK     1     -12.197  15.079  67.927  1.00  0.00    -0.112 OA 
BRANCH  10  13
HETATM   13  O   UNK     1     -11.709  13.787  69.786  1.00  0.00    -0.282 OA 
BRANCH  13  14
HETATM   14  C   UNK     1     -11.261  12.795  68.851  1.00  0.00    -0.283 C  
BRANCH  14  15
HETATM   15  C   UNK     1     -11.863  11.424  69.165  1.00  0.00    -0.345 C  
HETATM   16  N   UNK     1     -12.186  11.244  70.611  1.00  0.00    -0.374 NA 
HETATM   17  C   UNK     1     -10.844  10.363  68.756  1.00  0.00    -0.232 C  
HETATM   18  O   UNK     1     -10.142   9.913  69.830  1.00  0.00    -0.230 OA 
HETATM   19  O   UNK     1     -10.638   9.996  67.610  1.00  0.00    -0.232 OA 
HETATM   20  H1  UNK     1     -12.588  10.330  70.820  1.00  0.00     0.000 HD 
HETATM   21  H2  UNK     1     -12.794  11.993  70.943  1.00  0.00     0.000 HD 
ENDBRANCH  14  15
ENDBRANCH  13  14
ENDBRANCH  10  13
ENDBRANCH   9  10
ENDBRANCH   8   9
ENDBRANCH   7   8
BRANCH   7  22
HETATM   22  C   UNK     1      -9.257  18.865  66.214  1.00  0.00    -0.268 C  
BRANCH  22  23
HETATM   23  O   UNK     1      -7.843  18.626  66.340  1.00  0.00    -0.265 OA 
BRANCH  23  24
HETATM   24  C   UNK     1      -7.131  19.658  66.872  1.00  0.00    -0.213 C  
HETATM   25  O   UNK     1      -7.430  20.836  66.767  1.00  0.00    -0.251 OA 
BRANCH  24  26
HETATM   26  C   UNK     1      -5.936  19.119  67.625  1.00  0.00    -0.204 C  
HETATM   27  C   UNK     1      -6.279  18.842  69.078  1.00  0.00    -0.267 C  
ENDBRANCH  24  26
ENDBRANCH  23  24
ENDBRANCH  22  23
ENDBRANCH   7  22
ENDBRANCH   6   7
ENDBRANCH   4   6
ENDBRANCH   3   4
ENDBRANCH   2   3
TORSDOF 14
ENDMDL
MODEL       98
REMARK 921   NORMALIZED FREE ENERGY PREDICTED BY IDOCK:   -4.67 KCAL/MOL
REMARK 922        TOTAL FREE ENERGY PREDICTED BY IDOCK:   -9.57 KCAL/MOL
REMARK 923 INTER-LIGAND FREE ENERGY PREDICTED BY IDOCK:   -8.05 KCAL/MOL
REMARK 924 INTRA-LIGAND FREE ENERGY PREDICTED BY IDOCK:   -1.53 KCAL/MOL
REMARK 927      BINDING AFFINITY PREDICTED BY RF-SCORE:    0.00 PKD
ROOT
HETATM    1  C   UNK     1     -12.493  11.973  63.598  1.00  0.00    -0.637 C  
HETATM    2  C   UNK     1     -10.995  12.242  63.583  1.00  0.00    -0.532 C  
ENDROOT
BRANCH   2   3
HETATM    3  C   UNK     1     -10.170  10.961  63.645  1.00  0.00    -0.395 C  
BRANCH   3   4
HETATM    4  C   UNK     1      -9.338  10.914  64.900  1.00  0.00    -0.224 C  
HETATM    5  O   UNK     1      -8.536  10.027  65.161  1.00  0.00    -0.141 OA 
BRANCH   4   6
HETATM    6  O   UNK     1      -9.627  11.968  65.702  1.00  0.00    -0.239 OA 
BRANCH   6   7
HETATM    7  C   UNK     1      -9.393  11.853  67.125  1.00  0.00    -0.180 C  
BRANCH   7   8
HETATM    8  C   UNK     1      -8.512  12.978  67.684  1.00  0.00    -0.187 C  
BRANCH   8   9
HETATM    9  O   UNK     1      -8.755  14.213  67.010  1.00  0.00    -0.214 OA 
BRANCH   9  10
HETATM   10  P   UNK     1      -7.899  15.553  67.693  1.00  0.00    -0.188 P  
HETATM   11  O   UNK     1      -8.295  15.100  69.214  1.00  0.00    -0.206 OA 
HETATM   12  O   UNK     1      -6.574  14.870  67.349  1.00  0.00    -0.272 OA 
BRANCH  10  13
HETATM   13  O   UNK     1      -7.043  16.893  68.376  1.00  0.00    -0.172 OA 
BRANCH  13  14
HETATM   14  C   UNK     1      -7.666  18.151  68.078  1.00  0.00    -0.255 C  
BRANCH  14  15
HETATM   15  C   UNK     1      -8.385  18.109  66.729  1.00  0.00    -0.254 C  
HETATM   16  N   UNK     1      -7.572  18.677  65.614  1.00  0.00    -0.495 NA 
HETATM   17  C   UNK     1      -9.670  18.922  66.860  1.00  0.00    -0.318 C  
HETATM   18  O   UNK     1      -9.519  20.172  66.347  1.00  0.00    -0.384 OA 
HETATM   19  O   UNK     1     -10.692  18.533  67.403  1.00  0.00    -0.425 OA 
HETATM   20  H1  UNK     1      -8.051  18.649  64.714  1.00  0.00     0.000 HD 
HETATM   21  H2  UNK     1      -6.663  18.218  65.556  1.00  0.00     0.000 HD 
ENDBRANCH  14  15
ENDBRANCH  13  14
ENDBRANCH  10  13
ENDBRANCH   9  10
ENDBRANCH   8   9
ENDBRANCH   7   8
BRANCH   7  22
HETATM   22  C   UNK     1     -10.712  11.722  67.909  1.00  0.00    -0.204 C  
BRANCH  22  23
HETATM   23  O   UNK     1     -11.842  12.142  67.122  1.00  0.00    -0.543 OA 
BRANCH  23  24
HETATM   24  C   UNK     1     -12.125  13.473  67.188  1.00  0.00    -0.340 C  
HETATM   25  O   UNK     1     -12.481  14.155  66.242  1.00  0.00    -0.466 OA 
BRANCH  24  26
HETATM   26  C   UNK     1     -11.952  13.961  68.608  1.00  0.00    -0.401 C  
HETATM   27  C   UNK     1     -11.671  15.452  68.648  1.00  0.00    -0.371 C  
ENDBRANCH  24  26
ENDBRANCH  23  24
ENDBRANCH  22  23
ENDBRANCH   7  22
ENDBRANCH   6   7
ENDBRANCH   4   6
ENDBRANCH   3   4
ENDBRANCH   2   3
TORSDOF 14
ENDMDL
MODEL       99
REMARK 921   NORMALIZED FREE ENERGY PREDICTED BY IDOCK:   -4.66 KCAL/MOL
REMARK 922        TOTAL FREE ENERGY PREDICTED BY IDOCK:   -9.57 KCAL/MOL
REMARK 923 INTER-LIGAND FREE ENERGY PREDICTED BY IDOCK:   -8.37 KCAL/MOL
REMARK 924 INTRA-LIGAND FREE ENERGY PREDICTED BY IDOCK:   -1.20 KCAL/MOL
REMARK 927      BINDING AFFINITY PREDICTED BY RF-SCORE:    0.00 PKD
ROOT
HETATM    1  C   UNK     1     -10.346  10.852  65.016  1.00  0.00    -0.356 C  
HETATM    2  C   UNK     1      -9.890  10.146  66.285  1.00  0.00    -0.288 C  
ENDROOT
BRANCH   2   3
HETATM    3  C   UNK     1     -10.964  10.141  67.368  1.00  0.00    -0.295 C  
BRANCH   3   4
HETATM    4  C   UNK     1     -10.878  11.381  68.220  1.00  0.00    -0.209 C  
HETATM    5  O   UNK     1      -9.860  12.043  68.369  1.00  0.00    -0.207 OA 
BRANCH   4   6
HETATM    6  O   UNK     1     -12.069  11.633  68.815  1.00  0.00    -0.402 OA 
BRANCH   6   7
HETATM    7  C   UNK     1     -12.086  12.295  70.101  1.00  0.00    -0.287 C  
BRANCH   7   8
HETATM    8  C   UNK     1     -12.476  13.776  70.011  1.00  0.00    -0.240 C  
BRANCH   8   9
HETATM    9  O   UNK     1     -11.578  14.598  70.757  1.00  0.00    -0.279 OA 
BRANCH   9  10
HETATM   10  P   UNK     1     -11.052  16.005  69.897  1.00  0.00    -0.364 P  
HETATM   11  O   UNK     1      -9.610  15.317  69.547  1.00  0.00    -0.243 OA 
HETATM   12  O   UNK     1     -12.008  15.653  68.756  1.00  0.00    -0.348 OA 
BRANCH  10  13
HETATM   13  O   UNK     1     -10.527  17.411  69.037  1.00  0.00    -0.346 OA 
BRANCH  13  14
HETATM   14  C   UNK     1      -9.313  17.186  68.305  1.00  0.00    -0.265 C  
BRANCH  14  15
HETATM   15  C   UNK     1      -8.966  18.387  67.423  1.00  0.00    -0.261 C  
HETATM   16  N   UNK     1      -8.647  19.616  68.207  1.00  0.00    -0.329 NA 
HETATM   17  C   UNK     1     -10.171  18.674  66.532  1.00  0.00    -0.412 C  
HETATM   18  O   UNK     1     -10.919  19.696  67.026  1.00  0.00    -0.462 OA 
HETATM   19  O   UNK     1     -10.468  18.040  65.531  1.00  0.00    -0.636 OA 
HETATM   20  H1  UNK     1      -8.416  20.417  67.618  1.00  0.00     0.000 HD 
HETATM   21  H2  UNK     1      -7.905  19.434  68.882  1.00  0.00     0.000 HD 
ENDBRANCH  14  15
ENDBRANCH  13  14
ENDBRANCH  10  13
ENDBRANCH   9  10
ENDBRANCH   8   9
ENDBRANCH   7   8
BRANCH   7  22
HETATM   22  C   UNK     1     -12.960  11.539  71.119  1.00  0.00    -0.233 C  
BRANCH  22  23
HETATM   23  O   UNK     1     -13.176  10.172  70.721  1.00  0.00    -0.379 OA 
BRANCH  23  24
HETATM   24  C   UNK     1     -12.723   9.238  71.603  1.00  0.00    -0.364 C  
HETATM   25  O   UNK     1     -13.213   9.021  72.699  1.00  0.00    -0.443 OA 
BRANCH  24  26
HETATM   26  C   UNK     1     -11.542   8.506  71.008  1.00  0.00    -0.317 C  
HETATM   27  C   UNK     1     -10.232   9.167  71.394  1.00  0.00    -0.402 C  
ENDBRANCH  24  26
ENDBRANCH  23  24
ENDBRANCH  22  23
ENDBRANCH   7  22
ENDBRANCH   6   7
ENDBRANCH   4   6
ENDBRANCH   3   4
ENDBRANCH   2   3
TORSDOF 14
ENDMDL
MODEL      100
REMARK 921   NORMALIZED FREE ENERGY PREDICTED BY IDOCK:   -4.66 KCAL/MOL
REMARK 922        TOTAL FREE ENERGY PREDICTED BY IDOCK:   -9.56 KCAL/MOL
REMARK 923 INTER-LIGAND FREE ENERGY PREDICTED BY IDOCK:   -8.97 KCAL/MOL
REMARK 924 INTRA-LIGAND FREE ENERGY PREDICTED BY IDOCK:   -0.59 KCAL/MOL
REMARK 927      BINDING AFFINITY PREDICTED BY RF-SCORE:    0.00 PKD
ROOT
HETATM    1  C   UNK     1     -13.975  15.357  72.778  1.00  0.00    -0.519 C  
HETATM    2  C   UNK     1     -12.458  15.470  72.804  1.00  0.00    -0.519 C  
ENDROOT
BRANCH   2   3
HETATM    3  C   UNK     1     -11.896  16.089  71.528  1.00  0.00    -0.554 C  
BRANCH   3   4
HETATM    4  C   UNK     1     -12.181  15.217  70.334  1.00  0.00    -0.344 C  
HETATM    5  O   UNK     1     -12.469  14.029  70.403  1.00  0.00    -0.336 OA 
BRANCH   4   6
HETATM    6  O   UNK     1     -12.043  15.922  69.185  1.00  0.00    -0.339 OA 
BRANCH   6   7
HETATM    7  C   UNK     1     -10.744  15.986  68.551  1.00  0.00    -0.287 C  
BRANCH   7   8
HETATM    8  C   UNK     1     -10.573  14.960  67.423  1.00  0.00    -0.263 C  
BRANCH   8   9
HETATM    9  O   UNK     1     -11.805  14.302  67.126  1.00  0.00    -0.390 OA 
BRANCH   9  10
HETATM   10  P   UNK     1     -11.759  12.594  67.393  1.00  0.00    -0.271 P  
HETATM   11  O   UNK     1     -12.419  12.293  65.927  1.00  0.00    -0.535 OA 
HETATM   12  O   UNK     1     -10.240  12.616  67.207  1.00  0.00    -0.222 OA 
BRANCH  10  13
HETATM   13  O   UNK     1     -11.712  10.885  67.659  1.00  0.00    -0.566 OA 
BRANCH  13  14
HETATM   14  C   UNK     1     -10.423  10.320  67.379  1.00  0.00    -0.251 C  
BRANCH  14  15
HETATM   15  C   UNK     1     -10.551   8.961  66.688  1.00  0.00    -0.080 C  
HETATM   16  N   UNK     1     -10.965   7.869  67.618  1.00  0.00    -0.512 NA 
HETATM   17  C   UNK     1      -9.189   8.609  66.096  1.00  0.00    -0.213 C  
HETATM   18  O   UNK     1      -8.510   7.746  66.899  1.00  0.00    -0.120 OA 
HETATM   19  O   UNK     1      -8.733   9.076  65.064  1.00  0.00    -0.180 OA 
HETATM   20  H1  UNK     1     -11.051   6.963  67.157  1.00  0.00     0.000 HD 
HETATM   21  H2  UNK     1     -11.828   8.113  68.103  1.00  0.00     0.000 HD 
ENDBRANCH  14  15
ENDBRANCH  13  14
ENDBRANCH  10  13
ENDBRANCH   9  10
ENDBRANCH   8   9
ENDBRANCH   7   8
BRANCH   7  22
HETATM   22  C   UNK     1     -10.412  17.413  68.077  1.00  0.00    -0.383 C  
BRANCH  22  23
HETATM   23  O   UNK     1      -9.989  17.431  66.701  1.00  0.00    -0.281 OA 
BRANCH  23  24
HETATM   24  C   UNK     1     -10.352  18.543  66.003  1.00  0.00    -0.393 C  
HETATM   25  O   UNK     1     -11.129  18.551  65.063  1.00  0.00    -0.528 OA 
BRANCH  24  26
HETATM   26  C   UNK     1      -9.663  19.756  66.583  1.00  0.00    -0.519 C  
HETATM   27  C   UNK     1      -8.195  19.794  66.198  1.00  0.00    -0.363 C  
ENDBRANCH  24  26
ENDBRANCH  23  24
ENDBRANCH  22  23
ENDBRANCH   7  22
ENDBRANCH   6   7
ENDBRANCH   4   6
ENDBRANCH   3   4
ENDBRANCH   2   3
TORSDOF 14
ENDMDL
MODEL      101
REMARK 921   NORMALIZED FREE ENERGY PREDICTED BY IDOCK:   -4.65 KCAL/MOL
REMARK 922        TOTAL FREE ENERGY PREDICTED BY IDOCK:   -9.55 KCAL/MOL
REMARK 923 INTER-LIGAND FREE ENERGY PREDICTED BY IDOCK:   -8.48 KCAL/MOL
REMARK 924 INTRA-LIGAND FREE ENERGY PREDICTED BY IDOCK:   -1.07 KCAL/MOL
REMARK 927      BINDING AFFINITY PREDICTED BY RF-SCORE:    0.00 PKD
ROOT
HETATM    1  C   UNK     1     -14.076   7.933  71.608  1.00  0.00    -0.528 C  
HETATM    2  C   UNK     1     -12.759   7.206  71.845  1.00  0.00    -0.312 C  
ENDROOT
BRANCH   2   3
HETATM    3  C   UNK     1     -11.789   8.017  72.698  1.00  0.00    -0.380 C  
BRANCH   3   4
HETATM    4  C   UNK     1     -10.647   8.541  71.867  1.00  0.00    -0.322 C  
HETATM    5  O   UNK     1      -9.506   8.688  72.282  1.00  0.00    -0.283 OA 
BRANCH   4   6
HETATM    6  O   UNK     1     -11.071   8.852  70.618  1.00  0.00    -0.248 OA 
BRANCH   6   7
HETATM    7  C   UNK     1     -10.969  10.222  70.161  1.00  0.00    -0.314 C  
BRANCH   7   8
HETATM    8  C   UNK     1     -10.859  10.342  68.636  1.00  0.00    -0.234 C  
BRANCH   8   9
HETATM    9  O   UNK     1      -9.496  10.428  68.217  1.00  0.00    -0.143 OA 
BRANCH   9  10
HETATM   10  P   UNK     1      -9.311  10.818  66.541  1.00  0.00    -0.178 P  
HETATM   11  O   UNK     1      -8.378  12.114  66.892  1.00  0.00    -0.179 OA 
HETATM   12  O   UNK     1      -8.375   9.620  66.375  1.00  0.00    -0.118 OA 
BRANCH  10  13
HETATM   13  O   UNK     1      -9.126  11.208  64.866  1.00  0.00    -0.179 OA 
BRANCH  13  14
HETATM   14  C   UNK     1     -10.316  10.947  64.107  1.00  0.00    -0.364 C  
BRANCH  14  15
HETATM   15  C   UNK     1     -10.879  12.232  63.497  1.00  0.00    -0.454 C  
HETATM   16  N   UNK     1     -10.198  13.463  63.995  1.00  0.00    -0.752 NA 
HETATM   17  C   UNK     1     -12.359  12.311  63.862  1.00  0.00    -0.509 C  
HETATM   18  O   UNK     1     -12.563  13.137  64.922  1.00  0.00    -0.560 OA 
HETATM   19  O   UNK     1     -13.249  11.676  63.316  1.00  0.00    -0.487 OA 
HETATM   20  H1  UNK     1     -10.574  14.320  63.588  1.00  0.00     0.000 HD 
HETATM   21  H2  UNK     1      -9.190  13.404  63.851  1.00  0.00     0.000 HD 
ENDBRANCH  14  15
ENDBRANCH  13  14
ENDBRANCH  10  13
ENDBRANCH   9  10
ENDBRANCH   8   9
ENDBRANCH   7   8
BRANCH   7  22
HETATM   22  C   UNK     1     -12.109  11.094  70.719  1.00  0.00    -0.357 C  
BRANCH  22  23
HETATM   23  O   UNK     1     -12.390  12.215  69.860  1.00  0.00    -0.179 OA 
BRANCH  23  24
HETATM   24  C   UNK     1     -12.196  13.437  70.428  1.00  0.00    -0.345 C  
HETATM   25  O   UNK     1     -12.607  13.765  71.528  1.00  0.00    -0.345 OA 
BRANCH  24  26
HETATM   26  C   UNK     1     -11.382  14.308  69.499  1.00  0.00    -0.315 C  
HETATM   27  C   UNK     1     -11.718  14.028  68.046  1.00  0.00    -0.394 C  
ENDBRANCH  24  26
ENDBRANCH  23  24
ENDBRANCH  22  23
ENDBRANCH   7  22
ENDBRANCH   6   7
ENDBRANCH   4   6
ENDBRANCH   3   4
ENDBRANCH   2   3
TORSDOF 14
ENDMDL
MODEL      102
REMARK 921   NORMALIZED FREE ENERGY PREDICTED BY IDOCK:   -4.65 KCAL/MOL
REMARK 922        TOTAL FREE ENERGY PREDICTED BY IDOCK:   -9.54 KCAL/MOL
REMARK 923 INTER-LIGAND FREE ENERGY PREDICTED BY IDOCK:   -8.17 KCAL/MOL
REMARK 924 INTRA-LIGAND FREE ENERGY PREDICTED BY IDOCK:   -1.36 KCAL/MOL
REMARK 927      BINDING AFFINITY PREDICTED BY RF-SCORE:    0.00 PKD
ROOT
HETATM    1  C   UNK     1      -6.311  16.446  67.690  1.00  0.00    -0.177 C  
HETATM    2  C   UNK     1      -7.442  15.442  67.855  1.00  0.00    -0.153 C  
ENDROOT
BRANCH   2   3
HETATM    3  C   UNK     1      -8.084  15.505  69.237  1.00  0.00    -0.248 C  
BRANCH   3   4
HETATM    4  C   UNK     1      -9.572  15.284  69.152  1.00  0.00    -0.243 C  
HETATM    5  O   UNK     1     -10.402  15.950  69.756  1.00  0.00    -0.269 OA 
BRANCH   4   6
HETATM    6  O   UNK     1      -9.851  14.232  68.345  1.00  0.00    -0.221 OA 
BRANCH   6   7
HETATM    7  C   UNK     1     -11.105  14.214  67.622  1.00  0.00    -0.282 C  
BRANCH   7   8
HETATM    8  C   UNK     1     -10.970  13.669  66.194  1.00  0.00    -0.284 C  
BRANCH   8   9
HETATM    9  O   UNK     1     -11.582  14.540  65.243  1.00  0.00    -0.341 OA 
BRANCH   9  10
HETATM   10  P   UNK     1     -11.038  16.178  65.355  1.00  0.00     0.053 P  
HETATM   11  O   UNK     1      -9.485  15.736  65.099  1.00  0.00    -0.213 OA 
HETATM   12  O   UNK     1     -11.656  16.467  63.986  1.00  0.00    -1.154 OA 
BRANCH  10  13
HETATM   13  O   UNK     1     -10.494  17.817  65.467  1.00  0.00    -0.646 OA 
BRANCH  13  14
HETATM   14  C   UNK     1      -9.430  17.978  66.416  1.00  0.00    -0.271 C  
BRANCH  14  15
HETATM   15  C   UNK     1      -9.339  19.424  66.908  1.00  0.00    -0.329 C  
HETATM   16  N   UNK     1      -8.293  20.219  66.200  1.00  0.00    -0.551 NA 
HETATM   17  C   UNK     1      -9.005  19.391  68.397  1.00  0.00    -0.354 C  
HETATM   18  O   UNK     1      -7.679  19.603  68.610  1.00  0.00    -0.347 OA 
HETATM   19  O   UNK     1      -9.804  19.150  69.288  1.00  0.00    -0.343 OA 
HETATM   20  H1  UNK     1      -8.233  21.183  66.528  1.00  0.00     0.000 HD 
HETATM   21  H2  UNK     1      -8.432  20.186  65.190  1.00  0.00     0.000 HD 
ENDBRANCH  14  15
ENDBRANCH  13  14
ENDBRANCH  10  13
ENDBRANCH   9  10
ENDBRANCH   8   9
ENDBRANCH   7   8
BRANCH   7  22
HETATM   22  C   UNK     1     -12.205  13.478  68.410  1.00  0.00    -0.115 C  
BRANCH  22  23
HETATM   23  O   UNK     1     -11.676  12.351  69.134  1.00  0.00    -0.288 OA 
BRANCH  23  24
HETATM   24  C   UNK     1     -12.097  12.250  70.425  1.00  0.00    -0.300 C  
HETATM   25  O   UNK     1     -12.562  13.168  71.079  1.00  0.00    -0.361 OA 
BRANCH  24  26
HETATM   26  C   UNK     1     -11.919  10.829  70.909  1.00  0.00    -0.438 C  
HETATM   27  C   UNK     1     -11.258   9.965  69.850  1.00  0.00    -0.298 C  
ENDBRANCH  24  26
ENDBRANCH  23  24
ENDBRANCH  22  23
ENDBRANCH   7  22
ENDBRANCH   6   7
ENDBRANCH   4   6
ENDBRANCH   3   4
ENDBRANCH   2   3
TORSDOF 14
ENDMDL
MODEL      103
REMARK 921   NORMALIZED FREE ENERGY PREDICTED BY IDOCK:   -4.64 KCAL/MOL
REMARK 922        TOTAL FREE ENERGY PREDICTED BY IDOCK:   -9.53 KCAL/MOL
REMARK 923 INTER-LIGAND FREE ENERGY PREDICTED BY IDOCK:   -8.04 KCAL/MOL
REMARK 924 INTRA-LIGAND FREE ENERGY PREDICTED BY IDOCK:   -1.49 KCAL/MOL
REMARK 927      BINDING AFFINITY PREDICTED BY RF-SCORE:    0.00 PKD
ROOT
HETATM    1  C   UNK     1     -12.161  14.793  64.234  1.00  0.00    -0.415 C  
HETATM    2  C   UNK     1     -12.618  13.689  65.178  1.00  0.00    -0.474 C  
ENDROOT
BRANCH   2   3
HETATM    3  C   UNK     1     -12.267  12.297  64.662  1.00  0.00    -0.454 C  
BRANCH   3   4
HETATM    4  C   UNK     1     -10.778  12.065  64.703  1.00  0.00    -0.309 C  
HETATM    5  O   UNK     1     -10.174  11.337  63.928  1.00  0.00    -0.297 OA 
BRANCH   4   6
HETATM    6  O   UNK     1     -10.219  12.747  65.732  1.00  0.00    -0.280 OA 
BRANCH   6   7
HETATM    7  C   UNK     1      -9.408  12.030  66.692  1.00  0.00    -0.219 C  
BRANCH   7   8
HETATM    8  C   UNK     1      -8.657  12.956  67.658  1.00  0.00    -0.182 C  
BRANCH   8   9
HETATM    9  O   UNK     1      -9.047  14.318  67.482  1.00  0.00    -0.179 OA 
BRANCH   9  10
HETATM   10  P   UNK     1      -9.798  15.008  68.880  1.00  0.00    -0.231 P  
HETATM   11  O   UNK     1      -8.828  16.323  68.817  1.00  0.00    -0.219 OA 
HETATM   12  O   UNK     1     -11.040  15.324  68.044  1.00  0.00    -0.288 OA 
BRANCH  10  13
HETATM   13  O   UNK     1     -10.549  15.698  70.277  1.00  0.00    -0.316 OA 
BRANCH  13  14
HETATM   14  C   UNK     1     -11.938  15.350  70.382  1.00  0.00    -0.354 C  
BRANCH  14  15
HETATM   15  C   UNK     1     -12.259  14.759  71.756  1.00  0.00    -0.347 C  
HETATM   16  N   UNK     1     -13.334  13.725  71.711  1.00  0.00    -0.367 NA 
HETATM   17  C   UNK     1     -12.716  15.901  72.660  1.00  0.00    -0.463 C  
HETATM   18  O   UNK     1     -14.071  15.947  72.750  1.00  0.00    -0.567 OA 
HETATM   19  O   UNK     1     -11.973  16.709  73.195  1.00  0.00    -0.500 OA 
HETATM   20  H1  UNK     1     -13.548  13.330  72.627  1.00  0.00     0.000 HD 
HETATM   21  H2  UNK     1     -13.104  12.989  71.043  1.00  0.00     0.000 HD 
ENDBRANCH  14  15
ENDBRANCH  13  14
ENDBRANCH  10  13
ENDBRANCH   9  10
ENDBRANCH   8   9
ENDBRANCH   7   8
BRANCH   7  22
HETATM   22  C   UNK     1     -10.227  10.967  67.447  1.00  0.00    -0.201 C  
BRANCH  22  23
HETATM   23  O   UNK     1     -10.325  11.269  68.852  1.00  0.00    -0.201 OA 
BRANCH  23  24
HETATM   24  C   UNK     1     -11.587  11.521  69.299  1.00  0.00    -0.322 C  
HETATM   25  O   UNK     1     -12.301  12.422  68.893  1.00  0.00    -0.057 OA 
BRANCH  24  26
HETATM   26  C   UNK     1     -11.967  10.506  70.352  1.00  0.00    -0.425 C  
HETATM   27  C   UNK     1     -10.749   9.754  70.858  1.00  0.00    -0.375 C  
ENDBRANCH  24  26
ENDBRANCH  23  24
ENDBRANCH  22  23
ENDBRANCH   7  22
ENDBRANCH   6   7
ENDBRANCH   4   6
ENDBRANCH   3   4
ENDBRANCH   2   3
TORSDOF 14
ENDMDL
MODEL      104
REMARK 921   NORMALIZED FREE ENERGY PREDICTED BY IDOCK:   -4.64 KCAL/MOL
REMARK 922        TOTAL FREE ENERGY PREDICTED BY IDOCK:   -9.53 KCAL/MOL
REMARK 923 INTER-LIGAND FREE ENERGY PREDICTED BY IDOCK:   -8.73 KCAL/MOL
REMARK 924 INTRA-LIGAND FREE ENERGY PREDICTED BY IDOCK:   -0.80 KCAL/MOL
REMARK 927      BINDING AFFINITY PREDICTED BY RF-SCORE:    0.00 PKD
ROOT
HETATM    1  C   UNK     1     -11.064  15.460  64.993  1.00  0.00    -0.428 C  
HETATM    2  C   UNK     1     -11.697  14.265  65.692  1.00  0.00    -0.358 C  
ENDROOT
BRANCH   2   3
HETATM    3  C   UNK     1     -11.176  14.076  67.113  1.00  0.00    -0.327 C  
BRANCH   3   4
HETATM    4  C   UNK     1     -11.606  12.745  67.673  1.00  0.00    -0.358 C  
HETATM    5  O   UNK     1     -12.017  11.814  66.994  1.00  0.00    -0.610 OA 
BRANCH   4   6
HETATM    6  O   UNK     1     -11.503  12.742  69.024  1.00  0.00    -0.271 OA 
BRANCH   6   7
HETATM    7  C   UNK     1     -12.115  11.665  69.773  1.00  0.00    -0.289 C  
BRANCH   7   8
HETATM    8  C   UNK     1     -11.180  10.466  69.977  1.00  0.00    -0.316 C  
BRANCH   8   9
HETATM    9  O   UNK     1     -11.390   9.851  71.248  1.00  0.00    -0.368 OA 
BRANCH   9  10
HETATM   10  P   UNK     1     -10.556   8.347  71.436  1.00  0.00    -0.275 P  
HETATM   11  O   UNK     1      -9.156   9.109  71.806  1.00  0.00    -0.346 OA 
HETATM   12  O   UNK     1     -11.300   8.109  72.752  1.00  0.00    -0.397 OA 
BRANCH  10  13
HETATM   13  O   UNK     1      -9.721   6.844  71.624  1.00  0.00    -0.163 OA 
BRANCH  13  14
HETATM   14  C   UNK     1     -10.566   5.711  71.373  1.00  0.00    -0.253 C  
BRANCH  14  15
HETATM   15  C   UNK     1     -10.470   4.686  72.504  1.00  0.00    -0.195 C  
HETATM   16  N   UNK     1     -11.301   5.044  73.691  1.00  0.00    -0.424 NA 
HETATM   17  C   UNK     1      -9.009   4.604  72.937  1.00  0.00    -0.118 C  
HETATM   18  O   UNK     1      -8.783   5.341  74.056  1.00  0.00    -0.117 OA 
HETATM   19  O   UNK     1      -8.134   4.002  72.333  1.00  0.00    -0.083 OA 
HETATM   20  H1  UNK     1     -11.237   4.360  74.445  1.00  0.00     0.000 HD 
HETATM   21  H2  UNK     1     -12.272   5.199  73.422  1.00  0.00     0.000 HD 
ENDBRANCH  14  15
ENDBRANCH  13  14
ENDBRANCH  10  13
ENDBRANCH   9  10
ENDBRANCH   8   9
ENDBRANCH   7   8
BRANCH   7  22
HETATM   22  C   UNK     1     -12.700  12.162  71.108  1.00  0.00    -0.253 C  
BRANCH  22  23
HETATM   23  O   UNK     1     -12.487  13.574  71.289  1.00  0.00    -0.347 OA 
BRANCH  23  24
HETATM   24  C   UNK     1     -13.384  14.191  72.107  1.00  0.00    -0.436 C  
HETATM   25  O   UNK     1     -14.400  13.673  72.540  1.00  0.00    -0.707 OA 
BRANCH  24  26
HETATM   26  C   UNK     1     -12.917  15.596  72.408  1.00  0.00    -0.532 C  
HETATM   27  C   UNK     1     -12.587  15.764  73.880  1.00  0.00    -0.754 C  
ENDBRANCH  24  26
ENDBRANCH  23  24
ENDBRANCH  22  23
ENDBRANCH   7  22
ENDBRANCH   6   7
ENDBRANCH   4   6
ENDBRANCH   3   4
ENDBRANCH   2   3
TORSDOF 14
ENDMDL
MODEL      105
REMARK 921   NORMALIZED FREE ENERGY PREDICTED BY IDOCK:   -4.64 KCAL/MOL
REMARK 922        TOTAL FREE ENERGY PREDICTED BY IDOCK:   -9.52 KCAL/MOL
REMARK 923 INTER-LIGAND FREE ENERGY PREDICTED BY IDOCK:   -8.29 KCAL/MOL
REMARK 924 INTRA-LIGAND FREE ENERGY PREDICTED BY IDOCK:   -1.23 KCAL/MOL
REMARK 927      BINDING AFFINITY PREDICTED BY RF-SCORE:    0.00 PKD
ROOT
HETATM    1  C   UNK     1     -10.275  16.338  65.749  1.00  0.00    -0.390 C  
HETATM    2  C   UNK     1     -10.326  15.065  64.916  1.00  0.00    -0.317 C  
ENDROOT
BRANCH   2   3
HETATM    3  C   UNK     1     -11.752  14.661  64.555  1.00  0.00    -0.410 C  
BRANCH   3   4
HETATM    4  C   UNK     1     -12.107  13.330  65.165  1.00  0.00    -0.413 C  
HETATM    5  O   UNK     1     -13.047  12.636  64.803  1.00  0.00    -0.852 OA 
BRANCH   4   6
HETATM    6  O   UNK     1     -11.261  13.032  66.182  1.00  0.00    -0.280 OA 
BRANCH   6   7
HETATM    7  C   UNK     1     -11.811  12.712  67.481  1.00  0.00    -0.334 C  
BRANCH   7   8
HETATM    8  C   UNK     1     -11.649  11.232  67.856  1.00  0.00    -0.256 C  
BRANCH   8   9
HETATM    9  O   UNK     1     -10.627  10.607  67.080  1.00  0.00    -0.241 OA 
BRANCH   9  10
HETATM   10  P   UNK     1      -9.775   9.365  67.931  1.00  0.00    -0.165 P  
HETATM   11  O   UNK     1     -10.038   8.288  66.728  1.00  0.00    -0.257 OA 
HETATM   12  O   UNK     1      -8.454  10.072  67.621  1.00  0.00    -0.115 OA 
BRANCH  10  13
HETATM   13  O   UNK     1      -8.923   8.123  68.781  1.00  0.00    -0.143 OA 
BRANCH  13  14
HETATM   14  C   UNK     1      -9.591   7.726  69.988  1.00  0.00    -0.161 C  
BRANCH  14  15
HETATM   15  C   UNK     1      -9.670   8.883  70.985  1.00  0.00    -0.252 C  
HETATM   16  N   UNK     1      -8.681   8.766  72.096  1.00  0.00    -0.391 NA 
HETATM   17  C   UNK     1     -11.075   8.891  71.580  1.00  0.00    -0.350 C  
HETATM   18  O   UNK     1     -11.097   8.295  72.802  1.00  0.00    -0.367 OA 
HETATM   19  O   UNK     1     -12.070   9.323  71.019  1.00  0.00    -0.292 OA 
HETATM   20  H1  UNK     1      -8.733   9.538  72.761  1.00  0.00     0.000 HD 
HETATM   21  H2  UNK     1      -7.734   8.665  71.731  1.00  0.00     0.000 HD 
ENDBRANCH  14  15
ENDBRANCH  13  14
ENDBRANCH  10  13
ENDBRANCH   9  10
ENDBRANCH   8   9
ENDBRANCH   7   8
BRANCH   7  22
HETATM   22  C   UNK     1     -11.255  13.639  68.578  1.00  0.00    -0.280 C  
BRANCH  22  23
HETATM   23  O   UNK     1     -12.311  14.259  69.336  1.00  0.00    -0.310 OA 
BRANCH  23  24
HETATM   24  C   UNK     1     -12.481  13.767  70.594  1.00  0.00    -0.359 C  
HETATM   25  O   UNK     1     -12.172  12.641  70.948  1.00  0.00    -0.349 OA 
BRANCH  24  26
HETATM   26  C   UNK     1     -13.087  14.831  71.480  1.00  0.00    -0.429 C  
HETATM   27  C   UNK     1     -12.048  15.852  71.905  1.00  0.00    -0.578 C  
ENDBRANCH  24  26
ENDBRANCH  23  24
ENDBRANCH  22  23
ENDBRANCH   7  22
ENDBRANCH   6   7
ENDBRANCH   4   6
ENDBRANCH   3   4
ENDBRANCH   2   3
TORSDOF 14
ENDMDL
MODEL      106
REMARK 921   NORMALIZED FREE ENERGY PREDICTED BY IDOCK:   -4.62 KCAL/MOL
REMARK 922        TOTAL FREE ENERGY PREDICTED BY IDOCK:   -9.48 KCAL/MOL
REMARK 923 INTER-LIGAND FREE ENERGY PREDICTED BY IDOCK:   -8.57 KCAL/MOL
REMARK 924 INTRA-LIGAND FREE ENERGY PREDICTED BY IDOCK:   -0.91 KCAL/MOL
REMARK 927      BINDING AFFINITY PREDICTED BY RF-SCORE:    0.00 PKD
ROOT
HETATM    1  C   UNK     1     -13.935  15.221  71.828  1.00  0.00    -0.638 C  
HETATM    2  C   UNK     1     -13.041  14.049  71.451  1.00  0.00    -0.423 C  
ENDROOT
BRANCH   2   3
HETATM    3  C   UNK     1     -13.498  12.738  72.084  1.00  0.00    -0.591 C  
BRANCH   3   4
HETATM    4  C   UNK     1     -12.874  11.556  71.387  1.00  0.00    -0.384 C  
HETATM    5  O   UNK     1     -13.218  10.395  71.563  1.00  0.00    -0.391 OA 
BRANCH   4   6
HETATM    6  O   UNK     1     -11.869  11.960  70.573  1.00  0.00    -0.320 OA 
BRANCH   6   7
HETATM    7  C   UNK     1     -11.843  11.492  69.204  1.00  0.00    -0.340 C  
BRANCH   7   8
HETATM    8  C   UNK     1     -11.727  12.629  68.180  1.00  0.00    -0.347 C  
BRANCH   8   9
HETATM    9  O   UNK     1     -10.410  13.182  68.164  1.00  0.00    -0.231 OA 
BRANCH   9  10
HETATM   10  P   UNK     1     -10.324  14.742  67.420  1.00  0.00    -0.245 P  
HETATM   11  O   UNK     1      -9.914  14.089  65.977  1.00  0.00    -0.298 OA 
HETATM   12  O   UNK     1     -11.851  14.832  67.456  1.00  0.00    -0.375 OA 
BRANCH  10  13
HETATM   13  O   UNK     1     -10.238  16.301  66.676  1.00  0.00    -0.268 OA 
BRANCH  13  14
HETATM   14  C   UNK     1     -10.395  17.370  67.621  1.00  0.00    -0.355 C  
BRANCH  14  15
HETATM   15  C   UNK     1     -10.204  18.733  66.953  1.00  0.00    -0.386 C  
HETATM   16  N   UNK     1     -10.707  18.773  65.549  1.00  0.00    -0.506 NA 
HETATM   17  C   UNK     1      -8.709  19.042  66.946  1.00  0.00    -0.303 C  
HETATM   18  O   UNK     1      -8.153  18.762  65.737  1.00  0.00    -0.473 OA 
HETATM   19  O   UNK     1      -8.071  19.438  67.909  1.00  0.00    -0.282 OA 
HETATM   20  H1  UNK     1     -10.579  19.683  65.104  1.00  0.00     0.000 HD 
HETATM   21  H2  UNK     1     -11.683  18.481  65.505  1.00  0.00     0.000 HD 
ENDBRANCH  14  15
ENDBRANCH  13  14
ENDBRANCH  10  13
ENDBRANCH   9  10
ENDBRANCH   8   9
ENDBRANCH   7   8
BRANCH   7  22
HETATM   22  C   UNK     1     -10.758  10.421  68.989  1.00  0.00    -0.228 C  
BRANCH  22  23
HETATM   23  O   UNK     1     -10.920   9.744  67.729  1.00  0.00    -0.274 OA 
BRANCH  23  24
HETATM   24  C   UNK     1      -9.820   9.071  67.292  1.00  0.00    -0.196 C  
HETATM   25  O   UNK     1      -9.094   8.392  67.998  1.00  0.00    -0.137 OA 
BRANCH  24  26
HETATM   26  C   UNK     1      -9.652   9.280  65.804  1.00  0.00    -0.341 C  
HETATM   27  C   UNK     1      -9.287  10.719  65.487  1.00  0.00    -0.242 C  
ENDBRANCH  24  26
ENDBRANCH  23  24
ENDBRANCH  22  23
ENDBRANCH   7  22
ENDBRANCH   6   7
ENDBRANCH   4   6
ENDBRANCH   3   4
ENDBRANCH   2   3
TORSDOF 14
ENDMDL
MODEL      107
REMARK 921   NORMALIZED FREE ENERGY PREDICTED BY IDOCK:   -4.61 KCAL/MOL
REMARK 922        TOTAL FREE ENERGY PREDICTED BY IDOCK:   -9.47 KCAL/MOL
REMARK 923 INTER-LIGAND FREE ENERGY PREDICTED BY IDOCK:   -8.48 KCAL/MOL
REMARK 924 INTRA-LIGAND FREE ENERGY PREDICTED BY IDOCK:   -0.99 KCAL/MOL
REMARK 927      BINDING AFFINITY PREDICTED BY RF-SCORE:    0.00 PKD
ROOT
HETATM    1  C   UNK     1     -10.866   7.788  72.989  1.00  0.00    -0.451 C  
HETATM    2  C   UNK     1     -12.119   8.310  72.300  1.00  0.00    -0.439 C  
ENDROOT
BRANCH   2   3
HETATM    3  C   UNK     1     -11.834   8.854  70.903  1.00  0.00    -0.283 C  
BRANCH   3   4
HETATM    4  C   UNK     1     -12.006  10.351  70.861  1.00  0.00    -0.377 C  
HETATM    5  O   UNK     1     -12.805  10.970  71.550  1.00  0.00    -0.421 OA 
BRANCH   4   6
HETATM    6  O   UNK     1     -11.179  10.898  69.938  1.00  0.00    -0.272 OA 
BRANCH   6   7
HETATM    7  C   UNK     1     -11.637  11.022  68.571  1.00  0.00    -0.310 C  
BRANCH   7   8
HETATM    8  C   UNK     1     -11.700  12.476  68.085  1.00  0.00    -0.348 C  
BRANCH   8   9
HETATM    9  O   UNK     1     -12.271  12.564  66.779  1.00  0.00    -0.532 OA 
BRANCH   9  10
HETATM   10  P   UNK     1     -11.789  13.980  65.909  1.00  0.00    -0.420 P  
HETATM   11  O   UNK     1     -10.778  13.115  64.957  1.00  0.00    -0.297 OA 
HETATM   12  O   UNK     1     -13.152  14.005  65.214  1.00  0.00    -0.782 OA 
BRANCH  10  13
HETATM   13  O   UNK     1     -11.307  15.395  65.038  1.00  0.00    -0.370 OA 
BRANCH  13  14
HETATM   14  C   UNK     1     -10.181  16.052  65.639  1.00  0.00    -0.386 C  
BRANCH  14  15
HETATM   15  C   UNK     1     -10.611  17.312  66.392  1.00  0.00    -0.179 C  
HETATM   16  N   UNK     1     -10.010  18.560  65.838  1.00  0.00    -0.530 NA 
HETATM   17  C   UNK     1     -10.169  17.160  67.845  1.00  0.00    -0.330 C  
HETATM   18  O   UNK     1      -9.013  17.835  68.083  1.00  0.00    -0.256 OA 
HETATM   19  O   UNK     1     -10.740  16.479  68.683  1.00  0.00    -0.294 OA 
HETATM   20  H1  UNK     1     -10.297  19.400  66.340  1.00  0.00     0.000 HD 
HETATM   21  H2  UNK     1     -10.208  18.647  64.841  1.00  0.00     0.000 HD 
ENDBRANCH  14  15
ENDBRANCH  13  14
ENDBRANCH  10  13
ENDBRANCH   9  10
ENDBRANCH   8   9
ENDBRANCH   7   8
BRANCH   7  22
HETATM   22  C   UNK     1     -10.813  10.139  67.614  1.00  0.00    -0.290 C  
BRANCH  22  23
HETATM   23  O   UNK     1      -9.668  10.842  67.096  1.00  0.00    -0.167 OA 
BRANCH  23  24
HETATM   24  C   UNK     1      -9.178  10.355  65.922  1.00  0.00    -0.170 C  
HETATM   25  O   UNK     1      -9.862   9.951  64.998  1.00  0.00    -0.317 OA 
BRANCH  24  26
HETATM   26  C   UNK     1      -7.668  10.413  65.937  1.00  0.00    -0.145 C  
HETATM   27  C   UNK     1      -7.157  11.178  67.145  1.00  0.00    -0.113 C  
ENDBRANCH  24  26
ENDBRANCH  23  24
ENDBRANCH  22  23
ENDBRANCH   7  22
ENDBRANCH   6   7
ENDBRANCH   4   6
ENDBRANCH   3   4
ENDBRANCH   2   3
TORSDOF 14
ENDMDL
MODEL      108
REMARK 921   NORMALIZED FREE ENERGY PREDICTED BY IDOCK:   -4.60 KCAL/MOL
REMARK 922        TOTAL FREE ENERGY PREDICTED BY IDOCK:   -9.45 KCAL/MOL
REMARK 923 INTER-LIGAND FREE ENERGY PREDICTED BY IDOCK:   -8.46 KCAL/MOL
REMARK 924 INTRA-LIGAND FREE ENERGY PREDICTED BY IDOCK:   -0.98 KCAL/MOL
REMARK 927      BINDING AFFINITY PREDICTED BY RF-SCORE:    0.00 PKD
ROOT
HETATM    1  C   UNK     1      -9.774  16.013  68.398  1.00  0.00    -0.213 C  
HETATM    2  C   UNK     1     -10.400  15.424  69.655  1.00  0.00    -0.283 C  
ENDROOT
BRANCH   2   3
HETATM    3  C   UNK     1     -11.921  15.541  69.659  1.00  0.00    -0.380 C  
BRANCH   3   4
HETATM    4  C   UNK     1     -12.518  14.771  70.808  1.00  0.00    -0.337 C  
HETATM    5  O   UNK     1     -13.391  15.205  71.547  1.00  0.00    -0.376 OA 
BRANCH   4   6
HETATM    6  O   UNK     1     -11.932  13.554  70.921  1.00  0.00    -0.280 OA 
BRANCH   6   7
HETATM    7  C   UNK     1     -12.654  12.382  70.474  1.00  0.00    -0.089 C  
BRANCH   7   8
HETATM    8  C   UNK     1     -12.134  11.826  69.142  1.00  0.00    -0.228 C  
BRANCH   8   9
HETATM    9  O   UNK     1     -10.781  12.216  68.907  1.00  0.00    -0.219 OA 
BRANCH   9  10
HETATM   10  P   UNK     1     -10.413  12.465  67.234  1.00  0.00    -0.227 P  
HETATM   11  O   UNK     1     -10.749  10.905  66.874  1.00  0.00    -0.253 OA 
HETATM   12  O   UNK     1     -11.715  13.254  67.075  1.00  0.00    -0.347 OA 
BRANCH  10  13
HETATM   13  O   UNK     1     -10.046  12.713  65.562  1.00  0.00    -0.273 OA 
BRANCH  13  14
HETATM   14  C   UNK     1     -10.679  13.885  65.029  1.00  0.00    -0.386 C  
BRANCH  14  15
HETATM   15  C   UNK     1     -11.293  13.608  63.655  1.00  0.00     0.168 C  
HETATM   16  N   UNK     1     -12.404  14.543  63.311  1.00  0.00    -0.821 NA 
HETATM   17  C   UNK     1     -11.839  12.183  63.667  1.00  0.00    -0.516 C  
HETATM   18  O   UNK     1     -13.181  12.170  63.882  1.00  0.00    -0.748 OA 
HETATM   19  O   UNK     1     -11.161  11.173  63.555  1.00  0.00    -0.253 OA 
HETATM   20  H1  UNK     1     -12.812  14.358  62.394  1.00  0.00     0.000 HD 
HETATM   21  H2  UNK     1     -12.098  15.514  63.384  1.00  0.00     0.000 HD 
ENDBRANCH  14  15
ENDBRANCH  13  14
ENDBRANCH  10  13
ENDBRANCH   9  10
ENDBRANCH   8   9
ENDBRANCH   7   8
BRANCH   7  22
HETATM   22  C   UNK     1     -12.701  11.295  71.563  1.00  0.00    -0.376 C  
BRANCH  22  23
HETATM   23  O   UNK     1     -13.142  10.030  71.034  1.00  0.00    -0.375 OA 
BRANCH  23  24
HETATM   24  C   UNK     1     -13.285   9.039  71.956  1.00  0.00    -0.429 C  
HETATM   25  O   UNK     1     -14.167   8.996  72.798  1.00  0.00    -0.572 OA 
BRANCH  24  26
HETATM   26  C   UNK     1     -12.205   8.001  71.762  1.00  0.00    -0.352 C  
HETATM   27  C   UNK     1     -11.297   7.915  72.975  1.00  0.00    -0.298 C  
ENDBRANCH  24  26
ENDBRANCH  23  24
ENDBRANCH  22  23
ENDBRANCH   7  22
ENDBRANCH   6   7
ENDBRANCH   4   6
ENDBRANCH   3   4
ENDBRANCH   2   3
TORSDOF 14
ENDMDL
MODEL      109
REMARK 921   NORMALIZED FREE ENERGY PREDICTED BY IDOCK:   -4.59 KCAL/MOL
REMARK 922        TOTAL FREE ENERGY PREDICTED BY IDOCK:   -9.44 KCAL/MOL
REMARK 923 INTER-LIGAND FREE ENERGY PREDICTED BY IDOCK:   -8.59 KCAL/MOL
REMARK 924 INTRA-LIGAND FREE ENERGY PREDICTED BY IDOCK:   -0.85 KCAL/MOL
REMARK 927      BINDING AFFINITY PREDICTED BY RF-SCORE:    0.00 PKD
ROOT
HETATM    1  C   UNK     1     -13.872  15.345  71.525  1.00  0.00    -0.599 C  
HETATM    2  C   UNK     1     -12.931  14.148  71.498  1.00  0.00    -0.417 C  
ENDROOT
BRANCH   2   3
HETATM    3  C   UNK     1     -13.531  12.918  72.172  1.00  0.00    -0.619 C  
BRANCH   3   4
HETATM    4  C   UNK     1     -13.027  11.651  71.532  1.00  0.00    -0.358 C  
HETATM    5  O   UNK     1     -13.459  10.534  71.784  1.00  0.00    -0.338 OA 
BRANCH   4   6
HETATM    6  O   UNK     1     -12.016  11.923  70.671  1.00  0.00    -0.342 OA 
BRANCH   6   7
HETATM    7  C   UNK     1     -12.014  11.294  69.368  1.00  0.00    -0.341 C  
BRANCH   7   8
HETATM    8  C   UNK     1     -11.658  12.262  68.232  1.00  0.00    -0.331 C  
BRANCH   8   9
HETATM    9  O   UNK     1     -10.443  12.961  68.506  1.00  0.00    -0.247 OA 
BRANCH   9  10
HETATM   10  P   UNK     1     -10.520  14.650  68.138  1.00  0.00    -0.246 P  
HETATM   11  O   UNK     1      -9.710  14.436  66.734  1.00  0.00    -0.251 OA 
HETATM   12  O   UNK     1     -12.010  14.505  67.826  1.00  0.00    -0.363 OA 
BRANCH  10  13
HETATM   13  O   UNK     1     -10.596  16.339  67.771  1.00  0.00    -0.298 OA 
BRANCH  13  14
HETATM   14  C   UNK     1      -9.672  17.113  68.550  1.00  0.00    -0.291 C  
BRANCH  14  15
HETATM   15  C   UNK     1      -9.296  18.412  67.836  1.00  0.00    -0.280 C  
HETATM   16  N   UNK     1     -10.287  19.507  68.052  1.00  0.00    -0.435 NA 
HETATM   17  C   UNK     1      -9.214  18.116  66.341  1.00  0.00    -0.255 C  
HETATM   18  O   UNK     1     -10.349  18.500  65.698  1.00  0.00    -0.594 OA 
HETATM   19  O   UNK     1      -8.280  17.556  65.789  1.00  0.00    -0.545 OA 
HETATM   20  H1  UNK     1     -10.036  20.374  67.576  1.00  0.00     0.000 HD 
HETATM   21  H2  UNK     1     -10.437  19.670  69.048  1.00  0.00     0.000 HD 
ENDBRANCH  14  15
ENDBRANCH  13  14
ENDBRANCH  10  13
ENDBRANCH   9  10
ENDBRANCH   8   9
ENDBRANCH   7   8
BRANCH   7  22
HETATM   22  C   UNK     1     -11.124  10.038  69.344  1.00  0.00    -0.223 C  
BRANCH  22  23
HETATM   23  O   UNK     1     -10.520   9.790  70.627  1.00  0.00    -0.289 OA 
BRANCH  23  24
HETATM   24  C   UNK     1     -10.116   8.506  70.833  1.00  0.00    -0.201 C  
HETATM   25  O   UNK     1      -8.953   8.145  70.899  1.00  0.00    -0.138 OA 
BRANCH  24  26
HETATM   26  C   UNK     1     -11.323   7.610  70.987  1.00  0.00    -0.289 C  
HETATM   27  C   UNK     1     -11.191   6.710  72.203  1.00  0.00    -0.299 C  
ENDBRANCH  24  26
ENDBRANCH  23  24
ENDBRANCH  22  23
ENDBRANCH   7  22
ENDBRANCH   6   7
ENDBRANCH   4   6
ENDBRANCH   3   4
ENDBRANCH   2   3
TORSDOF 14
ENDMDL
MODEL      110
REMARK 921   NORMALIZED FREE ENERGY PREDICTED BY IDOCK:   -4.58 KCAL/MOL
REMARK 922        TOTAL FREE ENERGY PREDICTED BY IDOCK:   -9.42 KCAL/MOL
REMARK 923 INTER-LIGAND FREE ENERGY PREDICTED BY IDOCK:   -8.58 KCAL/MOL
REMARK 924 INTRA-LIGAND FREE ENERGY PREDICTED BY IDOCK:   -0.85 KCAL/MOL
REMARK 927      BINDING AFFINITY PREDICTED BY RF-SCORE:    0.00 PKD
ROOT
HETATM    1  C   UNK     1      -7.314   8.812  66.336  1.00  0.00    -0.084 C  
HETATM    2  C   UNK     1      -7.073   9.903  67.370  1.00  0.00    -0.085 C  
ENDROOT
BRANCH   2   3
HETATM    3  C   UNK     1      -6.371   9.379  68.618  1.00  0.00    -0.048 C  
BRANCH   3   4
HETATM    4  C   UNK     1      -7.225   9.583  69.843  1.00  0.00    -0.093 C  
HETATM    5  O   UNK     1      -6.854  10.173  70.849  1.00  0.00    -0.338 OA 
BRANCH   4   6
HETATM    6  O   UNK     1      -8.436   8.998  69.681  1.00  0.00    -0.117 OA 
BRANCH   6   7
HETATM    7  C   UNK     1      -9.509   9.341  70.589  1.00  0.00    -0.272 C  
BRANCH   7   8
HETATM    8  C   UNK     1     -10.661  10.088  69.905  1.00  0.00    -0.286 C  
BRANCH   8   9
HETATM    9  O   UNK     1     -10.194  11.251  69.220  1.00  0.00    -0.154 OA 
BRANCH   9  10
HETATM   10  P   UNK     1     -11.115  11.639  67.807  1.00  0.00    -0.293 P  
HETATM   11  O   UNK     1     -10.596  10.294  67.035  1.00  0.00    -0.248 OA 
HETATM   12  O   UNK     1     -12.398  11.263  68.552  1.00  0.00    -0.543 OA 
BRANCH  10  13
HETATM   13  O   UNK     1     -12.037  12.026  66.395  1.00  0.00    -0.610 OA 
BRANCH  13  14
HETATM   14  C   UNK     1     -11.974  13.421  66.064  1.00  0.00    -0.415 C  
BRANCH  14  15
HETATM   15  C   UNK     1     -11.592  13.627  64.597  1.00  0.00    -0.371 C  
HETATM   16  N   UNK     1     -12.445  14.638  63.907  1.00  0.00    -1.041 NA 
HETATM   17  C   UNK     1     -11.746  12.286  63.883  1.00  0.00    -0.451 C  
HETATM   18  O   UNK     1     -12.923  12.221  63.205  1.00  0.00    -0.707 OA 
HETATM   19  O   UNK     1     -10.949  11.363  63.949  1.00  0.00    -0.373 OA 
HETATM   20  H1  UNK     1     -12.190  14.775  62.928  1.00  0.00     0.000 HD 
HETATM   21  H2  UNK     1     -12.439  15.524  64.411  1.00  0.00     0.000 HD 
ENDBRANCH  14  15
ENDBRANCH  13  14
ENDBRANCH  10  13
ENDBRANCH   9  10
ENDBRANCH   8   9
ENDBRANCH   7   8
BRANCH   7  22
HETATM   22  C   UNK     1     -10.013   8.111  71.366  1.00  0.00    -0.180 C  
BRANCH  22  23
HETATM   23  O   UNK     1     -11.377   8.274  71.795  1.00  0.00    -0.258 OA 
BRANCH  23  24
HETATM   24  C   UNK     1     -12.119   7.132  71.801  1.00  0.00    -0.328 C  
HETATM   25  O   UNK     1     -11.681   6.020  72.047  1.00  0.00    -0.307 OA 
BRANCH  24  26
HETATM   26  C   UNK     1     -13.559   7.457  71.478  1.00  0.00    -0.454 C  
HETATM   27  C   UNK     1     -13.974   8.784  72.088  1.00  0.00    -0.522 C  
ENDBRANCH  24  26
ENDBRANCH  23  24
ENDBRANCH  22  23
ENDBRANCH   7  22
ENDBRANCH   6   7
ENDBRANCH   4   6
ENDBRANCH   3   4
ENDBRANCH   2   3
TORSDOF 14
ENDMDL
MODEL      111
REMARK 921   NORMALIZED FREE ENERGY PREDICTED BY IDOCK:   -4.58 KCAL/MOL
REMARK 922        TOTAL FREE ENERGY PREDICTED BY IDOCK:   -9.42 KCAL/MOL
REMARK 923 INTER-LIGAND FREE ENERGY PREDICTED BY IDOCK:   -8.36 KCAL/MOL
REMARK 924 INTRA-LIGAND FREE ENERGY PREDICTED BY IDOCK:   -1.06 KCAL/MOL
REMARK 927      BINDING AFFINITY PREDICTED BY RF-SCORE:    0.00 PKD
ROOT
HETATM    1  C   UNK     1     -12.093  13.355  63.569  1.00  0.00    -0.497 C  
HETATM    2  C   UNK     1     -11.926  11.857  63.787  1.00  0.00    -0.547 C  
ENDROOT
BRANCH   2   3
HETATM    3  C   UNK     1     -10.503  11.383  63.513  1.00  0.00    -0.477 C  
BRANCH   3   4
HETATM    4  C   UNK     1      -9.899  10.749  64.740  1.00  0.00    -0.300 C  
HETATM    5  O   UNK     1      -8.896  10.049  64.729  1.00  0.00    -0.164 OA 
BRANCH   4   6
HETATM    6  O   UNK     1     -10.639  11.039  65.837  1.00  0.00    -0.252 OA 
BRANCH   6   7
HETATM    7  C   UNK     1     -10.028  11.777  66.922  1.00  0.00    -0.199 C  
BRANCH   7   8
HETATM    8  C   UNK     1     -10.534  13.222  67.027  1.00  0.00    -0.249 C  
BRANCH   8   9
HETATM    9  O   UNK     1      -9.641  14.032  67.792  1.00  0.00    -0.206 OA 
BRANCH   9  10
HETATM   10  P   UNK     1     -10.209  15.648  68.036  1.00  0.00    -0.234 P  
HETATM   11  O   UNK     1     -11.207  15.548  66.744  1.00  0.00    -0.265 OA 
HETATM   12  O   UNK     1     -11.003  15.174  69.256  1.00  0.00    -0.234 OA 
BRANCH  10  13
HETATM   13  O   UNK     1     -10.778  17.263  68.280  1.00  0.00    -0.373 OA 
BRANCH  13  14
HETATM   14  C   UNK     1      -9.726  18.235  68.189  1.00  0.00    -0.327 C  
BRANCH  14  15
HETATM   15  C   UNK     1      -9.904  19.132  66.962  1.00  0.00    -0.336 C  
HETATM   16  N   UNK     1     -10.414  18.396  65.768  1.00  0.00    -0.623 NA 
HETATM   17  C   UNK     1      -8.543  19.732  66.622  1.00  0.00    -0.335 C  
HETATM   18  O   UNK     1      -7.944  19.055  65.606  1.00  0.00    -0.437 OA 
HETATM   19  O   UNK     1      -8.022  20.665  67.213  1.00  0.00    -0.335 OA 
HETATM   20  H1  UNK     1     -10.533  18.994  64.950  1.00  0.00     0.000 HD 
HETATM   21  H2  UNK     1     -11.280  17.903  65.987  1.00  0.00     0.000 HD 
ENDBRANCH  14  15
ENDBRANCH  13  14
ENDBRANCH  10  13
ENDBRANCH   9  10
ENDBRANCH   8   9
ENDBRANCH   7   8
BRANCH   7  22
HETATM   22  C   UNK     1     -10.160  11.031  68.262  1.00  0.00    -0.177 C  
BRANCH  22  23
HETATM   23  O   UNK     1     -11.416  11.312  68.907  1.00  0.00    -0.241 OA 
BRANCH  23  24
HETATM   24  C   UNK     1     -11.698  10.527  69.983  1.00  0.00    -0.312 C  
HETATM   25  O   UNK     1     -11.359   9.362  70.101  1.00  0.00    -0.243 OA 
BRANCH  24  26
HETATM   26  C   UNK     1     -12.472  11.325  71.007  1.00  0.00    -0.503 C  
HETATM   27  C   UNK     1     -13.221  10.415  71.964  1.00  0.00    -0.497 C  
ENDBRANCH  24  26
ENDBRANCH  23  24
ENDBRANCH  22  23
ENDBRANCH   7  22
ENDBRANCH   6   7
ENDBRANCH   4   6
ENDBRANCH   3   4
ENDBRANCH   2   3
TORSDOF 14
ENDMDL
MODEL      112
REMARK 921   NORMALIZED FREE ENERGY PREDICTED BY IDOCK:   -4.58 KCAL/MOL
REMARK 922        TOTAL FREE ENERGY PREDICTED BY IDOCK:   -9.42 KCAL/MOL
REMARK 923 INTER-LIGAND FREE ENERGY PREDICTED BY IDOCK:   -8.32 KCAL/MOL
REMARK 924 INTRA-LIGAND FREE ENERGY PREDICTED BY IDOCK:   -1.11 KCAL/MOL
REMARK 927      BINDING AFFINITY PREDICTED BY RF-SCORE:    0.00 PKD
ROOT
HETATM    1  C   UNK     1      -9.641  19.140  66.688  1.00  0.00    -0.394 C  
HETATM    2  C   UNK     1     -10.708  18.558  67.605  1.00  0.00    -0.405 C  
ENDROOT
BRANCH   2   3
HETATM    3  C   UNK     1     -10.119  17.949  68.874  1.00  0.00    -0.349 C  
BRANCH   3   4
HETATM    4  C   UNK     1     -10.272  16.450  68.876  1.00  0.00    -0.258 C  
HETATM    5  O   UNK     1      -9.396  15.670  69.221  1.00  0.00    -0.234 OA 
BRANCH   4   6
HETATM    6  O   UNK     1     -11.496  16.097  68.414  1.00  0.00    -0.369 OA 
BRANCH   6   7
HETATM    7  C   UNK     1     -12.331  15.235  69.223  1.00  0.00    -0.093 C  
BRANCH   7   8
HETATM    8  C   UNK     1     -12.095  13.743  68.955  1.00  0.00    -0.322 C  
BRANCH   8   9
HETATM    9  O   UNK     1     -12.037  13.468  67.555  1.00  0.00    -0.357 OA 
BRANCH   9  10
HETATM   10  P   UNK     1     -11.044  12.108  67.158  1.00  0.00    -0.331 P  
HETATM   11  O   UNK     1      -9.847  12.627  68.145  1.00  0.00    -0.215 OA 
HETATM   12  O   UNK     1     -11.958  11.209  67.993  1.00  0.00    -0.625 OA 
BRANCH  10  13
HETATM   13  O   UNK     1     -10.051  10.748  66.761  1.00  0.00    -0.206 OA 
BRANCH  13  14
HETATM   14  C   UNK     1      -8.939  10.600  67.656  1.00  0.00    -0.139 C  
BRANCH  14  15
HETATM   15  C   UNK     1      -9.173   9.459  68.648  1.00  0.00    -0.131 C  
HETATM   16  N   UNK     1      -9.803   9.912  69.923  1.00  0.00    -0.241 NA 
HETATM   17  C   UNK     1      -7.817   8.834  68.968  1.00  0.00    -0.096 C  
HETATM   18  O   UNK     1      -7.327   9.294  70.149  1.00  0.00    -0.070 OA 
HETATM   19  O   UNK     1      -7.215   8.061  68.239  1.00  0.00    -0.088 OA 
HETATM   20  H1  UNK     1      -9.959   9.151  70.584  1.00  0.00     0.000 HD 
HETATM   21  H2  UNK     1     -10.669  10.418  69.741  1.00  0.00     0.000 HD 
ENDBRANCH  14  15
ENDBRANCH  13  14
ENDBRANCH  10  13
ENDBRANCH   9  10
ENDBRANCH   8   9
ENDBRANCH   7   8
BRANCH   7  22
HETATM   22  C   UNK     1     -12.209  15.569  70.721  1.00  0.00    -0.403 C  
BRANCH  22  23
HETATM   23  O   UNK     1     -12.279  14.385  71.538  1.00  0.00    -0.341 OA 
BRANCH  23  24
HETATM   24  C   UNK     1     -13.277  14.384  72.464  1.00  0.00    -0.469 C  
HETATM   25  O   UNK     1     -13.973  13.420  72.734  1.00  0.00    -0.724 OA 
BRANCH  24  26
HETATM   26  C   UNK     1     -13.373  15.745  73.113  1.00  0.00    -0.685 C  
HETATM   27  C   UNK     1     -12.461  15.845  74.323  1.00  0.00    -0.773 C  
ENDBRANCH  24  26
ENDBRANCH  23  24
ENDBRANCH  22  23
ENDBRANCH   7  22
ENDBRANCH   6   7
ENDBRANCH   4   6
ENDBRANCH   3   4
ENDBRANCH   2   3
TORSDOF 14
ENDMDL
MODEL      113
REMARK 921   NORMALIZED FREE ENERGY PREDICTED BY IDOCK:   -4.58 KCAL/MOL
REMARK 922        TOTAL FREE ENERGY PREDICTED BY IDOCK:   -9.42 KCAL/MOL
REMARK 923 INTER-LIGAND FREE ENERGY PREDICTED BY IDOCK:   -8.20 KCAL/MOL
REMARK 924 INTRA-LIGAND FREE ENERGY PREDICTED BY IDOCK:   -1.23 KCAL/MOL
REMARK 927      BINDING AFFINITY PREDICTED BY RF-SCORE:    0.00 PKD
ROOT
HETATM    1  C   UNK     1     -12.182  14.899  64.132  1.00  0.00    -0.280 C  
HETATM    2  C   UNK     1     -11.788  13.430  64.057  1.00  0.00    -0.498 C  
ENDROOT
BRANCH   2   3
HETATM    3  C   UNK     1     -12.406  12.602  65.178  1.00  0.00    -0.547 C  
BRANCH   3   4
HETATM    4  C   UNK     1     -11.343  11.875  65.961  1.00  0.00    -0.316 C  
HETATM    5  O   UNK     1     -10.232  11.606  65.526  1.00  0.00    -0.239 OA 
BRANCH   4   6
HETATM    6  O   UNK     1     -11.804  11.540  67.191  1.00  0.00    -0.595 OA 
BRANCH   6   7
HETATM    7  C   UNK     1     -11.029  11.907  68.356  1.00  0.00    -0.232 C  
BRANCH   7   8
HETATM    8  C   UNK     1     -11.821  12.749  69.365  1.00  0.00    -0.300 C  
BRANCH   8   9
HETATM    9  O   UNK     1     -12.226  13.996  68.799  1.00  0.00    -0.337 OA 
BRANCH   9  10
HETATM   10  P   UNK     1     -11.070  15.265  69.021  1.00  0.00    -0.304 P  
HETATM   11  O   UNK     1     -10.867  15.433  67.407  1.00  0.00    -0.298 OA 
HETATM   12  O   UNK     1     -12.201  16.209  69.433  1.00  0.00    -0.150 OA 
BRANCH  10  13
HETATM   13  O   UNK     1      -9.915  16.533  69.242  1.00  0.00    -0.263 OA 
BRANCH  13  14
HETATM   14  C   UNK     1      -8.589  16.141  68.860  1.00  0.00    -0.245 C  
BRANCH  14  15
HETATM   15  C   UNK     1      -7.801  17.324  68.294  1.00  0.00    -0.244 C  
HETATM   16  N   UNK     1      -8.627  18.557  68.141  1.00  0.00    -0.294 NA 
HETATM   17  C   UNK     1      -7.270  16.917  66.922  1.00  0.00    -0.216 C  
HETATM   18  O   UNK     1      -8.052  17.409  65.924  1.00  0.00    -0.537 OA 
HETATM   19  O   UNK     1      -6.302  16.197  66.732  1.00  0.00    -0.296 OA 
HETATM   20  H1  UNK     1      -8.102  19.346  67.763  1.00  0.00     0.000 HD 
HETATM   21  H2  UNK     1      -9.075  18.807  69.022  1.00  0.00     0.000 HD 
ENDBRANCH  14  15
ENDBRANCH  13  14
ENDBRANCH  10  13
ENDBRANCH   9  10
ENDBRANCH   8   9
ENDBRANCH   7   8
BRANCH   7  22
HETATM   22  C   UNK     1     -10.388  10.676  69.023  1.00  0.00    -0.218 C  
BRANCH  22  23
HETATM   23  O   UNK     1     -10.885  10.476  70.360  1.00  0.00    -0.263 OA 
BRANCH  23  24
HETATM   24  C   UNK     1     -11.278   9.203  70.642  1.00  0.00    -0.270 C  
HETATM   25  O   UNK     1     -10.902   8.210  70.042  1.00  0.00    -0.247 OA 
BRANCH  24  26
HETATM   26  C   UNK     1     -12.228   9.212  71.817  1.00  0.00    -0.442 C  
HETATM   27  C   UNK     1     -13.098  10.456  71.814  1.00  0.00    -0.567 C  
ENDBRANCH  24  26
ENDBRANCH  23  24
ENDBRANCH  22  23
ENDBRANCH   7  22
ENDBRANCH   6   7
ENDBRANCH   4   6
ENDBRANCH   3   4
ENDBRANCH   2   3
TORSDOF 14
ENDMDL
MODEL      114
REMARK 921   NORMALIZED FREE ENERGY PREDICTED BY IDOCK:   -4.58 KCAL/MOL
REMARK 922        TOTAL FREE ENERGY PREDICTED BY IDOCK:   -9.42 KCAL/MOL
REMARK 923 INTER-LIGAND FREE ENERGY PREDICTED BY IDOCK:   -8.85 KCAL/MOL
REMARK 924 INTRA-LIGAND FREE ENERGY PREDICTED BY IDOCK:   -0.57 KCAL/MOL
REMARK 927      BINDING AFFINITY PREDICTED BY RF-SCORE:    0.00 PKD
ROOT
HETATM    1  C   UNK     1     -12.408  14.463  64.023  1.00  0.00    -0.243 C  
HETATM    2  C   UNK     1     -12.194  13.061  63.471  1.00  0.00    -0.580 C  
ENDROOT
BRANCH   2   3
HETATM    3  C   UNK     1     -11.707  12.082  64.534  1.00  0.00    -0.380 C  
BRANCH   3   4
HETATM    4  C   UNK     1     -10.203  12.099  64.634  1.00  0.00    -0.284 C  
HETATM    5  O   UNK     1      -9.451  11.760  63.731  1.00  0.00    -0.171 OA 
BRANCH   4   6
HETATM    6  O   UNK     1      -9.813  12.507  65.866  1.00  0.00    -0.256 OA 
BRANCH   6   7
HETATM    7  C   UNK     1     -10.254  13.797  66.351  1.00  0.00    -0.292 C  
BRANCH   7   8
HETATM    8  C   UNK     1     -11.183  13.699  67.568  1.00  0.00    -0.294 C  
BRANCH   8   9
HETATM    9  O   UNK     1     -10.572  12.968  68.632  1.00  0.00    -0.249 OA 
BRANCH   9  10
HETATM   10  P   UNK     1     -11.634  11.830  69.388  1.00  0.00    -0.337 P  
HETATM   11  O   UNK     1     -12.276  11.393  67.949  1.00  0.00    -0.592 OA 
HETATM   12  O   UNK     1     -10.442  10.907  69.649  1.00  0.00    -0.196 OA 
BRANCH  10  13
HETATM   13  O   UNK     1     -12.695  10.692  70.143  1.00  0.00    -0.308 OA 
BRANCH  13  14
HETATM   14  C   UNK     1     -12.021   9.868  71.107  1.00  0.00    -0.384 C  
BRANCH  14  15
HETATM   15  C   UNK     1     -12.938   8.760  71.627  1.00  0.00    -0.349 C  
HETATM   16  N   UNK     1     -13.391   8.986  73.031  1.00  0.00    -0.885 NA 
HETATM   17  C   UNK     1     -12.161   7.447  71.570  1.00  0.00    -0.337 C  
HETATM   18  O   UNK     1     -11.654   7.120  72.788  1.00  0.00    -0.240 OA 
HETATM   19  O   UNK     1     -11.966   6.794  70.557  1.00  0.00    -0.386 OA 
HETATM   20  H1  UNK     1     -14.003   8.247  73.378  1.00  0.00     0.000 HD 
HETATM   21  H2  UNK     1     -13.834   9.900  73.127  1.00  0.00     0.000 HD 
ENDBRANCH  14  15
ENDBRANCH  13  14
ENDBRANCH  10  13
ENDBRANCH   9  10
ENDBRANCH   8   9
ENDBRANCH   7   8
BRANCH   7  22
HETATM   22  C   UNK     1      -9.065  14.739  66.619  1.00  0.00    -0.272 C  
BRANCH  22  23
HETATM   23  O   UNK     1      -9.487  15.958  67.259  1.00  0.00    -0.210 OA 
BRANCH  23  24
HETATM   24  C   UNK     1      -8.995  17.100  66.703  1.00  0.00    -0.253 C  
HETATM   25  O   UNK     1      -8.203  17.136  65.777  1.00  0.00    -0.515 OA 
BRANCH  24  26
HETATM   26  C   UNK     1      -9.596  18.303  67.393  1.00  0.00    -0.284 C  
HETATM   27  C   UNK     1     -10.290  19.218  66.401  1.00  0.00    -0.558 C  
ENDBRANCH  24  26
ENDBRANCH  23  24
ENDBRANCH  22  23
ENDBRANCH   7  22
ENDBRANCH   6   7
ENDBRANCH   4   6
ENDBRANCH   3   4
ENDBRANCH   2   3
TORSDOF 14
ENDMDL
MODEL      115
REMARK 921   NORMALIZED FREE ENERGY PREDICTED BY IDOCK:   -4.58 KCAL/MOL
REMARK 922        TOTAL FREE ENERGY PREDICTED BY IDOCK:   -9.42 KCAL/MOL
REMARK 923 INTER-LIGAND FREE ENERGY PREDICTED BY IDOCK:   -8.60 KCAL/MOL
REMARK 924 INTRA-LIGAND FREE ENERGY PREDICTED BY IDOCK:   -0.81 KCAL/MOL
REMARK 927      BINDING AFFINITY PREDICTED BY RF-SCORE:    0.00 PKD
ROOT
HETATM    1  C   UNK     1      -9.616   7.337  66.993  1.00  0.00    -0.213 C  
HETATM    2  C   UNK     1     -10.529   8.554  67.041  1.00  0.00    -0.362 C  
ENDROOT
BRANCH   2   3
HETATM    3  C   UNK     1      -9.753   9.867  67.047  1.00  0.00    -0.230 C  
BRANCH   3   4
HETATM    4  C   UNK     1      -9.992  10.641  65.777  1.00  0.00    -0.257 C  
HETATM    5  O   UNK     1      -9.473  10.375  64.701  1.00  0.00    -0.229 OA 
BRANCH   4   6
HETATM    6  O   UNK     1     -10.831  11.681  66.005  1.00  0.00    -0.276 OA 
BRANCH   6   7
HETATM    7  C   UNK     1     -10.666  12.466  67.209  1.00  0.00    -0.230 C  
BRANCH   7   8
HETATM    8  C   UNK     1      -9.874  13.760  66.981  1.00  0.00    -0.251 C  
BRANCH   8   9
HETATM    9  O   UNK     1     -10.195  14.352  65.721  1.00  0.00    -0.305 OA 
BRANCH   9  10
HETATM   10  P   UNK     1     -10.119  16.080  65.729  1.00  0.00    -0.323 P  
HETATM   11  O   UNK     1     -11.153  16.185  64.467  1.00  0.00    -0.634 OA 
HETATM   12  O   UNK     1     -10.962  16.102  67.006  1.00  0.00    -0.256 OA 
BRANCH  10  13
HETATM   13  O   UNK     1     -10.042  17.809  65.737  1.00  0.00    -0.555 OA 
BRANCH  13  14
HETATM   14  C   UNK     1     -10.259  18.362  67.044  1.00  0.00    -0.379 C  
BRANCH  14  15
HETATM   15  C   UNK     1      -9.224  19.441  67.368  1.00  0.00    -0.305 C  
HETATM   16  N   UNK     1      -9.541  20.761  66.749  1.00  0.00    -0.663 NA 
HETATM   17  C   UNK     1      -7.873  18.965  66.840  1.00  0.00    -0.246 C  
HETATM   18  O   UNK     1      -7.582  19.537  65.643  1.00  0.00    -0.412 OA 
HETATM   19  O   UNK     1      -7.162  18.135  67.386  1.00  0.00    -0.196 OA 
HETATM   20  H1  UNK     1      -8.851  21.480  66.965  1.00  0.00     0.000 HD 
HETATM   21  H2  UNK     1     -10.479  21.067  67.006  1.00  0.00     0.000 HD 
ENDBRANCH  14  15
ENDBRANCH  13  14
ENDBRANCH  10  13
ENDBRANCH   9  10
ENDBRANCH   8   9
ENDBRANCH   7   8
BRANCH   7  22
HETATM   22  C   UNK     1     -12.015  12.740  67.899  1.00  0.00    -0.266 C  
BRANCH  22  23
HETATM   23  O   UNK     1     -11.985  13.962  68.659  1.00  0.00    -0.353 OA 
BRANCH  23  24
HETATM   24  C   UNK     1     -12.254  13.819  69.987  1.00  0.00    -0.342 C  
HETATM   25  O   UNK     1     -12.212  12.763  70.595  1.00  0.00    -0.370 OA 
BRANCH  24  26
HETATM   26  C   UNK     1     -12.587  15.166  70.587  1.00  0.00    -0.450 C  
HETATM   27  C   UNK     1     -11.618  15.530  71.697  1.00  0.00    -0.502 C  
ENDBRANCH  24  26
ENDBRANCH  23  24
ENDBRANCH  22  23
ENDBRANCH   7  22
ENDBRANCH   6   7
ENDBRANCH   4   6
ENDBRANCH   3   4
ENDBRANCH   2   3
TORSDOF 14
ENDMDL
MODEL      116
REMARK 921   NORMALIZED FREE ENERGY PREDICTED BY IDOCK:   -4.58 KCAL/MOL
REMARK 922        TOTAL FREE ENERGY PREDICTED BY IDOCK:   -9.41 KCAL/MOL
REMARK 923 INTER-LIGAND FREE ENERGY PREDICTED BY IDOCK:   -8.28 KCAL/MOL
REMARK 924 INTRA-LIGAND FREE ENERGY PREDICTED BY IDOCK:   -1.13 KCAL/MOL
REMARK 927      BINDING AFFINITY PREDICTED BY RF-SCORE:    0.00 PKD
ROOT
HETATM    1  C   UNK     1     -11.125   8.290  72.405  1.00  0.00    -0.447 C  
HETATM    2  C   UNK     1     -12.127   8.742  71.351  1.00  0.00    -0.361 C  
ENDROOT
BRANCH   2   3
HETATM    3  C   UNK     1     -12.235  10.261  71.261  1.00  0.00    -0.496 C  
BRANCH   3   4
HETATM    4  C   UNK     1     -11.509  10.783  70.049  1.00  0.00    -0.331 C  
HETATM    5  O   UNK     1     -10.419  10.376  69.672  1.00  0.00    -0.231 OA 
BRANCH   4   6
HETATM    6  O   UNK     1     -12.217  11.779  69.463  1.00  0.00    -0.258 OA 
BRANCH   6   7
HETATM    7  C   UNK     1     -11.696  13.128  69.502  1.00  0.00    -0.319 C  
BRANCH   7   8
HETATM    8  C   UNK     1     -11.155  13.605  68.148  1.00  0.00    -0.256 C  
BRANCH   8   9
HETATM    9  O   UNK     1     -11.306  15.017  67.995  1.00  0.00    -0.302 OA 
BRANCH   9  10
HETATM   10  P   UNK     1      -9.808  15.881  68.038  1.00  0.00    -0.221 P  
HETATM   11  O   UNK     1     -10.308  16.911  66.869  1.00  0.00    -0.306 OA 
HETATM   12  O   UNK     1     -10.211  16.494  69.381  1.00  0.00    -0.274 OA 
BRANCH  10  13
HETATM   13  O   UNK     1      -8.310  16.746  68.081  1.00  0.00    -0.189 OA 
BRANCH  13  14
HETATM   14  C   UNK     1      -8.343  17.940  67.286  1.00  0.00    -0.225 C  
BRANCH  14  15
HETATM   15  C   UNK     1      -8.139  19.187  68.149  1.00  0.00    -0.316 C  
HETATM   16  N   UNK     1      -9.226  19.389  69.151  1.00  0.00    -0.267 NA 
HETATM   17  C   UNK     1      -8.100  20.397  67.219  1.00  0.00    -0.338 C  
HETATM   18  O   UNK     1      -9.299  21.038  67.192  1.00  0.00    -0.288 OA 
HETATM   19  O   UNK     1      -7.140  20.725  66.539  1.00  0.00    -0.251 OA 
HETATM   20  H1  UNK     1      -9.090  20.221  69.726  1.00  0.00     0.000 HD 
HETATM   21  H2  UNK     1      -9.344  18.560  69.733  1.00  0.00     0.000 HD 
ENDBRANCH  14  15
ENDBRANCH  13  14
ENDBRANCH  10  13
ENDBRANCH   9  10
ENDBRANCH   8   9
ENDBRANCH   7   8
BRANCH   7  22
HETATM   22  C   UNK     1     -12.724  14.117  70.083  1.00  0.00    -0.172 C  
BRANCH  22  23
HETATM   23  O   UNK     1     -12.623  14.209  71.517  1.00  0.00    -0.328 OA 
BRANCH  23  24
HETATM   24  C   UNK     1     -13.162  15.335  72.060  1.00  0.00    -0.407 C  
HETATM   25  O   UNK     1     -14.338  15.649  71.985  1.00  0.00    -0.494 OA 
BRANCH  24  26
HETATM   26  C   UNK     1     -12.089  16.116  72.783  1.00  0.00    -0.653 C  
HETATM   27  C   UNK     1     -12.477  16.382  74.226  1.00  0.00    -0.552 C  
ENDBRANCH  24  26
ENDBRANCH  23  24
ENDBRANCH  22  23
ENDBRANCH   7  22
ENDBRANCH   6   7
ENDBRANCH   4   6
ENDBRANCH   3   4
ENDBRANCH   2   3
TORSDOF 14
ENDMDL
MODEL      117
REMARK 921   NORMALIZED FREE ENERGY PREDICTED BY IDOCK:   -4.57 KCAL/MOL
REMARK 922        TOTAL FREE ENERGY PREDICTED BY IDOCK:   -9.40 KCAL/MOL
REMARK 923 INTER-LIGAND FREE ENERGY PREDICTED BY IDOCK:   -8.69 KCAL/MOL
REMARK 924 INTRA-LIGAND FREE ENERGY PREDICTED BY IDOCK:   -0.71 KCAL/MOL
REMARK 927      BINDING AFFINITY PREDICTED BY RF-SCORE:    0.00 PKD
ROOT
HETATM    1  C   UNK     1     -10.105  20.129  66.071  1.00  0.00    -0.497 C  
HETATM    2  C   UNK     1      -9.627  19.026  67.004  1.00  0.00    -0.364 C  
ENDROOT
BRANCH   2   3
HETATM    3  C   UNK     1     -10.698  17.970  67.258  1.00  0.00    -0.305 C  
BRANCH   3   4
HETATM    4  C   UNK     1     -10.354  16.676  66.566  1.00  0.00    -0.299 C  
HETATM    5  O   UNK     1     -10.502  16.477  65.368  1.00  0.00    -0.543 OA 
BRANCH   4   6
HETATM    6  O   UNK     1      -9.895  15.767  67.460  1.00  0.00    -0.226 OA 
BRANCH   6   7
HETATM    7  C   UNK     1     -10.805  14.767  67.976  1.00  0.00    -0.260 C  
BRANCH   7   8
HETATM    8  C   UNK     1     -10.393  13.334  67.617  1.00  0.00    -0.230 C  
BRANCH   8   9
HETATM    9  O   UNK     1     -11.519  12.456  67.604  1.00  0.00    -0.293 OA 
BRANCH   9  10
HETATM   10  P   UNK     1     -11.444  11.217  68.809  1.00  0.00    -0.342 P  
HETATM   11  O   UNK     1     -11.263  10.052  67.676  1.00  0.00    -0.248 OA 
HETATM   12  O   UNK     1     -10.043  11.692  69.197  1.00  0.00    -0.082 OA 
BRANCH  10  13
HETATM   13  O   UNK     1     -11.370   9.978  70.014  1.00  0.00    -0.253 OA 
BRANCH  13  14
HETATM   14  C   UNK     1     -10.774   8.768  69.522  1.00  0.00    -0.188 C  
BRANCH  14  15
HETATM   15  C   UNK     1     -10.916   7.629  70.533  1.00  0.00    -0.249 C  
HETATM   16  N   UNK     1     -12.225   6.919  70.433  1.00  0.00    -0.615 NA 
HETATM   17  C   UNK     1     -10.790   8.227  71.931  1.00  0.00    -0.283 C  
HETATM   18  O   UNK     1     -12.010   8.417  72.500  1.00  0.00    -0.393 OA 
HETATM   19  O   UNK     1      -9.738   8.549  72.461  1.00  0.00    -0.288 OA 
HETATM   20  H1  UNK     1     -12.320   6.159  71.107  1.00  0.00     0.000 HD 
HETATM   21  H2  UNK     1     -12.386   6.584  69.483  1.00  0.00     0.000 HD 
ENDBRANCH  14  15
ENDBRANCH  13  14
ENDBRANCH  10  13
ENDBRANCH   9  10
ENDBRANCH   8   9
ENDBRANCH   7   8
BRANCH   7  22
HETATM   22  C   UNK     1     -11.028  14.931  69.491  1.00  0.00    -0.273 C  
BRANCH  22  23
HETATM   23  O   UNK     1     -12.029  15.926  69.776  1.00  0.00    -0.332 OA 
BRANCH  23  24
HETATM   24  C   UNK     1     -12.753  15.705  70.909  1.00  0.00    -0.445 C  
HETATM   25  O   UNK     1     -13.921  15.354  70.929  1.00  0.00    -0.434 OA 
BRANCH  24  26
HETATM   26  C   UNK     1     -11.885  15.940  72.123  1.00  0.00    -0.615 C  
HETATM   27  C   UNK     1     -12.492  15.312  73.365  1.00  0.00    -0.635 C  
ENDBRANCH  24  26
ENDBRANCH  23  24
ENDBRANCH  22  23
ENDBRANCH   7  22
ENDBRANCH   6   7
ENDBRANCH   4   6
ENDBRANCH   3   4
ENDBRANCH   2   3
TORSDOF 14
ENDMDL
MODEL      118
REMARK 921   NORMALIZED FREE ENERGY PREDICTED BY IDOCK:   -4.57 KCAL/MOL
REMARK 922        TOTAL FREE ENERGY PREDICTED BY IDOCK:   -9.39 KCAL/MOL
REMARK 923 INTER-LIGAND FREE ENERGY PREDICTED BY IDOCK:   -8.36 KCAL/MOL
REMARK 924 INTRA-LIGAND FREE ENERGY PREDICTED BY IDOCK:   -1.04 KCAL/MOL
REMARK 927      BINDING AFFINITY PREDICTED BY RF-SCORE:    0.00 PKD
ROOT
HETATM    1  C   UNK     1      -7.208   7.838  64.485  1.00  0.00    -0.073 C  
HETATM    2  C   UNK     1      -7.565   9.301  64.703  1.00  0.00    -0.106 C  
ENDROOT
BRANCH   2   3
HETATM    3  C   UNK     1      -9.059   9.511  64.928  1.00  0.00    -0.276 C  
BRANCH   3   4
HETATM    4  C   UNK     1      -9.634  10.452  63.901  1.00  0.00    -0.312 C  
HETATM    5  O   UNK     1      -9.061  10.775  62.869  1.00  0.00    -0.233 OA 
BRANCH   4   6
HETATM    6  O   UNK     1     -10.847  10.907  64.298  1.00  0.00    -0.309 OA 
BRANCH   6   7
HETATM    7  C   UNK     1     -10.933  12.191  64.960  1.00  0.00    -0.309 C  
BRANCH   7   8
HETATM    8  C   UNK     1     -11.446  13.308  64.041  1.00  0.00    -0.388 C  
BRANCH   8   9
HETATM    9  O   UNK     1     -11.875  14.444  64.792  1.00  0.00    -0.389 OA 
BRANCH   9  10
HETATM   10  P   UNK     1     -10.584  15.505  65.240  1.00  0.00    -0.401 P  
HETATM   11  O   UNK     1     -11.228  16.738  64.381  1.00  0.00    -1.112 OA 
HETATM   12  O   UNK     1     -11.159  15.593  66.655  1.00  0.00    -0.270 OA 
BRANCH  10  13
HETATM   13  O   UNK     1      -9.293  16.566  65.688  1.00  0.00    -0.490 OA 
BRANCH  13  14
HETATM   14  C   UNK     1      -9.761  17.861  66.093  1.00  0.00    -0.216 C  
BRANCH  14  15
HETATM   15  C   UNK     1      -9.127  18.292  67.417  1.00  0.00    -0.253 C  
HETATM   16  N   UNK     1     -10.019  18.072  68.592  1.00  0.00    -0.376 NA 
HETATM   17  C   UNK     1      -8.806  19.781  67.317  1.00  0.00    -0.326 C  
HETATM   18  O   UNK     1      -9.758  20.533  67.930  1.00  0.00    -0.330 OA 
HETATM   19  O   UNK     1      -7.850  20.252  66.720  1.00  0.00    -0.298 OA 
HETATM   20  H1  UNK     1      -9.596  18.360  69.475  1.00  0.00     0.000 HD 
HETATM   21  H2  UNK     1     -10.330  17.102  68.637  1.00  0.00     0.000 HD 
ENDBRANCH  14  15
ENDBRANCH  13  14
ENDBRANCH  10  13
ENDBRANCH   9  10
ENDBRANCH   8   9
ENDBRANCH   7   8
BRANCH   7  22
HETATM   22  C   UNK     1     -11.752  12.106  66.261  1.00  0.00    -0.320 C  
BRANCH  22  23
HETATM   23  O   UNK     1     -11.446  10.911  67.004  1.00  0.00    -0.392 OA 
BRANCH  23  24
HETATM   24  C   UNK     1     -10.873  11.123  68.222  1.00  0.00    -0.212 C  
HETATM   25  O   UNK     1      -9.672  11.115  68.436  1.00  0.00    -0.177 OA 
BRANCH  24  26
HETATM   26  C   UNK     1     -11.947  11.385  69.252  1.00  0.00    -0.400 C  
HETATM   27  C   UNK     1     -11.564  10.816  70.606  1.00  0.00    -0.388 C  
ENDBRANCH  24  26
ENDBRANCH  23  24
ENDBRANCH  22  23
ENDBRANCH   7  22
ENDBRANCH   6   7
ENDBRANCH   4   6
ENDBRANCH   3   4
ENDBRANCH   2   3
TORSDOF 14
ENDMDL
MODEL      119
REMARK 921   NORMALIZED FREE ENERGY PREDICTED BY IDOCK:   -4.55 KCAL/MOL
REMARK 922        TOTAL FREE ENERGY PREDICTED BY IDOCK:   -9.36 KCAL/MOL
REMARK 923 INTER-LIGAND FREE ENERGY PREDICTED BY IDOCK:   -8.02 KCAL/MOL
REMARK 924 INTRA-LIGAND FREE ENERGY PREDICTED BY IDOCK:   -1.34 KCAL/MOL
REMARK 927      BINDING AFFINITY PREDICTED BY RF-SCORE:    0.00 PKD
ROOT
HETATM    1  C   UNK     1      -9.663  15.037  67.756  1.00  0.00    -0.215 C  
HETATM    2  C   UNK     1     -10.988  14.592  68.359  1.00  0.00    -0.255 C  
ENDROOT
BRANCH   2   3
HETATM    3  C   UNK     1     -11.760  13.650  67.441  1.00  0.00    -0.416 C  
BRANCH   3   4
HETATM    4  C   UNK     1     -11.587  12.216  67.869  1.00  0.00    -0.347 C  
HETATM    5  O   UNK     1     -11.688  11.257  67.116  1.00  0.00    -0.533 OA 
BRANCH   4   6
HETATM    6  O   UNK     1     -11.339  12.144  69.199  1.00  0.00    -0.246 OA 
BRANCH   6   7
HETATM    7  C   UNK     1     -12.141  11.259  70.017  1.00  0.00    -0.348 C  
BRANCH   7   8
HETATM    8  C   UNK     1     -11.391   9.993  70.450  1.00  0.00    -0.320 C  
BRANCH   8   9
HETATM    9  O   UNK     1      -9.978  10.150  70.309  1.00  0.00    -0.204 OA 
BRANCH   9  10
HETATM   10  P   UNK     1      -9.065   8.858  71.008  1.00  0.00    -0.250 P  
HETATM   11  O   UNK     1      -9.166   7.974  69.635  1.00  0.00    -0.152 OA 
HETATM   12  O   UNK     1      -7.798   9.709  70.904  1.00  0.00    -0.317 OA 
BRANCH  10  13
HETATM   13  O   UNK     1      -8.152   7.565  71.706  1.00  0.00    -0.098 OA 
BRANCH  13  14
HETATM   14  C   UNK     1      -8.987   6.503  72.192  1.00  0.00    -0.139 C  
BRANCH  14  15
HETATM   15  C   UNK     1     -10.307   7.043  72.744  1.00  0.00    -0.222 C  
HETATM   16  N   UNK     1     -10.423   6.904  74.225  1.00  0.00    -0.495 NA 
HETATM   17  C   UNK     1     -11.442   6.259  72.088  1.00  0.00    -0.307 C  
HETATM   18  O   UNK     1     -11.902   5.279  72.909  1.00  0.00    -0.271 OA 
HETATM   19  O   UNK     1     -11.854   6.443  70.954  1.00  0.00    -0.350 OA 
HETATM   20  H1  UNK     1     -11.304   7.265  74.592  1.00  0.00     0.000 HD 
HETATM   21  H2  UNK     1      -9.629   7.338  74.694  1.00  0.00     0.000 HD 
ENDBRANCH  14  15
ENDBRANCH  13  14
ENDBRANCH  10  13
ENDBRANCH   9  10
ENDBRANCH   8   9
ENDBRANCH   7   8
BRANCH   7  22
HETATM   22  C   UNK     1     -12.752  11.997  71.222  1.00  0.00    -0.279 C  
BRANCH  22  23
HETATM   23  O   UNK     1     -13.269  13.288  70.849  1.00  0.00    -0.079 OA 
BRANCH  23  24
HETATM   24  C   UNK     1     -13.419  14.167  71.879  1.00  0.00    -0.405 C  
HETATM   25  O   UNK     1     -13.668  13.853  73.030  1.00  0.00    -0.600 OA 
BRANCH  24  26
HETATM   26  C   UNK     1     -13.209  15.578  71.379  1.00  0.00    -0.587 C  
HETATM   27  C   UNK     1     -11.801  16.063  71.673  1.00  0.00    -0.582 C  
ENDBRANCH  24  26
ENDBRANCH  23  24
ENDBRANCH  22  23
ENDBRANCH   7  22
ENDBRANCH   6   7
ENDBRANCH   4   6
ENDBRANCH   3   4
ENDBRANCH   2   3
TORSDOF 14
ENDMDL
MODEL      120
REMARK 921   NORMALIZED FREE ENERGY PREDICTED BY IDOCK:   -4.54 KCAL/MOL
REMARK 922        TOTAL FREE ENERGY PREDICTED BY IDOCK:   -9.35 KCAL/MOL
REMARK 923 INTER-LIGAND FREE ENERGY PREDICTED BY IDOCK:   -8.01 KCAL/MOL
REMARK 924 INTRA-LIGAND FREE ENERGY PREDICTED BY IDOCK:   -1.33 KCAL/MOL
REMARK 927      BINDING AFFINITY PREDICTED BY RF-SCORE:    0.00 PKD
ROOT
HETATM    1  C   UNK     1     -11.443   8.108  72.594  1.00  0.00    -0.454 C  
HETATM    2  C   UNK     1     -11.443   8.444  71.109  1.00  0.00    -0.314 C  
ENDROOT
BRANCH   2   3
HETATM    3  C   UNK     1     -10.652   9.711  70.797  1.00  0.00    -0.392 C  
BRANCH   3   4
HETATM    4  C   UNK     1     -11.560  10.805  70.299  1.00  0.00    -0.338 C  
HETATM    5  O   UNK     1     -12.710  10.973  70.683  1.00  0.00    -0.324 OA 
BRANCH   4   6
HETATM    6  O   UNK     1     -10.936  11.546  69.351  1.00  0.00    -0.230 OA 
BRANCH   6   7
HETATM    7  C   UNK     1     -11.611  11.792  68.094  1.00  0.00    -0.323 C  
BRANCH   7   8
HETATM    8  C   UNK     1     -11.820  13.284  67.805  1.00  0.00    -0.353 C  
BRANCH   8   9
HETATM    9  O   UNK     1     -12.203  13.995  68.982  1.00  0.00    -0.346 OA 
BRANCH   9  10
HETATM   10  P   UNK     1     -11.518  15.580  69.087  1.00  0.00    -0.392 P  
HETATM   11  O   UNK     1     -10.888  15.268  70.563  1.00  0.00    -0.295 OA 
HETATM   12  O   UNK     1     -10.464  15.183  68.053  1.00  0.00    -0.241 OA 
BRANCH  10  13
HETATM   13  O   UNK     1     -10.834  17.166  69.192  1.00  0.00    -0.257 OA 
BRANCH  13  14
HETATM   14  C   UNK     1      -9.513  17.231  68.633  1.00  0.00    -0.278 C  
BRANCH  14  15
HETATM   15  C   UNK     1      -9.317  18.514  67.822  1.00  0.00    -0.291 C  
HETATM   16  N   UNK     1     -10.401  19.516  68.041  1.00  0.00    -0.435 NA 
HETATM   17  C   UNK     1      -9.295  18.132  66.344  1.00  0.00    -0.265 C  
HETATM   18  O   UNK     1     -10.501  18.359  65.758  1.00  0.00    -0.594 OA 
HETATM   19  O   UNK     1      -8.343  17.634  65.765  1.00  0.00    -0.537 OA 
HETATM   20  H1  UNK     1     -10.270  20.371  67.500  1.00  0.00     0.000 HD 
HETATM   21  H2  UNK     1     -10.507  19.726  69.033  1.00  0.00     0.000 HD 
ENDBRANCH  14  15
ENDBRANCH  13  14
ENDBRANCH  10  13
ENDBRANCH   9  10
ENDBRANCH   8   9
ENDBRANCH   7   8
BRANCH   7  22
HETATM   22  C   UNK     1     -10.908  11.079  66.924  1.00  0.00    -0.269 C  
BRANCH  22  23
HETATM   23  O   UNK     1      -9.599  10.610  67.296  1.00  0.00    -0.160 OA 
BRANCH  23  24
HETATM   24  C   UNK     1      -9.361   9.296  67.026  1.00  0.00    -0.144 C  
HETATM   25  O   UNK     1      -8.280   8.840  66.696  1.00  0.00    -0.105 OA 
BRANCH  24  26
HETATM   26  C   UNK     1     -10.630   8.499  67.217  1.00  0.00    -0.315 C  
HETATM   27  C   UNK     1     -10.382   7.014  67.024  1.00  0.00    -0.360 C  
ENDBRANCH  24  26
ENDBRANCH  23  24
ENDBRANCH  22  23
ENDBRANCH   7  22
ENDBRANCH   6   7
ENDBRANCH   4   6
ENDBRANCH   3   4
ENDBRANCH   2   3
TORSDOF 14
ENDMDL
MODEL      121
REMARK 921   NORMALIZED FREE ENERGY PREDICTED BY IDOCK:   -4.52 KCAL/MOL
REMARK 922        TOTAL FREE ENERGY PREDICTED BY IDOCK:   -9.32 KCAL/MOL
REMARK 923 INTER-LIGAND FREE ENERGY PREDICTED BY IDOCK:   -7.98 KCAL/MOL
REMARK 924 INTRA-LIGAND FREE ENERGY PREDICTED BY IDOCK:   -1.34 KCAL/MOL
REMARK 927      BINDING AFFINITY PREDICTED BY RF-SCORE:    0.00 PKD
ROOT
HETATM    1  C   UNK     1     -10.822  15.644  67.107  1.00  0.00    -0.297 C  
HETATM    2  C   UNK     1     -11.343  14.218  67.226  1.00  0.00    -0.350 C  
ENDROOT
BRANCH   2   3
HETATM    3  C   UNK     1     -10.804  13.500  68.459  1.00  0.00    -0.283 C  
BRANCH   3   4
HETATM    4  C   UNK     1     -11.593  12.249  68.743  1.00  0.00    -0.330 C  
HETATM    5  O   UNK     1     -12.167  11.589  67.888  1.00  0.00    -0.586 OA 
BRANCH   4   6
HETATM    6  O   UNK     1     -11.602  11.984  70.072  1.00  0.00    -0.279 OA 
BRANCH   6   7
HETATM    7  C   UNK     1     -12.860  11.682  70.720  1.00  0.00    -0.109 C  
BRANCH   7   8
HETATM    8  C   UNK     1     -13.047  10.187  71.007  1.00  0.00    -0.375 C  
BRANCH   8   9
HETATM    9  O   UNK     1     -12.545   9.837  72.297  1.00  0.00    -0.313 OA 
BRANCH   9  10
HETATM   10  P   UNK     1     -11.607   8.383  72.303  1.00  0.00    -0.350 P  
HETATM   11  O   UNK     1     -12.750   7.579  71.455  1.00  0.00    -0.342 OA 
HETATM   12  O   UNK     1     -10.648   9.009  71.287  1.00  0.00    -0.254 OA 
BRANCH  10  13
HETATM   13  O   UNK     1     -10.668   6.930  72.309  1.00  0.00    -0.213 OA 
BRANCH  13  14
HETATM   14  C   UNK     1     -11.231   5.909  71.471  1.00  0.00    -0.225 C  
BRANCH  14  15
HETATM   15  C   UNK     1     -10.184   5.336  70.515  1.00  0.00    -0.264 C  
HETATM   16  N   UNK     1      -8.799   5.379  71.069  1.00  0.00    -0.137 NA 
HETATM   17  C   UNK     1     -10.223   6.163  69.232  1.00  0.00    -0.201 C  
HETATM   18  O   UNK     1      -9.228   7.089  69.211  1.00  0.00    -0.141 OA 
HETATM   19  O   UNK     1     -11.066   6.054  68.355  1.00  0.00    -0.314 OA 
HETATM   20  H1  UNK     1      -8.101   4.997  70.431  1.00  0.00     0.000 HD 
HETATM   21  H2  UNK     1      -8.756   4.914  71.976  1.00  0.00     0.000 HD 
ENDBRANCH  14  15
ENDBRANCH  13  14
ENDBRANCH  10  13
ENDBRANCH   9  10
ENDBRANCH   8   9
ENDBRANCH   7   8
BRANCH   7  22
HETATM   22  C   UNK     1     -13.065  12.533  71.987  1.00  0.00    -0.366 C  
BRANCH  22  23
HETATM   23  O   UNK     1     -12.293  13.748  71.942  1.00  0.00    -0.178 OA 
BRANCH  23  24
HETATM   24  C   UNK     1     -12.991  14.860  71.578  1.00  0.00    -0.342 C  
HETATM   25  O   UNK     1     -13.097  15.270  70.435  1.00  0.00    -0.312 OA 
BRANCH  24  26
HETATM   26  C   UNK     1     -13.624  15.486  72.799  1.00  0.00    -0.653 C  
HETATM   27  C   UNK     1     -12.606  15.688  73.906  1.00  0.00    -0.767 C  
ENDBRANCH  24  26
ENDBRANCH  23  24
ENDBRANCH  22  23
ENDBRANCH   7  22
ENDBRANCH   6   7
ENDBRANCH   4   6
ENDBRANCH   3   4
ENDBRANCH   2   3
TORSDOF 14
ENDMDL
MODEL      122
REMARK 921   NORMALIZED FREE ENERGY PREDICTED BY IDOCK:   -4.51 KCAL/MOL
REMARK 922        TOTAL FREE ENERGY PREDICTED BY IDOCK:   -9.30 KCAL/MOL
REMARK 923 INTER-LIGAND FREE ENERGY PREDICTED BY IDOCK:   -7.91 KCAL/MOL
REMARK 924 INTRA-LIGAND FREE ENERGY PREDICTED BY IDOCK:   -1.39 KCAL/MOL
REMARK 927      BINDING AFFINITY PREDICTED BY RF-SCORE:    0.00 PKD
ROOT
HETATM    1  C   UNK     1      -7.155   7.784  68.208  1.00  0.00    -0.084 C  
HETATM    2  C   UNK     1      -7.130   8.529  69.535  1.00  0.00    -0.052 C  
ENDROOT
BRANCH   2   3
HETATM    3  C   UNK     1      -7.791   7.739  70.661  1.00  0.00    -0.096 C  
BRANCH   3   4
HETATM    4  C   UNK     1      -8.724   8.614  71.458  1.00  0.00    -0.202 C  
HETATM    5  O   UNK     1      -8.626   8.803  72.663  1.00  0.00    -0.411 OA 
BRANCH   4   6
HETATM    6  O   UNK     1      -9.693   9.126  70.661  1.00  0.00    -0.214 OA 
BRANCH   6   7
HETATM    7  C   UNK     1     -10.916   9.609  71.265  1.00  0.00    -0.329 C  
BRANCH   7   8
HETATM    8  C   UNK     1     -11.624  10.676  70.420  1.00  0.00    -0.351 C  
BRANCH   8   9
HETATM    9  O   UNK     1     -11.515  10.393  69.025  1.00  0.00    -0.244 OA 
BRANCH   9  10
HETATM   10  P   UNK     1     -10.847  11.698  68.105  1.00  0.00    -0.256 P  
HETATM   11  O   UNK     1      -9.991  10.669  67.167  1.00  0.00    -0.184 OA 
HETATM   12  O   UNK     1     -12.204  11.903  67.429  1.00  0.00    -0.502 OA 
BRANCH  10  13
HETATM   13  O   UNK     1     -10.180  13.003  67.186  1.00  0.00    -0.239 OA 
BRANCH  13  14
HETATM   14  C   UNK     1     -10.245  12.768  65.772  1.00  0.00    -0.289 C  
BRANCH  14  15
HETATM   15  C   UNK     1     -10.705  14.019  65.022  1.00  0.00    -0.396 C  
HETATM   16  N   UNK     1     -10.936  15.188  65.920  1.00  0.00    -0.338 NA 
HETATM   17  C   UNK     1     -12.014  13.682  64.311  1.00  0.00    -0.445 C  
HETATM   18  O   UNK     1     -13.087  14.132  65.013  1.00  0.00    -0.728 OA 
HETATM   19  O   UNK     1     -12.102  13.043  63.274  1.00  0.00    -0.569 OA 
HETATM   20  H1  UNK     1     -11.243  16.022  65.419  1.00  0.00     0.000 HD 
HETATM   21  H2  UNK     1     -10.108  15.385  66.481  1.00  0.00     0.000 HD 
ENDBRANCH  14  15
ENDBRANCH  13  14
ENDBRANCH  10  13
ENDBRANCH   9  10
ENDBRANCH   8   9
ENDBRANCH   7   8
BRANCH   7  22
HETATM   22  C   UNK     1     -11.865   8.452  71.630  1.00  0.00    -0.304 C  
BRANCH  22  23
HETATM   23  O   UNK     1     -11.898   7.447  70.599  1.00  0.00    -0.286 OA 
BRANCH  23  24
HETATM   24  C   UNK     1     -11.374   6.241  70.955  1.00  0.00    -0.325 C  
HETATM   25  O   UNK     1     -11.476   5.737  72.061  1.00  0.00    -0.266 OA 
BRANCH  24  26
HETATM   26  C   UNK     1     -10.670   5.622  69.769  1.00  0.00    -0.401 C  
HETATM   27  C   UNK     1     -11.041   6.328  68.478  1.00  0.00    -0.397 C  
ENDBRANCH  24  26
ENDBRANCH  23  24
ENDBRANCH  22  23
ENDBRANCH   7  22
ENDBRANCH   6   7
ENDBRANCH   4   6
ENDBRANCH   3   4
ENDBRANCH   2   3
TORSDOF 14
ENDMDL
MODEL      123
REMARK 921   NORMALIZED FREE ENERGY PREDICTED BY IDOCK:   -4.51 KCAL/MOL
REMARK 922        TOTAL FREE ENERGY PREDICTED BY IDOCK:   -9.29 KCAL/MOL
REMARK 923 INTER-LIGAND FREE ENERGY PREDICTED BY IDOCK:   -8.17 KCAL/MOL
REMARK 924 INTRA-LIGAND FREE ENERGY PREDICTED BY IDOCK:   -1.12 KCAL/MOL
REMARK 927      BINDING AFFINITY PREDICTED BY RF-SCORE:    0.00 PKD
ROOT
HETATM    1  C   UNK     1      -5.848  11.372  69.153  1.00  0.00    -0.047 C  
HETATM    2  C   UNK     1      -6.942  10.561  69.835  1.00  0.00    -0.151 C  
ENDROOT
BRANCH   2   3
HETATM    3  C   UNK     1      -8.287  10.683  69.126  1.00  0.00    -0.140 C  
BRANCH   3   4
HETATM    4  C   UNK     1      -9.167   9.498  69.429  1.00  0.00    -0.176 C  
HETATM    5  O   UNK     1      -8.769   8.459  69.938  1.00  0.00    -0.132 OA 
BRANCH   4   6
HETATM    6  O   UNK     1     -10.440   9.736  69.031  1.00  0.00    -0.197 OA 
BRANCH   6   7
HETATM    7  C   UNK     1     -10.829  11.089  68.693  1.00  0.00    -0.215 C  
BRANCH   7   8
HETATM    8  C   UNK     1     -11.231  11.250  67.221  1.00  0.00    -0.296 C  
BRANCH   8   9
HETATM    9  O   UNK     1     -12.270  12.217  67.068  1.00  0.00    -0.522 OA 
BRANCH   9  10
HETATM   10  P   UNK     1     -11.776  13.634  66.207  1.00  0.00    -0.413 P  
HETATM   11  O   UNK     1     -10.619  12.805  65.402  1.00  0.00    -0.276 OA 
HETATM   12  O   UNK     1     -13.053  13.557  65.367  1.00  0.00    -0.663 OA 
BRANCH  10  13
HETATM   13  O   UNK     1     -11.282  15.050  65.346  1.00  0.00    -0.345 OA 
BRANCH  13  14
HETATM   14  C   UNK     1      -9.992  15.524  65.761  1.00  0.00    -0.359 C  
BRANCH  14  15
HETATM   15  C   UNK     1     -10.064  16.971  66.252  1.00  0.00    -0.320 C  
HETATM   16  N   UNK     1      -8.867  17.777  65.874  1.00  0.00    -0.508 NA 
HETATM   17  C   UNK     1     -10.174  16.942  67.775  1.00  0.00    -0.308 C  
HETATM   18  O   UNK     1      -8.969  17.170  68.361  1.00  0.00    -0.243 OA 
HETATM   19  O   UNK     1     -11.194  16.692  68.398  1.00  0.00    -0.357 OA 
HETATM   20  H1  UNK     1      -8.915  18.742  66.202  1.00  0.00     0.000 HD 
HETATM   21  H2  UNK     1      -8.708  17.742  64.868  1.00  0.00     0.000 HD 
ENDBRANCH  14  15
ENDBRANCH  13  14
ENDBRANCH  10  13
ENDBRANCH   9  10
ENDBRANCH   8   9
ENDBRANCH   7   8
BRANCH   7  22
HETATM   22  C   UNK     1     -11.919  11.621  69.641  1.00  0.00    -0.324 C  
BRANCH  22  23
HETATM   23  O   UNK     1     -12.736  10.556  70.163  1.00  0.00    -0.287 OA 
BRANCH  23  24
HETATM   24  C   UNK     1     -13.124  10.712  71.459  1.00  0.00    -0.424 C  
HETATM   25  O   UNK     1     -13.370  11.783  71.987  1.00  0.00    -0.487 OA 
BRANCH  24  26
HETATM   26  C   UNK     1     -13.222   9.360  72.128  1.00  0.00    -0.541 C  
HETATM   27  C   UNK     1     -11.862   8.693  72.226  1.00  0.00    -0.436 C  
ENDBRANCH  24  26
ENDBRANCH  23  24
ENDBRANCH  22  23
ENDBRANCH   7  22
ENDBRANCH   6   7
ENDBRANCH   4   6
ENDBRANCH   3   4
ENDBRANCH   2   3
TORSDOF 14
ENDMDL
MODEL      124
REMARK 921   NORMALIZED FREE ENERGY PREDICTED BY IDOCK:   -4.51 KCAL/MOL
REMARK 922        TOTAL FREE ENERGY PREDICTED BY IDOCK:   -9.29 KCAL/MOL
REMARK 923 INTER-LIGAND FREE ENERGY PREDICTED BY IDOCK:   -8.03 KCAL/MOL
REMARK 924 INTRA-LIGAND FREE ENERGY PREDICTED BY IDOCK:   -1.26 KCAL/MOL
REMARK 927      BINDING AFFINITY PREDICTED BY RF-SCORE:    0.00 PKD
ROOT
HETATM    1  C   UNK     1     -11.712  12.939  63.744  1.00  0.00    -0.557 C  
HETATM    2  C   UNK     1     -12.062  14.207  64.510  1.00  0.00    -0.489 C  
ENDROOT
BRANCH   2   3
HETATM    3  C   UNK     1     -12.688  13.913  65.870  1.00  0.00    -0.466 C  
BRANCH   3   4
HETATM    4  C   UNK     1     -11.832  12.960  66.664  1.00  0.00    -0.395 C  
HETATM    5  O   UNK     1     -11.792  11.752  66.474  1.00  0.00    -0.550 OA 
BRANCH   4   6
HETATM    6  O   UNK     1     -11.148  13.623  67.627  1.00  0.00    -0.261 OA 
BRANCH   6   7
HETATM    7  C   UNK     1     -11.849  14.052  68.818  1.00  0.00    -0.361 C  
BRANCH   7   8
HETATM    8  C   UNK     1     -11.758  13.040  69.968  1.00  0.00    -0.215 C  
BRANCH   8   9
HETATM    9  O   UNK     1     -12.900  12.184  70.000  1.00  0.00     0.222 OA 
BRANCH   9  10
HETATM   10  P   UNK     1     -12.519  10.538  70.376  1.00  0.00    -0.211 P  
HETATM   11  O   UNK     1     -10.914  10.826  70.253  1.00  0.00    -0.246 OA 
HETATM   12  O   UNK     1     -12.912  10.789  71.833  1.00  0.00    -0.462 OA 
BRANCH  10  13
HETATM   13  O   UNK     1     -12.139   8.893  70.751  1.00  0.00    -0.234 OA 
BRANCH  13  14
HETATM   14  C   UNK     1     -12.327   8.589  72.141  1.00  0.00    -0.382 C  
BRANCH  14  15
HETATM   15  C   UNK     1     -11.084   7.925  72.737  1.00  0.00    -0.400 C  
HETATM   16  N   UNK     1      -9.816   8.623  72.373  1.00  0.00    -0.284 NA 
HETATM   17  C   UNK     1     -11.023   6.493  72.210  1.00  0.00    -0.249 C  
HETATM   18  O   UNK     1     -10.154   6.387  71.170  1.00  0.00    -0.183 OA 
HETATM   19  O   UNK     1     -11.702   5.566  72.623  1.00  0.00    -0.293 OA 
HETATM   20  H1  UNK     1      -8.988   8.180  72.771  1.00  0.00     0.000 HD 
HETATM   21  H2  UNK     1      -9.859   9.610  72.628  1.00  0.00     0.000 HD 
ENDBRANCH  14  15
ENDBRANCH  13  14
ENDBRANCH  10  13
ENDBRANCH   9  10
ENDBRANCH   8   9
ENDBRANCH   7   8
BRANCH   7  22
HETATM   22  C   UNK     1     -11.407  15.459  69.263  1.00  0.00    -0.315 C  
BRANCH  22  23
HETATM   23  O   UNK     1     -11.626  16.436  68.229  1.00  0.00    -0.255 OA 
BRANCH  23  24
HETATM   24  C   UNK     1     -10.563  17.248  67.971  1.00  0.00    -0.394 C  
HETATM   25  O   UNK     1      -9.974  17.909  68.810  1.00  0.00    -0.359 OA 
BRANCH  24  26
HETATM   26  C   UNK     1     -10.219  17.187  66.501  1.00  0.00    -0.322 C  
HETATM   27  C   UNK     1      -9.181  16.115  66.221  1.00  0.00    -0.366 C  
ENDBRANCH  24  26
ENDBRANCH  23  24
ENDBRANCH  22  23
ENDBRANCH   7  22
ENDBRANCH   6   7
ENDBRANCH   4   6
ENDBRANCH   3   4
ENDBRANCH   2   3
TORSDOF 14
ENDMDL
MODEL      125
REMARK 921   NORMALIZED FREE ENERGY PREDICTED BY IDOCK:   -4.51 KCAL/MOL
REMARK 922        TOTAL FREE ENERGY PREDICTED BY IDOCK:   -9.28 KCAL/MOL
REMARK 923 INTER-LIGAND FREE ENERGY PREDICTED BY IDOCK:   -8.04 KCAL/MOL
REMARK 924 INTRA-LIGAND FREE ENERGY PREDICTED BY IDOCK:   -1.24 KCAL/MOL
REMARK 927      BINDING AFFINITY PREDICTED BY RF-SCORE:    0.00 PKD
ROOT
HETATM    1  C   UNK     1     -12.332   6.917  71.170  1.00  0.00    -0.419 C  
HETATM    2  C   UNK     1     -11.187   7.867  70.848  1.00  0.00    -0.284 C  
ENDROOT
BRANCH   2   3
HETATM    3  C   UNK     1     -11.291   9.185  71.608  1.00  0.00    -0.446 C  
BRANCH   3   4
HETATM    4  C   UNK     1     -12.172  10.163  70.875  1.00  0.00    -0.356 C  
HETATM    5  O   UNK     1     -13.391  10.195  70.970  1.00  0.00    -0.387 OA 
BRANCH   4   6
HETATM    6  O   UNK     1     -11.428  10.971  70.081  1.00  0.00    -0.293 OA 
BRANCH   6   7
HETATM    7  C   UNK     1     -11.688  10.990  68.657  1.00  0.00    -0.296 C  
BRANCH   7   8
HETATM    8  C   UNK     1     -11.665  12.402  68.059  1.00  0.00    -0.356 C  
BRANCH   8   9
HETATM    9  O   UNK     1     -12.282  12.433  66.772  1.00  0.00    -0.551 OA 
BRANCH   9  10
HETATM   10  P   UNK     1     -11.551  13.560  65.682  1.00  0.00    -0.356 P  
HETATM   11  O   UNK     1     -10.266  12.577  65.443  1.00  0.00    -0.277 OA 
HETATM   12  O   UNK     1     -12.596  13.201  64.624  1.00  0.00    -0.587 OA 
BRANCH  10  13
HETATM   13  O   UNK     1     -10.820  14.687  64.591  1.00  0.00    -0.385 OA 
BRANCH  13  14
HETATM   14  C   UNK     1     -10.907  16.041  65.060  1.00  0.00    -0.404 C  
BRANCH  14  15
HETATM   15  C   UNK     1      -9.691  16.413  65.910  1.00  0.00    -0.294 C  
HETATM   16  N   UNK     1      -8.763  15.267  66.138  1.00  0.00    -0.447 NA 
HETATM   17  C   UNK     1     -10.201  16.906  67.263  1.00  0.00    -0.297 C  
HETATM   18  O   UNK     1     -10.124  15.929  68.205  1.00  0.00    -0.224 OA 
HETATM   19  O   UNK     1     -10.671  18.013  67.471  1.00  0.00    -0.404 OA 
HETATM   20  H1  UNK     1      -7.952  15.516  66.705  1.00  0.00     0.000 HD 
HETATM   21  H2  UNK     1      -8.474  14.852  65.252  1.00  0.00     0.000 HD 
ENDBRANCH  14  15
ENDBRANCH  13  14
ENDBRANCH  10  13
ENDBRANCH   9  10
ENDBRANCH   8   9
ENDBRANCH   7   8
BRANCH   7  22
HETATM   22  C   UNK     1     -10.750  10.035  67.895  1.00  0.00    -0.272 C  
BRANCH  22  23
HETATM   23  O   UNK     1      -9.365  10.342  68.142  1.00  0.00    -0.137 OA 
BRANCH  23  24
HETATM   24  C   UNK     1      -8.629   9.311  68.644  1.00  0.00    -0.127 C  
HETATM   25  O   UNK     1      -8.667   8.164  68.230  1.00  0.00    -0.132 OA 
BRANCH  24  26
HETATM   26  C   UNK     1      -7.751   9.811  69.768  1.00  0.00    -0.145 C  
HETATM   27  C   UNK     1      -7.850   8.912  70.986  1.00  0.00    -0.164 C  
ENDBRANCH  24  26
ENDBRANCH  23  24
ENDBRANCH  22  23
ENDBRANCH   7  22
ENDBRANCH   6   7
ENDBRANCH   4   6
ENDBRANCH   3   4
ENDBRANCH   2   3
TORSDOF 14
ENDMDL
MODEL      126
REMARK 921   NORMALIZED FREE ENERGY PREDICTED BY IDOCK:   -4.50 KCAL/MOL
REMARK 922        TOTAL FREE ENERGY PREDICTED BY IDOCK:   -9.28 KCAL/MOL
REMARK 923 INTER-LIGAND FREE ENERGY PREDICTED BY IDOCK:   -8.46 KCAL/MOL
REMARK 924 INTRA-LIGAND FREE ENERGY PREDICTED BY IDOCK:   -0.82 KCAL/MOL
REMARK 927      BINDING AFFINITY PREDICTED BY RF-SCORE:    0.00 PKD
ROOT
HETATM    1  C   UNK     1      -6.323  17.576  68.857  1.00  0.00    -0.211 C  
HETATM    2  C   UNK     1      -5.967  16.688  67.672  1.00  0.00    -0.169 C  
ENDROOT
BRANCH   2   3
HETATM    3  C   UNK     1      -7.200  16.122  66.976  1.00  0.00    -0.256 C  
BRANCH   3   4
HETATM    4  C   UNK     1      -7.791  14.982  67.765  1.00  0.00    -0.148 C  
HETATM    5  O   UNK     1      -7.250  14.463  68.732  1.00  0.00    -0.114 OA 
BRANCH   4   6
HETATM    6  O   UNK     1      -8.978  14.601  67.234  1.00  0.00    -0.184 OA 
BRANCH   6   7
HETATM    7  C   UNK     1     -10.203  15.090  67.829  1.00  0.00    -0.236 C  
BRANCH   7   8
HETATM    8  C   UNK     1     -10.713  14.203  68.973  1.00  0.00    -0.231 C  
BRANCH   8   9
HETATM    9  O   UNK     1     -10.346  12.837  68.777  1.00  0.00    -0.208 OA 
BRANCH   9  10
HETATM   10  P   UNK     1     -11.514  11.714  69.382  1.00  0.00    -0.315 P  
HETATM   11  O   UNK     1     -12.284  12.886  70.223  1.00  0.00    -0.339 OA 
HETATM   12  O   UNK     1     -12.161  11.654  67.997  1.00  0.00    -0.597 OA 
BRANCH  10  13
HETATM   13  O   UNK     1     -12.683  10.590  69.987  1.00  0.00    -0.256 OA 
BRANCH  13  14
HETATM   14  C   UNK     1     -12.570  10.390  71.404  1.00  0.00    -0.434 C  
BRANCH  14  15
HETATM   15  C   UNK     1     -13.135   9.031  71.819  1.00  0.00    -0.381 C  
HETATM   16  N   UNK     1     -13.805   9.058  73.153  1.00  0.00    -1.177 NA 
HETATM   17  C   UNK     1     -11.975   8.040  71.874  1.00  0.00    -0.314 C  
HETATM   18  O   UNK     1     -11.541   7.859  73.150  1.00  0.00    -0.292 OA 
HETATM   19  O   UNK     1     -11.458   7.514  70.901  1.00  0.00    -0.274 OA 
HETATM   20  H1  UNK     1     -14.182   8.151  73.429  1.00  0.00     0.000 HD 
HETATM   21  H2  UNK     1     -14.527   9.777  73.182  1.00  0.00     0.000 HD 
ENDBRANCH  14  15
ENDBRANCH  13  14
ENDBRANCH  10  13
ENDBRANCH   9  10
ENDBRANCH   8   9
ENDBRANCH   7   8
BRANCH   7  22
HETATM   22  C   UNK     1     -10.076  16.561  68.264  1.00  0.00    -0.259 C  
BRANCH  22  23
HETATM   23  O   UNK     1     -10.913  17.424  67.472  1.00  0.00    -0.256 OA 
BRANCH  23  24
HETATM   24  C   UNK     1     -10.306  17.972  66.383  1.00  0.00    -0.379 C  
HETATM   25  O   UNK     1     -10.108  17.389  65.330  1.00  0.00    -0.562 OA 
BRANCH  24  26
HETATM   26  C   UNK     1      -9.938  19.409  66.673  1.00  0.00    -0.484 C  
HETATM   27  C   UNK     1      -8.478  19.679  66.356  1.00  0.00    -0.382 C  
ENDBRANCH  24  26
ENDBRANCH  23  24
ENDBRANCH  22  23
ENDBRANCH   7  22
ENDBRANCH   6   7
ENDBRANCH   4   6
ENDBRANCH   3   4
ENDBRANCH   2   3
TORSDOF 14
ENDMDL
MODEL      127
REMARK 921   NORMALIZED FREE ENERGY PREDICTED BY IDOCK:   -4.50 KCAL/MOL
REMARK 922        TOTAL FREE ENERGY PREDICTED BY IDOCK:   -9.27 KCAL/MOL
REMARK 923 INTER-LIGAND FREE ENERGY PREDICTED BY IDOCK:   -8.03 KCAL/MOL
REMARK 924 INTRA-LIGAND FREE ENERGY PREDICTED BY IDOCK:   -1.24 KCAL/MOL
REMARK 927      BINDING AFFINITY PREDICTED BY RF-SCORE:    0.00 PKD
ROOT
HETATM    1  C   UNK     1     -13.745  14.294  72.055  1.00  0.00    -0.542 C  
HETATM    2  C   UNK     1     -13.260  12.865  71.852  1.00  0.00    -0.521 C  
ENDROOT
BRANCH   2   3
HETATM    3  C   UNK     1     -12.327  12.730  70.652  1.00  0.00    -0.381 C  
BRANCH   3   4
HETATM    4  C   UNK     1     -12.460  11.372  70.015  1.00  0.00    -0.154 C  
HETATM    5  O   UNK     1     -12.672  10.339  70.636  1.00  0.00    -0.327 OA 
BRANCH   4   6
HETATM    6  O   UNK     1     -12.280  11.455  68.674  1.00  0.00    -0.532 OA 
BRANCH   6   7
HETATM    7  C   UNK     1     -10.960  11.749  68.160  1.00  0.00    -0.228 C  
BRANCH   7   8
HETATM    8  C   UNK     1     -10.097  10.495  67.963  1.00  0.00    -0.165 C  
BRANCH   8   9
HETATM    9  O   UNK     1      -8.985  10.482  68.859  1.00  0.00    -0.156 OA 
BRANCH   9  10
HETATM   10  P   UNK     1      -8.716   8.945  69.605  1.00  0.00    -0.155 P  
HETATM   11  O   UNK     1      -9.639   9.349  70.893  1.00  0.00    -0.267 OA 
HETATM   12  O   UNK     1      -9.640   8.293  68.574  1.00  0.00    -0.146 OA 
BRANCH  10  13
HETATM   13  O   UNK     1      -8.446   7.407  70.351  1.00  0.00    -0.138 OA 
BRANCH  13  14
HETATM   14  C   UNK     1      -9.152   7.269  71.593  1.00  0.00    -0.135 C  
BRANCH  14  15
HETATM   15  C   UNK     1     -10.017   6.007  71.603  1.00  0.00    -0.179 C  
HETATM   16  N   UNK     1      -9.424   4.885  70.818  1.00  0.00    -0.158 NA 
HETATM   17  C   UNK     1     -11.371   6.366  70.996  1.00  0.00    -0.328 C  
HETATM   18  O   UNK     1     -11.445   5.986  69.693  1.00  0.00    -0.394 OA 
HETATM   19  O   UNK     1     -12.261   6.967  71.578  1.00  0.00    -0.333 OA 
HETATM   20  H1  UNK     1     -10.001   4.044  70.825  1.00  0.00     0.000 HD 
HETATM   21  H2  UNK     1      -8.477   4.679  71.137  1.00  0.00     0.000 HD 
ENDBRANCH  14  15
ENDBRANCH  13  14
ENDBRANCH  10  13
ENDBRANCH   9  10
ENDBRANCH   8   9
ENDBRANCH   7   8
BRANCH   7  22
HETATM   22  C   UNK     1     -11.025  12.600  66.878  1.00  0.00    -0.262 C  
BRANCH  22  23
HETATM   23  O   UNK     1     -12.054  12.136  65.984  1.00  0.00    -0.612 OA 
BRANCH  23  24
HETATM   24  C   UNK     1     -11.891  12.499  64.682  1.00  0.00    -0.378 C  
HETATM   25  O   UNK     1     -12.802  12.677  63.890  1.00  0.00    -0.702 OA 
BRANCH  24  26
HETATM   26  C   UNK     1     -10.420  12.667  64.380  1.00  0.00    -0.398 C  
HETATM   27  C   UNK     1      -9.941  11.632  63.378  1.00  0.00    -0.447 C  
ENDBRANCH  24  26
ENDBRANCH  23  24
ENDBRANCH  22  23
ENDBRANCH   7  22
ENDBRANCH   6   7
ENDBRANCH   4   6
ENDBRANCH   3   4
ENDBRANCH   2   3
TORSDOF 14
ENDMDL
MODEL      128
REMARK 921   NORMALIZED FREE ENERGY PREDICTED BY IDOCK:   -4.49 KCAL/MOL
REMARK 922        TOTAL FREE ENERGY PREDICTED BY IDOCK:   -9.26 KCAL/MOL
REMARK 923 INTER-LIGAND FREE ENERGY PREDICTED BY IDOCK:   -8.17 KCAL/MOL
REMARK 924 INTRA-LIGAND FREE ENERGY PREDICTED BY IDOCK:   -1.09 KCAL/MOL
REMARK 927      BINDING AFFINITY PREDICTED BY RF-SCORE:    0.00 PKD
ROOT
HETATM    1  C   UNK     1     -11.515  16.232  64.584  1.00  0.00    -0.168 C  
HETATM    2  C   UNK     1     -11.599  14.728  64.367  1.00  0.00    -0.304 C  
ENDROOT
BRANCH   2   3
HETATM    3  C   UNK     1     -12.580  14.055  65.321  1.00  0.00    -0.495 C  
BRANCH   3   4
HETATM    4  C   UNK     1     -11.880  13.043  66.191  1.00  0.00    -0.409 C  
HETATM    5  O   UNK     1     -12.041  11.834  66.106  1.00  0.00    -0.422 OA 
BRANCH   4   6
HETATM    6  O   UNK     1     -11.080  13.664  67.092  1.00  0.00    -0.287 OA 
BRANCH   6   7
HETATM    7  C   UNK     1     -11.686  14.361  68.207  1.00  0.00    -0.341 C  
BRANCH   7   8
HETATM    8  C   UNK     1     -11.984  13.444  69.400  1.00  0.00    -0.315 C  
BRANCH   8   9
HETATM    9  O   UNK     1     -11.045  12.372  69.481  1.00  0.00    -0.149 OA 
BRANCH   9  10
HETATM   10  P   UNK     1     -11.692  10.938  70.201  1.00  0.00    -0.375 P  
HETATM   11  O   UNK     1     -12.614  11.809  71.234  1.00  0.00    -0.365 OA 
HETATM   12  O   UNK     1     -12.530  10.696  68.943  1.00  0.00    -0.297 OA 
BRANCH  10  13
HETATM   13  O   UNK     1     -12.340   9.504  70.920  1.00  0.00    -0.288 OA 
BRANCH  13  14
HETATM   14  C   UNK     1     -11.403   8.417  70.918  1.00  0.00    -0.268 C  
BRANCH  14  15
HETATM   15  C   UNK     1     -12.121   7.066  70.897  1.00  0.00    -0.357 C  
HETATM   16  N   UNK     1     -12.220   6.435  72.245  1.00  0.00    -0.522 NA 
HETATM   17  C   UNK     1     -11.335   6.135  69.977  1.00  0.00    -0.373 C  
HETATM   18  O   UNK     1     -10.529   5.302  70.689  1.00  0.00    -0.260 OA 
HETATM   19  O   UNK     1     -11.374   6.161  68.757  1.00  0.00    -0.344 OA 
HETATM   20  H1  UNK     1     -12.698   5.534  72.231  1.00  0.00     0.000 HD 
HETATM   21  H2  UNK     1     -12.658   7.069  72.912  1.00  0.00     0.000 HD 
ENDBRANCH  14  15
ENDBRANCH  13  14
ENDBRANCH  10  13
ENDBRANCH   9  10
ENDBRANCH   8   9
ENDBRANCH   7   8
BRANCH   7  22
HETATM   22  C   UNK     1     -10.858  15.589  68.626  1.00  0.00    -0.267 C  
BRANCH  22  23
HETATM   23  O   UNK     1      -9.832  15.894  67.663  1.00  0.00    -0.230 OA 
BRANCH  23  24
HETATM   24  C   UNK     1      -9.409  17.188  67.664  1.00  0.00    -0.239 C  
HETATM   25  O   UNK     1      -8.451  17.607  67.035  1.00  0.00    -0.223 OA 
BRANCH  24  26
HETATM   26  C   UNK     1     -10.316  18.021  68.540  1.00  0.00    -0.359 C  
HETATM   27  C   UNK     1      -9.895  19.479  68.541  1.00  0.00    -0.518 C  
ENDBRANCH  24  26
ENDBRANCH  23  24
ENDBRANCH  22  23
ENDBRANCH   7  22
ENDBRANCH   6   7
ENDBRANCH   4   6
ENDBRANCH   3   4
ENDBRANCH   2   3
TORSDOF 14
ENDMDL
MODEL      129
REMARK 921   NORMALIZED FREE ENERGY PREDICTED BY IDOCK:   -4.49 KCAL/MOL
REMARK 922        TOTAL FREE ENERGY PREDICTED BY IDOCK:   -9.26 KCAL/MOL
REMARK 923 INTER-LIGAND FREE ENERGY PREDICTED BY IDOCK:   -7.83 KCAL/MOL
REMARK 924 INTRA-LIGAND FREE ENERGY PREDICTED BY IDOCK:   -1.42 KCAL/MOL
REMARK 927      BINDING AFFINITY PREDICTED BY RF-SCORE:    0.00 PKD
ROOT
HETATM    1  C   UNK     1     -10.379   8.323  67.341  1.00  0.00    -0.350 C  
HETATM    2  C   UNK     1      -9.184   8.159  66.412  1.00  0.00    -0.250 C  
ENDROOT
BRANCH   2   3
HETATM    3  C   UNK     1      -8.452   9.475  66.165  1.00  0.00    -0.127 C  
BRANCH   3   4
HETATM    4  C   UNK     1      -9.174  10.310  65.140  1.00  0.00    -0.206 C  
HETATM    5  O   UNK     1      -9.746   9.853  64.160  1.00  0.00    -0.234 OA 
BRANCH   4   6
HETATM    6  O   UNK     1      -9.070  11.627  65.441  1.00  0.00    -0.136 OA 
BRANCH   6   7
HETATM    7  C   UNK     1      -9.471  12.081  66.756  1.00  0.00    -0.208 C  
BRANCH   7   8
HETATM    8  C   UNK     1      -8.566  13.188  67.313  1.00  0.00    -0.210 C  
BRANCH   8   9
HETATM    9  O   UNK     1      -9.074  13.706  68.542  1.00  0.00    -0.183 OA 
BRANCH   9  10
HETATM   10  P   UNK     1      -8.854  15.414  68.717  1.00  0.00    -0.226 P  
HETATM   11  O   UNK     1      -7.387  15.207  69.410  1.00  0.00    -0.174 OA 
HETATM   12  O   UNK     1      -8.627  15.529  67.208  1.00  0.00    -0.171 OA 
BRANCH  10  13
HETATM   13  O   UNK     1      -8.634  17.121  68.891  1.00  0.00    -0.263 OA 
BRANCH  13  14
HETATM   14  C   UNK     1      -9.839  17.858  68.639  1.00  0.00    -0.374 C  
BRANCH  14  15
HETATM   15  C   UNK     1      -9.531  19.248  68.078  1.00  0.00    -0.335 C  
HETATM   16  N   UNK     1     -10.563  20.265  68.435  1.00  0.00    -0.235 NA 
HETATM   17  C   UNK     1      -9.463  19.133  66.557  1.00  0.00    -0.356 C  
HETATM   18  O   UNK     1     -10.624  19.539  65.979  1.00  0.00    -0.485 OA 
HETATM   19  O   UNK     1      -8.515  18.684  65.932  1.00  0.00    -0.491 OA 
HETATM   20  H1  UNK     1     -10.358  21.192  68.061  1.00  0.00     0.000 HD 
HETATM   21  H2  UNK     1     -10.703  20.303  69.444  1.00  0.00     0.000 HD 
ENDBRANCH  14  15
ENDBRANCH  13  14
ENDBRANCH  10  13
ENDBRANCH   9  10
ENDBRANCH   8   9
ENDBRANCH   7   8
BRANCH   7  22
HETATM   22  C   UNK     1     -10.955  12.491  66.787  1.00  0.00    -0.265 C  
BRANCH  22  23
HETATM   23  O   UNK     1     -11.184  13.714  66.063  1.00  0.00    -0.294 OA 
BRANCH  23  24
HETATM   24  C   UNK     1     -12.216  13.671  65.175  1.00  0.00    -0.433 C  
HETATM   25  O   UNK     1     -13.356  14.029  65.416  1.00  0.00    -0.721 OA 
BRANCH  24  26
HETATM   26  C   UNK     1     -11.725  13.134  63.850  1.00  0.00    -0.515 C  
HETATM   27  C   UNK     1     -12.588  11.982  63.368  1.00  0.00    -0.592 C  
ENDBRANCH  24  26
ENDBRANCH  23  24
ENDBRANCH  22  23
ENDBRANCH   7  22
ENDBRANCH   6   7
ENDBRANCH   4   6
ENDBRANCH   3   4
ENDBRANCH   2   3
TORSDOF 14
ENDMDL
MODEL      130
REMARK 921   NORMALIZED FREE ENERGY PREDICTED BY IDOCK:   -4.49 KCAL/MOL
REMARK 922        TOTAL FREE ENERGY PREDICTED BY IDOCK:   -9.25 KCAL/MOL
REMARK 923 INTER-LIGAND FREE ENERGY PREDICTED BY IDOCK:   -8.34 KCAL/MOL
REMARK 924 INTRA-LIGAND FREE ENERGY PREDICTED BY IDOCK:   -0.91 KCAL/MOL
REMARK 927      BINDING AFFINITY PREDICTED BY RF-SCORE:    0.00 PKD
ROOT
HETATM    1  C   UNK     1      -8.817  16.036  66.349  1.00  0.00    -0.363 C  
HETATM    2  C   UNK     1     -10.147  16.204  65.628  1.00  0.00    -0.366 C  
ENDROOT
BRANCH   2   3
HETATM    3  C   UNK     1     -10.696  14.883  65.099  1.00  0.00    -0.429 C  
BRANCH   3   4
HETATM    4  C   UNK     1     -11.968  14.502  65.812  1.00  0.00    -0.306 C  
HETATM    5  O   UNK     1     -12.954  14.038  65.257  1.00  0.00    -0.743 OA 
BRANCH   4   6
HETATM    6  O   UNK     1     -11.872  14.776  67.136  1.00  0.00    -0.374 OA 
BRANCH   6   7
HETATM    7  C   UNK     1     -12.051  13.704  68.091  1.00  0.00    -0.275 C  
BRANCH   7   8
HETATM    8  C   UNK     1     -11.446  12.374  67.624  1.00  0.00    -0.337 C  
BRANCH   8   9
HETATM    9  O   UNK     1     -12.213  11.261  68.086  1.00  0.00    -0.622 OA 
BRANCH   9  10
HETATM   10  P   UNK     1     -11.286  10.106  68.981  1.00  0.00    -0.072 P  
HETATM   11  O   UNK     1      -9.936  11.023  68.868  1.00  0.00    -0.195 OA 
HETATM   12  O   UNK     1     -12.012  10.528  70.259  1.00  0.00    -0.277 OA 
BRANCH  10  13
HETATM   13  O   UNK     1     -10.359   8.952  69.875  1.00  0.00    -0.194 OA 
BRANCH  13  14
HETATM   14  C   UNK     1     -10.613   9.017  71.286  1.00  0.00    -0.308 C  
BRANCH  14  15
HETATM   15  C   UNK     1      -9.353   8.698  72.093  1.00  0.00    -0.273 C  
HETATM   16  N   UNK     1      -8.093   8.941  71.331  1.00  0.00    -0.265 NA 
HETATM   17  C   UNK     1      -9.412   7.224  72.484  1.00  0.00    -0.147 C  
HETATM   18  O   UNK     1      -8.651   6.462  71.653  1.00  0.00    -0.128 OA 
HETATM   19  O   UNK     1     -10.092   6.766  73.389  1.00  0.00    -0.192 OA 
HETATM   20  H1  UNK     1      -7.253   8.728  71.870  1.00  0.00     0.000 HD 
HETATM   21  H2  UNK     1      -8.064   9.896  70.973  1.00  0.00     0.000 HD 
ENDBRANCH  14  15
ENDBRANCH  13  14
ENDBRANCH  10  13
ENDBRANCH   9  10
ENDBRANCH   8   9
ENDBRANCH   7   8
BRANCH   7  22
HETATM   22  C   UNK     1     -11.545  14.098  69.490  1.00  0.00    -0.295 C  
BRANCH  22  23
HETATM   23  O   UNK     1     -12.627  14.480  70.360  1.00  0.00    -0.339 OA 
BRANCH  23  24
HETATM   24  C   UNK     1     -12.452  15.664  71.010  1.00  0.00    -0.447 C  
HETATM   25  O   UNK     1     -11.724  16.564  70.629  1.00  0.00    -0.139 OA 
BRANCH  24  26
HETATM   26  C   UNK     1     -13.309  15.693  72.254  1.00  0.00    -0.567 C  
HETATM   27  C   UNK     1     -12.471  15.936  73.496  1.00  0.00    -0.683 C  
ENDBRANCH  24  26
ENDBRANCH  23  24
ENDBRANCH  22  23
ENDBRANCH   7  22
ENDBRANCH   6   7
ENDBRANCH   4   6
ENDBRANCH   3   4
ENDBRANCH   2   3
TORSDOF 14
ENDMDL
MODEL      131
REMARK 921   NORMALIZED FREE ENERGY PREDICTED BY IDOCK:   -4.49 KCAL/MOL
REMARK 922        TOTAL FREE ENERGY PREDICTED BY IDOCK:   -9.25 KCAL/MOL
REMARK 923 INTER-LIGAND FREE ENERGY PREDICTED BY IDOCK:   -8.38 KCAL/MOL
REMARK 924 INTRA-LIGAND FREE ENERGY PREDICTED BY IDOCK:   -0.87 KCAL/MOL
REMARK 927      BINDING AFFINITY PREDICTED BY RF-SCORE:    0.00 PKD
ROOT
HETATM    1  C   UNK     1     -14.320   7.747  71.400  1.00  0.00    -0.513 C  
HETATM    2  C   UNK     1     -12.828   7.505  71.225  1.00  0.00    -0.331 C  
ENDROOT
BRANCH   2   3
HETATM    3  C   UNK     1     -11.984   8.339  72.184  1.00  0.00    -0.429 C  
BRANCH   3   4
HETATM    4  C   UNK     1     -11.025   9.224  71.431  1.00  0.00    -0.359 C  
HETATM    5  O   UNK     1      -9.843   9.354  71.714  1.00  0.00    -0.206 OA 
BRANCH   4   6
HETATM    6  O   UNK     1     -11.665   9.871  70.426  1.00  0.00    -0.262 OA 
BRANCH   6   7
HETATM    7  C   UNK     1     -11.590  11.314  70.360  1.00  0.00    -0.223 C  
BRANCH   7   8
HETATM    8  C   UNK     1     -11.421  11.844  68.930  1.00  0.00    -0.301 C  
BRANCH   8   9
HETATM    9  O   UNK     1     -10.089  11.645  68.454  1.00  0.00    -0.195 OA 
BRANCH   9  10
HETATM   10  P   UNK     1      -9.631  12.745  67.200  1.00  0.00    -0.232 P  
HETATM   11  O   UNK     1      -9.106  13.849  68.287  1.00  0.00    -0.184 OA 
HETATM   12  O   UNK     1      -8.440  11.846  66.860  1.00  0.00    -0.168 OA 
BRANCH  10  13
HETATM   13  O   UNK     1      -9.172  13.845  65.946  1.00  0.00    -0.038 OA 
BRANCH  13  14
HETATM   14  C   UNK     1     -10.036  13.766  64.803  1.00  0.00    -0.228 C  
BRANCH  14  15
HETATM   15  C   UNK     1     -10.886  15.029  64.661  1.00  0.00    -0.269 C  
HETATM   16  N   UNK     1     -10.874  15.884  65.884  1.00  0.00    -0.276 NA 
HETATM   17  C   UNK     1     -12.323  14.596  64.382  1.00  0.00    -0.398 C  
HETATM   18  O   UNK     1     -13.079  14.635  65.512  1.00  0.00    -0.299 OA 
HETATM   19  O   UNK     1     -12.740  14.209  63.302  1.00  0.00    -0.714 OA 
HETATM   20  H1  UNK     1     -11.441  16.727  65.789  1.00  0.00     0.000 HD 
HETATM   21  H2  UNK     1      -9.919  16.117  66.155  1.00  0.00     0.000 HD 
ENDBRANCH  14  15
ENDBRANCH  13  14
ENDBRANCH  10  13
ENDBRANCH   9  10
ENDBRANCH   8   9
ENDBRANCH   7   8
BRANCH   7  22
HETATM   22  C   UNK     1     -12.781  11.979  71.074  1.00  0.00    -0.241 C  
BRANCH  22  23
HETATM   23  O   UNK     1     -12.792  13.405  70.875  1.00  0.00    -0.284 OA 
BRANCH  23  24
HETATM   24  C   UNK     1     -13.237  14.130  71.939  1.00  0.00    -0.387 C  
HETATM   25  O   UNK     1     -14.249  13.884  72.574  1.00  0.00    -0.671 OA 
BRANCH  24  26
HETATM   26  C   UNK     1     -12.279  15.264  72.219  1.00  0.00    -0.466 C  
HETATM   27  C   UNK     1     -12.162  15.534  73.708  1.00  0.00    -0.703 C  
ENDBRANCH  24  26
ENDBRANCH  23  24
ENDBRANCH  22  23
ENDBRANCH   7  22
ENDBRANCH   6   7
ENDBRANCH   4   6
ENDBRANCH   3   4
ENDBRANCH   2   3
TORSDOF 14
ENDMDL
MODEL      132
REMARK 921   NORMALIZED FREE ENERGY PREDICTED BY IDOCK:   -4.48 KCAL/MOL
REMARK 922        TOTAL FREE ENERGY PREDICTED BY IDOCK:   -9.23 KCAL/MOL
REMARK 923 INTER-LIGAND FREE ENERGY PREDICTED BY IDOCK:   -8.50 KCAL/MOL
REMARK 924 INTRA-LIGAND FREE ENERGY PREDICTED BY IDOCK:   -0.73 KCAL/MOL
REMARK 927      BINDING AFFINITY PREDICTED BY RF-SCORE:    0.00 PKD
ROOT
HETATM    1  C   UNK     1      -9.752   9.406  67.781  1.00  0.00    -0.182 C  
HETATM    2  C   UNK     1      -9.890  10.921  67.720  1.00  0.00    -0.194 C  
ENDROOT
BRANCH   2   3
HETATM    3  C   UNK     1     -11.263  11.401  68.179  1.00  0.00    -0.343 C  
BRANCH   3   4
HETATM    4  C   UNK     1     -11.581  12.758  67.605  1.00  0.00    -0.358 C  
HETATM    5  O   UNK     1     -12.569  13.003  66.926  1.00  0.00    -0.194 OA 
BRANCH   4   6
HETATM    6  O   UNK     1     -10.607  13.647  67.918  1.00  0.00    -0.241 OA 
BRANCH   6   7
HETATM    7  C   UNK     1     -10.862  14.635  68.945  1.00  0.00    -0.250 C  
BRANCH   7   8
HETATM    8  C   UNK     1     -11.293  15.994  68.379  1.00  0.00    -0.355 C  
BRANCH   8   9
HETATM    9  O   UNK     1     -11.062  16.070  66.972  1.00  0.00    -0.222 OA 
BRANCH   9  10
HETATM   10  P   UNK     1      -9.974  17.335  66.517  1.00  0.00    -0.317 P  
HETATM   11  O   UNK     1     -10.786  17.606  65.123  1.00  0.00    -0.664 OA 
HETATM   12  O   UNK     1     -10.595  18.240  67.583  1.00  0.00    -0.406 OA 
BRANCH  10  13
HETATM   13  O   UNK     1      -8.885  18.601  66.062  1.00  0.00    -0.489 OA 
BRANCH  13  14
HETATM   14  C   UNK     1      -7.510  18.234  66.243  1.00  0.00    -0.260 C  
BRANCH  14  15
HETATM   15  C   UNK     1      -6.839  19.104  67.307  1.00  0.00    -0.195 C  
HETATM   16  N   UNK     1      -7.571  19.108  68.608  1.00  0.00    -0.333 NA 
HETATM   17  C   UNK     1      -6.783  20.533  66.773  1.00  0.00    -0.259 C  
HETATM   18  O   UNK     1      -7.788  21.292  67.286  1.00  0.00    -0.313 OA 
HETATM   19  O   UNK     1      -5.979  20.941  65.950  1.00  0.00    -0.224 OA 
HETATM   20  H1  UNK     1      -7.123  19.688  69.317  1.00  0.00     0.000 HD 
HETATM   21  H2  UNK     1      -7.709  18.157  68.950  1.00  0.00     0.000 HD 
ENDBRANCH  14  15
ENDBRANCH  13  14
ENDBRANCH  10  13
ENDBRANCH   9  10
ENDBRANCH   8   9
ENDBRANCH   7   8
BRANCH   7  22
HETATM   22  C   UNK     1     -11.858  14.116  69.998  1.00  0.00    -0.323 C  
BRANCH  22  23
HETATM   23  O   UNK     1     -12.596  15.192  70.607  1.00  0.00    -0.345 OA 
BRANCH  23  24
HETATM   24  C   UNK     1     -13.044  14.940  71.869  1.00  0.00    -0.338 C  
HETATM   25  O   UNK     1     -14.110  14.411  72.134  1.00  0.00    -0.460 OA 
BRANCH  24  26
HETATM   26  C   UNK     1     -12.013  15.394  72.876  1.00  0.00    -0.556 C  
HETATM   27  C   UNK     1     -12.666  16.089  74.058  1.00  0.00    -0.682 C  
ENDBRANCH  24  26
ENDBRANCH  23  24
ENDBRANCH  22  23
ENDBRANCH   7  22
ENDBRANCH   6   7
ENDBRANCH   4   6
ENDBRANCH   3   4
ENDBRANCH   2   3
TORSDOF 14
ENDMDL
MODEL      133
REMARK 921   NORMALIZED FREE ENERGY PREDICTED BY IDOCK:   -4.47 KCAL/MOL
REMARK 922        TOTAL FREE ENERGY PREDICTED BY IDOCK:   -9.21 KCAL/MOL
REMARK 923 INTER-LIGAND FREE ENERGY PREDICTED BY IDOCK:   -8.02 KCAL/MOL
REMARK 924 INTRA-LIGAND FREE ENERGY PREDICTED BY IDOCK:   -1.19 KCAL/MOL
REMARK 927      BINDING AFFINITY PREDICTED BY RF-SCORE:    0.00 PKD
ROOT
HETATM    1  C   UNK     1     -11.028   4.805  73.162  1.00  0.00    -0.374 C  
HETATM    2  C   UNK     1     -10.342   6.120  72.816  1.00  0.00    -0.220 C  
ENDROOT
BRANCH   2   3
HETATM    3  C   UNK     1     -11.328   7.278  72.695  1.00  0.00    -0.333 C  
BRANCH   3   4
HETATM    4  C   UNK     1     -11.957   7.310  71.326  1.00  0.00    -0.324 C  
HETATM    5  O   UNK     1     -13.160   7.402  71.125  1.00  0.00    -0.313 OA 
BRANCH   4   6
HETATM    6  O   UNK     1     -11.010   7.190  70.364  1.00  0.00    -0.249 OA 
BRANCH   6   7
HETATM    7  C   UNK     1     -10.909   8.213  69.346  1.00  0.00    -0.086 C  
BRANCH   7   8
HETATM    8  C   UNK     1     -10.109   9.440  69.801  1.00  0.00    -0.211 C  
BRANCH   8   9
HETATM    9  O   UNK     1     -10.969  10.533  70.124  1.00  0.00    -0.287 OA 
BRANCH   9  10
HETATM   10  P   UNK     1     -11.534  11.401  68.738  1.00  0.00    -0.346 P  
HETATM   11  O   UNK     1     -11.838  12.736  69.632  1.00  0.00    -0.311 OA 
HETATM   12  O   UNK     1     -10.094  11.514  68.234  1.00  0.00    -0.186 OA 
BRANCH  10  13
HETATM   13  O   UNK     1     -12.099  12.269  67.352  1.00  0.00    -0.533 OA 
BRANCH  13  14
HETATM   14  C   UNK     1     -11.280  12.048  66.195  1.00  0.00    -0.343 C  
BRANCH  14  15
HETATM   15  C   UNK     1     -11.584  13.069  65.097  1.00  0.00    -0.324 C  
HETATM   16  N   UNK     1     -12.919  13.717  65.254  1.00  0.00    -0.754 NA 
HETATM   17  C   UNK     1     -11.551  12.337  63.757  1.00  0.00    -0.471 C  
HETATM   18  O   UNK     1     -12.805  12.027  63.333  1.00  0.00    -0.760 OA 
HETATM   19  O   UNK     1     -10.535  12.017  63.161  1.00  0.00    -0.393 OA 
HETATM   20  H1  UNK     1     -13.122  14.398  64.522  1.00  0.00     0.000 HD 
HETATM   21  H2  UNK     1     -13.012  14.139  66.178  1.00  0.00     0.000 HD 
ENDBRANCH  14  15
ENDBRANCH  13  14
ENDBRANCH  10  13
ENDBRANCH   9  10
ENDBRANCH   8   9
ENDBRANCH   7   8
BRANCH   7  22
HETATM   22  C   UNK     1     -10.372   7.644  68.020  1.00  0.00    -0.205 C  
BRANCH  22  23
HETATM   23  O   UNK     1     -10.670   6.242  67.883  1.00  0.00    -0.242 OA 
BRANCH  23  24
HETATM   24  C   UNK     1      -9.810   5.546  67.089  1.00  0.00    -0.154 C  
HETATM   25  O   UNK     1      -9.293   5.982  66.075  1.00  0.00    -0.151 OA 
BRANCH  24  26
HETATM   26  C   UNK     1      -9.582   4.169  67.669  1.00  0.00    -0.213 C  
HETATM   27  C   UNK     1      -9.617   4.197  69.186  1.00  0.00    -0.243 C  
ENDBRANCH  24  26
ENDBRANCH  23  24
ENDBRANCH  22  23
ENDBRANCH   7  22
ENDBRANCH   6   7
ENDBRANCH   4   6
ENDBRANCH   3   4
ENDBRANCH   2   3
TORSDOF 14
ENDMDL
MODEL      134
REMARK 921   NORMALIZED FREE ENERGY PREDICTED BY IDOCK:   -4.44 KCAL/MOL
REMARK 922        TOTAL FREE ENERGY PREDICTED BY IDOCK:   -9.17 KCAL/MOL
REMARK 923 INTER-LIGAND FREE ENERGY PREDICTED BY IDOCK:   -7.95 KCAL/MOL
REMARK 924 INTRA-LIGAND FREE ENERGY PREDICTED BY IDOCK:   -1.22 KCAL/MOL
REMARK 927      BINDING AFFINITY PREDICTED BY RF-SCORE:    0.00 PKD
ROOT
HETATM    1  C   UNK     1      -9.537   9.137  66.985  1.00  0.00    -0.223 C  
HETATM    2  C   UNK     1     -10.901   9.620  67.460  1.00  0.00    -0.265 C  
ENDROOT
BRANCH   2   3
HETATM    3  C   UNK     1     -10.888  10.063  68.919  1.00  0.00    -0.250 C  
BRANCH   3   4
HETATM    4  C   UNK     1     -11.660  11.344  69.102  1.00  0.00    -0.314 C  
HETATM    5  O   UNK     1     -12.124  12.004  68.182  1.00  0.00    -0.480 OA 
BRANCH   4   6
HETATM    6  O   UNK     1     -11.737  11.670  70.415  1.00  0.00    -0.313 OA 
BRANCH   6   7
HETATM    7  C   UNK     1     -13.017  11.595  71.084  1.00  0.00    -0.212 C  
BRANCH   7   8
HETATM    8  C   UNK     1     -13.155  10.360  71.985  1.00  0.00    -0.416 C  
BRANCH   8   9
HETATM    9  O   UNK     1     -13.799   9.285  71.301  1.00  0.00    -0.323 OA 
BRANCH   9  10
HETATM   10  P   UNK     1     -12.914   7.800  71.359  1.00  0.00    -0.187 P  
HETATM   11  O   UNK     1     -12.011   8.325  72.617  1.00  0.00    -0.399 OA 
HETATM   12  O   UNK     1     -14.143   7.102  71.945  1.00  0.00    -0.340 OA 
BRANCH  10  13
HETATM   13  O   UNK     1     -12.029   6.314  71.417  1.00  0.00    -0.290 OA 
BRANCH  13  14
HETATM   14  C   UNK     1     -10.687   6.455  70.928  1.00  0.00    -0.250 C  
BRANCH  14  15
HETATM   15  C   UNK     1     -10.284   5.260  70.062  1.00  0.00    -0.288 C  
HETATM   16  N   UNK     1      -8.977   4.661  70.464  1.00  0.00    -0.105 NA 
HETATM   17  C   UNK     1     -10.176   5.745  68.619  1.00  0.00    -0.197 C  
HETATM   18  O   UNK     1      -8.883   5.986  68.274  1.00  0.00    -0.113 OA 
HETATM   19  O   UNK     1     -11.124   5.947  67.877  1.00  0.00    -0.250 OA 
HETATM   20  H1  UNK     1      -8.708   3.864  69.887  1.00  0.00     0.000 HD 
HETATM   21  H2  UNK     1      -8.981   4.409  71.452  1.00  0.00     0.000 HD 
ENDBRANCH  14  15
ENDBRANCH  13  14
ENDBRANCH  10  13
ENDBRANCH   9  10
ENDBRANCH   8   9
ENDBRANCH   7   8
BRANCH   7  22
HETATM   22  C   UNK     1     -13.336  12.893  71.848  1.00  0.00    -0.435 C  
BRANCH  22  23
HETATM   23  O   UNK     1     -12.754  14.044  71.207  1.00  0.00    -0.327 OA 
BRANCH  23  24
HETATM   24  C   UNK     1     -12.061  14.874  72.036  1.00  0.00    -0.359 C  
HETATM   25  O   UNK     1     -11.023  15.441  71.741  1.00  0.00    -0.303 OA 
BRANCH  24  26
HETATM   26  C   UNK     1     -12.786  14.997  73.356  1.00  0.00    -0.652 C  
HETATM   27  C   UNK     1     -12.463  16.312  74.042  1.00  0.00    -0.662 C  
ENDBRANCH  24  26
ENDBRANCH  23  24
ENDBRANCH  22  23
ENDBRANCH   7  22
ENDBRANCH   6   7
ENDBRANCH   4   6
ENDBRANCH   3   4
ENDBRANCH   2   3
TORSDOF 14
ENDMDL
MODEL      135
REMARK 921   NORMALIZED FREE ENERGY PREDICTED BY IDOCK:   -4.44 KCAL/MOL
REMARK 922        TOTAL FREE ENERGY PREDICTED BY IDOCK:   -9.16 KCAL/MOL
REMARK 923 INTER-LIGAND FREE ENERGY PREDICTED BY IDOCK:   -8.26 KCAL/MOL
REMARK 924 INTRA-LIGAND FREE ENERGY PREDICTED BY IDOCK:   -0.91 KCAL/MOL
REMARK 927      BINDING AFFINITY PREDICTED BY RF-SCORE:    0.00 PKD
ROOT
HETATM    1  C   UNK     1     -13.289  15.378  71.168  1.00  0.00    -0.580 C  
HETATM    2  C   UNK     1     -11.836  15.361  70.716  1.00  0.00    -0.394 C  
ENDROOT
BRANCH   2   3
HETATM    3  C   UNK     1     -11.695  15.194  69.207  1.00  0.00    -0.352 C  
BRANCH   3   4
HETATM    4  C   UNK     1     -11.409  13.759  68.846  1.00  0.00    -0.288 C  
HETATM    5  O   UNK     1     -12.145  12.821  69.121  1.00  0.00    -0.261 OA 
BRANCH   4   6
HETATM    6  O   UNK     1     -10.218  13.657  68.209  1.00  0.00    -0.231 OA 
BRANCH   6   7
HETATM    7  C   UNK     1     -10.200  13.329  66.800  1.00  0.00    -0.254 C  
BRANCH   7   8
HETATM    8  C   UNK     1     -10.312  11.823  66.530  1.00  0.00    -0.223 C  
BRANCH   8   9
HETATM    9  O   UNK     1      -9.448  11.075  67.387  1.00  0.00    -0.159 OA 
BRANCH   9  10
HETATM   10  P   UNK     1     -10.047   9.497  67.767  1.00  0.00    -0.226 P  
HETATM   11  O   UNK     1     -11.499  10.099  68.220  1.00  0.00    -0.186 OA 
HETATM   12  O   UNK     1     -10.137   9.181  66.272  1.00  0.00    -0.286 OA 
BRANCH  10  13
HETATM   13  O   UNK     1     -10.647   7.919  68.146  1.00  0.00    -0.194 OA 
BRANCH  13  14
HETATM   14  C   UNK     1      -9.881   7.273  69.174  1.00  0.00    -0.166 C  
BRANCH  14  15
HETATM   15  C   UNK     1     -10.740   6.983  70.406  1.00  0.00    -0.234 C  
HETATM   16  N   UNK     1     -12.204   7.011  70.119  1.00  0.00    -0.615 NA 
HETATM   17  C   UNK     1     -10.426   8.047  71.455  1.00  0.00    -0.215 C  
HETATM   18  O   UNK     1     -11.368   9.027  71.461  1.00  0.00    -0.292 OA 
HETATM   19  O   UNK     1      -9.433   8.058  72.165  1.00  0.00    -0.167 OA 
HETATM   20  H1  UNK     1     -12.776   6.817  70.941  1.00  0.00     0.000 HD 
HETATM   21  H2  UNK     1     -12.437   6.377  69.356  1.00  0.00     0.000 HD 
ENDBRANCH  14  15
ENDBRANCH  13  14
ENDBRANCH  10  13
ENDBRANCH   9  10
ENDBRANCH   8   9
ENDBRANCH   7   8
BRANCH   7  22
HETATM   22  C   UNK     1     -11.260  14.126  66.017  1.00  0.00    -0.319 C  
BRANCH  22  23
HETATM   23  O   UNK     1     -10.671  14.882  64.943  1.00  0.00    -0.398 OA 
BRANCH  23  24
HETATM   24  C   UNK     1     -10.996  16.204  64.924  1.00  0.00    -0.349 C  
HETATM   25  O   UNK     1     -11.642  16.749  64.044  1.00  0.00    -1.195 OA 
BRANCH  24  26
HETATM   26  C   UNK     1     -10.455  16.880  66.163  1.00  0.00    -0.276 C  
HETATM   27  C   UNK     1     -10.426  18.389  66.000  1.00  0.00    -0.400 C  
ENDBRANCH  24  26
ENDBRANCH  23  24
ENDBRANCH  22  23
ENDBRANCH   7  22
ENDBRANCH   6   7
ENDBRANCH   4   6
ENDBRANCH   3   4
ENDBRANCH   2   3
TORSDOF 14
ENDMDL
MODEL      136
REMARK 921   NORMALIZED FREE ENERGY PREDICTED BY IDOCK:   -4.44 KCAL/MOL
REMARK 922        TOTAL FREE ENERGY PREDICTED BY IDOCK:   -9.16 KCAL/MOL
REMARK 923 INTER-LIGAND FREE ENERGY PREDICTED BY IDOCK:   -8.25 KCAL/MOL
REMARK 924 INTRA-LIGAND FREE ENERGY PREDICTED BY IDOCK:   -0.91 KCAL/MOL
REMARK 927      BINDING AFFINITY PREDICTED BY RF-SCORE:    0.00 PKD
ROOT
HETATM    1  C   UNK     1     -10.631  16.431  65.129  1.00  0.00    -0.287 C  
HETATM    2  C   UNK     1     -10.640  14.909  65.141  1.00  0.00    -0.450 C  
ENDROOT
BRANCH   2   3
HETATM    3  C   UNK     1     -11.894  14.327  64.497  1.00  0.00    -0.456 C  
BRANCH   3   4
HETATM    4  C   UNK     1     -12.234  12.985  65.093  1.00  0.00    -0.459 C  
HETATM    5  O   UNK     1     -13.217  12.325  64.786  1.00  0.00    -0.697 OA 
BRANCH   4   6
HETATM    6  O   UNK     1     -11.320  12.636  66.031  1.00  0.00    -0.296 OA 
BRANCH   6   7
HETATM    7  C   UNK     1     -11.765  12.369  67.382  1.00  0.00    -0.347 C  
BRANCH   7   8
HETATM    8  C   UNK     1     -11.399  10.962  67.870  1.00  0.00    -0.308 C  
BRANCH   8   9
HETATM    9  O   UNK     1     -10.463  11.011  68.947  1.00  0.00    -0.188 OA 
BRANCH   9  10
HETATM   10  P   UNK     1     -10.356   9.533  69.839  1.00  0.00    -0.275 P  
HETATM   11  O   UNK     1      -8.762   9.758  70.125  1.00  0.00    -0.207 OA 
HETATM   12  O   UNK     1     -11.118  10.186  70.995  1.00  0.00    -0.323 OA 
BRANCH  10  13
HETATM   13  O   UNK     1     -10.250   8.054  70.732  1.00  0.00    -0.193 OA 
BRANCH  13  14
HETATM   14  C   UNK     1     -10.323   8.262  72.150  1.00  0.00    -0.300 C  
BRANCH  14  15
HETATM   15  C   UNK     1      -9.823   7.037  72.917  1.00  0.00    -0.177 C  
HETATM   16  N   UNK     1     -10.562   6.803  74.193  1.00  0.00    -0.435 NA 
HETATM   17  C   UNK     1      -8.348   7.259  73.239  1.00  0.00    -0.119 C  
HETATM   18  O   UNK     1      -8.181   7.693  74.517  1.00  0.00    -0.197 OA 
HETATM   19  O   UNK     1      -7.430   7.121  72.445  1.00  0.00    -0.086 OA 
HETATM   20  H1  UNK     1     -10.228   5.986  74.704  1.00  0.00     0.000 HD 
HETATM   21  H2  UNK     1     -11.566   6.743  74.026  1.00  0.00     0.000 HD 
ENDBRANCH  14  15
ENDBRANCH  13  14
ENDBRANCH  10  13
ENDBRANCH   9  10
ENDBRANCH   8   9
ENDBRANCH   7   8
BRANCH   7  22
HETATM   22  C   UNK     1     -11.284  13.454  68.363  1.00  0.00    -0.279 C  
BRANCH  22  23
HETATM   23  O   UNK     1     -12.388  14.184  68.931  1.00  0.00    -0.284 OA 
BRANCH  23  24
HETATM   24  C   UNK     1     -12.512  14.077  70.284  1.00  0.00    -0.338 C  
HETATM   25  O   UNK     1     -12.358  13.046  70.916  1.00  0.00    -0.366 OA 
BRANCH  24  26
HETATM   26  C   UNK     1     -12.847  15.428  70.873  1.00  0.00    -0.536 C  
HETATM   27  C   UNK     1     -14.006  15.332  71.848  1.00  0.00    -0.644 C  
ENDBRANCH  24  26
ENDBRANCH  23  24
ENDBRANCH  22  23
ENDBRANCH   7  22
ENDBRANCH   6   7
ENDBRANCH   4   6
ENDBRANCH   3   4
ENDBRANCH   2   3
TORSDOF 14
ENDMDL
MODEL      137
REMARK 921   NORMALIZED FREE ENERGY PREDICTED BY IDOCK:   -4.43 KCAL/MOL
REMARK 922        TOTAL FREE ENERGY PREDICTED BY IDOCK:   -9.15 KCAL/MOL
REMARK 923 INTER-LIGAND FREE ENERGY PREDICTED BY IDOCK:   -7.83 KCAL/MOL
REMARK 924 INTRA-LIGAND FREE ENERGY PREDICTED BY IDOCK:   -1.32 KCAL/MOL
REMARK 927      BINDING AFFINITY PREDICTED BY RF-SCORE:    0.00 PKD
ROOT
HETATM    1  C   UNK     1      -6.934  10.909  66.459  1.00  0.00    -0.139 C  
HETATM    2  C   UNK     1      -7.257   9.956  65.316  1.00  0.00    -0.131 C  
ENDROOT
BRANCH   2   3
HETATM    3  C   UNK     1      -8.548  10.327  64.593  1.00  0.00    -0.194 C  
BRANCH   3   4
HETATM    4  C   UNK     1      -9.754   9.855  65.365  1.00  0.00    -0.306 C  
HETATM    5  O   UNK     1      -9.792   8.818  66.013  1.00  0.00    -0.258 OA 
BRANCH   4   6
HETATM    6  O   UNK     1     -10.785  10.720  65.210  1.00  0.00    -0.202 OA 
BRANCH   6   7
HETATM    7  C   UNK     1     -10.629  12.088  65.656  1.00  0.00    -0.265 C  
BRANCH   7   8
HETATM    8  C   UNK     1     -10.882  13.116  64.545  1.00  0.00    -0.383 C  
BRANCH   8   9
HETATM    9  O   UNK     1     -11.565  14.266  65.046  1.00  0.00    -0.336 OA 
BRANCH   9  10
HETATM   10  P   UNK     1     -10.526  15.623  65.317  1.00  0.00    -0.324 P  
HETATM   11  O   UNK     1     -11.334  16.527  64.219  1.00  0.00    -1.020 OA 
HETATM   12  O   UNK     1     -11.197  15.854  66.672  1.00  0.00    -0.129 OA 
BRANCH  10  13
HETATM   13  O   UNK     1      -9.487  16.980  65.587  1.00  0.00    -0.526 OA 
BRANCH  13  14
HETATM   14  C   UNK     1      -8.309  16.630  66.327  1.00  0.00    -0.325 C  
BRANCH  14  15
HETATM   15  C   UNK     1      -8.166  17.492  67.583  1.00  0.00    -0.215 C  
HETATM   16  N   UNK     1      -6.915  18.305  67.597  1.00  0.00    -0.202 NA 
HETATM   17  C   UNK     1      -8.156  16.557  68.790  1.00  0.00    -0.244 C  
HETATM   18  O   UNK     1      -6.888  16.328  69.227  1.00  0.00    -0.189 OA 
HETATM   19  O   UNK     1      -9.145  16.032  69.277  1.00  0.00    -0.246 OA 
HETATM   20  H1  UNK     1      -6.820  18.879  68.435  1.00  0.00     0.000 HD 
HETATM   21  H2  UNK     1      -6.843  18.875  66.755  1.00  0.00     0.000 HD 
ENDBRANCH  14  15
ENDBRANCH  13  14
ENDBRANCH  10  13
ENDBRANCH   9  10
ENDBRANCH   8   9
ENDBRANCH   7   8
BRANCH   7  22
HETATM   22  C   UNK     1     -11.480  12.380  66.905  1.00  0.00    -0.360 C  
BRANCH  22  23
HETATM   23  O   UNK     1     -11.885  11.167  67.568  1.00  0.00    -0.591 OA 
BRANCH  23  24
HETATM   24  C   UNK     1     -11.252  10.917  68.747  1.00  0.00    -0.270 C  
HETATM   25  O   UNK     1     -10.051  10.746  68.868  1.00  0.00    -0.189 OA 
BRANCH  24  26
HETATM   26  C   UNK     1     -12.259  10.905  69.874  1.00  0.00    -0.408 C  
HETATM   27  C   UNK     1     -12.275  12.231  70.613  1.00  0.00    -0.378 C  
ENDBRANCH  24  26
ENDBRANCH  23  24
ENDBRANCH  22  23
ENDBRANCH   7  22
ENDBRANCH   6   7
ENDBRANCH   4   6
ENDBRANCH   3   4
ENDBRANCH   2   3
TORSDOF 14
ENDMDL
MODEL      138
REMARK 921   NORMALIZED FREE ENERGY PREDICTED BY IDOCK:   -4.42 KCAL/MOL
REMARK 922        TOTAL FREE ENERGY PREDICTED BY IDOCK:   -9.13 KCAL/MOL
REMARK 923 INTER-LIGAND FREE ENERGY PREDICTED BY IDOCK:   -8.19 KCAL/MOL
REMARK 924 INTRA-LIGAND FREE ENERGY PREDICTED BY IDOCK:   -0.95 KCAL/MOL
REMARK 927      BINDING AFFINITY PREDICTED BY RF-SCORE:    0.00 PKD
ROOT
HETATM    1  C   UNK     1     -13.959   7.265  71.394  1.00  0.00    -0.429 C  
HETATM    2  C   UNK     1     -12.564   6.829  71.822  1.00  0.00    -0.370 C  
ENDROOT
BRANCH   2   3
HETATM    3  C   UNK     1     -11.464   7.569  71.068  1.00  0.00    -0.299 C  
BRANCH   3   4
HETATM    4  C   UNK     1     -10.586   8.343  72.017  1.00  0.00    -0.317 C  
HETATM    5  O   UNK     1     -10.321   7.984  73.156  1.00  0.00    -0.332 OA 
BRANCH   4   6
HETATM    6  O   UNK     1     -10.164   9.495  71.442  1.00  0.00    -0.283 OA 
BRANCH   6   7
HETATM    7  C   UNK     1      -9.924   9.522  70.015  1.00  0.00    -0.237 C  
BRANCH   7   8
HETATM    8  C   UNK     1     -10.906  10.424  69.256  1.00  0.00    -0.241 C  
BRANCH   8   9
HETATM    9  O   UNK     1     -10.579  11.805  69.422  1.00  0.00    -0.085 OA 
BRANCH   9  10
HETATM   10  P   UNK     1     -11.355  12.841  68.274  1.00  0.00    -0.347 P  
HETATM   11  O   UNK     1     -12.161  11.586  67.605  1.00  0.00    -0.623 OA 
HETATM   12  O   UNK     1     -12.238  13.401  69.391  1.00  0.00    -0.288 OA 
BRANCH  10  13
HETATM   13  O   UNK     1     -12.130  13.878  67.126  1.00  0.00    -0.407 OA 
BRANCH  13  14
HETATM   14  C   UNK     1     -11.374  15.069  66.864  1.00  0.00    -0.302 C  
BRANCH  14  15
HETATM   15  C   UNK     1     -10.614  14.963  65.540  1.00  0.00    -0.357 C  
HETATM   16  N   UNK     1      -9.411  15.845  65.484  1.00  0.00    -0.373 NA 
HETATM   17  C   UNK     1     -11.569  15.367  64.420  1.00  0.00    -0.264 C  
HETATM   18  O   UNK     1     -11.362  16.654  64.035  1.00  0.00    -1.120 OA 
HETATM   19  O   UNK     1     -12.447  14.655  63.960  1.00  0.00    -0.796 OA 
HETATM   20  H1  UNK     1      -8.905  15.774  64.601  1.00  0.00     0.000 HD 
HETATM   21  H2  UNK     1      -8.792  15.666  66.274  1.00  0.00     0.000 HD 
ENDBRANCH  14  15
ENDBRANCH  13  14
ENDBRANCH  10  13
ENDBRANCH   9  10
ENDBRANCH   8   9
ENDBRANCH   7   8
BRANCH   7  22
HETATM   22  C   UNK     1      -8.461   9.876  69.692  1.00  0.00    -0.187 C  
BRANCH  22  23
HETATM   23  O   UNK     1      -8.110   9.506  68.345  1.00  0.00    -0.100 OA 
BRANCH  23  24
HETATM   24  C   UNK     1      -7.445  10.464  67.641  1.00  0.00    -0.089 C  
HETATM   25  O   UNK     1      -7.026  10.325  66.504  1.00  0.00    -0.096 OA 
BRANCH  24  26
HETATM   26  C   UNK     1      -7.328  11.720  68.473  1.00  0.00    -0.103 C  
HETATM   27  C   UNK     1      -7.368  12.963  67.603  1.00  0.00    -0.145 C  
ENDBRANCH  24  26
ENDBRANCH  23  24
ENDBRANCH  22  23
ENDBRANCH   7  22
ENDBRANCH   6   7
ENDBRANCH   4   6
ENDBRANCH   3   4
ENDBRANCH   2   3
TORSDOF 14
ENDMDL
MODEL      139
REMARK 921   NORMALIZED FREE ENERGY PREDICTED BY IDOCK:   -4.42 KCAL/MOL
REMARK 922        TOTAL FREE ENERGY PREDICTED BY IDOCK:   -9.12 KCAL/MOL
REMARK 923 INTER-LIGAND FREE ENERGY PREDICTED BY IDOCK:   -8.34 KCAL/MOL
REMARK 924 INTRA-LIGAND FREE ENERGY PREDICTED BY IDOCK:   -0.78 KCAL/MOL
REMARK 927      BINDING AFFINITY PREDICTED BY RF-SCORE:    0.00 PKD
ROOT
HETATM    1  C   UNK     1      -5.644  15.183  70.330  1.00  0.00    -0.138 C  
HETATM    2  C   UNK     1      -6.241  15.234  68.931  1.00  0.00    -0.094 C  
ENDROOT
BRANCH   2   3
HETATM    3  C   UNK     1      -7.760  15.364  68.947  1.00  0.00    -0.165 C  
BRANCH   3   4
HETATM    4  C   UNK     1      -8.400  14.341  68.044  1.00  0.00    -0.157 C  
HETATM    5  O   UNK     1      -7.778  13.502  67.407  1.00  0.00    -0.164 OA 
BRANCH   4   6
HETATM    6  O   UNK     1      -9.745  14.506  68.017  1.00  0.00    -0.209 OA 
BRANCH   6   7
HETATM    7  C   UNK     1     -10.526  13.751  67.061  1.00  0.00    -0.274 C  
BRANCH   7   8
HETATM    8  C   UNK     1     -11.844  13.224  67.642  1.00  0.00    -0.357 C  
BRANCH   8   9
HETATM    9  O   UNK     1     -11.845  11.798  67.723  1.00  0.00    -0.541 OA 
BRANCH   9  10
HETATM   10  P   UNK     1     -11.904  11.197  69.344  1.00  0.00    -0.347 P  
HETATM   11  O   UNK     1     -10.300  10.879  69.341  1.00  0.00    -0.212 OA 
HETATM   12  O   UNK     1     -12.080  12.627  69.858  1.00  0.00    -0.304 OA 
BRANCH  10  13
HETATM   13  O   UNK     1     -11.964  10.596  70.965  1.00  0.00    -0.343 OA 
BRANCH  13  14
HETATM   14  C   UNK     1     -11.059   9.502  71.178  1.00  0.00    -0.379 C  
BRANCH  14  15
HETATM   15  C   UNK     1     -11.574   8.562  72.270  1.00  0.00    -0.374 C  
HETATM   16  N   UNK     1     -10.827   7.271  72.331  1.00  0.00    -0.240 NA 
HETATM   17  C   UNK     1     -13.042   8.264  71.976  1.00  0.00    -0.327 C  
HETATM   18  O   UNK     1     -13.187   7.061  71.359  1.00  0.00    -0.365 OA 
HETATM   19  O   UNK     1     -13.969   9.023  72.209  1.00  0.00    -0.448 OA 
HETATM   20  H1  UNK     1     -11.170   6.645  73.059  1.00  0.00     0.000 HD 
HETATM   21  H2  UNK     1      -9.826   7.435  72.434  1.00  0.00     0.000 HD 
ENDBRANCH  14  15
ENDBRANCH  13  14
ENDBRANCH  10  13
ENDBRANCH   9  10
ENDBRANCH   8   9
ENDBRANCH   7   8
BRANCH   7  22
HETATM   22  C   UNK     1     -10.756  14.545  65.762  1.00  0.00    -0.315 C  
BRANCH  22  23
HETATM   23  O   UNK     1     -10.646  13.704  64.598  1.00  0.00    -0.398 OA 
BRANCH  23  24
HETATM   24  C   UNK     1     -11.814  13.487  63.933  1.00  0.00    -0.411 C  
HETATM   25  O   UNK     1     -12.644  14.347  63.687  1.00  0.00    -0.817 OA 
BRANCH  24  26
HETATM   26  C   UNK     1     -11.911  12.033  63.532  1.00  0.00    -0.605 C  
HETATM   27  C   UNK     1     -10.871  11.193  64.251  1.00  0.00    -0.354 C  
ENDBRANCH  24  26
ENDBRANCH  23  24
ENDBRANCH  22  23
ENDBRANCH   7  22
ENDBRANCH   6   7
ENDBRANCH   4   6
ENDBRANCH   3   4
ENDBRANCH   2   3
TORSDOF 14
ENDMDL
MODEL      140
REMARK 921   NORMALIZED FREE ENERGY PREDICTED BY IDOCK:   -4.41 KCAL/MOL
REMARK 922        TOTAL FREE ENERGY PREDICTED BY IDOCK:   -9.10 KCAL/MOL
REMARK 923 INTER-LIGAND FREE ENERGY PREDICTED BY IDOCK:   -7.66 KCAL/MOL
REMARK 924 INTRA-LIGAND FREE ENERGY PREDICTED BY IDOCK:   -1.44 KCAL/MOL
REMARK 927      BINDING AFFINITY PREDICTED BY RF-SCORE:    0.00 PKD
ROOT
HETATM    1  C   UNK     1      -6.202  10.245  65.211  1.00  0.00    -0.127 C  
HETATM    2  C   UNK     1      -7.348  10.745  66.081  1.00  0.00    -0.127 C  
ENDROOT
BRANCH   2   3
HETATM    3  C   UNK     1      -8.230   9.610  66.592  1.00  0.00    -0.120 C  
BRANCH   3   4
HETATM    4  C   UNK     1      -9.682   9.879  66.293  1.00  0.00    -0.222 C  
HETATM    5  O   UNK     1     -10.093  10.334  65.235  1.00  0.00    -0.303 OA 
BRANCH   4   6
HETATM    6  O   UNK     1     -10.453   9.576  67.366  1.00  0.00    -0.244 OA 
BRANCH   6   7
HETATM    7  C   UNK     1     -10.217  10.265  68.617  1.00  0.00    -0.180 C  
BRANCH   7   8
HETATM    8  C   UNK     1     -10.654  11.735  68.587  1.00  0.00    -0.223 C  
BRANCH   8   9
HETATM    9  O   UNK     1      -9.544  12.605  68.361  1.00  0.00    -0.217 OA 
BRANCH   9  10
HETATM   10  P   UNK     1      -9.947  14.016  67.444  1.00  0.00    -0.251 P  
HETATM   11  O   UNK     1     -11.100  14.450  68.519  1.00  0.00    -0.235 OA 
HETATM   12  O   UNK     1      -8.640  14.670  67.895  1.00  0.00    -0.153 OA 
BRANCH  10  13
HETATM   13  O   UNK     1     -10.349  15.427  66.527  1.00  0.00    -0.273 OA 
BRANCH  13  14
HETATM   14  C   UNK     1     -10.423  15.164  65.119  1.00  0.00    -0.410 C  
BRANCH  14  15
HETATM   15  C   UNK     1     -10.862  13.724  64.845  1.00  0.00    -0.391 C  
HETATM   16  N   UNK     1     -10.090  13.076  63.745  1.00  0.00    -0.744 NA 
HETATM   17  C   UNK     1     -12.338  13.752  64.457  1.00  0.00    -0.358 C  
HETATM   18  O   UNK     1     -12.495  13.687  63.108  1.00  0.00    -0.786 OA 
HETATM   19  O   UNK     1     -13.265  13.873  65.242  1.00  0.00    -0.774 OA 
HETATM   20  H1  UNK     1     -10.383  12.115  63.563  1.00  0.00     0.000 HD 
HETATM   21  H2  UNK     1      -9.088  13.122  63.928  1.00  0.00     0.000 HD 
ENDBRANCH  14  15
ENDBRANCH  13  14
ENDBRANCH  10  13
ENDBRANCH   9  10
ENDBRANCH   8   9
ENDBRANCH   7   8
BRANCH   7  22
HETATM   22  C   UNK     1     -10.840   9.512  69.807  1.00  0.00    -0.243 C  
BRANCH  22  23
HETATM   23  O   UNK     1      -9.920   9.407  70.910  1.00  0.00    -0.278 OA 
BRANCH  23  24
HETATM   24  C   UNK     1      -9.760   8.150  71.408  1.00  0.00    -0.171 C  
HETATM   25  O   UNK     1      -9.400   7.184  70.755  1.00  0.00    -0.160 OA 
BRANCH  24  26
HETATM   26  C   UNK     1     -10.074   8.143  72.886  1.00  0.00    -0.349 C  
HETATM   27  C   UNK     1     -10.800   6.872  73.289  1.00  0.00    -0.321 C  
ENDBRANCH  24  26
ENDBRANCH  23  24
ENDBRANCH  22  23
ENDBRANCH   7  22
ENDBRANCH   6   7
ENDBRANCH   4   6
ENDBRANCH   3   4
ENDBRANCH   2   3
TORSDOF 14
ENDMDL
MODEL      141
REMARK 921   NORMALIZED FREE ENERGY PREDICTED BY IDOCK:   -4.40 KCAL/MOL
REMARK 922        TOTAL FREE ENERGY PREDICTED BY IDOCK:   -9.10 KCAL/MOL
REMARK 923 INTER-LIGAND FREE ENERGY PREDICTED BY IDOCK:   -7.68 KCAL/MOL
REMARK 924 INTRA-LIGAND FREE ENERGY PREDICTED BY IDOCK:   -1.42 KCAL/MOL
REMARK 927      BINDING AFFINITY PREDICTED BY RF-SCORE:    0.00 PKD
ROOT
HETATM    1  C   UNK     1      -9.449  19.853  66.163  1.00  0.00    -0.466 C  
HETATM    2  C   UNK     1      -9.414  18.673  67.124  1.00  0.00    -0.308 C  
ENDROOT
BRANCH   2   3
HETATM    3  C   UNK     1     -10.550  17.685  66.878  1.00  0.00    -0.235 C  
BRANCH   3   4
HETATM    4  C   UNK     1     -10.393  17.005  65.542  1.00  0.00    -0.143 C  
HETATM    5  O   UNK     1     -11.109  17.220  64.574  1.00  0.00    -1.082 OA 
BRANCH   4   6
HETATM    6  O   UNK     1      -9.377  16.109  65.581  1.00  0.00    -0.420 OA 
BRANCH   6   7
HETATM    7  C   UNK     1      -9.401  15.062  66.580  1.00  0.00    -0.281 C  
BRANCH   7   8
HETATM    8  C   UNK     1     -10.231  13.843  66.155  1.00  0.00    -0.301 C  
BRANCH   8   9
HETATM    9  O   UNK     1     -11.449  13.758  66.895  1.00  0.00    -0.319 OA 
BRANCH   9  10
HETATM   10  P   UNK     1     -11.659  12.245  67.709  1.00  0.00    -0.304 P  
HETATM   11  O   UNK     1     -10.790  11.453  66.572  1.00  0.00    -0.271 OA 
HETATM   12  O   UNK     1     -10.678  12.701  68.790  1.00  0.00    -0.235 OA 
BRANCH  10  13
HETATM   13  O   UNK     1     -11.869  10.733  68.522  1.00  0.00    -0.444 OA 
BRANCH  13  14
HETATM   14  C   UNK     1     -12.452  10.886  69.824  1.00  0.00    -0.182 C  
BRANCH  14  15
HETATM   15  C   UNK     1     -11.558  10.279  70.907  1.00  0.00    -0.365 C  
HETATM   16  N   UNK     1     -10.253   9.785  70.379  1.00  0.00    -0.284 NA 
HETATM   17  C   UNK     1     -12.310   9.105  71.528  1.00  0.00    -0.347 C  
HETATM   18  O   UNK     1     -11.892   7.920  71.009  1.00  0.00    -0.291 OA 
HETATM   19  O   UNK     1     -13.212   9.206  72.346  1.00  0.00    -0.426 OA 
HETATM   20  H1  UNK     1      -9.657   9.381  71.102  1.00  0.00     0.000 HD 
HETATM   21  H2  UNK     1      -9.762  10.523  69.874  1.00  0.00     0.000 HD 
ENDBRANCH  14  15
ENDBRANCH  13  14
ENDBRANCH  10  13
ENDBRANCH   9  10
ENDBRANCH   8   9
ENDBRANCH   7   8
BRANCH   7  22
HETATM   22  C   UNK     1      -7.981  14.659  67.015  1.00  0.00    -0.072 C  
BRANCH  22  23
HETATM   23  O   UNK     1      -7.870  14.565  68.447  1.00  0.00    -0.120 OA 
BRANCH  23  24
HETATM   24  C   UNK     1      -8.108  15.725  69.120  1.00  0.00    -0.237 C  
HETATM   25  O   UNK     1      -9.149  15.994  69.694  1.00  0.00    -0.175 OA 
BRANCH  24  26
HETATM   26  C   UNK     1      -6.883  16.609  69.060  1.00  0.00    -0.207 C  
HETATM   27  C   UNK     1      -5.774  16.076  69.949  1.00  0.00    -0.161 C  
ENDBRANCH  24  26
ENDBRANCH  23  24
ENDBRANCH  22  23
ENDBRANCH   7  22
ENDBRANCH   6   7
ENDBRANCH   4   6
ENDBRANCH   3   4
ENDBRANCH   2   3
TORSDOF 14
ENDMDL
MODEL      142
REMARK 921   NORMALIZED FREE ENERGY PREDICTED BY IDOCK:   -4.39 KCAL/MOL
REMARK 922        TOTAL FREE ENERGY PREDICTED BY IDOCK:   -9.07 KCAL/MOL
REMARK 923 INTER-LIGAND FREE ENERGY PREDICTED BY IDOCK:   -7.45 KCAL/MOL
REMARK 924 INTRA-LIGAND FREE ENERGY PREDICTED BY IDOCK:   -1.62 KCAL/MOL
REMARK 927      BINDING AFFINITY PREDICTED BY RF-SCORE:    0.00 PKD
ROOT
HETATM    1  C   UNK     1      -5.276  14.618  69.026  1.00  0.00    -0.090 C  
HETATM    2  C   UNK     1      -6.439  15.065  68.151  1.00  0.00    -0.138 C  
ENDROOT
BRANCH   2   3
HETATM    3  C   UNK     1      -7.791  14.627  68.707  1.00  0.00    -0.146 C  
BRANCH   3   4
HETATM    4  C   UNK     1      -8.589  13.888  67.665  1.00  0.00    -0.190 C  
HETATM    5  O   UNK     1      -8.185  12.907  67.057  1.00  0.00    -0.163 OA 
BRANCH   4   6
HETATM    6  O   UNK     1      -9.793  14.482  67.479  1.00  0.00    -0.220 OA 
BRANCH   6   7
HETATM    7  C   UNK     1     -10.152  14.945  66.156  1.00  0.00    -0.298 C  
BRANCH   7   8
HETATM    8  C   UNK     1     -11.668  14.990  65.923  1.00  0.00    -0.098 C  
BRANCH   8   9
HETATM    9  O   UNK     1     -12.000  14.629  64.582  1.00  0.00    -0.431 OA 
BRANCH   9  10
HETATM   10  P   UNK     1     -11.660  12.974  64.207  1.00  0.00    -0.444 P  
HETATM   11  O   UNK     1     -12.350  12.462  65.599  1.00  0.00    -0.639 OA 
HETATM   12  O   UNK     1     -12.759  13.000  63.142  1.00  0.00    -0.611 OA 
BRANCH  10  13
HETATM   13  O   UNK     1     -11.321  11.320  63.832  1.00  0.00    -0.317 OA 
BRANCH  13  14
HETATM   14  C   UNK     1      -9.971  10.950  64.149  1.00  0.00    -0.344 C  
BRANCH  14  15
HETATM   15  C   UNK     1      -9.930   9.900  65.261  1.00  0.00    -0.249 C  
HETATM   16  N   UNK     1     -10.073  10.486  66.626  1.00  0.00    -0.214 NA 
HETATM   17  C   UNK     1      -8.585   9.183  65.175  1.00  0.00    -0.176 C  
HETATM   18  O   UNK     1      -7.704   9.675  66.086  1.00  0.00    -0.100 OA 
HETATM   19  O   UNK     1      -8.306   8.316  64.362  1.00  0.00    -0.151 OA 
HETATM   20  H1  UNK     1     -10.046   9.785  67.367  1.00  0.00     0.000 HD 
HETATM   21  H2  UNK     1     -10.919  11.052  66.692  1.00  0.00     0.000 HD 
ENDBRANCH  14  15
ENDBRANCH  13  14
ENDBRANCH  10  13
ENDBRANCH   9  10
ENDBRANCH   8   9
ENDBRANCH   7   8
BRANCH   7  22
HETATM   22  C   UNK     1      -9.487  16.294  65.826  1.00  0.00    -0.194 C  
BRANCH  22  23
HETATM   23  O   UNK     1     -10.448  17.365  65.785  1.00  0.00    -0.518 OA 
BRANCH  23  24
HETATM   24  C   UNK     1     -10.037  18.529  66.360  1.00  0.00    -0.405 C  
HETATM   25  O   UNK     1      -9.294  19.340  65.833  1.00  0.00    -0.429 OA 
BRANCH  24  26
HETATM   26  C   UNK     1     -10.656  18.668  67.732  1.00  0.00    -0.433 C  
HETATM   27  C   UNK     1      -9.614  19.035  68.772  1.00  0.00    -0.451 C  
ENDBRANCH  24  26
ENDBRANCH  23  24
ENDBRANCH  22  23
ENDBRANCH   7  22
ENDBRANCH   6   7
ENDBRANCH   4   6
ENDBRANCH   3   4
ENDBRANCH   2   3
TORSDOF 14
ENDMDL
MODEL      143
REMARK 921   NORMALIZED FREE ENERGY PREDICTED BY IDOCK:   -4.38 KCAL/MOL
REMARK 922        TOTAL FREE ENERGY PREDICTED BY IDOCK:   -9.06 KCAL/MOL
REMARK 923 INTER-LIGAND FREE ENERGY PREDICTED BY IDOCK:   -7.61 KCAL/MOL
REMARK 924 INTRA-LIGAND FREE ENERGY PREDICTED BY IDOCK:   -1.44 KCAL/MOL
REMARK 927      BINDING AFFINITY PREDICTED BY RF-SCORE:    0.00 PKD
ROOT
HETATM    1  C   UNK     1     -14.259   7.973  71.646  1.00  0.00    -0.549 C  
HETATM    2  C   UNK     1     -13.611   9.254  72.151  1.00  0.00    -0.536 C  
ENDROOT
BRANCH   2   3
HETATM    3  C   UNK     1     -12.859  10.001  71.054  1.00  0.00    -0.455 C  
BRANCH   3   4
HETATM    4  C   UNK     1     -11.388   9.675  71.090  1.00  0.00    -0.386 C  
HETATM    5  O   UNK     1     -10.837   9.085  72.009  1.00  0.00    -0.352 OA 
BRANCH   4   6
HETATM    6  O   UNK     1     -10.768  10.152  69.983  1.00  0.00    -0.268 OA 
BRANCH   6   7
HETATM    7  C   UNK     1     -10.374   9.226  68.943  1.00  0.00    -0.214 C  
BRANCH   7   8
HETATM    8  C   UNK     1     -10.780   9.690  67.538  1.00  0.00    -0.256 C  
BRANCH   8   9
HETATM    9  O   UNK     1     -11.611  10.850  67.592  1.00  0.00    -0.531 OA 
BRANCH   9  10
HETATM   10  P   UNK     1     -10.944  12.218  66.768  1.00  0.00    -0.309 P  
HETATM   11  O   UNK     1     -10.179  11.259  65.686  1.00  0.00    -0.235 OA 
HETATM   12  O   UNK     1     -12.326  12.533  66.192  1.00  0.00    -0.596 OA 
BRANCH  10  13
HETATM   13  O   UNK     1     -10.278  13.585  65.943  1.00  0.00    -0.289 OA 
BRANCH  13  14
HETATM   14  C   UNK     1     -11.236  14.638  65.763  1.00  0.00    -0.336 C  
BRANCH  14  15
HETATM   15  C   UNK     1     -10.690  15.977  66.263  1.00  0.00    -0.234 C  
HETATM   16  N   UNK     1      -9.289  16.240  65.821  1.00  0.00    -0.474 NA 
HETATM   17  C   UNK     1     -10.724  15.953  67.789  1.00  0.00    -0.320 C  
HETATM   18  O   UNK     1      -9.502  15.658  68.306  1.00  0.00    -0.196 OA 
HETATM   19  O   UNK     1     -11.725  16.121  68.469  1.00  0.00    -0.348 OA 
HETATM   20  H1  UNK     1      -8.925  17.132  66.155  1.00  0.00     0.000 HD 
HETATM   21  H2  UNK     1      -9.209  16.171  64.806  1.00  0.00     0.000 HD 
ENDBRANCH  14  15
ENDBRANCH  13  14
ENDBRANCH  10  13
ENDBRANCH   9  10
ENDBRANCH   8   9
ENDBRANCH   7   8
BRANCH   7  22
HETATM   22  C   UNK     1      -8.874   8.891  69.020  1.00  0.00    -0.136 C  
BRANCH  22  23
HETATM   23  O   UNK     1      -8.115   9.621  68.038  1.00  0.00    -0.104 OA 
BRANCH  23  24
HETATM   24  C   UNK     1      -7.446  10.705  68.518  1.00  0.00    -0.093 C  
HETATM   25  O   UNK     1      -7.193  10.901  69.695  1.00  0.00    -0.140 OA 
BRANCH  24  26
HETATM   26  C   UNK     1      -7.050  11.609  67.373  1.00  0.00    -0.124 C  
HETATM   27  C   UNK     1      -6.311  10.839  66.293  1.00  0.00    -0.129 C  
ENDBRANCH  24  26
ENDBRANCH  23  24
ENDBRANCH  22  23
ENDBRANCH   7  22
ENDBRANCH   6   7
ENDBRANCH   4   6
ENDBRANCH   3   4
ENDBRANCH   2   3
TORSDOF 14
ENDMDL
MODEL      144
REMARK 921   NORMALIZED FREE ENERGY PREDICTED BY IDOCK:   -4.36 KCAL/MOL
REMARK 922        TOTAL FREE ENERGY PREDICTED BY IDOCK:   -9.01 KCAL/MOL
REMARK 923 INTER-LIGAND FREE ENERGY PREDICTED BY IDOCK:   -7.96 KCAL/MOL
REMARK 924 INTRA-LIGAND FREE ENERGY PREDICTED BY IDOCK:   -1.06 KCAL/MOL
REMARK 927      BINDING AFFINITY PREDICTED BY RF-SCORE:    0.00 PKD
ROOT
HETATM    1  C   UNK     1     -11.835  15.759  71.717  1.00  0.00    -0.549 C  
HETATM    2  C   UNK     1     -12.572  15.050  70.589  1.00  0.00    -0.429 C  
ENDROOT
BRANCH   2   3
HETATM    3  C   UNK     1     -11.999  15.386  69.215  1.00  0.00    -0.335 C  
BRANCH   3   4
HETATM    4  C   UNK     1     -11.099  14.284  68.721  1.00  0.00    -0.256 C  
HETATM    5  O   UNK     1      -9.878  14.358  68.686  1.00  0.00    -0.227 OA 
BRANCH   4   6
HETATM    6  O   UNK     1     -11.831  13.226  68.297  1.00  0.00    -0.333 OA 
BRANCH   6   7
HETATM    7  C   UNK     1     -11.311  11.889  68.488  1.00  0.00    -0.276 C  
BRANCH   7   8
HETATM    8  C   UNK     1     -12.108  11.073  69.513  1.00  0.00    -0.329 C  
BRANCH   8   9
HETATM    9  O   UNK     1     -11.324  10.781  70.670  1.00  0.00    -0.298 OA 
BRANCH   9  10
HETATM   10  P   UNK     1     -11.244   9.094  71.045  1.00  0.00    -0.372 P  
HETATM   11  O   UNK     1      -9.768   9.261  71.729  1.00  0.00    -0.269 OA 
HETATM   12  O   UNK     1     -12.280   9.300  72.151  1.00  0.00    -0.359 OA 
BRANCH  10  13
HETATM   13  O   UNK     1     -11.165   7.407  71.419  1.00  0.00    -0.241 OA 
BRANCH  13  14
HETATM   14  C   UNK     1     -11.751   6.589  70.396  1.00  0.00    -0.375 C  
BRANCH  14  15
HETATM   15  C   UNK     1     -10.679   5.851  69.592  1.00  0.00    -0.345 C  
HETATM   16  N   UNK     1      -9.362   5.791  70.291  1.00  0.00    -0.154 NA 
HETATM   17  C   UNK     1     -10.497   6.591  68.269  1.00  0.00    -0.219 C  
HETATM   18  O   UNK     1      -9.412   7.409  68.306  1.00  0.00    -0.142 OA 
HETATM   19  O   UNK     1     -11.253   6.510  67.313  1.00  0.00    -0.376 OA 
HETATM   20  H1  UNK     1      -8.647   5.299  69.754  1.00  0.00     0.000 HD 
HETATM   21  H2  UNK     1      -9.462   5.385  71.221  1.00  0.00     0.000 HD 
ENDBRANCH  14  15
ENDBRANCH  13  14
ENDBRANCH  10  13
ENDBRANCH   9  10
ENDBRANCH   8   9
ENDBRANCH   7   8
BRANCH   7  22
HETATM   22  C   UNK     1     -11.168  11.139  67.151  1.00  0.00    -0.249 C  
BRANCH  22  23
HETATM   23  O   UNK     1     -11.011  12.047  66.045  1.00  0.00    -0.281 OA 
BRANCH  23  24
HETATM   24  C   UNK     1     -10.319  11.546  64.983  1.00  0.00    -0.281 C  
HETATM   25  O   UNK     1      -9.254  10.959  65.063  1.00  0.00    -0.199 OA 
BRANCH  24  26
HETATM   26  C   UNK     1     -11.083  11.813  63.707  1.00  0.00    -0.513 C  
HETATM   27  C   UNK     1     -12.013  13.002  63.858  1.00  0.00    -0.551 C  
ENDBRANCH  24  26
ENDBRANCH  23  24
ENDBRANCH  22  23
ENDBRANCH   7  22
ENDBRANCH   6   7
ENDBRANCH   4   6
ENDBRANCH   3   4
ENDBRANCH   2   3
TORSDOF 14
ENDMDL
MODEL      145
REMARK 921   NORMALIZED FREE ENERGY PREDICTED BY IDOCK:   -4.36 KCAL/MOL
REMARK 922        TOTAL FREE ENERGY PREDICTED BY IDOCK:   -9.01 KCAL/MOL
REMARK 923 INTER-LIGAND FREE ENERGY PREDICTED BY IDOCK:   -8.07 KCAL/MOL
REMARK 924 INTRA-LIGAND FREE ENERGY PREDICTED BY IDOCK:   -0.94 KCAL/MOL
REMARK 927      BINDING AFFINITY PREDICTED BY RF-SCORE:    0.00 PKD
ROOT
HETATM    1  C   UNK     1     -13.585   7.047  71.480  1.00  0.00    -0.355 C  
HETATM    2  C   UNK     1     -14.268   8.398  71.640  1.00  0.00    -0.516 C  
ENDROOT
BRANCH   2   3
HETATM    3  C   UNK     1     -13.379   9.424  72.334  1.00  0.00    -0.503 C  
BRANCH   3   4
HETATM    4  C   UNK     1     -12.558  10.194  71.332  1.00  0.00    -0.422 C  
HETATM    5  O   UNK     1     -13.004  11.073  70.608  1.00  0.00    -0.254 OA 
BRANCH   4   6
HETATM    6  O   UNK     1     -11.276   9.752  71.328  1.00  0.00    -0.361 OA 
BRANCH   6   7
HETATM    7  C   UNK     1     -10.709   9.255  70.093  1.00  0.00    -0.235 C  
BRANCH   7   8
HETATM    8  C   UNK     1      -9.580  10.142  69.549  1.00  0.00    -0.221 C  
BRANCH   8   9
HETATM    9  O   UNK     1     -10.090  11.356  68.999  1.00  0.00    -0.181 OA 
BRANCH   9  10
HETATM   10  P   UNK     1     -10.256  11.320  67.277  1.00  0.00    -0.209 P  
HETATM   11  O   UNK     1      -9.552   9.846  67.187  1.00  0.00    -0.154 OA 
HETATM   12  O   UNK     1     -11.760  11.092  67.435  1.00  0.00    -0.564 OA 
BRANCH  10  13
HETATM   13  O   UNK     1     -10.421  11.284  65.555  1.00  0.00    -0.258 OA 
BRANCH  13  14
HETATM   14  C   UNK     1     -10.472  12.598  64.981  1.00  0.00    -0.308 C  
BRANCH  14  15
HETATM   15  C   UNK     1     -11.779  13.308  65.338  1.00  0.00    -0.343 C  
HETATM   16  N   UNK     1     -12.989  12.598  64.830  1.00  0.00    -0.850 NA 
HETATM   17  C   UNK     1     -11.735  14.703  64.719  1.00  0.00    -0.428 C  
HETATM   18  O   UNK     1     -12.435  14.750  63.555  1.00  0.00    -0.642 OA 
HETATM   19  O   UNK     1     -11.110  15.650  65.172  1.00  0.00    -0.371 OA 
HETATM   20  H1  UNK     1     -13.860  13.073  65.069  1.00  0.00     0.000 HD 
HETATM   21  H2  UNK     1     -13.003  11.630  65.150  1.00  0.00     0.000 HD 
ENDBRANCH  14  15
ENDBRANCH  13  14
ENDBRANCH  10  13
ENDBRANCH   9  10
ENDBRANCH   8   9
ENDBRANCH   7   8
BRANCH   7  22
HETATM   22  C   UNK     1     -10.265   7.786  70.221  1.00  0.00    -0.199 C  
BRANCH  22  23
HETATM   23  O   UNK     1      -8.840   7.675  70.396  1.00  0.00    -0.142 OA 
BRANCH  23  24
HETATM   24  C   UNK     1      -8.436   6.624  71.164  1.00  0.00    -0.126 C  
HETATM   25  O   UNK     1      -7.287   6.424  71.518  1.00  0.00    -0.084 OA 
BRANCH  24  26
HETATM   26  C   UNK     1      -9.628   5.765  71.520  1.00  0.00    -0.181 C  
HETATM   27  C   UNK     1      -9.595   5.357  72.982  1.00  0.00    -0.159 C  
ENDBRANCH  24  26
ENDBRANCH  23  24
ENDBRANCH  22  23
ENDBRANCH   7  22
ENDBRANCH   6   7
ENDBRANCH   4   6
ENDBRANCH   3   4
ENDBRANCH   2   3
TORSDOF 14
ENDMDL
MODEL      146
REMARK 921   NORMALIZED FREE ENERGY PREDICTED BY IDOCK:   -4.35 KCAL/MOL
REMARK 922        TOTAL FREE ENERGY PREDICTED BY IDOCK:   -8.99 KCAL/MOL
REMARK 923 INTER-LIGAND FREE ENERGY PREDICTED BY IDOCK:   -8.37 KCAL/MOL
REMARK 924 INTRA-LIGAND FREE ENERGY PREDICTED BY IDOCK:   -0.62 KCAL/MOL
REMARK 927      BINDING AFFINITY PREDICTED BY RF-SCORE:    0.00 PKD
ROOT
HETATM    1  C   UNK     1     -10.427  11.528  63.159  1.00  0.00    -0.350 C  
HETATM    2  C   UNK     1     -11.573  12.369  63.705  1.00  0.00    -0.553 C  
ENDROOT
BRANCH   2   3
HETATM    3  C   UNK     1     -11.127  13.311  64.818  1.00  0.00    -0.359 C  
BRANCH   3   4
HETATM    4  C   UNK     1     -10.931  12.564  66.112  1.00  0.00    -0.284 C  
HETATM    5  O   UNK     1      -9.885  12.024  66.443  1.00  0.00    -0.210 OA 
BRANCH   4   6
HETATM    6  O   UNK     1     -12.080  12.551  66.832  1.00  0.00    -0.537 OA 
BRANCH   6   7
HETATM    7  C   UNK     1     -12.019  12.805  68.255  1.00  0.00    -0.229 C  
BRANCH   7   8
HETATM    8  C   UNK     1     -11.580  11.580  69.068  1.00  0.00    -0.318 C  
BRANCH   8   9
HETATM    9  O   UNK     1     -12.159  11.586  70.373  1.00  0.00    -0.350 OA 
BRANCH   9  10
HETATM   10  P   UNK     1     -12.497  10.004  70.987  1.00  0.00    -0.378 P  
HETATM   11  O   UNK     1     -10.907   9.692  71.208  1.00  0.00    -0.350 OA 
HETATM   12  O   UNK     1     -13.018  10.628  72.283  1.00  0.00    -0.353 OA 
BRANCH  10  13
HETATM   13  O   UNK     1     -12.834   8.422  71.601  1.00  0.00    -0.319 OA 
BRANCH  13  14
HETATM   14  C   UNK     1     -11.921   7.433  71.103  1.00  0.00    -0.320 C  
BRANCH  14  15
HETATM   15  C   UNK     1     -11.605   6.382  72.169  1.00  0.00    -0.313 C  
HETATM   16  N   UNK     1     -11.283   6.977  73.499  1.00  0.00    -0.496 NA 
HETATM   17  C   UNK     1     -10.400   5.578  71.688  1.00  0.00    -0.219 C  
HETATM   18  O   UNK     1      -9.252   6.011  72.273  1.00  0.00    -0.145 OA 
HETATM   19  O   UNK     1     -10.440   4.694  70.846  1.00  0.00    -0.123 OA 
HETATM   20  H1  UNK     1     -11.072   6.276  74.210  1.00  0.00     0.000 HD 
HETATM   21  H2  UNK     1     -12.030   7.598  73.811  1.00  0.00     0.000 HD 
ENDBRANCH  14  15
ENDBRANCH  13  14
ENDBRANCH  10  13
ENDBRANCH   9  10
ENDBRANCH   8   9
ENDBRANCH   7   8
BRANCH   7  22
HETATM   22  C   UNK     1     -11.156  14.039  68.577  1.00  0.00    -0.257 C  
BRANCH  22  23
HETATM   23  O   UNK     1     -11.952  15.129  69.079  1.00  0.00    -0.309 OA 
BRANCH  23  24
HETATM   24  C   UNK     1     -11.924  15.285  70.432  1.00  0.00    -0.335 C  
HETATM   25  O   UNK     1     -10.918  15.223  71.118  1.00  0.00    -0.325 OA 
BRANCH  24  26
HETATM   26  C   UNK     1     -13.319  15.566  70.941  1.00  0.00    -0.414 C  
HETATM   27  C   UNK     1     -13.847  14.410  71.770  1.00  0.00    -0.527 C  
ENDBRANCH  24  26
ENDBRANCH  23  24
ENDBRANCH  22  23
ENDBRANCH   7  22
ENDBRANCH   6   7
ENDBRANCH   4   6
ENDBRANCH   3   4
ENDBRANCH   2   3
TORSDOF 14
ENDMDL
MODEL      147
REMARK 921   NORMALIZED FREE ENERGY PREDICTED BY IDOCK:   -4.35 KCAL/MOL
REMARK 922        TOTAL FREE ENERGY PREDICTED BY IDOCK:   -8.99 KCAL/MOL
REMARK 923 INTER-LIGAND FREE ENERGY PREDICTED BY IDOCK:   -7.85 KCAL/MOL
REMARK 924 INTRA-LIGAND FREE ENERGY PREDICTED BY IDOCK:   -1.14 KCAL/MOL
REMARK 927      BINDING AFFINITY PREDICTED BY RF-SCORE:    0.00 PKD
ROOT
HETATM    1  C   UNK     1      -5.821  15.415  67.802  1.00  0.00    -0.150 C  
HETATM    2  C   UNK     1      -7.199  14.845  68.111  1.00  0.00    -0.124 C  
ENDROOT
BRANCH   2   3
HETATM    3  C   UNK     1      -8.100  15.850  68.822  1.00  0.00    -0.190 C  
BRANCH   3   4
HETATM    4  C   UNK     1      -9.511  15.775  68.298  1.00  0.00    -0.200 C  
HETATM    5  O   UNK     1      -9.918  16.398  67.327  1.00  0.00    -0.248 OA 
BRANCH   4   6
HETATM    6  O   UNK     1     -10.262  14.951  69.069  1.00  0.00    -0.232 OA 
BRANCH   6   7
HETATM    7  C   UNK     1     -11.679  14.838  68.802  1.00  0.00    -0.323 C  
BRANCH   7   8
HETATM    8  C   UNK     1     -12.023  13.682  67.853  1.00  0.00    -0.347 C  
BRANCH   8   9
HETATM    9  O   UNK     1     -12.306  14.156  66.536  1.00  0.00    -0.460 OA 
BRANCH   9  10
HETATM   10  P   UNK     1     -11.366  13.382  65.307  1.00  0.00    -0.317 P  
HETATM   11  O   UNK     1     -11.172  12.042  66.224  1.00  0.00    -0.313 OA 
HETATM   12  O   UNK     1     -12.636  13.180  64.477  1.00  0.00    -0.594 OA 
BRANCH  10  13
HETATM   13  O   UNK     1     -10.427  12.609  64.077  1.00  0.00    -0.384 OA 
BRANCH  13  14
HETATM   14  C   UNK     1     -10.529  11.178  64.127  1.00  0.00    -0.377 C  
BRANCH  14  15
HETATM   15  C   UNK     1      -9.240  10.513  63.641  1.00  0.00    -0.270 C  
HETATM   16  N   UNK     1      -9.485   9.287  62.826  1.00  0.00    -0.459 NA 
HETATM   17  C   UNK     1      -8.422  10.128  64.870  1.00  0.00    -0.172 C  
HETATM   18  O   UNK     1      -8.575   8.811  65.173  1.00  0.00    -0.175 OA 
HETATM   19  O   UNK     1      -7.755  10.903  65.538  1.00  0.00    -0.076 OA 
HETATM   20  H1  UNK     1      -8.625   8.843  62.502  1.00  0.00     0.000 HD 
HETATM   21  H2  UNK     1     -10.107   9.488  62.044  1.00  0.00     0.000 HD 
ENDBRANCH  14  15
ENDBRANCH  13  14
ENDBRANCH  10  13
ENDBRANCH   9  10
ENDBRANCH   8   9
ENDBRANCH   7   8
BRANCH   7  22
HETATM   22  C   UNK     1     -12.499  14.766  70.104  1.00  0.00    -0.309 C  
BRANCH  22  23
HETATM   23  O   UNK     1     -11.989  13.760  70.999  1.00  0.00    -0.293 OA 
BRANCH  23  24
HETATM   24  C   UNK     1     -12.918  12.878  71.462  1.00  0.00    -0.294 C  
HETATM   25  O   UNK     1     -13.828  13.163  72.222  1.00  0.00    -0.540 OA 
BRANCH  24  26
HETATM   26  C   UNK     1     -12.659  11.510  70.875  1.00  0.00    -0.438 C  
HETATM   27  C   UNK     1     -13.096  10.410  71.827  1.00  0.00    -0.567 C  
ENDBRANCH  24  26
ENDBRANCH  23  24
ENDBRANCH  22  23
ENDBRANCH   7  22
ENDBRANCH   6   7
ENDBRANCH   4   6
ENDBRANCH   3   4
ENDBRANCH   2   3
TORSDOF 14
ENDMDL
MODEL      148
REMARK 921   NORMALIZED FREE ENERGY PREDICTED BY IDOCK:   -4.35 KCAL/MOL
REMARK 922        TOTAL FREE ENERGY PREDICTED BY IDOCK:   -8.99 KCAL/MOL
REMARK 923 INTER-LIGAND FREE ENERGY PREDICTED BY IDOCK:   -7.90 KCAL/MOL
REMARK 924 INTRA-LIGAND FREE ENERGY PREDICTED BY IDOCK:   -1.09 KCAL/MOL
REMARK 927      BINDING AFFINITY PREDICTED BY RF-SCORE:    0.00 PKD
ROOT
HETATM    1  C   UNK     1      -9.569   4.709  67.058  1.00  0.00    -0.198 C  
HETATM    2  C   UNK     1     -10.735   5.643  67.348  1.00  0.00    -0.283 C  
ENDROOT
BRANCH   2   3
HETATM    3  C   UNK     1     -10.336   6.817  68.236  1.00  0.00    -0.215 C  
BRANCH   3   4
HETATM    4  C   UNK     1     -10.816   6.612  69.650  1.00  0.00    -0.286 C  
HETATM    5  O   UNK     1     -10.931   5.517  70.185  1.00  0.00    -0.286 OA 
BRANCH   4   6
HETATM    6  O   UNK     1     -11.129   7.799  70.223  1.00  0.00    -0.257 OA 
BRANCH   6   7
HETATM    7  C   UNK     1     -10.089   8.556  70.885  1.00  0.00    -0.201 C  
BRANCH   7   8
HETATM    8  C   UNK     1      -9.852   9.935  70.256  1.00  0.00    -0.179 C  
BRANCH   8   9
HETATM    9  O   UNK     1     -11.072  10.665  70.128  1.00  0.00    -0.288 OA 
BRANCH   9  10
HETATM   10  P   UNK     1     -11.466  11.075  68.494  1.00  0.00    -0.281 P  
HETATM   11  O   UNK     1     -11.265  12.671  68.790  1.00  0.00    -0.247 OA 
HETATM   12  O   UNK     1     -10.111  10.527  68.041  1.00  0.00    -0.158 OA 
BRANCH  10  13
HETATM   13  O   UNK     1     -11.859  11.485  66.860  1.00  0.00    -0.542 OA 
BRANCH  13  14
HETATM   14  C   UNK     1     -11.232  12.703  66.433  1.00  0.00    -0.305 C  
BRANCH  14  15
HETATM   15  C   UNK     1     -11.110  12.760  64.909  1.00  0.00    -0.292 C  
HETATM   16  N   UNK     1     -10.250  13.883  64.432  1.00  0.00    -0.732 NA 
HETATM   17  C   UNK     1     -12.513  12.940  64.336  1.00  0.00    -0.375 C  
HETATM   18  O   UNK     1     -12.753  14.240  64.016  1.00  0.00    -0.697 OA 
HETATM   19  O   UNK     1     -13.342  12.051  64.224  1.00  0.00    -0.709 OA 
HETATM   20  H1  UNK     1     -10.169  13.921  63.416  1.00  0.00     0.000 HD 
HETATM   21  H2  UNK     1      -9.330  13.847  64.870  1.00  0.00     0.000 HD 
ENDBRANCH  14  15
ENDBRANCH  13  14
ENDBRANCH  10  13
ENDBRANCH   9  10
ENDBRANCH   8   9
ENDBRANCH   7   8
BRANCH   7  22
HETATM   22  C   UNK     1     -10.339   8.659  72.401  1.00  0.00    -0.247 C  
BRANCH  22  23
HETATM   23  O   UNK     1      -9.312   7.988  73.156  1.00  0.00    -0.247 OA 
BRANCH  23  24
HETATM   24  C   UNK     1      -9.339   6.629  73.082  1.00  0.00    -0.132 C  
HETATM   25  O   UNK     1      -8.431   5.938  72.652  1.00  0.00    -0.119 OA 
BRANCH  24  26
HETATM   26  C   UNK     1     -10.650   6.114  73.630  1.00  0.00    -0.279 C  
HETATM   27  C   UNK     1     -10.694   4.597  73.622  1.00  0.00    -0.346 C  
ENDBRANCH  24  26
ENDBRANCH  23  24
ENDBRANCH  22  23
ENDBRANCH   7  22
ENDBRANCH   6   7
ENDBRANCH   4   6
ENDBRANCH   3   4
ENDBRANCH   2   3
TORSDOF 14
ENDMDL
MODEL      149
REMARK 921   NORMALIZED FREE ENERGY PREDICTED BY IDOCK:   -4.34 KCAL/MOL
REMARK 922        TOTAL FREE ENERGY PREDICTED BY IDOCK:   -8.98 KCAL/MOL
REMARK 923 INTER-LIGAND FREE ENERGY PREDICTED BY IDOCK:   -7.70 KCAL/MOL
REMARK 924 INTRA-LIGAND FREE ENERGY PREDICTED BY IDOCK:   -1.28 KCAL/MOL
REMARK 927      BINDING AFFINITY PREDICTED BY RF-SCORE:    0.00 PKD
ROOT
HETATM    1  C   UNK     1      -6.875  11.936  67.688  1.00  0.00    -0.112 C  
HETATM    2  C   UNK     1      -7.140  10.672  66.882  1.00  0.00    -0.109 C  
ENDROOT
BRANCH   2   3
HETATM    3  C   UNK     1      -8.561  10.617  66.331  1.00  0.00    -0.151 C  
BRANCH   3   4
HETATM    4  C   UNK     1      -9.549  10.280  67.418  1.00  0.00    -0.158 C  
HETATM    5  O   UNK     1      -9.293   9.575  68.385  1.00  0.00    -0.133 OA 
BRANCH   4   6
HETATM    6  O   UNK     1     -10.755  10.838  67.155  1.00  0.00    -0.244 OA 
BRANCH   6   7
HETATM    7  C   UNK     1     -10.980  12.223  67.508  1.00  0.00    -0.254 C  
BRANCH   7   8
HETATM    8  C   UNK     1     -11.618  13.038  66.375  1.00  0.00    -0.363 C  
BRANCH   8   9
HETATM    9  O   UNK     1     -10.638  13.476  65.432  1.00  0.00    -0.288 OA 
BRANCH   9  10
HETATM   10  P   UNK     1     -10.533  15.197  65.292  1.00  0.00    -0.403 P  
HETATM   11  O   UNK     1     -11.633  15.414  66.484  1.00  0.00    -0.116 OA 
HETATM   12  O   UNK     1      -9.154  15.158  65.953  1.00  0.00    -0.259 OA 
BRANCH  10  13
HETATM   13  O   UNK     1     -10.429  16.918  65.152  1.00  0.00    -0.663 OA 
BRANCH  13  14
HETATM   14  C   UNK     1     -10.288  17.565  66.425  1.00  0.00    -0.334 C  
BRANCH  14  15
HETATM   15  C   UNK     1      -9.085  18.511  66.437  1.00  0.00    -0.269 C  
HETATM   16  N   UNK     1      -7.876  17.928  65.785  1.00  0.00    -0.546 NA 
HETATM   17  C   UNK     1      -8.753  18.823  67.894  1.00  0.00    -0.296 C  
HETATM   18  O   UNK     1      -7.717  18.062  68.338  1.00  0.00    -0.267 OA 
HETATM   19  O   UNK     1      -9.364  19.612  68.597  1.00  0.00    -0.354 OA 
HETATM   20  H1  UNK     1      -7.074  18.558  65.793  1.00  0.00     0.000 HD 
HETATM   21  H2  UNK     1      -8.088  17.620  64.836  1.00  0.00     0.000 HD 
ENDBRANCH  14  15
ENDBRANCH  13  14
ENDBRANCH  10  13
ENDBRANCH   9  10
ENDBRANCH   8   9
ENDBRANCH   7   8
BRANCH   7  22
HETATM   22  C   UNK     1     -11.777  12.353  68.819  1.00  0.00    -0.332 C  
BRANCH  22  23
HETATM   23  O   UNK     1     -12.121  13.723  69.098  1.00  0.00    -0.346 OA 
BRANCH  23  24
HETATM   24  C   UNK     1     -12.431  13.984  70.399  1.00  0.00    -0.350 C  
HETATM   25  O   UNK     1     -12.750  13.141  71.220  1.00  0.00    -0.363 OA 
BRANCH  24  26
HETATM   26  C   UNK     1     -12.297  15.465  70.667  1.00  0.00    -0.451 C  
HETATM   27  C   UNK     1     -12.454  15.775  72.145  1.00  0.00    -0.533 C  
ENDBRANCH  24  26
ENDBRANCH  23  24
ENDBRANCH  22  23
ENDBRANCH   7  22
ENDBRANCH   6   7
ENDBRANCH   4   6
ENDBRANCH   3   4
ENDBRANCH   2   3
TORSDOF 14
ENDMDL
MODEL      150
REMARK 921   NORMALIZED FREE ENERGY PREDICTED BY IDOCK:   -4.33 KCAL/MOL
REMARK 922        TOTAL FREE ENERGY PREDICTED BY IDOCK:   -8.97 KCAL/MOL
REMARK 923 INTER-LIGAND FREE ENERGY PREDICTED BY IDOCK:   -8.12 KCAL/MOL
REMARK 924 INTRA-LIGAND FREE ENERGY PREDICTED BY IDOCK:   -0.85 KCAL/MOL
REMARK 927      BINDING AFFINITY PREDICTED BY RF-SCORE:    0.00 PKD
ROOT
HETATM    1  C   UNK     1      -9.443   4.701  70.761  1.00  0.00    -0.235 C  
HETATM    2  C   UNK     1     -10.586   5.694  70.606  1.00  0.00    -0.347 C  
ENDROOT
BRANCH   2   3
HETATM    3  C   UNK     1     -10.995   6.327  71.932  1.00  0.00    -0.302 C  
BRANCH   3   4
HETATM    4  C   UNK     1     -12.075   7.358  71.728  1.00  0.00    -0.312 C  
HETATM    5  O   UNK     1     -13.063   7.190  71.027  1.00  0.00    -0.305 OA 
BRANCH   4   6
HETATM    6  O   UNK     1     -11.778   8.496  72.402  1.00  0.00    -0.375 OA 
BRANCH   6   7
HETATM    7  C   UNK     1     -11.498   9.703  71.653  1.00  0.00    -0.305 C  
BRANCH   7   8
HETATM    8  C   UNK     1     -10.498   9.484  70.511  1.00  0.00    -0.296 C  
BRANCH   8   9
HETATM    9  O   UNK     1     -11.161   9.378  69.251  1.00  0.00    -0.169 OA 
BRANCH   9  10
HETATM   10  P   UNK     1     -10.610  10.527  68.080  1.00  0.00    -0.244 P  
HETATM   11  O   UNK     1     -12.120  11.124  67.878  1.00  0.00    -0.627 OA 
HETATM   12  O   UNK     1      -9.952  11.337  69.199  1.00  0.00    -0.154 OA 
BRANCH  10  13
HETATM   13  O   UNK     1     -10.060  11.677  66.910  1.00  0.00    -0.206 OA 
BRANCH  13  14
HETATM   14  C   UNK     1     -10.256  13.032  67.338  1.00  0.00    -0.231 C  
BRANCH  14  15
HETATM   15  C   UNK     1      -9.133  13.941  66.834  1.00  0.00    -0.245 C  
HETATM   16  N   UNK     1      -7.780  13.324  66.959  1.00  0.00    -0.385 NA 
HETATM   17  C   UNK     1      -9.165  15.224  67.660  1.00  0.00    -0.187 C  
HETATM   18  O   UNK     1      -8.229  15.200  68.646  1.00  0.00    -0.137 OA 
HETATM   19  O   UNK     1      -9.959  16.138  67.502  1.00  0.00    -0.236 OA 
HETATM   20  H1  UNK     1      -7.032  13.931  66.623  1.00  0.00     0.000 HD 
HETATM   21  H2  UNK     1      -7.750  12.417  66.495  1.00  0.00     0.000 HD 
ENDBRANCH  14  15
ENDBRANCH  13  14
ENDBRANCH  10  13
ENDBRANCH   9  10
ENDBRANCH   8   9
ENDBRANCH   7   8
BRANCH   7  22
HETATM   22  C   UNK     1     -12.791  10.376  71.156  1.00  0.00    -0.414 C  
BRANCH  22  23
HETATM   23  O   UNK     1     -13.268  11.365  72.087  1.00  0.00    -0.490 OA 
BRANCH  23  24
HETATM   24  C   UNK     1     -13.064  12.657  71.707  1.00  0.00    -0.360 C  
HETATM   25  O   UNK     1     -12.214  13.022  70.913  1.00  0.00    -0.354 OA 
BRANCH  24  26
HETATM   26  C   UNK     1     -14.060  13.556  72.403  1.00  0.00    -0.563 C  
HETATM   27  C   UNK     1     -14.230  14.869  71.661  1.00  0.00    -0.633 C  
ENDBRANCH  24  26
ENDBRANCH  23  24
ENDBRANCH  22  23
ENDBRANCH   7  22
ENDBRANCH   6   7
ENDBRANCH   4   6
ENDBRANCH   3   4
ENDBRANCH   2   3
TORSDOF 14
ENDMDL
MODEL      151
REMARK 921   NORMALIZED FREE ENERGY PREDICTED BY IDOCK:   -4.32 KCAL/MOL
REMARK 922        TOTAL FREE ENERGY PREDICTED BY IDOCK:   -8.95 KCAL/MOL
REMARK 923 INTER-LIGAND FREE ENERGY PREDICTED BY IDOCK:   -7.90 KCAL/MOL
REMARK 924 INTRA-LIGAND FREE ENERGY PREDICTED BY IDOCK:   -1.04 KCAL/MOL
REMARK 927      BINDING AFFINITY PREDICTED BY RF-SCORE:    0.00 PKD
ROOT
HETATM    1  C   UNK     1      -7.513   8.774  64.928  1.00  0.00    -0.095 C  
HETATM    2  C   UNK     1      -8.896   8.676  65.556  1.00  0.00    -0.220 C  
ENDROOT
BRANCH   2   3
HETATM    3  C   UNK     1      -8.861   8.831  67.073  1.00  0.00    -0.139 C  
BRANCH   3   4
HETATM    4  C   UNK     1     -10.119   8.288  67.701  1.00  0.00    -0.209 C  
HETATM    5  O   UNK     1     -11.075   7.863  67.067  1.00  0.00    -0.078 OA 
BRANCH   4   6
HETATM    6  O   UNK     1     -10.049   8.369  69.051  1.00  0.00    -0.192 OA 
BRANCH   6   7
HETATM    7  C   UNK     1     -10.353   9.628  69.697  1.00  0.00    -0.227 C  
BRANCH   7   8
HETATM    8  C   UNK     1     -11.281  10.523  68.865  1.00  0.00    -0.266 C  
BRANCH   8   9
HETATM    9  O   UNK     1     -11.071  11.905  69.157  1.00  0.00    -0.233 OA 
BRANCH   9  10
HETATM   10  P   UNK     1     -10.431  12.804  67.825  1.00  0.00    -0.233 P  
HETATM   11  O   UNK     1      -8.893  12.482  68.277  1.00  0.00    -0.186 OA 
HETATM   12  O   UNK     1     -10.865  11.687  66.874  1.00  0.00    -0.250 OA 
BRANCH  10  13
HETATM   13  O   UNK     1      -9.791  13.704  66.493  1.00  0.00    -0.276 OA 
BRANCH  13  14
HETATM   14  C   UNK     1     -10.125  13.119  65.225  1.00  0.00    -0.235 C  
BRANCH  14  15
HETATM   15  C   UNK     1     -10.945  14.085  64.367  1.00  0.00    -0.265 C  
HETATM   16  N   UNK     1     -11.039  15.454  64.954  1.00  0.00    -0.483 NA 
HETATM   17  C   UNK     1     -12.354  13.512  64.237  1.00  0.00    -0.335 C  
HETATM   18  O   UNK     1     -13.212  14.106  65.108  1.00  0.00    -0.743 OA 
HETATM   19  O   UNK     1     -12.670  12.599  63.490  1.00  0.00    -0.719 OA 
HETATM   20  H1  UNK     1     -11.585  16.098  64.382  1.00  0.00     0.000 HD 
HETATM   21  H2  UNK     1     -10.111  15.833  65.143  1.00  0.00     0.000 HD 
ENDBRANCH  14  15
ENDBRANCH  13  14
ENDBRANCH  10  13
ENDBRANCH   9  10
ENDBRANCH   8   9
ENDBRANCH   7   8
BRANCH   7  22
HETATM   22  C   UNK     1     -10.894   9.419  71.123  1.00  0.00    -0.357 C  
BRANCH  22  23
HETATM   23  O   UNK     1     -12.191   8.792  71.114  1.00  0.00    -0.291 OA 
BRANCH  23  24
HETATM   24  C   UNK     1     -13.181   9.511  71.712  1.00  0.00    -0.422 C  
HETATM   25  O   UNK     1     -13.101  10.691  72.009  1.00  0.00    -0.481 OA 
BRANCH  24  26
HETATM   26  C   UNK     1     -14.390   8.631  71.927  1.00  0.00    -0.492 C  
HETATM   27  C   UNK     1     -14.061   7.170  71.676  1.00  0.00    -0.477 C  
ENDBRANCH  24  26
ENDBRANCH  23  24
ENDBRANCH  22  23
ENDBRANCH   7  22
ENDBRANCH   6   7
ENDBRANCH   4   6
ENDBRANCH   3   4
ENDBRANCH   2   3
TORSDOF 14
ENDMDL
MODEL      152
REMARK 921   NORMALIZED FREE ENERGY PREDICTED BY IDOCK:   -4.32 KCAL/MOL
REMARK 922        TOTAL FREE ENERGY PREDICTED BY IDOCK:   -8.95 KCAL/MOL
REMARK 923 INTER-LIGAND FREE ENERGY PREDICTED BY IDOCK:   -7.79 KCAL/MOL
REMARK 924 INTRA-LIGAND FREE ENERGY PREDICTED BY IDOCK:   -1.15 KCAL/MOL
REMARK 927      BINDING AFFINITY PREDICTED BY RF-SCORE:    0.00 PKD
ROOT
HETATM    1  C   UNK     1     -10.683   7.671  73.123  1.00  0.00    -0.445 C  
HETATM    2  C   UNK     1     -11.763   8.294  72.249  1.00  0.00    -0.453 C  
ENDROOT
BRANCH   2   3
HETATM    3  C   UNK     1     -11.183   9.102  71.092  1.00  0.00    -0.395 C  
BRANCH   3   4
HETATM    4  C   UNK     1     -11.894  10.422  70.946  1.00  0.00    -0.377 C  
HETATM    5  O   UNK     1     -12.925  10.717  71.537  1.00  0.00    -0.407 OA 
BRANCH   4   6
HETATM    6  O   UNK     1     -11.251  11.213  70.053  1.00  0.00    -0.259 OA 
BRANCH   6   7
HETATM    7  C   UNK     1     -11.818  11.387  68.733  1.00  0.00    -0.323 C  
BRANCH   7   8
HETATM    8  C   UNK     1     -11.858  12.853  68.283  1.00  0.00    -0.330 C  
BRANCH   8   9
HETATM    9  O   UNK     1     -11.782  12.965  66.862  1.00  0.00    -0.346 OA 
BRANCH   9  10
HETATM   10  P   UNK     1     -10.732  14.229  66.322  1.00  0.00    -0.312 P  
HETATM   11  O   UNK     1     -10.719  14.923  67.803  1.00  0.00    -0.261 OA 
HETATM   12  O   UNK     1      -9.570  13.234  66.280  1.00  0.00    -0.273 OA 
BRANCH  10  13
HETATM   13  O   UNK     1      -9.681  15.493  65.782  1.00  0.00    -0.329 OA 
BRANCH  13  14
HETATM   14  C   UNK     1     -10.301  16.786  65.844  1.00  0.00    -0.328 C  
BRANCH  14  15
HETATM   15  C   UNK     1      -9.345  17.833  66.417  1.00  0.00    -0.249 C  
HETATM   16  N   UNK     1      -8.095  17.241  66.975  1.00  0.00    -0.201 NA 
HETATM   17  C   UNK     1     -10.078  18.572  67.534  1.00  0.00    -0.357 C  
HETATM   18  O   UNK     1      -9.728  18.090  68.757  1.00  0.00    -0.336 OA 
HETATM   19  O   UNK     1     -10.914  19.445  67.364  1.00  0.00    -0.490 OA 
HETATM   20  H1  UNK     1      -7.457  17.940  67.358  1.00  0.00     0.000 HD 
HETATM   21  H2  UNK     1      -7.625  16.662  66.280  1.00  0.00     0.000 HD 
ENDBRANCH  14  15
ENDBRANCH  13  14
ENDBRANCH  10  13
ENDBRANCH   9  10
ENDBRANCH   8   9
ENDBRANCH   7   8
BRANCH   7  22
HETATM   22  C   UNK     1     -11.119  10.493  67.692  1.00  0.00    -0.309 C  
BRANCH  22  23
HETATM   23  O   UNK     1      -9.755  10.214  68.060  1.00  0.00    -0.141 OA 
BRANCH  23  24
HETATM   24  C   UNK     1      -9.269   9.025  67.608  1.00  0.00    -0.136 C  
HETATM   25  O   UNK     1      -8.123   8.638  67.765  1.00  0.00    -0.106 OA 
BRANCH  24  26
HETATM   26  C   UNK     1     -10.367   8.259  66.908  1.00  0.00    -0.391 C  
HETATM   27  C   UNK     1     -10.029   6.783  66.802  1.00  0.00    -0.242 C  
ENDBRANCH  24  26
ENDBRANCH  23  24
ENDBRANCH  22  23
ENDBRANCH   7  22
ENDBRANCH   6   7
ENDBRANCH   4   6
ENDBRANCH   3   4
ENDBRANCH   2   3
TORSDOF 14
ENDMDL
MODEL      153
REMARK 921   NORMALIZED FREE ENERGY PREDICTED BY IDOCK:   -4.32 KCAL/MOL
REMARK 922        TOTAL FREE ENERGY PREDICTED BY IDOCK:   -8.95 KCAL/MOL
REMARK 923 INTER-LIGAND FREE ENERGY PREDICTED BY IDOCK:   -7.99 KCAL/MOL
REMARK 924 INTRA-LIGAND FREE ENERGY PREDICTED BY IDOCK:   -0.95 KCAL/MOL
REMARK 927      BINDING AFFINITY PREDICTED BY RF-SCORE:    0.00 PKD
ROOT
HETATM    1  C   UNK     1      -5.929  11.195  66.465  1.00  0.00    -0.143 C  
HETATM    2  C   UNK     1      -6.312   9.722  66.421  1.00  0.00    -0.070 C  
ENDROOT
BRANCH   2   3
HETATM    3  C   UNK     1      -6.322   9.080  67.805  1.00  0.00    -0.056 C  
BRANCH   3   4
HETATM    4  C   UNK     1      -7.710   8.631  68.182  1.00  0.00    -0.102 C  
HETATM    5  O   UNK     1      -8.362   7.811  67.551  1.00  0.00    -0.119 OA 
BRANCH   4   6
HETATM    6  O   UNK     1      -8.135   9.284  69.290  1.00  0.00    -0.099 OA 
BRANCH   6   7
HETATM    7  C   UNK     1      -9.281  10.163  69.192  1.00  0.00    -0.197 C  
BRANCH   7   8
HETATM    8  C   UNK     1      -9.283  11.009  67.912  1.00  0.00    -0.155 C  
BRANCH   8   9
HETATM    9  O   UNK     1     -10.201  10.495  66.948  1.00  0.00    -0.210 OA 
BRANCH   9  10
HETATM   10  P   UNK     1     -10.986  11.723  66.015  1.00  0.00    -0.265 P  
HETATM   11  O   UNK     1     -11.997  12.087  67.247  1.00  0.00    -0.591 OA 
HETATM   12  O   UNK     1      -9.751  12.613  66.167  1.00  0.00    -0.256 OA 
BRANCH  10  13
HETATM   13  O   UNK     1     -11.770  12.951  65.082  1.00  0.00    -0.318 OA 
BRANCH  13  14
HETATM   14  C   UNK     1     -10.875  14.006  64.701  1.00  0.00    -0.403 C  
BRANCH  14  15
HETATM   15  C   UNK     1     -11.466  15.379  65.027  1.00  0.00    -0.263 C  
HETATM   16  N   UNK     1     -11.527  16.286  63.844  1.00  0.00    -1.539 NA 
HETATM   17  C   UNK     1     -10.583  16.025  66.092  1.00  0.00    -0.297 C  
HETATM   18  O   UNK     1      -9.716  16.916  65.542  1.00  0.00    -0.541 OA 
HETATM   19  O   UNK     1     -10.605  15.747  67.281  1.00  0.00    -0.303 OA 
HETATM   20  H1  UNK     1     -11.921  17.202  64.061  1.00  0.00     0.000 HD 
HETATM   21  H2  UNK     1     -12.033  15.846  63.075  1.00  0.00     0.000 HD 
ENDBRANCH  14  15
ENDBRANCH  13  14
ENDBRANCH  10  13
ENDBRANCH   9  10
ENDBRANCH   8   9
ENDBRANCH   7   8
BRANCH   7  22
HETATM   22  C   UNK     1     -10.604   9.394  69.365  1.00  0.00    -0.221 C  
BRANCH  22  23
HETATM   23  O   UNK     1     -10.502   8.384  70.387  1.00  0.00    -0.205 OA 
BRANCH  23  24
HETATM   24  C   UNK     1     -11.107   8.697  71.566  1.00  0.00    -0.288 C  
HETATM   25  O   UNK     1     -10.802   8.228  72.650  1.00  0.00    -0.345 OA 
BRANCH  24  26
HETATM   26  C   UNK     1     -12.192   9.722  71.327  1.00  0.00    -0.465 C  
HETATM   27  C   UNK     1     -13.431   9.416  72.148  1.00  0.00    -0.543 C  
ENDBRANCH  24  26
ENDBRANCH  23  24
ENDBRANCH  22  23
ENDBRANCH   7  22
ENDBRANCH   6   7
ENDBRANCH   4   6
ENDBRANCH   3   4
ENDBRANCH   2   3
TORSDOF 14
ENDMDL
MODEL      154
REMARK 921   NORMALIZED FREE ENERGY PREDICTED BY IDOCK:   -4.32 KCAL/MOL
REMARK 922        TOTAL FREE ENERGY PREDICTED BY IDOCK:   -8.94 KCAL/MOL
REMARK 923 INTER-LIGAND FREE ENERGY PREDICTED BY IDOCK:   -8.08 KCAL/MOL
REMARK 924 INTRA-LIGAND FREE ENERGY PREDICTED BY IDOCK:   -0.86 KCAL/MOL
REMARK 927      BINDING AFFINITY PREDICTED BY RF-SCORE:    0.00 PKD
ROOT
HETATM    1  C   UNK     1      -9.662  17.595  68.540  1.00  0.00    -0.328 C  
HETATM    2  C   UNK     1     -10.777  16.881  67.788  1.00  0.00    -0.315 C  
ENDROOT
BRANCH   2   3
HETATM    3  C   UNK     1     -10.293  15.614  67.090  1.00  0.00    -0.285 C  
BRANCH   3   4
HETATM    4  C   UNK     1     -11.280  14.489  67.266  1.00  0.00    -0.332 C  
HETATM    5  O   UNK     1     -12.233  14.289  66.527  1.00  0.00    -0.441 OA 
BRANCH   4   6
HETATM    6  O   UNK     1     -10.979  13.761  68.369  1.00  0.00    -0.238 OA 
BRANCH   6   7
HETATM    7  C   UNK     1     -12.029  13.012  69.025  1.00  0.00    -0.267 C  
BRANCH   7   8
HETATM    8  C   UNK     1     -11.895  11.495  68.837  1.00  0.00    -0.341 C  
BRANCH   8   9
HETATM    9  O   UNK     1     -11.789  10.822  70.092  1.00  0.00    -0.282 OA 
BRANCH   9  10
HETATM   10  P   UNK     1     -10.941   9.317  70.000  1.00  0.00    -0.172 P  
HETATM   11  O   UNK     1      -9.737   9.988  69.121  1.00  0.00    -0.186 OA 
HETATM   12  O   UNK     1     -10.554   9.456  71.474  1.00  0.00    -0.341 OA 
BRANCH  10  13
HETATM   13  O   UNK     1     -10.093   7.812  69.908  1.00  0.00    -0.196 OA 
BRANCH  13  14
HETATM   14  C   UNK     1     -10.868   6.714  70.412  1.00  0.00    -0.266 C  
BRANCH  14  15
HETATM   15  C   UNK     1     -10.106   5.948  71.495  1.00  0.00    -0.192 C  
HETATM   16  N   UNK     1      -9.926   4.502  71.174  1.00  0.00    -0.197 NA 
HETATM   17  C   UNK     1     -10.898   6.066  72.794  1.00  0.00    -0.249 C  
HETATM   18  O   UNK     1     -11.643   4.951  73.021  1.00  0.00    -0.290 OA 
HETATM   19  O   UNK     1     -10.914   7.049  73.518  1.00  0.00    -0.302 OA 
HETATM   20  H1  UNK     1      -9.418   3.992  71.896  1.00  0.00     0.000 HD 
HETATM   21  H2  UNK     1      -9.481   4.384  70.264  1.00  0.00     0.000 HD 
ENDBRANCH  14  15
ENDBRANCH  13  14
ENDBRANCH  10  13
ENDBRANCH   9  10
ENDBRANCH   8   9
ENDBRANCH   7   8
BRANCH   7  22
HETATM   22  C   UNK     1     -12.153  13.392  70.512  1.00  0.00    -0.323 C  
BRANCH  22  23
HETATM   23  O   UNK     1     -12.929  14.591  70.692  1.00  0.00    -0.354 OA 
BRANCH  23  24
HETATM   24  C   UNK     1     -12.566  15.356  71.758  1.00  0.00    -0.384 C  
HETATM   25  O   UNK     1     -12.022  16.445  71.679  1.00  0.00    -0.424 OA 
BRANCH  24  26
HETATM   26  C   UNK     1     -12.959  14.662  73.042  1.00  0.00    -0.610 C  
HETATM   27  C   UNK     1     -12.491  15.442  74.257  1.00  0.00    -0.761 C  
ENDBRANCH  24  26
ENDBRANCH  23  24
ENDBRANCH  22  23
ENDBRANCH   7  22
ENDBRANCH   6   7
ENDBRANCH   4   6
ENDBRANCH   3   4
ENDBRANCH   2   3
TORSDOF 14
ENDMDL
MODEL      155
REMARK 921   NORMALIZED FREE ENERGY PREDICTED BY IDOCK:   -4.31 KCAL/MOL
REMARK 922        TOTAL FREE ENERGY PREDICTED BY IDOCK:   -8.94 KCAL/MOL
REMARK 923 INTER-LIGAND FREE ENERGY PREDICTED BY IDOCK:   -7.86 KCAL/MOL
REMARK 924 INTRA-LIGAND FREE ENERGY PREDICTED BY IDOCK:   -1.07 KCAL/MOL
REMARK 927      BINDING AFFINITY PREDICTED BY RF-SCORE:    0.00 PKD
ROOT
HETATM    1  C   UNK     1      -8.809  10.026  64.986  1.00  0.00    -0.213 C  
HETATM    2  C   UNK     1     -10.075   9.991  65.829  1.00  0.00    -0.320 C  
ENDROOT
BRANCH   2   3
HETATM    3  C   UNK     1     -10.089  11.070  66.907  1.00  0.00    -0.248 C  
BRANCH   3   4
HETATM    4  C   UNK     1     -11.491  11.560  67.162  1.00  0.00    -0.237 C  
HETATM    5  O   UNK     1     -12.076  12.370  66.456  1.00  0.00    -0.599 OA 
BRANCH   4   6
HETATM    6  O   UNK     1     -11.990  11.004  68.293  1.00  0.00    -0.593 OA 
BRANCH   6   7
HETATM    7  C   UNK     1     -11.433  11.391  69.571  1.00  0.00    -0.312 C  
BRANCH   7   8
HETATM    8  C   UNK     1     -12.404  12.216  70.427  1.00  0.00    -0.233 C  
BRANCH   8   9
HETATM    9  O   UNK     1     -11.839  13.478  70.784  1.00  0.00    -0.237 OA 
BRANCH   9  10
HETATM   10  P   UNK     1     -11.723  14.584  69.459  1.00  0.00    -0.349 P  
HETATM   11  O   UNK     1     -12.737  15.642  70.183  1.00  0.00    -0.335 OA 
HETATM   12  O   UNK     1     -10.303  14.947  69.899  1.00  0.00    -0.154 OA 
BRANCH  10  13
HETATM   13  O   UNK     1     -11.606  15.689  68.133  1.00  0.00    -0.353 OA 
BRANCH  13  14
HETATM   14  C   UNK     1     -11.040  16.951  68.519  1.00  0.00    -0.213 C  
BRANCH  14  15
HETATM   15  C   UNK     1      -9.872  17.336  67.609  1.00  0.00    -0.279 C  
HETATM   16  N   UNK     1      -8.558  16.818  68.093  1.00  0.00    -0.211 NA 
HETATM   17  C   UNK     1      -9.806  18.860  67.555  1.00  0.00    -0.327 C  
HETATM   18  O   UNK     1      -8.855  19.344  68.397  1.00  0.00    -0.332 OA 
HETATM   19  O   UNK     1     -10.544  19.568  66.887  1.00  0.00    -0.441 OA 
HETATM   20  H1  UNK     1      -7.779  17.075  67.486  1.00  0.00     0.000 HD 
HETATM   21  H2  UNK     1      -8.594  15.808  68.231  1.00  0.00     0.000 HD 
ENDBRANCH  14  15
ENDBRANCH  13  14
ENDBRANCH  10  13
ENDBRANCH   9  10
ENDBRANCH   8   9
ENDBRANCH   7   8
BRANCH   7  22
HETATM   22  C   UNK     1     -10.887  10.176  70.344  1.00  0.00    -0.301 C  
BRANCH  22  23
HETATM   23  O   UNK     1     -11.841   9.099  70.386  1.00  0.00    -0.171 OA 
BRANCH  23  24
HETATM   24  C   UNK     1     -11.664   8.213  71.405  1.00  0.00    -0.285 C  
HETATM   25  O   UNK     1     -11.399   8.521  72.555  1.00  0.00    -0.368 OA 
BRANCH  24  26
HETATM   26  C   UNK     1     -11.866   6.805  70.897  1.00  0.00    -0.438 C  
HETATM   27  C   UNK     1     -10.577   6.230  70.338  1.00  0.00    -0.309 C  
ENDBRANCH  24  26
ENDBRANCH  23  24
ENDBRANCH  22  23
ENDBRANCH   7  22
ENDBRANCH   6   7
ENDBRANCH   4   6
ENDBRANCH   3   4
ENDBRANCH   2   3
TORSDOF 14
ENDMDL
MODEL      156
REMARK 921   NORMALIZED FREE ENERGY PREDICTED BY IDOCK:   -4.31 KCAL/MOL
REMARK 922        TOTAL FREE ENERGY PREDICTED BY IDOCK:   -8.93 KCAL/MOL
REMARK 923 INTER-LIGAND FREE ENERGY PREDICTED BY IDOCK:   -7.87 KCAL/MOL
REMARK 924 INTRA-LIGAND FREE ENERGY PREDICTED BY IDOCK:   -1.06 KCAL/MOL
REMARK 927      BINDING AFFINITY PREDICTED BY RF-SCORE:    0.00 PKD
ROOT
HETATM    1  C   UNK     1     -10.245  20.088  65.798  1.00  0.00    -0.454 C  
HETATM    2  C   UNK     1      -9.698  18.932  66.624  1.00  0.00    -0.380 C  
ENDROOT
BRANCH   2   3
HETATM    3  C   UNK     1     -10.660  17.749  66.682  1.00  0.00    -0.224 C  
BRANCH   3   4
HETATM    4  C   UNK     1     -10.364  16.758  65.587  1.00  0.00    -0.265 C  
HETATM    5  O   UNK     1     -10.915  16.756  64.494  1.00  0.00    -0.921 OA 
BRANCH   4   6
HETATM    6  O   UNK     1      -9.433  15.862  65.995  1.00  0.00    -0.309 OA 
BRANCH   6   7
HETATM    7  C   UNK     1      -9.741  14.985  67.104  1.00  0.00    -0.226 C  
BRANCH   7   8
HETATM    8  C   UNK     1      -9.472  13.506  66.795  1.00  0.00    -0.269 C  
BRANCH   8   9
HETATM    9  O   UNK     1     -10.683  12.805  66.509  1.00  0.00    -0.254 OA 
BRANCH   9  10
HETATM   10  P   UNK     1     -10.870  11.347  67.422  1.00  0.00    -0.287 P  
HETATM   11  O   UNK     1      -9.815  11.862  68.561  1.00  0.00    -0.208 OA 
HETATM   12  O   UNK     1     -12.262  11.809  67.856  1.00  0.00    -0.538 OA 
BRANCH  10  13
HETATM   13  O   UNK     1     -11.057   9.889  68.335  1.00  0.00    -0.217 OA 
BRANCH  13  14
HETATM   14  C   UNK     1     -11.148  10.133  69.746  1.00  0.00    -0.279 C  
BRANCH  14  15
HETATM   15  C   UNK     1     -10.816   8.874  70.549  1.00  0.00    -0.236 C  
HETATM   16  N   UNK     1     -11.331   8.919  71.949  1.00  0.00    -0.360 NA 
HETATM   17  C   UNK     1      -9.296   8.735  70.591  1.00  0.00    -0.195 C  
HETATM   18  O   UNK     1      -8.791   9.195  71.766  1.00  0.00    -0.341 OA 
HETATM   19  O   UNK     1      -8.607   8.317  69.674  1.00  0.00    -0.127 OA 
HETATM   20  H1  UNK     1     -11.110   8.079  72.484  1.00  0.00     0.000 HD 
HETATM   21  H2  UNK     1     -12.334   9.105  71.961  1.00  0.00     0.000 HD 
ENDBRANCH  14  15
ENDBRANCH  13  14
ENDBRANCH  10  13
ENDBRANCH   9  10
ENDBRANCH   8   9
ENDBRANCH   7   8
BRANCH   7  22
HETATM   22  C   UNK     1      -9.033  15.433  68.396  1.00  0.00    -0.189 C  
BRANCH  22  23
HETATM   23  O   UNK     1      -9.651  14.864  69.565  1.00  0.00    -0.133 OA 
BRANCH  23  24
HETATM   24  C   UNK     1     -10.795  15.483  69.970  1.00  0.00    -0.318 C  
HETATM   25  O   UNK     1     -10.910  16.683  70.149  1.00  0.00    -0.301 OA 
BRANCH  24  26
HETATM   26  C   UNK     1     -11.895  14.460  70.139  1.00  0.00    -0.380 C  
HETATM   27  C   UNK     1     -13.056  15.026  70.937  1.00  0.00    -0.462 C  
ENDBRANCH  24  26
ENDBRANCH  23  24
ENDBRANCH  22  23
ENDBRANCH   7  22
ENDBRANCH   6   7
ENDBRANCH   4   6
ENDBRANCH   3   4
ENDBRANCH   2   3
TORSDOF 14
ENDMDL
MODEL      157
REMARK 921   NORMALIZED FREE ENERGY PREDICTED BY IDOCK:   -4.31 KCAL/MOL
REMARK 922        TOTAL FREE ENERGY PREDICTED BY IDOCK:   -8.93 KCAL/MOL
REMARK 923 INTER-LIGAND FREE ENERGY PREDICTED BY IDOCK:   -7.91 KCAL/MOL
REMARK 924 INTRA-LIGAND FREE ENERGY PREDICTED BY IDOCK:   -1.02 KCAL/MOL
REMARK 927      BINDING AFFINITY PREDICTED BY RF-SCORE:    0.00 PKD
ROOT
HETATM    1  C   UNK     1      -9.151   7.776  71.213  1.00  0.00    -0.153 C  
HETATM    2  C   UNK     1     -10.001   8.824  71.918  1.00  0.00    -0.401 C  
ENDROOT
BRANCH   2   3
HETATM    3  C   UNK     1     -11.429   8.873  71.385  1.00  0.00    -0.381 C  
BRANCH   3   4
HETATM    4  C   UNK     1     -11.841  10.289  71.072  1.00  0.00    -0.377 C  
HETATM    5  O   UNK     1     -12.770  10.870  71.614  1.00  0.00    -0.405 OA 
BRANCH   4   6
HETATM    6  O   UNK     1     -11.061  10.804  70.091  1.00  0.00    -0.281 OA 
BRANCH   6   7
HETATM    7  C   UNK     1     -11.602  10.925  68.754  1.00  0.00    -0.309 C  
BRANCH   7   8
HETATM    8  C   UNK     1     -12.033  12.356  68.405  1.00  0.00    -0.216 C  
BRANCH   8   9
HETATM    9  O   UNK     1     -11.196  13.322  69.043  1.00  0.00    -0.256 OA 
BRANCH   9  10
HETATM   10  P   UNK     1     -10.996  14.776  68.126  1.00  0.00    -0.292 P  
HETATM   11  O   UNK     1      -9.457  14.381  67.737  1.00  0.00    -0.204 OA 
HETATM   12  O   UNK     1     -11.900  14.200  67.034  1.00  0.00    -0.388 OA 
BRANCH  10  13
HETATM   13  O   UNK     1     -10.796  16.229  67.210  1.00  0.00    -0.302 OA 
BRANCH  13  14
HETATM   14  C   UNK     1     -10.588  17.379  68.042  1.00  0.00    -0.389 C  
BRANCH  14  15
HETATM   15  C   UNK     1     -10.382  18.642  67.203  1.00  0.00    -0.401 C  
HETATM   16  N   UNK     1     -10.532  18.402  65.738  1.00  0.00    -0.623 NA 
HETATM   17  C   UNK     1      -8.970  19.156  67.473  1.00  0.00    -0.295 C  
HETATM   18  O   UNK     1      -8.112  18.782  66.487  1.00  0.00    -0.270 OA 
HETATM   19  O   UNK     1      -8.630  19.776  68.468  1.00  0.00    -0.314 OA 
HETATM   20  H1  UNK     1     -10.395  19.244  65.179  1.00  0.00     0.000 HD 
HETATM   21  H2  UNK     1     -11.433  17.971  65.531  1.00  0.00     0.000 HD 
ENDBRANCH  14  15
ENDBRANCH  13  14
ENDBRANCH  10  13
ENDBRANCH   9  10
ENDBRANCH   8   9
ENDBRANCH   7   8
BRANCH   7  22
HETATM   22  C   UNK     1     -10.641  10.349  67.698  1.00  0.00    -0.257 C  
BRANCH  22  23
HETATM   23  O   UNK     1     -10.309  11.324  66.692  1.00  0.00    -0.221 OA 
BRANCH  23  24
HETATM   24  C   UNK     1     -10.401  10.880  65.408  1.00  0.00    -0.261 C  
HETATM   25  O   UNK     1     -11.041  11.429  64.527  1.00  0.00    -0.309 OA 
BRANCH  24  26
HETATM   26  C   UNK     1      -9.578   9.623  65.243  1.00  0.00    -0.347 C  
HETATM   27  C   UNK     1      -8.842   9.617  63.915  1.00  0.00    -0.255 C  
ENDBRANCH  24  26
ENDBRANCH  23  24
ENDBRANCH  22  23
ENDBRANCH   7  22
ENDBRANCH   6   7
ENDBRANCH   4   6
ENDBRANCH   3   4
ENDBRANCH   2   3
TORSDOF 14
ENDMDL
MODEL      158
REMARK 921   NORMALIZED FREE ENERGY PREDICTED BY IDOCK:   -4.31 KCAL/MOL
REMARK 922        TOTAL FREE ENERGY PREDICTED BY IDOCK:   -8.92 KCAL/MOL
REMARK 923 INTER-LIGAND FREE ENERGY PREDICTED BY IDOCK:   -7.72 KCAL/MOL
REMARK 924 INTRA-LIGAND FREE ENERGY PREDICTED BY IDOCK:   -1.20 KCAL/MOL
REMARK 927      BINDING AFFINITY PREDICTED BY RF-SCORE:    0.00 PKD
ROOT
HETATM    1  C   UNK     1     -13.158   7.140  71.494  1.00  0.00    -0.427 C  
HETATM    2  C   UNK     1     -11.644   7.122  71.654  1.00  0.00    -0.309 C  
ENDROOT
BRANCH   2   3
HETATM    3  C   UNK     1     -11.084   8.477  72.074  1.00  0.00    -0.412 C  
BRANCH   3   4
HETATM    4  C   UNK     1     -10.147   9.023  71.027  1.00  0.00    -0.282 C  
HETATM    5  O   UNK     1      -8.934   9.098  71.163  1.00  0.00    -0.223 OA 
BRANCH   4   6
HETATM    6  O   UNK     1     -10.841   9.442  69.941  1.00  0.00    -0.224 OA 
BRANCH   6   7
HETATM    7  C   UNK     1     -10.803  10.844  69.582  1.00  0.00    -0.216 C  
BRANCH   7   8
HETATM    8  C   UNK     1     -10.192  11.094  68.197  1.00  0.00    -0.181 C  
BRANCH   8   9
HETATM    9  O   UNK     1      -8.974  11.834  68.290  1.00  0.00    -0.171 OA 
BRANCH   9  10
HETATM   10  P   UNK     1      -8.995  13.315  67.396  1.00  0.00    -0.237 P  
HETATM   11  O   UNK     1     -10.485  12.997  66.801  1.00  0.00    -0.256 OA 
HETATM   12  O   UNK     1      -9.187  14.090  68.702  1.00  0.00    -0.189 OA 
BRANCH  10  13
HETATM   13  O   UNK     1      -9.016  14.797  66.502  1.00  0.00    -0.266 OA 
BRANCH  13  14
HETATM   14  C   UNK     1      -7.997  15.711  66.932  1.00  0.00    -0.243 C  
BRANCH  14  15
HETATM   15  C   UNK     1      -8.604  17.020  67.440  1.00  0.00    -0.197 C  
HETATM   16  N   UNK     1      -8.714  17.076  68.927  1.00  0.00    -0.242 NA 
HETATM   17  C   UNK     1     -10.002  17.149  66.841  1.00  0.00    -0.288 C  
HETATM   18  O   UNK     1     -10.957  16.766  67.730  1.00  0.00    -0.313 OA 
HETATM   19  O   UNK     1     -10.243  17.495  65.695  1.00  0.00    -0.595 OA 
HETATM   20  H1  UNK     1      -9.119  17.949  69.265  1.00  0.00     0.000 HD 
HETATM   21  H2  UNK     1      -7.810  16.901  69.365  1.00  0.00     0.000 HD 
ENDBRANCH  14  15
ENDBRANCH  13  14
ENDBRANCH  10  13
ENDBRANCH   9  10
ENDBRANCH   8   9
ENDBRANCH   7   8
BRANCH   7  22
HETATM   22  C   UNK     1     -12.187  11.503  69.720  1.00  0.00    -0.244 C  
BRANCH  22  23
HETATM   23  O   UNK     1     -12.328  12.184  70.980  1.00  0.00    -0.351 OA 
BRANCH  23  24
HETATM   24  C   UNK     1     -12.755  13.475  70.892  1.00  0.00    -0.291 C  
HETATM   25  O   UNK     1     -12.519  14.222  69.958  1.00  0.00    -0.338 OA 
BRANCH  24  26
HETATM   26  C   UNK     1     -13.576  13.825  72.112  1.00  0.00    -0.613 C  
HETATM   27  C   UNK     1     -13.701  15.328  72.280  1.00  0.00    -0.614 C  
ENDBRANCH  24  26
ENDBRANCH  23  24
ENDBRANCH  22  23
ENDBRANCH   7  22
ENDBRANCH   6   7
ENDBRANCH   4   6
ENDBRANCH   3   4
ENDBRANCH   2   3
TORSDOF 14
ENDMDL
MODEL      159
REMARK 921   NORMALIZED FREE ENERGY PREDICTED BY IDOCK:   -4.31 KCAL/MOL
REMARK 922        TOTAL FREE ENERGY PREDICTED BY IDOCK:   -8.92 KCAL/MOL
REMARK 923 INTER-LIGAND FREE ENERGY PREDICTED BY IDOCK:   -7.67 KCAL/MOL
REMARK 924 INTRA-LIGAND FREE ENERGY PREDICTED BY IDOCK:   -1.25 KCAL/MOL
REMARK 927      BINDING AFFINITY PREDICTED BY RF-SCORE:    0.00 PKD
ROOT
HETATM    1  C   UNK     1      -8.368   8.567  64.890  1.00  0.00    -0.171 C  
HETATM    2  C   UNK     1      -8.493  10.082  64.801  1.00  0.00    -0.180 C  
ENDROOT
BRANCH   2   3
HETATM    3  C   UNK     1      -9.945  10.547  64.765  1.00  0.00    -0.412 C  
BRANCH   3   4
HETATM    4  C   UNK     1     -10.140  11.630  63.735  1.00  0.00    -0.381 C  
HETATM    5  O   UNK     1      -9.470  11.738  62.717  1.00  0.00    -0.347 OA 
BRANCH   4   6
HETATM    6  O   UNK     1     -11.130  12.474  64.114  1.00  0.00    -0.324 OA 
BRANCH   6   7
HETATM    7  C   UNK     1     -10.904  13.366  65.230  1.00  0.00    -0.309 C  
BRANCH   7   8
HETATM    8  C   UNK     1     -10.526  14.789  64.797  1.00  0.00    -0.286 C  
BRANCH   8   9
HETATM    9  O   UNK     1     -10.916  15.753  65.775  1.00  0.00    -0.298 OA 
BRANCH   9  10
HETATM   10  P   UNK     1      -9.698  16.936  66.105  1.00  0.00    -0.202 P  
HETATM   11  O   UNK     1     -10.813  18.125  66.234  1.00  0.00    -0.198 OA 
HETATM   12  O   UNK     1      -9.511  16.341  67.502  1.00  0.00    -0.224 OA 
BRANCH  10  13
HETATM   13  O   UNK     1      -8.480  18.120  66.435  1.00  0.00    -0.291 OA 
BRANCH  13  14
HETATM   14  C   UNK     1      -8.184  18.228  67.835  1.00  0.00    -0.253 C  
BRANCH  14  15
HETATM   15  C   UNK     1      -8.243  19.683  68.303  1.00  0.00    -0.322 C  
HETATM   16  N   UNK     1      -8.662  20.628  67.227  1.00  0.00    -0.492 NA 
HETATM   17  C   UNK     1      -6.847  20.075  68.782  1.00  0.00    -0.293 C  
HETATM   18  O   UNK     1      -6.176  20.774  67.829  1.00  0.00    -0.257 OA 
HETATM   19  O   UNK     1      -6.363  19.761  69.859  1.00  0.00    -0.321 OA 
HETATM   20  H1  UNK     1      -8.700  21.599  67.540  1.00  0.00     0.000 HD 
HETATM   21  H2  UNK     1      -9.551  20.342  66.818  1.00  0.00     0.000 HD 
ENDBRANCH  14  15
ENDBRANCH  13  14
ENDBRANCH  10  13
ENDBRANCH   9  10
ENDBRANCH   8   9
ENDBRANCH   7   8
BRANCH   7  22
HETATM   22  C   UNK     1     -12.095  13.368  66.206  1.00  0.00    -0.422 C  
BRANCH  22  23
HETATM   23  O   UNK     1     -12.225  12.107  66.888  1.00  0.00    -0.537 OA 
BRANCH  23  24
HETATM   24  C   UNK     1     -11.557  12.022  68.072  1.00  0.00    -0.342 C  
HETATM   25  O   UNK     1     -11.376  12.954  68.837  1.00  0.00    -0.254 OA 
BRANCH  24  26
HETATM   26  C   UNK     1     -11.097  10.600  68.297  1.00  0.00    -0.334 C  
HETATM   27  C   UNK     1      -9.764  10.559  69.023  1.00  0.00    -0.221 C  
ENDBRANCH  24  26
ENDBRANCH  23  24
ENDBRANCH  22  23
ENDBRANCH   7  22
ENDBRANCH   6   7
ENDBRANCH   4   6
ENDBRANCH   3   4
ENDBRANCH   2   3
TORSDOF 14
ENDMDL
MODEL      160
REMARK 921   NORMALIZED FREE ENERGY PREDICTED BY IDOCK:   -4.30 KCAL/MOL
REMARK 922        TOTAL FREE ENERGY PREDICTED BY IDOCK:   -8.90 KCAL/MOL
REMARK 923 INTER-LIGAND FREE ENERGY PREDICTED BY IDOCK:   -7.70 KCAL/MOL
REMARK 924 INTRA-LIGAND FREE ENERGY PREDICTED BY IDOCK:   -1.20 KCAL/MOL
REMARK 927      BINDING AFFINITY PREDICTED BY RF-SCORE:    0.00 PKD
ROOT
HETATM    1  C   UNK     1      -8.828   9.150  67.064  1.00  0.00    -0.135 C  
HETATM    2  C   UNK     1      -9.301  10.575  66.813  1.00  0.00    -0.180 C  
ENDROOT
BRANCH   2   3
HETATM    3  C   UNK     1     -10.790  10.648  66.490  1.00  0.00    -0.168 C  
BRANCH   3   4
HETATM    4  C   UNK     1     -11.268  12.076  66.462  1.00  0.00    -0.334 C  
HETATM    5  O   UNK     1     -12.220  12.470  65.803  1.00  0.00    -0.578 OA 
BRANCH   4   6
HETATM    6  O   UNK     1     -10.478  12.857  67.238  1.00  0.00    -0.232 OA 
BRANCH   6   7
HETATM    7  C   UNK     1     -10.993  13.345  68.499  1.00  0.00    -0.268 C  
BRANCH   7   8
HETATM    8  C   UNK     1     -11.527  14.781  68.417  1.00  0.00    -0.314 C  
BRANCH   8   9
HETATM    9  O   UNK     1     -11.073  15.439  67.234  1.00  0.00    -0.325 OA 
BRANCH   9  10
HETATM   10  P   UNK     1     -10.231  16.918  67.544  1.00  0.00    -0.306 P  
HETATM   11  O   UNK     1     -10.657  16.890  69.123  1.00  0.00    -0.325 OA 
HETATM   12  O   UNK     1      -8.900  16.175  67.423  1.00  0.00    -0.183 OA 
BRANCH  10  13
HETATM   13  O   UNK     1      -9.390  18.398  67.855  1.00  0.00    -0.270 OA 
BRANCH  13  14
HETATM   14  C   UNK     1      -9.397  19.281  66.724  1.00  0.00    -0.329 C  
BRANCH  14  15
HETATM   15  C   UNK     1      -7.991  19.455  66.147  1.00  0.00    -0.310 C  
HETATM   16  N   UNK     1      -7.352  18.162  65.764  1.00  0.00    -0.529 NA 
HETATM   17  C   UNK     1      -7.130  20.129  67.211  1.00  0.00    -0.260 C  
HETATM   18  O   UNK     1      -6.367  19.222  67.877  1.00  0.00    -0.213 OA 
HETATM   19  O   UNK     1      -7.154  21.321  67.478  1.00  0.00    -0.482 OA 
HETATM   20  H1  UNK     1      -6.415  18.278  65.379  1.00  0.00     0.000 HD 
HETATM   21  H2  UNK     1      -7.947  17.638  65.122  1.00  0.00     0.000 HD 
ENDBRANCH  14  15
ENDBRANCH  13  14
ENDBRANCH  10  13
ENDBRANCH   9  10
ENDBRANCH   8   9
ENDBRANCH   7   8
BRANCH   7  22
HETATM   22  C   UNK     1     -12.038  12.384  69.096  1.00  0.00    -0.146 C  
BRANCH  22  23
HETATM   23  O   UNK     1     -11.951  12.329  70.532  1.00  0.00    -0.335 OA 
BRANCH  23  24
HETATM   24  C   UNK     1     -12.231  11.114  71.079  1.00  0.00    -0.333 C  
HETATM   25  O   UNK     1     -12.919  10.941  72.071  1.00  0.00    -0.457 OA 
BRANCH  24  26
HETATM   26  C   UNK     1     -11.581  10.024  70.260  1.00  0.00    -0.354 C  
HETATM   27  C   UNK     1     -10.227   9.639  70.830  1.00  0.00    -0.330 C  
ENDBRANCH  24  26
ENDBRANCH  23  24
ENDBRANCH  22  23
ENDBRANCH   7  22
ENDBRANCH   6   7
ENDBRANCH   4   6
ENDBRANCH   3   4
ENDBRANCH   2   3
TORSDOF 14
ENDMDL
MODEL      161
REMARK 921   NORMALIZED FREE ENERGY PREDICTED BY IDOCK:   -4.29 KCAL/MOL
REMARK 922        TOTAL FREE ENERGY PREDICTED BY IDOCK:   -8.90 KCAL/MOL
REMARK 923 INTER-LIGAND FREE ENERGY PREDICTED BY IDOCK:   -7.91 KCAL/MOL
REMARK 924 INTRA-LIGAND FREE ENERGY PREDICTED BY IDOCK:   -0.99 KCAL/MOL
REMARK 927      BINDING AFFINITY PREDICTED BY RF-SCORE:    0.00 PKD
ROOT
HETATM    1  C   UNK     1      -6.538  13.536  67.656  1.00  0.00    -0.177 C  
HETATM    2  C   UNK     1      -6.605  12.049  67.339  1.00  0.00    -0.134 C  
ENDROOT
BRANCH   2   3
HETATM    3  C   UNK     1      -8.039  11.541  67.222  1.00  0.00    -0.153 C  
BRANCH   3   4
HETATM    4  C   UNK     1      -8.274  10.372  68.143  1.00  0.00    -0.116 C  
HETATM    5  O   UNK     1      -7.382   9.713  68.659  1.00  0.00    -0.073 OA 
BRANCH   4   6
HETATM    6  O   UNK     1      -9.601  10.139  68.287  1.00  0.00    -0.138 OA 
BRANCH   6   7
HETATM    7  C   UNK     1     -10.309  10.764  69.384  1.00  0.00    -0.179 C  
BRANCH   7   8
HETATM    8  C   UNK     1     -11.516  11.594  68.929  1.00  0.00    -0.287 C  
BRANCH   8   9
HETATM    9  O   UNK     1     -11.272  12.993  69.078  1.00  0.00    -0.254 OA 
BRANCH   9  10
HETATM   10  P   UNK     1     -11.205  13.848  67.575  1.00  0.00    -0.334 P  
HETATM   11  O   UNK     1     -12.283  14.961  68.099  1.00  0.00    -0.173 OA 
HETATM   12  O   UNK     1      -9.811  14.362  67.940  1.00  0.00    -0.217 OA 
BRANCH  10  13
HETATM   13  O   UNK     1     -11.139  14.702  66.072  1.00  0.00    -0.321 OA 
BRANCH  13  14
HETATM   14  C   UNK     1     -10.536  13.927  65.026  1.00  0.00    -0.410 C  
BRANCH  14  15
HETATM   15  C   UNK     1     -11.485  13.767  63.837  1.00  0.00    -0.111 C  
HETATM   16  N   UNK     1     -12.629  14.724  63.868  1.00  0.00    -0.973 NA 
HETATM   17  C   UNK     1     -12.036  12.344  63.868  1.00  0.00    -0.499 C  
HETATM   18  O   UNK     1     -13.279  12.308  64.418  1.00  0.00    -0.806 OA 
HETATM   19  O   UNK     1     -11.429  11.350  63.502  1.00  0.00    -0.355 OA 
HETATM   20  H1  UNK     1     -13.262  14.617  63.075  1.00  0.00     0.000 HD 
HETATM   21  H2  UNK     1     -12.297  15.686  63.942  1.00  0.00     0.000 HD 
ENDBRANCH  14  15
ENDBRANCH  13  14
ENDBRANCH  10  13
ENDBRANCH   9  10
ENDBRANCH   8   9
ENDBRANCH   7   8
BRANCH   7  22
HETATM   22  C   UNK     1     -10.700   9.739  70.465  1.00  0.00    -0.317 C  
BRANCH  22  23
HETATM   23  O   UNK     1     -11.831  10.184  71.236  1.00  0.00    -0.359 OA 
BRANCH  23  24
HETATM   24  C   UNK     1     -12.597   9.188  71.762  1.00  0.00    -0.370 C  
HETATM   25  O   UNK     1     -13.677   9.354  72.303  1.00  0.00    -0.451 OA 
BRANCH  24  26
HETATM   26  C   UNK     1     -11.914   7.856  71.552  1.00  0.00    -0.333 C  
HETATM   27  C   UNK     1     -11.281   7.353  72.837  1.00  0.00    -0.368 C  
ENDBRANCH  24  26
ENDBRANCH  23  24
ENDBRANCH  22  23
ENDBRANCH   7  22
ENDBRANCH   6   7
ENDBRANCH   4   6
ENDBRANCH   3   4
ENDBRANCH   2   3
TORSDOF 14
ENDMDL
MODEL      162
REMARK 921   NORMALIZED FREE ENERGY PREDICTED BY IDOCK:   -4.29 KCAL/MOL
REMARK 922        TOTAL FREE ENERGY PREDICTED BY IDOCK:   -8.89 KCAL/MOL
REMARK 923 INTER-LIGAND FREE ENERGY PREDICTED BY IDOCK:   -8.30 KCAL/MOL
REMARK 924 INTRA-LIGAND FREE ENERGY PREDICTED BY IDOCK:   -0.60 KCAL/MOL
REMARK 927      BINDING AFFINITY PREDICTED BY RF-SCORE:    0.00 PKD
ROOT
HETATM    1  C   UNK     1      -9.361   4.371  65.666  1.00  0.00    -0.161 C  
HETATM    2  C   UNK     1     -10.525   5.188  66.209  1.00  0.00    -0.341 C  
ENDROOT
BRANCH   2   3
HETATM    3  C   UNK     1     -10.080   6.533  66.777  1.00  0.00    -0.239 C  
BRANCH   3   4
HETATM    4  C   UNK     1     -10.479   6.666  68.223  1.00  0.00    -0.209 C  
HETATM    5  O   UNK     1     -11.505   6.200  68.699  1.00  0.00    -0.223 OA 
BRANCH   4   6
HETATM    6  O   UNK     1      -9.562   7.395  68.904  1.00  0.00    -0.148 OA 
BRANCH   6   7
HETATM    7  C   UNK     1      -9.881   8.758  69.272  1.00  0.00    -0.180 C  
BRANCH   7   8
HETATM    8  C   UNK     1     -10.553   9.546  68.140  1.00  0.00    -0.217 C  
BRANCH   8   9
HETATM    9  O   UNK     1      -9.590  10.240  67.345  1.00  0.00    -0.154 OA 
BRANCH   9  10
HETATM   10  P   UNK     1     -10.295  11.237  66.119  1.00  0.00    -0.258 P  
HETATM   11  O   UNK     1     -11.614  11.529  67.041  1.00  0.00    -0.510 OA 
HETATM   12  O   UNK     1      -9.273  12.331  66.435  1.00  0.00    -0.227 OA 
BRANCH  10  13
HETATM   13  O   UNK     1     -10.999  12.234  64.893  1.00  0.00    -0.285 OA 
BRANCH  13  14
HETATM   14  C   UNK     1     -10.496  13.578  64.923  1.00  0.00    -0.402 C  
BRANCH  14  15
HETATM   15  C   UNK     1     -11.546  14.552  65.460  1.00  0.00    -0.350 C  
HETATM   16  N   UNK     1     -12.946  14.079  65.249  1.00  0.00    -0.767 NA 
HETATM   17  C   UNK     1     -11.364  15.882  64.732  1.00  0.00    -0.309 C  
HETATM   18  O   UNK     1     -12.262  16.018  63.721  1.00  0.00    -0.895 OA 
HETATM   19  O   UNK     1     -10.494  16.701  64.981  1.00  0.00    -0.664 OA 
HETATM   20  H1  UNK     1     -13.646  14.729  65.608  1.00  0.00     0.000 HD 
HETATM   21  H2  UNK     1     -13.078  13.148  65.643  1.00  0.00     0.000 HD 
ENDBRANCH  14  15
ENDBRANCH  13  14
ENDBRANCH  10  13
ENDBRANCH   9  10
ENDBRANCH   8   9
ENDBRANCH   7   8
BRANCH   7  22
HETATM   22  C   UNK     1     -10.704   8.818  70.572  1.00  0.00    -0.223 C  
BRANCH  22  23
HETATM   23  O   UNK     1     -10.453   7.677  71.413  1.00  0.00    -0.208 OA 
BRANCH  23  24
HETATM   24  C   UNK     1      -9.838   7.958  72.595  1.00  0.00    -0.252 C  
HETATM   25  O   UNK     1      -8.925   8.753  72.731  1.00  0.00    -0.361 OA 
BRANCH  24  26
HETATM   26  C   UNK     1     -10.474   7.151  73.704  1.00  0.00    -0.412 C  
HETATM   27  C   UNK     1     -10.702   5.712  73.279  1.00  0.00    -0.304 C  
ENDBRANCH  24  26
ENDBRANCH  23  24
ENDBRANCH  22  23
ENDBRANCH   7  22
ENDBRANCH   6   7
ENDBRANCH   4   6
ENDBRANCH   3   4
ENDBRANCH   2   3
TORSDOF 14
ENDMDL
MODEL      163
REMARK 921   NORMALIZED FREE ENERGY PREDICTED BY IDOCK:   -4.27 KCAL/MOL
REMARK 922        TOTAL FREE ENERGY PREDICTED BY IDOCK:   -8.86 KCAL/MOL
REMARK 923 INTER-LIGAND FREE ENERGY PREDICTED BY IDOCK:   -7.69 KCAL/MOL
REMARK 924 INTRA-LIGAND FREE ENERGY PREDICTED BY IDOCK:   -1.17 KCAL/MOL
REMARK 927      BINDING AFFINITY PREDICTED BY RF-SCORE:    0.00 PKD
ROOT
HETATM    1  C   UNK     1     -10.658  14.990  64.985  1.00  0.00    -0.437 C  
HETATM    2  C   UNK     1     -10.360  14.421  66.365  1.00  0.00    -0.289 C  
ENDROOT
BRANCH   2   3
HETATM    3  C   UNK     1     -11.628  14.111  67.154  1.00  0.00    -0.400 C  
BRANCH   3   4
HETATM    4  C   UNK     1     -11.706  12.645  67.496  1.00  0.00    -0.368 C  
HETATM    5  O   UNK     1     -12.060  11.775  66.712  1.00  0.00    -0.547 OA 
BRANCH   4   6
HETATM    6  O   UNK     1     -11.362  12.439  68.790  1.00  0.00    -0.249 OA 
BRANCH   6   7
HETATM    7  C   UNK     1     -12.052  11.416  69.546  1.00  0.00    -0.302 C  
BRANCH   7   8
HETATM    8  C   UNK     1     -11.282  10.091  69.610  1.00  0.00    -0.239 C  
BRANCH   8   9
HETATM    9  O   UNK     1      -9.897  10.306  69.884  1.00  0.00    -0.211 OA 
BRANCH   9  10
HETATM   10  P   UNK     1      -8.842   9.328  68.922  1.00  0.00    -0.140 P  
HETATM   11  O   UNK     1      -9.240  10.143  67.561  1.00  0.00    -0.137 OA 
HETATM   12  O   UNK     1      -7.636  10.041  69.538  1.00  0.00    -0.101 OA 
BRANCH  10  13
HETATM   13  O   UNK     1      -7.787   8.351  67.961  1.00  0.00    -0.108 OA 
BRANCH  13  14
HETATM   14  C   UNK     1      -8.098   6.953  68.053  1.00  0.00    -0.115 C  
BRANCH  14  15
HETATM   15  C   UNK     1      -8.556   6.396  66.704  1.00  0.00    -0.121 C  
HETATM   16  N   UNK     1      -8.837   7.460  65.697  1.00  0.00    -0.345 NA 
HETATM   17  C   UNK     1      -9.835   5.596  66.940  1.00  0.00    -0.159 C  
HETATM   18  O   UNK     1     -10.938   6.323  66.621  1.00  0.00    -0.306 OA 
HETATM   19  O   UNK     1      -9.878   4.468  67.407  1.00  0.00    -0.182 OA 
HETATM   20  H1  UNK     1      -9.143   7.089  64.797  1.00  0.00     0.000 HD 
HETATM   21  H2  UNK     1      -8.031   8.074  65.582  1.00  0.00     0.000 HD 
ENDBRANCH  14  15
ENDBRANCH  13  14
ENDBRANCH  10  13
ENDBRANCH   9  10
ENDBRANCH   8   9
ENDBRANCH   7   8
BRANCH   7  22
HETATM   22  C   UNK     1     -12.444  11.914  70.950  1.00  0.00    -0.300 C  
BRANCH  22  23
HETATM   23  O   UNK     1     -12.304  13.342  71.066  1.00  0.00    -0.363 OA 
BRANCH  23  24
HETATM   24  C   UNK     1     -13.195  13.941  71.903  1.00  0.00    -0.397 C  
HETATM   25  O   UNK     1     -14.010  13.348  72.591  1.00  0.00    -0.755 OA 
BRANCH  24  26
HETATM   26  C   UNK     1     -13.005  15.440  71.864  1.00  0.00    -0.497 C  
HETATM   27  C   UNK     1     -13.355  16.076  73.197  1.00  0.00    -0.624 C  
ENDBRANCH  24  26
ENDBRANCH  23  24
ENDBRANCH  22  23
ENDBRANCH   7  22
ENDBRANCH   6   7
ENDBRANCH   4   6
ENDBRANCH   3   4
ENDBRANCH   2   3
TORSDOF 14
ENDMDL
MODEL      164
REMARK 921   NORMALIZED FREE ENERGY PREDICTED BY IDOCK:   -4.27 KCAL/MOL
REMARK 922        TOTAL FREE ENERGY PREDICTED BY IDOCK:   -8.85 KCAL/MOL
REMARK 923 INTER-LIGAND FREE ENERGY PREDICTED BY IDOCK:   -7.63 KCAL/MOL
REMARK 924 INTRA-LIGAND FREE ENERGY PREDICTED BY IDOCK:   -1.22 KCAL/MOL
REMARK 927      BINDING AFFINITY PREDICTED BY RF-SCORE:    0.00 PKD
ROOT
HETATM    1  C   UNK     1     -14.355   7.211  71.490  1.00  0.00    -0.503 C  
HETATM    2  C   UNK     1     -14.304   8.664  71.943  1.00  0.00    -0.492 C  
ENDROOT
BRANCH   2   3
HETATM    3  C   UNK     1     -12.911   9.086  72.399  1.00  0.00    -0.471 C  
BRANCH   3   4
HETATM    4  C   UNK     1     -12.228   9.920  71.347  1.00  0.00    -0.408 C  
HETATM    5  O   UNK     1     -12.791  10.769  70.670  1.00  0.00    -0.340 OA 
BRANCH   4   6
HETATM    6  O   UNK     1     -10.922   9.575  71.240  1.00  0.00    -0.337 OA 
BRANCH   6   7
HETATM    7  C   UNK     1     -10.556   8.472  70.378  1.00  0.00    -0.223 C  
BRANCH   7   8
HETATM    8  C   UNK     1     -10.001   8.926  69.021  1.00  0.00    -0.190 C  
BRANCH   8   9
HETATM    9  O   UNK     1      -9.301  10.165  69.133  1.00  0.00    -0.174 OA 
BRANCH   9  10
HETATM   10  P   UNK     1      -9.955  11.421  68.138  1.00  0.00    -0.200 P  
HETATM   11  O   UNK     1      -8.597  12.320  68.289  1.00  0.00    -0.174 OA 
HETATM   12  O   UNK     1      -9.772  10.530  66.909  1.00  0.00    -0.171 OA 
BRANCH  10  13
HETATM   13  O   UNK     1     -10.609  12.677  67.144  1.00  0.00    -0.233 OA 
BRANCH  13  14
HETATM   14  C   UNK     1     -11.585  12.187  66.213  1.00  0.00    -0.360 C  
BRANCH  14  15
HETATM   15  C   UNK     1     -11.282  12.663  64.790  1.00  0.00    -0.302 C  
HETATM   16  N   UNK     1      -9.837  12.557  64.434  1.00  0.00    -0.551 NA 
HETATM   17  C   UNK     1     -11.706  14.125  64.687  1.00  0.00    -0.417 C  
HETATM   18  O   UNK     1     -10.640  14.959  64.819  1.00  0.00    -0.407 OA 
HETATM   19  O   UNK     1     -12.857  14.513  64.559  1.00  0.00    -0.613 OA 
HETATM   20  H1  UNK     1      -9.635  12.874  63.485  1.00  0.00     0.000 HD 
HETATM   21  H2  UNK     1      -9.494  11.608  64.580  1.00  0.00     0.000 HD 
ENDBRANCH  14  15
ENDBRANCH  13  14
ENDBRANCH  10  13
ENDBRANCH   9  10
ENDBRANCH   8   9
ENDBRANCH   7   8
BRANCH   7  22
HETATM   22  C   UNK     1      -9.599   7.492  71.083  1.00  0.00    -0.158 C  
BRANCH  22  23
HETATM   23  O   UNK     1      -9.109   6.484  70.179  1.00  0.00    -0.153 OA 
BRANCH  23  24
HETATM   24  C   UNK     1      -9.943   5.423  69.995  1.00  0.00    -0.233 C  
HETATM   25  O   UNK     1     -10.679   4.961  70.849  1.00  0.00    -0.085 OA 
BRANCH  24  26
HETATM   26  C   UNK     1      -9.828   4.927  68.572  1.00  0.00    -0.208 C  
HETATM   27  C   UNK     1      -9.291   3.508  68.525  1.00  0.00    -0.229 C  
ENDBRANCH  24  26
ENDBRANCH  23  24
ENDBRANCH  22  23
ENDBRANCH   7  22
ENDBRANCH   6   7
ENDBRANCH   4   6
ENDBRANCH   3   4
ENDBRANCH   2   3
TORSDOF 14
ENDMDL
MODEL      165
REMARK 921   NORMALIZED FREE ENERGY PREDICTED BY IDOCK:   -4.25 KCAL/MOL
REMARK 922        TOTAL FREE ENERGY PREDICTED BY IDOCK:   -8.82 KCAL/MOL
REMARK 923 INTER-LIGAND FREE ENERGY PREDICTED BY IDOCK:   -7.97 KCAL/MOL
REMARK 924 INTRA-LIGAND FREE ENERGY PREDICTED BY IDOCK:   -0.85 KCAL/MOL
REMARK 927      BINDING AFFINITY PREDICTED BY RF-SCORE:    0.00 PKD
ROOT
HETATM    1  C   UNK     1     -13.441  14.657  71.967  1.00  0.00    -0.476 C  
HETATM    2  C   UNK     1     -12.094  14.838  71.281  1.00  0.00    -0.399 C  
ENDROOT
BRANCH   2   3
HETATM    3  C   UNK     1     -12.137  14.463  69.803  1.00  0.00    -0.386 C  
BRANCH   3   4
HETATM    4  C   UNK     1     -11.729  13.027  69.598  1.00  0.00    -0.297 C  
HETATM    5  O   UNK     1     -12.218  12.081  70.199  1.00  0.00    -0.287 OA 
BRANCH   4   6
HETATM    6  O   UNK     1     -10.732  12.942  68.684  1.00  0.00    -0.246 OA 
BRANCH   6   7
HETATM    7  C   UNK     1     -11.037  12.464  67.353  1.00  0.00    -0.272 C  
BRANCH   7   8
HETATM    8  C   UNK     1     -10.550  13.410  66.247  1.00  0.00    -0.291 C  
BRANCH   8   9
HETATM    9  O   UNK     1     -11.219  14.670  66.306  1.00  0.00    -0.331 OA 
BRANCH   9  10
HETATM   10  P   UNK     1     -10.171  16.022  66.051  1.00  0.00    -0.376 P  
HETATM   11  O   UNK     1     -11.069  16.548  64.790  1.00  0.00    -0.624 OA 
HETATM   12  O   UNK     1     -10.733  16.684  67.311  1.00  0.00    -0.306 OA 
BRANCH  10  13
HETATM   13  O   UNK     1      -9.123  17.375  65.797  1.00  0.00    -0.517 OA 
BRANCH  13  14
HETATM   14  C   UNK     1      -9.712  18.613  66.220  1.00  0.00    -0.307 C  
BRANCH  14  15
HETATM   15  C   UNK     1      -8.641  19.620  66.645  1.00  0.00    -0.343 C  
HETATM   16  N   UNK     1      -7.666  19.931  65.559  1.00  0.00    -0.433 NA 
HETATM   17  C   UNK     1      -7.883  19.022  67.828  1.00  0.00    -0.251 C  
HETATM   18  O   UNK     1      -6.707  18.468  67.430  1.00  0.00    -0.198 OA 
HETATM   19  O   UNK     1      -8.293  18.991  68.977  1.00  0.00    -0.292 OA 
HETATM   20  H1  UNK     1      -6.952  20.603  65.844  1.00  0.00     0.000 HD 
HETATM   21  H2  UNK     1      -8.147  20.247  64.718  1.00  0.00     0.000 HD 
ENDBRANCH  14  15
ENDBRANCH  13  14
ENDBRANCH  10  13
ENDBRANCH   9  10
ENDBRANCH   8   9
ENDBRANCH   7   8
BRANCH   7  22
HETATM   22  C   UNK     1     -10.530  11.027  67.135  1.00  0.00    -0.232 C  
BRANCH  22  23
HETATM   23  O   UNK     1     -10.376  10.323  68.381  1.00  0.00    -0.162 OA 
BRANCH  23  24
HETATM   24  C   UNK     1     -10.413   8.965  68.283  1.00  0.00    -0.195 C  
HETATM   25  O   UNK     1     -10.727   8.349  67.278  1.00  0.00    -0.285 OA 
BRANCH  24  26
HETATM   26  C   UNK     1      -9.989   8.347  69.595  1.00  0.00    -0.193 C  
HETATM   27  C   UNK     1     -10.975   8.671  70.702  1.00  0.00    -0.274 C  
ENDBRANCH  24  26
ENDBRANCH  23  24
ENDBRANCH  22  23
ENDBRANCH   7  22
ENDBRANCH   6   7
ENDBRANCH   4   6
ENDBRANCH   3   4
ENDBRANCH   2   3
TORSDOF 14
ENDMDL
MODEL      166
REMARK 921   NORMALIZED FREE ENERGY PREDICTED BY IDOCK:   -4.25 KCAL/MOL
REMARK 922        TOTAL FREE ENERGY PREDICTED BY IDOCK:   -8.81 KCAL/MOL
REMARK 923 INTER-LIGAND FREE ENERGY PREDICTED BY IDOCK:   -7.92 KCAL/MOL
REMARK 924 INTRA-LIGAND FREE ENERGY PREDICTED BY IDOCK:   -0.89 KCAL/MOL
REMARK 927      BINDING AFFINITY PREDICTED BY RF-SCORE:    0.00 PKD
ROOT
HETATM    1  C   UNK     1     -11.051   4.627  73.451  1.00  0.00    -0.418 C  
HETATM    2  C   UNK     1     -11.148   5.536  72.234  1.00  0.00    -0.297 C  
ENDROOT
BRANCH   2   3
HETATM    3  C   UNK     1     -10.994   7.011  72.593  1.00  0.00    -0.313 C  
BRANCH   3   4
HETATM    4  C   UNK     1     -12.083   7.837  71.960  1.00  0.00    -0.311 C  
HETATM    5  O   UNK     1     -13.037   7.368  71.354  1.00  0.00    -0.364 OA 
BRANCH   4   6
HETATM    6  O   UNK     1     -11.838   9.158  72.132  1.00  0.00    -0.345 OA 
BRANCH   6   7
HETATM    7  C   UNK     1     -11.453   9.956  70.987  1.00  0.00    -0.388 C  
BRANCH   7   8
HETATM    8  C   UNK     1     -10.894   9.118  69.830  1.00  0.00    -0.228 C  
BRANCH   8   9
HETATM    9  O   UNK     1      -9.482   9.287  69.700  1.00  0.00    -0.163 OA 
BRANCH   9  10
HETATM   10  P   UNK     1      -9.034  10.622  68.696  1.00  0.00    -0.178 P  
HETATM   11  O   UNK     1      -7.482  10.554  69.205  1.00  0.00    -0.092 OA 
HETATM   12  O   UNK     1      -9.145   9.721  67.464  1.00  0.00    -0.131 OA 
BRANCH  10  13
HETATM   13  O   UNK     1      -8.586  11.958  67.691  1.00  0.00    -0.143 OA 
BRANCH  13  14
HETATM   14  C   UNK     1      -9.264  11.945  66.426  1.00  0.00    -0.215 C  
BRANCH  14  15
HETATM   15  C   UNK     1     -10.212  13.139  66.293  1.00  0.00    -0.293 C  
HETATM   16  N   UNK     1     -10.248  13.997  67.513  1.00  0.00    -0.243 NA 
HETATM   17  C   UNK     1     -11.615  12.594  66.036  1.00  0.00    -0.393 C  
HETATM   18  O   UNK     1     -12.355  12.579  67.177  1.00  0.00    -0.376 OA 
HETATM   19  O   UNK     1     -12.016  12.171  64.963  1.00  0.00    -0.356 OA 
HETATM   20  H1  UNK     1     -10.880  14.793  67.423  1.00  0.00     0.000 HD 
HETATM   21  H2  UNK     1      -9.310  14.305  67.769  1.00  0.00     0.000 HD 
ENDBRANCH  14  15
ENDBRANCH  13  14
ENDBRANCH  10  13
ENDBRANCH   9  10
ENDBRANCH   8   9
ENDBRANCH   7   8
BRANCH   7  22
HETATM   22  C   UNK     1     -12.600  10.873  70.522  1.00  0.00    -0.324 C  
BRANCH  22  23
HETATM   23  O   UNK     1     -13.107  11.679  71.602  1.00  0.00    -0.445 OA 
BRANCH  23  24
HETATM   24  C   UNK     1     -12.982  13.024  71.423  1.00  0.00    -0.283 C  
HETATM   25  O   UNK     1     -12.283  13.550  70.574  1.00  0.00    -0.345 OA 
BRANCH  24  26
HETATM   26  C   UNK     1     -13.853  13.753  72.420  1.00  0.00    -0.681 C  
HETATM   27  C   UNK     1     -13.054  14.778  73.204  1.00  0.00    -0.598 C  
ENDBRANCH  24  26
ENDBRANCH  23  24
ENDBRANCH  22  23
ENDBRANCH   7  22
ENDBRANCH   6   7
ENDBRANCH   4   6
ENDBRANCH   3   4
ENDBRANCH   2   3
TORSDOF 14
ENDMDL
MODEL      167
REMARK 921   NORMALIZED FREE ENERGY PREDICTED BY IDOCK:   -4.24 KCAL/MOL
REMARK 922        TOTAL FREE ENERGY PREDICTED BY IDOCK:   -8.81 KCAL/MOL
REMARK 923 INTER-LIGAND FREE ENERGY PREDICTED BY IDOCK:   -7.45 KCAL/MOL
REMARK 924 INTRA-LIGAND FREE ENERGY PREDICTED BY IDOCK:   -1.36 KCAL/MOL
REMARK 927      BINDING AFFINITY PREDICTED BY RF-SCORE:    0.00 PKD
ROOT
HETATM    1  C   UNK     1     -12.193  14.018  64.306  1.00  0.00    -0.453 C  
HETATM    2  C   UNK     1     -12.158  12.812  63.378  1.00  0.00    -0.619 C  
ENDROOT
BRANCH   2   3
HETATM    3  C   UNK     1     -11.650  11.554  64.075  1.00  0.00    -0.280 C  
BRANCH   3   4
HETATM    4  C   UNK     1     -10.231  11.248  63.670  1.00  0.00    -0.392 C  
HETATM    5  O   UNK     1      -9.581  11.921  62.881  1.00  0.00    -0.367 OA 
BRANCH   4   6
HETATM    6  O   UNK     1      -9.797  10.116  64.276  1.00  0.00    -0.315 OA 
BRANCH   6   7
HETATM    7  C   UNK     1      -9.946   9.984  65.709  1.00  0.00    -0.276 C  
BRANCH   7   8
HETATM    8  C   UNK     1      -9.577   8.588  66.227  1.00  0.00    -0.236 C  
BRANCH   8   9
HETATM    9  O   UNK     1     -10.702   7.938  66.820  1.00  0.00    -0.304 OA 
BRANCH   9  10
HETATM   10  P   UNK     1     -10.456   7.501  68.476  1.00  0.00    -0.098 P  
HETATM   11  O   UNK     1     -11.172   6.048  68.254  1.00  0.00    -0.273 OA 
HETATM   12  O   UNK     1      -8.963   7.316  68.194  1.00  0.00    -0.133 OA 
BRANCH  10  13
HETATM   13  O   UNK     1     -10.209   7.064  70.131  1.00  0.00    -0.190 OA 
BRANCH  13  14
HETATM   14  C   UNK     1     -11.240   6.200  70.631  1.00  0.00    -0.319 C  
BRANCH  14  15
HETATM   15  C   UNK     1     -11.783   6.701  71.970  1.00  0.00    -0.313 C  
HETATM   16  N   UNK     1     -12.284   5.602  72.847  1.00  0.00    -0.492 NA 
HETATM   17  C   UNK     1     -12.936   7.658  71.678  1.00  0.00    -0.350 C  
HETATM   18  O   UNK     1     -14.138   7.040  71.819  1.00  0.00    -0.353 OA 
HETATM   19  O   UNK     1     -12.808   8.816  71.311  1.00  0.00    -0.302 OA 
HETATM   20  H1  UNK     1     -12.646   5.937  73.740  1.00  0.00     0.000 HD 
HETATM   21  H2  UNK     1     -11.565   4.893  72.988  1.00  0.00     0.000 HD 
ENDBRANCH  14  15
ENDBRANCH  13  14
ENDBRANCH  10  13
ENDBRANCH   9  10
ENDBRANCH   8   9
ENDBRANCH   7   8
BRANCH   7  22
HETATM   22  C   UNK     1      -9.185  11.090  66.464  1.00  0.00    -0.171 C  
BRANCH  22  23
HETATM   23  O   UNK     1      -9.203  10.871  67.887  1.00  0.00    -0.147 OA 
BRANCH  23  24
HETATM   24  C   UNK     1     -10.193  11.524  68.557  1.00  0.00    -0.213 C  
HETATM   25  O   UNK     1     -10.885  11.029  69.431  1.00  0.00    -0.230 OA 
BRANCH  24  26
HETATM   26  C   UNK     1     -10.284  12.951  68.067  1.00  0.00    -0.229 C  
HETATM   27  C   UNK     1     -11.724  13.430  68.030  1.00  0.00    -0.391 C  
ENDBRANCH  24  26
ENDBRANCH  23  24
ENDBRANCH  22  23
ENDBRANCH   7  22
ENDBRANCH   6   7
ENDBRANCH   4   6
ENDBRANCH   3   4
ENDBRANCH   2   3
TORSDOF 14
ENDMDL
MODEL      168
REMARK 921   NORMALIZED FREE ENERGY PREDICTED BY IDOCK:   -4.24 KCAL/MOL
REMARK 922        TOTAL FREE ENERGY PREDICTED BY IDOCK:   -8.80 KCAL/MOL
REMARK 923 INTER-LIGAND FREE ENERGY PREDICTED BY IDOCK:   -7.74 KCAL/MOL
REMARK 924 INTRA-LIGAND FREE ENERGY PREDICTED BY IDOCK:   -1.06 KCAL/MOL
REMARK 927      BINDING AFFINITY PREDICTED BY RF-SCORE:    0.00 PKD
ROOT
HETATM    1  C   UNK     1      -7.485   9.658  65.136  1.00  0.00    -0.115 C  
HETATM    2  C   UNK     1      -8.753   8.815  65.176  1.00  0.00    -0.202 C  
ENDROOT
BRANCH   2   3
HETATM    3  C   UNK     1      -9.709   9.251  66.282  1.00  0.00    -0.340 C  
BRANCH   3   4
HETATM    4  C   UNK     1     -10.181   8.066  67.085  1.00  0.00    -0.292 C  
HETATM    5  O   UNK     1     -10.116   6.906  66.702  1.00  0.00    -0.191 OA 
BRANCH   4   6
HETATM    6  O   UNK     1     -10.710   8.472  68.265  1.00  0.00    -0.154 OA 
BRANCH   6   7
HETATM    7  C   UNK     1     -10.266   9.724  68.841  1.00  0.00    -0.200 C  
BRANCH   7   8
HETATM    8  C   UNK     1     -11.380  10.774  68.932  1.00  0.00    -0.284 C  
BRANCH   8   9
HETATM    9  O   UNK     1     -10.845  12.095  69.023  1.00  0.00    -0.216 OA 
BRANCH   9  10
HETATM   10  P   UNK     1     -11.245  13.098  67.671  1.00  0.00    -0.316 P  
HETATM   11  O   UNK     1     -12.030  11.871  66.926  1.00  0.00    -0.614 OA 
HETATM   12  O   UNK     1     -12.273  13.833  68.532  1.00  0.00    -0.348 OA 
BRANCH  10  13
HETATM   13  O   UNK     1     -11.645  14.100  66.318  1.00  0.00    -0.344 OA 
BRANCH  13  14
HETATM   14  C   UNK     1     -10.648  14.054  65.287  1.00  0.00    -0.363 C  
BRANCH  14  15
HETATM   15  C   UNK     1     -11.288  14.054  63.897  1.00  0.00     0.146 C  
HETATM   16  N   UNK     1     -12.590  14.781  63.852  1.00  0.00    -0.973 NA 
HETATM   17  C   UNK     1     -11.524  12.601  63.492  1.00  0.00    -0.491 C  
HETATM   18  O   UNK     1     -12.816  12.234  63.704  1.00  0.00    -0.753 OA 
HETATM   19  O   UNK     1     -10.662  11.840  63.082  1.00  0.00    -0.339 OA 
HETATM   20  H1  UNK     1     -13.016  14.782  62.925  1.00  0.00     0.000 HD 
HETATM   21  H2  UNK     1     -12.487  15.732  64.206  1.00  0.00     0.000 HD 
ENDBRANCH  14  15
ENDBRANCH  13  14
ENDBRANCH  10  13
ENDBRANCH   9  10
ENDBRANCH   8   9
ENDBRANCH   7   8
BRANCH   7  22
HETATM   22  C   UNK     1      -9.573   9.511  70.199  1.00  0.00    -0.248 C  
BRANCH  22  23
HETATM   23  O   UNK     1     -10.148   8.405  70.921  1.00  0.00    -0.186 OA 
BRANCH  23  24
HETATM   24  C   UNK     1      -9.248   7.514  71.420  1.00  0.00    -0.141 C  
HETATM   25  O   UNK     1      -8.483   6.847  70.744  1.00  0.00    -0.132 OA 
BRANCH  24  26
HETATM   26  C   UNK     1      -9.330   7.496  72.929  1.00  0.00    -0.232 C  
HETATM   27  C   UNK     1     -10.754   7.262  73.401  1.00  0.00    -0.415 C  
ENDBRANCH  24  26
ENDBRANCH  23  24
ENDBRANCH  22  23
ENDBRANCH   7  22
ENDBRANCH   6   7
ENDBRANCH   4   6
ENDBRANCH   3   4
ENDBRANCH   2   3
TORSDOF 14
ENDMDL
MODEL      169
REMARK 921   NORMALIZED FREE ENERGY PREDICTED BY IDOCK:   -4.24 KCAL/MOL
REMARK 922        TOTAL FREE ENERGY PREDICTED BY IDOCK:   -8.80 KCAL/MOL
REMARK 923 INTER-LIGAND FREE ENERGY PREDICTED BY IDOCK:   -7.91 KCAL/MOL
REMARK 924 INTRA-LIGAND FREE ENERGY PREDICTED BY IDOCK:   -0.89 KCAL/MOL
REMARK 927      BINDING AFFINITY PREDICTED BY RF-SCORE:    0.00 PKD
ROOT
HETATM    1  C   UNK     1     -12.494  14.308  70.903  1.00  0.00    -0.424 C  
HETATM    2  C   UNK     1     -12.485  12.811  70.628  1.00  0.00    -0.328 C  
ENDROOT
BRANCH   2   3
HETATM    3  C   UNK     1     -12.998  11.996  71.811  1.00  0.00    -0.445 C  
BRANCH   3   4
HETATM    4  C   UNK     1     -12.803  10.521  71.575  1.00  0.00    -0.463 C  
HETATM    5  O   UNK     1     -13.477   9.646  72.102  1.00  0.00    -0.424 OA 
BRANCH   4   6
HETATM    6  O   UNK     1     -11.764  10.307  70.732  1.00  0.00    -0.307 OA 
BRANCH   6   7
HETATM    7  C   UNK     1     -11.250   8.963  70.576  1.00  0.00    -0.252 C  
BRANCH   7   8
HETATM    8  C   UNK     1     -10.714   8.682  69.166  1.00  0.00    -0.118 C  
BRANCH   8   9
HETATM    9  O   UNK     1      -9.432   9.279  68.968  1.00  0.00    -0.152 OA 
BRANCH   9  10
HETATM   10  P   UNK     1      -9.408  10.461  67.705  1.00  0.00    -0.149 P  
HETATM   11  O   UNK     1      -7.992   9.886  67.122  1.00  0.00    -0.108 OA 
HETATM   12  O   UNK     1     -10.530   9.706  66.990  1.00  0.00    -0.247 OA 
BRANCH  10  13
HETATM   13  O   UNK     1      -9.383  11.643  66.442  1.00  0.00    -0.202 OA 
BRANCH  13  14
HETATM   14  C   UNK     1     -10.629  12.347  66.324  1.00  0.00    -0.249 C  
BRANCH  14  15
HETATM   15  C   UNK     1     -11.110  12.382  64.872  1.00  0.00    -0.303 C  
HETATM   16  N   UNK     1     -10.109  12.973  63.937  1.00  0.00    -0.757 NA 
HETATM   17  C   UNK     1     -12.382  13.225  64.823  1.00  0.00    -0.402 C  
HETATM   18  O   UNK     1     -12.119  14.491  64.401  1.00  0.00    -0.472 OA 
HETATM   19  O   UNK     1     -13.489  12.843  65.169  1.00  0.00    -0.461 OA 
HETATM   20  H1  UNK     1     -10.430  12.996  62.969  1.00  0.00     0.000 HD 
HETATM   21  H2  UNK     1      -9.213  12.490  64.011  1.00  0.00     0.000 HD 
ENDBRANCH  14  15
ENDBRANCH  13  14
ENDBRANCH  10  13
ENDBRANCH   9  10
ENDBRANCH   8   9
ENDBRANCH   7   8
BRANCH   7  22
HETATM   22  C   UNK     1     -10.208   8.624  71.658  1.00  0.00    -0.295 C  
BRANCH  22  23
HETATM   23  O   UNK     1     -10.657   7.557  72.513  1.00  0.00    -0.228 OA 
BRANCH  23  24
HETATM   24  C   UNK     1      -9.852   7.299  73.581  1.00  0.00    -0.307 C  
HETATM   25  O   UNK     1      -8.845   7.927  73.861  1.00  0.00    -0.260 OA 
BRANCH  24  26
HETATM   26  C   UNK     1     -10.408   6.135  74.369  1.00  0.00    -0.280 C  
HETATM   27  C   UNK     1     -10.495   4.882  73.517  1.00  0.00    -0.278 C  
ENDBRANCH  24  26
ENDBRANCH  23  24
ENDBRANCH  22  23
ENDBRANCH   7  22
ENDBRANCH   6   7
ENDBRANCH   4   6
ENDBRANCH   3   4
ENDBRANCH   2   3
TORSDOF 14
ENDMDL
MODEL      170
REMARK 921   NORMALIZED FREE ENERGY PREDICTED BY IDOCK:   -4.24 KCAL/MOL
REMARK 922        TOTAL FREE ENERGY PREDICTED BY IDOCK:   -8.79 KCAL/MOL
REMARK 923 INTER-LIGAND FREE ENERGY PREDICTED BY IDOCK:   -7.24 KCAL/MOL
REMARK 924 INTRA-LIGAND FREE ENERGY PREDICTED BY IDOCK:   -1.55 KCAL/MOL
REMARK 927      BINDING AFFINITY PREDICTED BY RF-SCORE:    0.00 PKD
ROOT
HETATM    1  C   UNK     1      -9.644   7.058  72.276  1.00  0.00    -0.165 C  
HETATM    2  C   UNK     1     -10.335   5.827  71.705  1.00  0.00    -0.266 C  
ENDROOT
BRANCH   2   3
HETATM    3  C   UNK     1     -11.341   6.177  70.613  1.00  0.00    -0.368 C  
BRANCH   3   4
HETATM    4  C   UNK     1     -10.703   6.107  69.249  1.00  0.00    -0.318 C  
HETATM    5  O   UNK     1     -10.187   5.101  68.782  1.00  0.00    -0.177 OA 
BRANCH   4   6
HETATM    6  O   UNK     1     -10.757   7.315  68.637  1.00  0.00    -0.203 OA 
BRANCH   6   7
HETATM    7  C   UNK     1      -9.733   7.661  67.675  1.00  0.00    -0.152 C  
BRANCH   7   8
HETATM    8  C   UNK     1     -10.280   8.418  66.458  1.00  0.00    -0.207 C  
BRANCH   8   9
HETATM    9  O   UNK     1      -9.403   9.474  66.064  1.00  0.00    -0.180 OA 
BRANCH   9  10
HETATM   10  P   UNK     1     -10.201  10.759  65.225  1.00  0.00    -0.238 P  
HETATM   11  O   UNK     1      -9.290  11.889  65.978  1.00  0.00    -0.229 OA 
HETATM   12  O   UNK     1      -9.464  10.367  63.942  1.00  0.00    -0.259 OA 
BRANCH  10  13
HETATM   13  O   UNK     1     -11.000  12.044  64.386  1.00  0.00    -0.299 OA 
BRANCH  13  14
HETATM   14  C   UNK     1     -12.359  12.217  64.812  1.00  0.00    -0.339 C  
BRANCH  14  15
HETATM   15  C   UNK     1     -12.703  13.698  64.981  1.00  0.00    -0.336 C  
HETATM   16  N   UNK     1     -12.439  14.505  63.753  1.00  0.00    -1.065 NA 
HETATM   17  C   UNK     1     -11.849  14.248  66.121  1.00  0.00    -0.402 C  
HETATM   18  O   UNK     1     -10.763  14.914  65.647  1.00  0.00    -0.305 OA 
HETATM   19  O   UNK     1     -12.072  14.073  67.308  1.00  0.00    -0.409 OA 
HETATM   20  H1  UNK     1     -12.669  15.492  63.867  1.00  0.00     0.000 HD 
HETATM   21  H2  UNK     1     -12.923  14.109  62.947  1.00  0.00     0.000 HD 
ENDBRANCH  14  15
ENDBRANCH  13  14
ENDBRANCH  10  13
ENDBRANCH   9  10
ENDBRANCH   8   9
ENDBRANCH   7   8
BRANCH   7  22
HETATM   22  C   UNK     1      -8.564   8.416  68.335  1.00  0.00    -0.139 C  
BRANCH  22  23
HETATM   23  O   UNK     1      -8.951   8.996  69.595  1.00  0.00    -0.142 OA 
BRANCH  23  24
HETATM   24  C   UNK     1      -9.387  10.285  69.524  1.00  0.00    -0.178 C  
HETATM   25  O   UNK     1      -8.738  11.214  69.075  1.00  0.00    -0.124 OA 
BRANCH  24  26
HETATM   26  C   UNK     1     -10.794  10.377  70.067  1.00  0.00    -0.348 C  
HETATM   27  C   UNK     1     -11.759  10.891  69.013  1.00  0.00    -0.391 C  
ENDBRANCH  24  26
ENDBRANCH  23  24
ENDBRANCH  22  23
ENDBRANCH   7  22
ENDBRANCH   6   7
ENDBRANCH   4   6
ENDBRANCH   3   4
ENDBRANCH   2   3
TORSDOF 14
ENDMDL
MODEL      171
REMARK 921   NORMALIZED FREE ENERGY PREDICTED BY IDOCK:   -4.22 KCAL/MOL
REMARK 922        TOTAL FREE ENERGY PREDICTED BY IDOCK:   -8.77 KCAL/MOL
REMARK 923 INTER-LIGAND FREE ENERGY PREDICTED BY IDOCK:   -7.96 KCAL/MOL
REMARK 924 INTRA-LIGAND FREE ENERGY PREDICTED BY IDOCK:   -0.81 KCAL/MOL
REMARK 927      BINDING AFFINITY PREDICTED BY RF-SCORE:    0.00 PKD
ROOT
HETATM    1  C   UNK     1     -10.545   4.325  65.069  1.00  0.00    -0.168 C  
HETATM    2  C   UNK     1      -9.665   5.101  66.039  1.00  0.00    -0.182 C  
ENDROOT
BRANCH   2   3
HETATM    3  C   UNK     1     -10.404   6.264  66.695  1.00  0.00    -0.235 C  
BRANCH   3   4
HETATM    4  C   UNK     1      -9.435   7.286  67.231  1.00  0.00    -0.138 C  
HETATM    5  O   UNK     1      -8.281   7.409  66.842  1.00  0.00    -0.117 OA 
BRANCH   4   6
HETATM    6  O   UNK     1     -10.011   8.017  68.215  1.00  0.00    -0.173 OA 
BRANCH   6   7
HETATM    7  C   UNK     1      -9.700   9.427  68.317  1.00  0.00    -0.145 C  
BRANCH   7   8
HETATM    8  C   UNK     1     -10.302  10.261  67.179  1.00  0.00    -0.238 C  
BRANCH   8   9
HETATM    9  O   UNK     1     -11.568  10.808  67.547  1.00  0.00    -0.510 OA 
BRANCH   9  10
HETATM   10  P   UNK     1     -11.691  12.512  67.274  1.00  0.00    -0.239 P  
HETATM   11  O   UNK     1     -10.081  12.640  67.013  1.00  0.00    -0.221 OA 
HETATM   12  O   UNK     1     -12.347  12.238  65.919  1.00  0.00    -0.618 OA 
BRANCH  10  13
HETATM   13  O   UNK     1     -11.814  14.216  67.000  1.00  0.00    -0.388 OA 
BRANCH  13  14
HETATM   14  C   UNK     1     -11.006  14.655  65.898  1.00  0.00    -0.332 C  
BRANCH  14  15
HETATM   15  C   UNK     1     -11.271  16.125  65.567  1.00  0.00     0.053 C  
HETATM   16  N   UNK     1     -11.065  16.446  64.125  1.00  0.00    -1.262 NA 
HETATM   17  C   UNK     1     -10.311  16.970  66.399  1.00  0.00    -0.303 C  
HETATM   18  O   UNK     1      -9.234  17.361  65.666  1.00  0.00    -0.477 OA 
HETATM   19  O   UNK     1     -10.451  17.225  67.585  1.00  0.00    -0.343 OA 
HETATM   20  H1  UNK     1     -11.242  17.426  63.904  1.00  0.00     0.000 HD 
HETATM   21  H2  UNK     1     -11.625  15.833  63.532  1.00  0.00     0.000 HD 
ENDBRANCH  14  15
ENDBRANCH  13  14
ENDBRANCH  10  13
ENDBRANCH   9  10
ENDBRANCH   8   9
ENDBRANCH   7   8
BRANCH   7  22
HETATM   22  C   UNK     1     -10.079   9.994  69.698  1.00  0.00    -0.236 C  
BRANCH  22  23
HETATM   23  O   UNK     1     -11.212   9.308  70.262  1.00  0.00    -0.245 OA 
BRANCH  23  24
HETATM   24  C   UNK     1     -11.129   9.063  71.599  1.00  0.00    -0.363 C  
HETATM   25  O   UNK     1     -10.095   8.826  72.199  1.00  0.00    -0.320 OA 
BRANCH  24  26
HETATM   26  C   UNK     1     -12.505   9.149  72.219  1.00  0.00    -0.403 C  
HETATM   27  C   UNK     1     -13.487   9.837  71.289  1.00  0.00    -0.362 C  
ENDBRANCH  24  26
ENDBRANCH  23  24
ENDBRANCH  22  23
ENDBRANCH   7  22
ENDBRANCH   6   7
ENDBRANCH   4   6
ENDBRANCH   3   4
ENDBRANCH   2   3
TORSDOF 14
ENDMDL
MODEL      172
REMARK 921   NORMALIZED FREE ENERGY PREDICTED BY IDOCK:   -4.21 KCAL/MOL
REMARK 922        TOTAL FREE ENERGY PREDICTED BY IDOCK:   -8.75 KCAL/MOL
REMARK 923 INTER-LIGAND FREE ENERGY PREDICTED BY IDOCK:   -7.57 KCAL/MOL
REMARK 924 INTRA-LIGAND FREE ENERGY PREDICTED BY IDOCK:   -1.18 KCAL/MOL
REMARK 927      BINDING AFFINITY PREDICTED BY RF-SCORE:    0.00 PKD
ROOT
HETATM    1  C   UNK     1     -10.514   5.240  71.584  1.00  0.00    -0.280 C  
HETATM    2  C   UNK     1     -11.843   5.778  72.096  1.00  0.00    -0.172 C  
ENDROOT
BRANCH   2   3
HETATM    3  C   UNK     1     -12.225   7.105  71.447  1.00  0.00    -0.399 C  
BRANCH   3   4
HETATM    4  C   UNK     1     -11.745   8.268  72.276  1.00  0.00    -0.388 C  
HETATM    5  O   UNK     1     -11.149   8.156  73.338  1.00  0.00    -0.075 OA 
BRANCH   4   6
HETATM    6  O   UNK     1     -12.096   9.441  71.696  1.00  0.00    -0.341 OA 
BRANCH   6   7
HETATM    7  C   UNK     1     -11.633   9.729  70.355  1.00  0.00    -0.258 C  
BRANCH   7   8
HETATM    8  C   UNK     1     -12.386  10.890  69.693  1.00  0.00    -0.221 C  
BRANCH   8   9
HETATM    9  O   UNK     1     -11.670  12.118  69.824  1.00  0.00    -0.310 OA 
BRANCH   9  10
HETATM   10  P   UNK     1     -11.607  13.042  68.362  1.00  0.00    -0.369 P  
HETATM   11  O   UNK     1      -9.981  12.892  68.275  1.00  0.00    -0.228 OA 
HETATM   12  O   UNK     1     -12.210  11.860  67.601  1.00  0.00    -0.510 OA 
BRANCH  10  13
HETATM   13  O   UNK     1     -11.544  13.965  66.901  1.00  0.00    -0.339 OA 
BRANCH  13  14
HETATM   14  C   UNK     1     -10.597  13.440  65.960  1.00  0.00    -0.287 C  
BRANCH  14  15
HETATM   15  C   UNK     1     -10.584  14.260  64.669  1.00  0.00    -0.340 C  
HETATM   16  N   UNK     1     -10.399  15.722  64.906  1.00  0.00    -0.568 NA 
HETATM   17  C   UNK     1     -11.921  14.045  63.966  1.00  0.00    -0.354 C  
HETATM   18  O   UNK     1     -12.775  15.076  64.201  1.00  0.00    -0.729 OA 
HETATM   19  O   UNK     1     -12.219  13.053  63.318  1.00  0.00    -0.631 OA 
HETATM   20  H1  UNK     1     -10.390  16.269  64.045  1.00  0.00     0.000 HD 
HETATM   21  H2  UNK     1      -9.558  15.897  65.457  1.00  0.00     0.000 HD 
ENDBRANCH  14  15
ENDBRANCH  13  14
ENDBRANCH  10  13
ENDBRANCH   9  10
ENDBRANCH   8   9
ENDBRANCH   7   8
BRANCH   7  22
HETATM   22  C   UNK     1     -10.108   9.944  70.315  1.00  0.00    -0.237 C  
BRANCH  22  23
HETATM   23  O   UNK     1      -9.418   8.771  69.848  1.00  0.00    -0.163 OA 
BRANCH  23  24
HETATM   24  C   UNK     1      -8.062   8.816  69.967  1.00  0.00    -0.111 C  
HETATM   25  O   UNK     1      -7.359   9.727  69.563  1.00  0.00    -0.072 OA 
BRANCH  24  26
HETATM   26  C   UNK     1      -7.571   7.582  70.689  1.00  0.00    -0.085 C  
HETATM   27  C   UNK     1      -7.709   7.732  72.193  1.00  0.00    -0.107 C  
ENDBRANCH  24  26
ENDBRANCH  23  24
ENDBRANCH  22  23
ENDBRANCH   7  22
ENDBRANCH   6   7
ENDBRANCH   4   6
ENDBRANCH   3   4
ENDBRANCH   2   3
TORSDOF 14
ENDMDL
MODEL      173
REMARK 921   NORMALIZED FREE ENERGY PREDICTED BY IDOCK:   -4.20 KCAL/MOL
REMARK 922        TOTAL FREE ENERGY PREDICTED BY IDOCK:   -8.72 KCAL/MOL
REMARK 923 INTER-LIGAND FREE ENERGY PREDICTED BY IDOCK:   -7.54 KCAL/MOL
REMARK 924 INTRA-LIGAND FREE ENERGY PREDICTED BY IDOCK:   -1.18 KCAL/MOL
REMARK 927      BINDING AFFINITY PREDICTED BY RF-SCORE:    0.00 PKD
ROOT
HETATM    1  C   UNK     1      -9.459  20.064  66.129  1.00  0.00    -0.447 C  
HETATM    2  C   UNK     1      -9.793  19.153  67.302  1.00  0.00    -0.408 C  
ENDROOT
BRANCH   2   3
HETATM    3  C   UNK     1     -10.837  18.100  66.946  1.00  0.00    -0.115 C  
BRANCH   3   4
HETATM    4  C   UNK     1     -10.487  17.409  65.653  1.00  0.00    -0.165 C  
HETATM    5  O   UNK     1     -11.156  17.483  64.631  1.00  0.00    -0.978 OA 
BRANCH   4   6
HETATM    6  O   UNK     1      -9.356  16.678  65.796  1.00  0.00    -0.501 OA 
BRANCH   6   7
HETATM    7  C   UNK     1      -9.313  15.638  66.802  1.00  0.00    -0.246 C  
BRANCH   7   8
HETATM    8  C   UNK     1     -10.088  14.377  66.399  1.00  0.00    -0.286 C  
BRANCH   8   9
HETATM    9  O   UNK     1     -11.235  14.182  67.228  1.00  0.00    -0.296 OA 
BRANCH   9  10
HETATM   10  P   UNK     1     -11.500  12.529  67.663  1.00  0.00    -0.364 P  
HETATM   11  O   UNK     1     -10.136  12.053  66.897  1.00  0.00    -0.203 OA 
HETATM   12  O   UNK     1     -11.115  12.857  69.107  1.00  0.00    -0.243 OA 
BRANCH  10  13
HETATM   13  O   UNK     1     -11.765  10.876  68.099  1.00  0.00    -0.506 OA 
BRANCH  13  14
HETATM   14  C   UNK     1     -11.463  10.616  69.477  1.00  0.00    -0.291 C  
BRANCH  14  15
HETATM   15  C   UNK     1     -10.690   9.305  69.638  1.00  0.00    -0.230 C  
HETATM   16  N   UNK     1     -10.947   8.335  68.534  1.00  0.00    -0.426 NA 
HETATM   17  C   UNK     1     -11.120   8.669  70.958  1.00  0.00    -0.264 C  
HETATM   18  O   UNK     1     -12.046   7.694  70.757  1.00  0.00    -0.238 OA 
HETATM   19  O   UNK     1     -10.733   9.019  72.062  1.00  0.00    -0.349 OA 
HETATM   20  H1  UNK     1     -10.431   7.461  68.641  1.00  0.00     0.000 HD 
HETATM   21  H2  UNK     1     -10.758   8.760  67.626  1.00  0.00     0.000 HD 
ENDBRANCH  14  15
ENDBRANCH  13  14
ENDBRANCH  10  13
ENDBRANCH   9  10
ENDBRANCH   8   9
ENDBRANCH   7   8
BRANCH   7  22
HETATM   22  C   UNK     1      -7.868  15.308  67.218  1.00  0.00    -0.209 C  
BRANCH  22  23
HETATM   23  O   UNK     1      -7.823  14.238  68.181  1.00  0.00    -0.118 OA 
BRANCH  23  24
HETATM   24  C   UNK     1      -6.775  13.379  68.037  1.00  0.00    -0.131 C  
HETATM   25  O   UNK     1      -5.781  13.602  67.368  1.00  0.00    -0.354 OA 
BRANCH  24  26
HETATM   26  C   UNK     1      -7.027  12.129  68.847  1.00  0.00    -0.102 C  
HETATM   27  C   UNK     1      -6.949  10.885  67.980  1.00  0.00    -0.072 C  
ENDBRANCH  24  26
ENDBRANCH  23  24
ENDBRANCH  22  23
ENDBRANCH   7  22
ENDBRANCH   6   7
ENDBRANCH   4   6
ENDBRANCH   3   4
ENDBRANCH   2   3
TORSDOF 14
ENDMDL
MODEL      174
REMARK 921   NORMALIZED FREE ENERGY PREDICTED BY IDOCK:   -4.20 KCAL/MOL
REMARK 922        TOTAL FREE ENERGY PREDICTED BY IDOCK:   -8.72 KCAL/MOL
REMARK 923 INTER-LIGAND FREE ENERGY PREDICTED BY IDOCK:   -7.64 KCAL/MOL
REMARK 924 INTRA-LIGAND FREE ENERGY PREDICTED BY IDOCK:   -1.07 KCAL/MOL
REMARK 927      BINDING AFFINITY PREDICTED BY RF-SCORE:    0.00 PKD
ROOT
HETATM    1  C   UNK     1     -11.173  15.561  69.845  1.00  0.00    -0.322 C  
HETATM    2  C   UNK     1     -12.446  15.555  70.680  1.00  0.00    -0.483 C  
ENDROOT
BRANCH   2   3
HETATM    3  C   UNK     1     -12.261  14.853  72.021  1.00  0.00    -0.434 C  
BRANCH   3   4
HETATM    4  C   UNK     1     -13.163  13.651  72.130  1.00  0.00    -0.449 C  
HETATM    5  O   UNK     1     -14.335  13.700  72.476  1.00  0.00    -0.707 OA 
BRANCH   4   6
HETATM    6  O   UNK     1     -12.484  12.519  71.825  1.00  0.00    -0.058 OA 
BRANCH   6   7
HETATM    7  C   UNK     1     -12.792  11.826  70.592  1.00  0.00    -0.010 C  
BRANCH   7   8
HETATM    8  C   UNK     1     -11.750  12.063  69.491  1.00  0.00    -0.342 C  
BRANCH   8   9
HETATM    9  O   UNK     1     -12.306  11.850  68.193  1.00  0.00    -0.347 OA 
BRANCH   9  10
HETATM   10  P   UNK     1     -11.153  12.008  66.912  1.00  0.00    -0.335 P  
HETATM   11  O   UNK     1     -11.940  13.300  66.292  1.00  0.00    -0.383 OA 
HETATM   12  O   UNK     1     -10.128  12.542  67.914  1.00  0.00    -0.202 OA 
BRANCH  10  13
HETATM   13  O   UNK     1     -10.001  12.166  65.632  1.00  0.00    -0.244 OA 
BRANCH  13  14
HETATM   14  C   UNK     1      -9.784  10.931  64.933  1.00  0.00    -0.266 C  
BRANCH  14  15
HETATM   15  C   UNK     1      -8.496  10.249  65.400  1.00  0.00    -0.161 C  
HETATM   16  N   UNK     1      -7.340  10.497  64.490  1.00  0.00    -0.346 NA 
HETATM   17  C   UNK     1      -8.760   8.746  65.457  1.00  0.00    -0.185 C  
HETATM   18  O   UNK     1      -8.279   8.118  64.351  1.00  0.00    -0.154 OA 
HETATM   19  O   UNK     1      -9.370   8.177  66.348  1.00  0.00    -0.187 OA 
HETATM   20  H1  UNK     1      -6.481  10.042  64.802  1.00  0.00     0.000 HD 
HETATM   21  H2  UNK     1      -7.192  11.497  64.354  1.00  0.00     0.000 HD 
ENDBRANCH  14  15
ENDBRANCH  13  14
ENDBRANCH  10  13
ENDBRANCH   9  10
ENDBRANCH   8   9
ENDBRANCH   7   8
BRANCH   7  22
HETATM   22  C   UNK     1     -13.035  10.324  70.830  1.00  0.00    -0.330 C  
BRANCH  22  23
HETATM   23  O   UNK     1     -12.187   9.807  71.872  1.00  0.00    -0.375 OA 
BRANCH  23  24
HETATM   24  C   UNK     1     -11.359   8.795  71.491  1.00  0.00    -0.304 C  
HETATM   25  O   UNK     1     -10.151   8.898  71.362  1.00  0.00    -0.252 OA 
BRANCH  24  26
HETATM   26  C   UNK     1     -12.161   7.533  71.275  1.00  0.00    -0.351 C  
HETATM   27  C   UNK     1     -11.325   6.455  70.609  1.00  0.00    -0.419 C  
ENDBRANCH  24  26
ENDBRANCH  23  24
ENDBRANCH  22  23
ENDBRANCH   7  22
ENDBRANCH   6   7
ENDBRANCH   4   6
ENDBRANCH   3   4
ENDBRANCH   2   3
TORSDOF 14
ENDMDL
MODEL      175
REMARK 921   NORMALIZED FREE ENERGY PREDICTED BY IDOCK:   -4.19 KCAL/MOL
REMARK 922        TOTAL FREE ENERGY PREDICTED BY IDOCK:   -8.71 KCAL/MOL
REMARK 923 INTER-LIGAND FREE ENERGY PREDICTED BY IDOCK:   -7.49 KCAL/MOL
REMARK 924 INTRA-LIGAND FREE ENERGY PREDICTED BY IDOCK:   -1.22 KCAL/MOL
REMARK 927      BINDING AFFINITY PREDICTED BY RF-SCORE:    0.00 PKD
ROOT
HETATM    1  C   UNK     1     -10.860   5.434  73.334  1.00  0.00    -0.347 C  
HETATM    2  C   UNK     1     -10.399   6.884  73.278  1.00  0.00    -0.315 C  
ENDROOT
BRANCH   2   3
HETATM    3  C   UNK     1     -11.394   7.786  72.555  1.00  0.00    -0.429 C  
BRANCH   3   4
HETATM    4  C   UNK     1     -11.331   7.574  71.065  1.00  0.00    -0.273 C  
HETATM    5  O   UNK     1     -12.007   6.755  70.458  1.00  0.00    -0.386 OA 
BRANCH   4   6
HETATM    6  O   UNK     1     -10.404   8.390  70.507  1.00  0.00    -0.194 OA 
BRANCH   6   7
HETATM    7  C   UNK     1     -10.774   9.195  69.363  1.00  0.00    -0.198 C  
BRANCH   7   8
HETATM    8  C   UNK     1     -10.435  10.682  69.536  1.00  0.00    -0.204 C  
BRANCH   8   9
HETATM    9  O   UNK     1     -11.600  11.499  69.422  1.00  0.00    -0.265 OA 
BRANCH   9  10
HETATM   10  P   UNK     1     -11.464  12.731  68.215  1.00  0.00    -0.360 P  
HETATM   11  O   UNK     1      -9.854  12.483  68.066  1.00  0.00    -0.201 OA 
HETATM   12  O   UNK     1     -12.157  11.810  67.209  1.00  0.00    -0.595 OA 
BRANCH  10  13
HETATM   13  O   UNK     1     -11.328  13.964  67.008  1.00  0.00    -0.303 OA 
BRANCH  13  14
HETATM   14  C   UNK     1     -10.601  13.523  65.853  1.00  0.00    -0.284 C  
BRANCH  14  15
HETATM   15  C   UNK     1     -11.325  13.908  64.561  1.00  0.00    -0.372 C  
HETATM   16  N   UNK     1     -12.630  14.589  64.803  1.00  0.00    -0.583 NA 
HETATM   17  C   UNK     1     -11.580  12.627  63.770  1.00  0.00    -0.476 C  
HETATM   18  O   UNK     1     -12.854  12.187  63.941  1.00  0.00    -0.687 OA 
HETATM   19  O   UNK     1     -10.741  12.035  63.109  1.00  0.00    -0.368 OA 
HETATM   20  H1  UNK     1     -13.113  14.845  63.941  1.00  0.00     0.000 HD 
HETATM   21  H2  UNK     1     -12.511  15.400  65.408  1.00  0.00     0.000 HD 
ENDBRANCH  14  15
ENDBRANCH  13  14
ENDBRANCH  10  13
ENDBRANCH   9  10
ENDBRANCH   8   9
ENDBRANCH   7   8
BRANCH   7  22
HETATM   22  C   UNK     1     -10.189   8.628  68.056  1.00  0.00    -0.210 C  
BRANCH  22  23
HETATM   23  O   UNK     1      -9.042   7.794  68.305  1.00  0.00    -0.132 OA 
BRANCH  23  24
HETATM   24  C   UNK     1      -7.861   8.287  67.838  1.00  0.00    -0.114 C  
HETATM   25  O   UNK     1      -7.587   8.432  66.659  1.00  0.00    -0.087 OA 
BRANCH  24  26
HETATM   26  C   UNK     1      -6.962   8.641  68.999  1.00  0.00    -0.064 C  
HETATM   27  C   UNK     1      -6.079   9.832  68.670  1.00  0.00    -0.042 C  
ENDBRANCH  24  26
ENDBRANCH  23  24
ENDBRANCH  22  23
ENDBRANCH   7  22
ENDBRANCH   6   7
ENDBRANCH   4   6
ENDBRANCH   3   4
ENDBRANCH   2   3
TORSDOF 14
ENDMDL
MODEL      176
REMARK 921   NORMALIZED FREE ENERGY PREDICTED BY IDOCK:   -4.19 KCAL/MOL
REMARK 922        TOTAL FREE ENERGY PREDICTED BY IDOCK:   -8.70 KCAL/MOL
REMARK 923 INTER-LIGAND FREE ENERGY PREDICTED BY IDOCK:   -7.28 KCAL/MOL
REMARK 924 INTRA-LIGAND FREE ENERGY PREDICTED BY IDOCK:   -1.42 KCAL/MOL
REMARK 927      BINDING AFFINITY PREDICTED BY RF-SCORE:    0.00 PKD
ROOT
HETATM    1  C   UNK     1      -6.000  14.434  70.785  1.00  0.00    -0.195 C  
HETATM    2  C   UNK     1      -6.163  14.787  69.313  1.00  0.00    -0.110 C  
ENDROOT
BRANCH   2   3
HETATM    3  C   UNK     1      -7.100  15.970  69.096  1.00  0.00    -0.197 C  
BRANCH   3   4
HETATM    4  C   UNK     1      -7.954  15.766  67.872  1.00  0.00    -0.138 C  
HETATM    5  O   UNK     1      -7.637  16.124  66.745  1.00  0.00    -0.225 OA 
BRANCH   4   6
HETATM    6  O   UNK     1      -9.123  15.165  68.202  1.00  0.00    -0.171 OA 
BRANCH   6   7
HETATM    7  C   UNK     1     -10.365  15.732  67.721  1.00  0.00    -0.275 C  
BRANCH   7   8
HETATM    8  C   UNK     1     -11.540  14.748  67.785  1.00  0.00    -0.357 C  
BRANCH   8   9
HETATM    9  O   UNK     1     -11.309  13.606  66.959  1.00  0.00    -0.303 OA 
BRANCH   9  10
HETATM   10  P   UNK     1     -11.443  12.102  67.805  1.00  0.00    -0.335 P  
HETATM   11  O   UNK     1      -9.822  12.006  67.999  1.00  0.00    -0.187 OA 
HETATM   12  O   UNK     1     -11.999  12.847  69.020  1.00  0.00    -0.295 OA 
BRANCH  10  13
HETATM   13  O   UNK     1     -11.578  10.599  68.650  1.00  0.00    -0.281 OA 
BRANCH  13  14
HETATM   14  C   UNK     1     -12.069  10.764  69.989  1.00  0.00    -0.345 C  
BRANCH  14  15
HETATM   15  C   UNK     1     -11.214   9.990  70.993  1.00  0.00    -0.314 C  
HETATM   16  N   UNK     1     -10.013   9.355  70.374  1.00  0.00    -0.234 NA 
HETATM   17  C   UNK     1     -12.086   8.895  71.602  1.00  0.00    -0.346 C  
HETATM   18  O   UNK     1     -11.856   7.693  71.009  1.00  0.00    -0.293 OA 
HETATM   19  O   UNK     1     -12.925   9.072  72.471  1.00  0.00    -0.418 OA 
HETATM   20  H1  UNK     1      -9.443   8.839  71.044  1.00  0.00     0.000 HD 
HETATM   21  H2  UNK     1      -9.453  10.047  69.876  1.00  0.00     0.000 HD 
ENDBRANCH  14  15
ENDBRANCH  13  14
ENDBRANCH  10  13
ENDBRANCH   9  10
ENDBRANCH   8   9
ENDBRANCH   7   8
BRANCH   7  22
HETATM   22  C   UNK     1     -10.695  17.058  68.430  1.00  0.00    -0.361 C  
BRANCH  22  23
HETATM   23  O   UNK     1     -10.911  18.125  67.487  1.00  0.00    -0.389 OA 
BRANCH  23  24
HETATM   24  C   UNK     1      -9.870  18.993  67.354  1.00  0.00    -0.324 C  
HETATM   25  O   UNK     1      -9.515  19.496  66.301  1.00  0.00    -0.361 OA 
BRANCH  24  26
HETATM   26  C   UNK     1      -9.243  19.249  68.705  1.00  0.00    -0.436 C  
HETATM   27  C   UNK     1      -7.761  19.554  68.576  1.00  0.00    -0.389 C  
ENDBRANCH  24  26
ENDBRANCH  23  24
ENDBRANCH  22  23
ENDBRANCH   7  22
ENDBRANCH   6   7
ENDBRANCH   4   6
ENDBRANCH   3   4
ENDBRANCH   2   3
TORSDOF 14
ENDMDL
MODEL      177
REMARK 921   NORMALIZED FREE ENERGY PREDICTED BY IDOCK:   -4.19 KCAL/MOL
REMARK 922        TOTAL FREE ENERGY PREDICTED BY IDOCK:   -8.70 KCAL/MOL
REMARK 923 INTER-LIGAND FREE ENERGY PREDICTED BY IDOCK:   -7.63 KCAL/MOL
REMARK 924 INTRA-LIGAND FREE ENERGY PREDICTED BY IDOCK:   -1.07 KCAL/MOL
REMARK 927      BINDING AFFINITY PREDICTED BY RF-SCORE:    0.00 PKD
ROOT
HETATM    1  C   UNK     1     -10.953  15.926  64.920  1.00  0.00    -0.427 C  
HETATM    2  C   UNK     1     -12.013  15.005  64.332  1.00  0.00    -0.366 C  
ENDROOT
BRANCH   2   3
HETATM    3  C   UNK     1     -12.680  14.131  65.389  1.00  0.00    -0.453 C  
BRANCH   3   4
HETATM    4  C   UNK     1     -12.645  12.679  64.990  1.00  0.00    -0.430 C  
HETATM    5  O   UNK     1     -12.949  12.264  63.880  1.00  0.00    -0.753 OA 
BRANCH   4   6
HETATM    6  O   UNK     1     -12.265  11.907  66.037  1.00  0.00    -0.449 OA 
BRANCH   6   7
HETATM    7  C   UNK     1     -11.121  12.308  66.826  1.00  0.00    -0.296 C  
BRANCH   7   8
HETATM    8  C   UNK     1     -11.384  12.257  68.337  1.00  0.00    -0.292 C  
BRANCH   8   9
HETATM    9  O   UNK     1     -12.346  11.255  68.666  1.00  0.00    -0.534 OA 
BRANCH   9  10
HETATM   10  P   UNK     1     -12.004  10.426  70.146  1.00  0.00    -0.231 P  
HETATM   11  O   UNK     1     -10.391  10.557  69.908  1.00  0.00    -0.221 OA 
HETATM   12  O   UNK     1     -12.446  11.664  70.929  1.00  0.00    -0.376 OA 
BRANCH  10  13
HETATM   13  O   UNK     1     -11.662   9.598  71.626  1.00  0.00    -0.386 OA 
BRANCH  13  14
HETATM   14  C   UNK     1     -10.737   8.516  71.448  1.00  0.00    -0.250 C  
BRANCH  14  15
HETATM   15  C   UNK     1     -11.453   7.164  71.468  1.00  0.00    -0.268 C  
HETATM   16  N   UNK     1     -12.785   7.217  72.140  1.00  0.00    -0.514 NA 
HETATM   17  C   UNK     1     -10.565   6.177  72.220  1.00  0.00    -0.216 C  
HETATM   18  O   UNK     1     -10.977   6.021  73.506  1.00  0.00    -0.238 OA 
HETATM   19  O   UNK     1      -9.575   5.632  71.755  1.00  0.00    -0.155 OA 
HETATM   20  H1  UNK     1     -13.262   6.316  72.153  1.00  0.00     0.000 HD 
HETATM   21  H2  UNK     1     -13.375   7.936  71.721  1.00  0.00     0.000 HD 
ENDBRANCH  14  15
ENDBRANCH  13  14
ENDBRANCH  10  13
ENDBRANCH   9  10
ENDBRANCH   8   9
ENDBRANCH   7   8
BRANCH   7  22
HETATM   22  C   UNK     1      -9.859  11.513  66.443  1.00  0.00    -0.205 C  
BRANCH  22  23
HETATM   23  O   UNK     1      -8.785  11.738  67.375  1.00  0.00    -0.151 OA 
BRANCH  23  24
HETATM   24  C   UNK     1      -7.641  11.048  67.111  1.00  0.00    -0.117 C  
HETATM   25  O   UNK     1      -6.637  11.531  66.615  1.00  0.00    -0.133 OA 
BRANCH  24  26
HETATM   26  C   UNK     1      -7.801   9.609  67.545  1.00  0.00    -0.095 C  
HETATM   27  C   UNK     1      -6.922   8.684  66.723  1.00  0.00    -0.077 C  
ENDBRANCH  24  26
ENDBRANCH  23  24
ENDBRANCH  22  23
ENDBRANCH   7  22
ENDBRANCH   6   7
ENDBRANCH   4   6
ENDBRANCH   3   4
ENDBRANCH   2   3
TORSDOF 14
ENDMDL
MODEL      178
REMARK 921   NORMALIZED FREE ENERGY PREDICTED BY IDOCK:   -4.17 KCAL/MOL
REMARK 922        TOTAL FREE ENERGY PREDICTED BY IDOCK:   -8.66 KCAL/MOL
REMARK 923 INTER-LIGAND FREE ENERGY PREDICTED BY IDOCK:   -7.67 KCAL/MOL
REMARK 924 INTRA-LIGAND FREE ENERGY PREDICTED BY IDOCK:   -0.99 KCAL/MOL
REMARK 927      BINDING AFFINITY PREDICTED BY RF-SCORE:    0.00 PKD
ROOT
HETATM    1  C   UNK     1     -12.231  13.252  63.616  1.00  0.00    -0.522 C  
HETATM    2  C   UNK     1     -12.459  13.294  65.121  1.00  0.00    -0.525 C  
ENDROOT
BRANCH   2   3
HETATM    3  C   UNK     1     -11.184  13.020  65.912  1.00  0.00    -0.315 C  
BRANCH   3   4
HETATM    4  C   UNK     1     -11.157  11.600  66.417  1.00  0.00    -0.291 C  
HETATM    5  O   UNK     1     -10.486  10.707  65.919  1.00  0.00    -0.236 OA 
BRANCH   4   6
HETATM    6  O   UNK     1     -11.998  11.453  67.469  1.00  0.00    -0.626 OA 
BRANCH   6   7
HETATM    7  C   UNK     1     -11.443  11.214  68.784  1.00  0.00    -0.299 C  
BRANCH   7   8
HETATM    8  C   UNK     1      -9.919  11.037  68.772  1.00  0.00    -0.207 C  
BRANCH   8   9
HETATM    9  O   UNK     1      -9.482  10.216  69.856  1.00  0.00    -0.204 OA 
BRANCH   9  10
HETATM   10  P   UNK     1     -10.305   8.697  69.950  1.00  0.00    -0.216 P  
HETATM   11  O   UNK     1      -8.897   7.887  70.141  1.00  0.00    -0.141 OA 
HETATM   12  O   UNK     1     -10.807   9.065  71.347  1.00  0.00    -0.274 OA 
BRANCH  10  13
HETATM   13  O   UNK     1     -11.127   7.178  70.043  1.00  0.00    -0.263 OA 
BRANCH  13  14
HETATM   14  C   UNK     1     -10.382   6.195  70.777  1.00  0.00    -0.213 C  
BRANCH  14  15
HETATM   15  C   UNK     1     -11.133   5.757  72.036  1.00  0.00    -0.260 C  
HETATM   16  N   UNK     1     -12.373   6.549  72.284  1.00  0.00    -0.541 NA 
HETATM   17  C   UNK     1     -10.192   5.937  73.225  1.00  0.00    -0.203 C  
HETATM   18  O   UNK     1     -10.455   7.092  73.892  1.00  0.00    -0.370 OA 
HETATM   19  O   UNK     1      -9.282   5.177  73.518  1.00  0.00    -0.130 OA 
HETATM   20  H1  UNK     1     -12.873   6.257  73.124  1.00  0.00     0.000 HD 
HETATM   21  H2  UNK     1     -12.986   6.527  71.469  1.00  0.00     0.000 HD 
ENDBRANCH  14  15
ENDBRANCH  13  14
ENDBRANCH  10  13
ENDBRANCH   9  10
ENDBRANCH   8   9
ENDBRANCH   7   8
BRANCH   7  22
HETATM   22  C   UNK     1     -11.881  12.295  69.790  1.00  0.00    -0.318 C  
BRANCH  22  23
HETATM   23  O   UNK     1     -12.286  13.507  69.127  1.00  0.00    -0.307 OA 
BRANCH  23  24
HETATM   24  C   UNK     1     -12.208  14.633  69.889  1.00  0.00    -0.316 C  
HETATM   25  O   UNK     1     -12.371  14.667  71.097  1.00  0.00    -0.295 OA 
BRANCH  24  26
HETATM   26  C   UNK     1     -11.871  15.818  69.014  1.00  0.00    -0.367 C  
HETATM   27  C   UNK     1     -10.370  15.982  68.862  1.00  0.00    -0.235 C  
ENDBRANCH  24  26
ENDBRANCH  23  24
ENDBRANCH  22  23
ENDBRANCH   7  22
ENDBRANCH   6   7
ENDBRANCH   4   6
ENDBRANCH   3   4
ENDBRANCH   2   3
TORSDOF 14
ENDMDL
MODEL      179
REMARK 921   NORMALIZED FREE ENERGY PREDICTED BY IDOCK:   -4.16 KCAL/MOL
REMARK 922        TOTAL FREE ENERGY PREDICTED BY IDOCK:   -8.66 KCAL/MOL
REMARK 923 INTER-LIGAND FREE ENERGY PREDICTED BY IDOCK:   -7.49 KCAL/MOL
REMARK 924 INTRA-LIGAND FREE ENERGY PREDICTED BY IDOCK:   -1.17 KCAL/MOL
REMARK 927      BINDING AFFINITY PREDICTED BY RF-SCORE:    0.00 PKD
ROOT
HETATM    1  C   UNK     1      -6.996   7.460  67.560  1.00  0.00    -0.079 C  
HETATM    2  C   UNK     1      -8.490   7.214  67.400  1.00  0.00    -0.122 C  
ENDROOT
BRANCH   2   3
HETATM    3  C   UNK     1      -9.331   8.392  67.882  1.00  0.00    -0.147 C  
BRANCH   3   4
HETATM    4  C   UNK     1     -10.244   7.979  69.008  1.00  0.00    -0.210 C  
HETATM    5  O   UNK     1     -11.220   7.255  68.870  1.00  0.00     0.000 OA 
BRANCH   4   6
HETATM    6  O   UNK     1      -9.848   8.546  70.173  1.00  0.00    -0.175 OA 
BRANCH   6   7
HETATM    7  C   UNK     1     -10.735   9.478  70.837  1.00  0.00    -0.333 C  
BRANCH   7   8
HETATM    8  C   UNK     1     -11.643  10.243  69.866  1.00  0.00    -0.256 C  
BRANCH   8   9
HETATM    9  O   UNK     1     -10.987  11.395  69.336  1.00  0.00    -0.240 OA 
BRANCH   9  10
HETATM   10  P   UNK     1     -11.473  11.788  67.723  1.00  0.00    -0.278 P  
HETATM   11  O   UNK     1     -11.765  13.344  68.133  1.00  0.00    -0.320 OA 
HETATM   12  O   UNK     1     -10.012  11.706  67.274  1.00  0.00    -0.190 OA 
BRANCH  10  13
HETATM   13  O   UNK     1     -11.958  12.181  66.110  1.00  0.00    -0.593 OA 
BRANCH  13  14
HETATM   14  C   UNK     1     -12.031  13.597  65.888  1.00  0.00    -0.405 C  
BRANCH  14  15
HETATM   15  C   UNK     1     -11.182  14.014  64.685  1.00  0.00    -0.374 C  
HETATM   16  N   UNK     1      -9.733  13.704  64.856  1.00  0.00    -0.560 NA 
HETATM   17  C   UNK     1     -11.342  15.521  64.503  1.00  0.00    -0.314 C  
HETATM   18  O   UNK     1     -10.290  16.197  65.038  1.00  0.00    -0.573 OA 
HETATM   19  O   UNK     1     -12.309  16.066  63.994  1.00  0.00    -0.752 OA 
HETATM   20  H1  UNK     1      -9.167  13.982  64.054  1.00  0.00     0.000 HD 
HETATM   21  H2  UNK     1      -9.596  12.717  65.073  1.00  0.00     0.000 HD 
ENDBRANCH  14  15
ENDBRANCH  13  14
ENDBRANCH  10  13
ENDBRANCH   9  10
ENDBRANCH   8   9
ENDBRANCH   7   8
BRANCH   7  22
HETATM   22  C   UNK     1     -11.546   8.793  71.953  1.00  0.00    -0.361 C  
BRANCH  22  23
HETATM   23  O   UNK     1     -10.886   7.610  72.440  1.00  0.00    -0.245 OA 
BRANCH  23  24
HETATM   24  C   UNK     1     -11.573   6.449  72.250  1.00  0.00    -0.299 C  
HETATM   25  O   UNK     1     -12.780   6.374  72.094  1.00  0.00    -0.244 OA 
BRANCH  24  26
HETATM   26  C   UNK     1     -10.612   5.283  72.241  1.00  0.00    -0.280 C  
HETATM   27  C   UNK     1      -9.279   5.662  72.861  1.00  0.00    -0.135 C  
ENDBRANCH  24  26
ENDBRANCH  23  24
ENDBRANCH  22  23
ENDBRANCH   7  22
ENDBRANCH   6   7
ENDBRANCH   4   6
ENDBRANCH   3   4
ENDBRANCH   2   3
TORSDOF 14
ENDMDL
MODEL      180
REMARK 921   NORMALIZED FREE ENERGY PREDICTED BY IDOCK:   -4.16 KCAL/MOL
REMARK 922        TOTAL FREE ENERGY PREDICTED BY IDOCK:   -8.65 KCAL/MOL
REMARK 923 INTER-LIGAND FREE ENERGY PREDICTED BY IDOCK:   -7.51 KCAL/MOL
REMARK 924 INTRA-LIGAND FREE ENERGY PREDICTED BY IDOCK:   -1.14 KCAL/MOL
REMARK 927      BINDING AFFINITY PREDICTED BY RF-SCORE:    0.00 PKD
ROOT
HETATM    1  C   UNK     1     -10.244   3.717  71.804  1.00  0.00    -0.098 C  
HETATM    2  C   UNK     1     -10.268   4.710  72.958  1.00  0.00    -0.219 C  
ENDROOT
BRANCH   2   3
HETATM    3  C   UNK     1     -11.139   5.927  72.663  1.00  0.00    -0.322 C  
BRANCH   3   4
HETATM    4  C   UNK     1     -10.585   7.161  73.328  1.00  0.00    -0.364 C  
HETATM    5  O   UNK     1      -9.992   7.157  74.398  1.00  0.00    -0.209 OA 
BRANCH   4   6
HETATM    6  O   UNK     1     -10.865   8.264  72.593  1.00  0.00    -0.345 OA 
BRANCH   6   7
HETATM    7  C   UNK     1     -10.565   8.259  71.177  1.00  0.00    -0.214 C  
BRANCH   7   8
HETATM    8  C   UNK     1     -11.321   9.343  70.398  1.00  0.00    -0.248 C  
BRANCH   8   9
HETATM    9  O   UNK     1     -10.421  10.229  69.732  1.00  0.00    -0.241 OA 
BRANCH   9  10
HETATM   10  P   UNK     1     -11.107  10.994  68.339  1.00  0.00    -0.304 P  
HETATM   11  O   UNK     1     -12.602  10.976  69.000  1.00  0.00    -0.378 OA 
HETATM   12  O   UNK     1     -10.448  12.312  68.750  1.00  0.00    -0.220 OA 
BRANCH  10  13
HETATM   13  O   UNK     1     -11.792  11.758  66.947  1.00  0.00    -0.591 OA 
BRANCH  13  14
HETATM   14  C   UNK     1     -10.825  12.514  66.203  1.00  0.00    -0.272 C  
BRANCH  14  15
HETATM   15  C   UNK     1     -11.369  12.913  64.830  1.00  0.00    -0.307 C  
HETATM   16  N   UNK     1     -10.298  13.291  63.863  1.00  0.00    -0.689 NA 
HETATM   17  C   UNK     1     -12.296  14.110  65.026  1.00  0.00    -0.440 C  
HETATM   18  O   UNK     1     -11.664  15.277  64.728  1.00  0.00    -0.353 OA 
HETATM   19  O   UNK     1     -13.440  14.048  65.448  1.00  0.00    -0.679 OA 
HETATM   20  H1  UNK     1     -10.661  13.557  62.948  1.00  0.00     0.000 HD 
HETATM   21  H2  UNK     1      -9.606  12.546  63.778  1.00  0.00     0.000 HD 
ENDBRANCH  14  15
ENDBRANCH  13  14
ENDBRANCH  10  13
ENDBRANCH   9  10
ENDBRANCH   8   9
ENDBRANCH   7   8
BRANCH   7  22
HETATM   22  C   UNK     1      -9.049   8.326  70.917  1.00  0.00    -0.152 C  
BRANCH  22  23
HETATM   23  O   UNK     1      -8.369   9.089  71.931  1.00  0.00    -0.365 OA 
BRANCH  23  24
HETATM   24  C   UNK     1      -7.223   8.525  72.404  1.00  0.00    -0.043 C  
HETATM   25  O   UNK     1      -6.414   9.090  73.121  1.00  0.00    -0.313 OA 
BRANCH  24  26
HETATM   26  C   UNK     1      -7.123   7.096  71.923  1.00  0.00    -0.071 C  
HETATM   27  C   UNK     1      -6.819   6.148  73.069  1.00  0.00    -0.078 C  
ENDBRANCH  24  26
ENDBRANCH  23  24
ENDBRANCH  22  23
ENDBRANCH   7  22
ENDBRANCH   6   7
ENDBRANCH   4   6
ENDBRANCH   3   4
ENDBRANCH   2   3
TORSDOF 14
ENDMDL
MODEL      181
REMARK 921   NORMALIZED FREE ENERGY PREDICTED BY IDOCK:   -4.14 KCAL/MOL
REMARK 922        TOTAL FREE ENERGY PREDICTED BY IDOCK:   -8.61 KCAL/MOL
REMARK 923 INTER-LIGAND FREE ENERGY PREDICTED BY IDOCK:   -7.81 KCAL/MOL
REMARK 924 INTRA-LIGAND FREE ENERGY PREDICTED BY IDOCK:   -0.80 KCAL/MOL
REMARK 927      BINDING AFFINITY PREDICTED BY RF-SCORE:    0.00 PKD
ROOT
HETATM    1  C   UNK     1      -6.053   4.931  66.632  1.00  0.00    -0.031 C  
HETATM    2  C   UNK     1      -7.194   5.670  65.946  1.00  0.00    -0.072 C  
ENDROOT
BRANCH   2   3
HETATM    3  C   UNK     1      -7.732   6.823  66.788  1.00  0.00    -0.106 C  
BRANCH   3   4
HETATM    4  C   UNK     1      -9.195   6.632  67.092  1.00  0.00    -0.126 C  
HETATM    5  O   UNK     1      -9.795   5.576  66.946  1.00  0.00    -0.136 OA 
BRANCH   4   6
HETATM    6  O   UNK     1      -9.748   7.795  67.515  1.00  0.00    -0.145 OA 
BRANCH   6   7
HETATM    7  C   UNK     1      -8.980   8.665  68.378  1.00  0.00    -0.142 C  
BRANCH   7   8
HETATM    8  C   UNK     1      -8.895  10.107  67.859  1.00  0.00    -0.125 C  
BRANCH   8   9
HETATM    9  O   UNK     1     -10.193  10.662  67.647  1.00  0.00    -0.180 OA 
BRANCH   9  10
HETATM   10  P   UNK     1     -10.361  11.468  66.126  1.00  0.00    -0.262 P  
HETATM   11  O   UNK     1     -10.278  10.055  65.307  1.00  0.00    -0.296 OA 
HETATM   12  O   UNK     1     -11.837  11.724  66.435  1.00  0.00    -0.534 OA 
BRANCH  10  13
HETATM   13  O   UNK     1     -10.528  12.275  64.604  1.00  0.00    -0.279 OA 
BRANCH  13  14
HETATM   14  C   UNK     1     -10.234  13.676  64.690  1.00  0.00    -0.311 C  
BRANCH  14  15
HETATM   15  C   UNK     1     -11.504  14.497  64.922  1.00  0.00    -0.396 C  
HETATM   16  N   UNK     1     -12.405  14.530  63.733  1.00  0.00    -1.087 NA 
HETATM   17  C   UNK     1     -11.081  15.926  65.254  1.00  0.00    -0.248 C  
HETATM   18  O   UNK     1     -11.175  16.735  64.165  1.00  0.00    -1.155 OA 
HETATM   19  O   UNK     1     -10.659  16.296  66.338  1.00  0.00    -0.306 OA 
HETATM   20  H1  UNK     1     -13.252  15.077  63.887  1.00  0.00     0.000 HD 
HETATM   21  H2  UNK     1     -12.634  13.585  63.424  1.00  0.00     0.000 HD 
ENDBRANCH  14  15
ENDBRANCH  13  14
ENDBRANCH  10  13
ENDBRANCH   9  10
ENDBRANCH   8   9
ENDBRANCH   7   8
BRANCH   7  22
HETATM   22  C   UNK     1      -9.485   8.615  69.832  1.00  0.00    -0.167 C  
BRANCH  22  23
HETATM   23  O   UNK     1     -10.915   8.457  69.892  1.00  0.00    -0.239 OA 
BRANCH  23  24
HETATM   24  C   UNK     1     -11.347   7.420  70.662  1.00  0.00    -0.281 C  
HETATM   25  O   UNK     1     -11.417   6.261  70.291  1.00  0.00    -0.378 OA 
BRANCH  24  26
HETATM   26  C   UNK     1     -11.703   7.924  72.042  1.00  0.00    -0.360 C  
HETATM   27  C   UNK     1     -12.519   9.202  71.970  1.00  0.00    -0.452 C  
ENDBRANCH  24  26
ENDBRANCH  23  24
ENDBRANCH  22  23
ENDBRANCH   7  22
ENDBRANCH   6   7
ENDBRANCH   4   6
ENDBRANCH   3   4
ENDBRANCH   2   3
TORSDOF 14
ENDMDL
MODEL      182
REMARK 921   NORMALIZED FREE ENERGY PREDICTED BY IDOCK:   -4.11 KCAL/MOL
REMARK 922        TOTAL FREE ENERGY PREDICTED BY IDOCK:   -8.57 KCAL/MOL
REMARK 923 INTER-LIGAND FREE ENERGY PREDICTED BY IDOCK:   -7.48 KCAL/MOL
REMARK 924 INTRA-LIGAND FREE ENERGY PREDICTED BY IDOCK:   -1.09 KCAL/MOL
REMARK 927      BINDING AFFINITY PREDICTED BY RF-SCORE:    0.00 PKD
ROOT
HETATM    1  C   UNK     1     -12.395  14.248  64.434  1.00  0.00    -0.417 C  
HETATM    2  C   UNK     1     -12.168  13.332  63.240  1.00  0.00    -0.387 C  
ENDROOT
BRANCH   2   3
HETATM    3  C   UNK     1     -12.196  11.855  63.621  1.00  0.00    -0.586 C  
BRANCH   3   4
HETATM    4  C   UNK     1     -10.844  11.396  64.100  1.00  0.00    -0.365 C  
HETATM    5  O   UNK     1      -9.898  11.157  63.362  1.00  0.00    -0.288 OA 
BRANCH   4   6
HETATM    6  O   UNK     1     -10.839  11.255  65.448  1.00  0.00    -0.261 OA 
BRANCH   6   7
HETATM    7  C   UNK     1      -9.703  11.744  66.201  1.00  0.00    -0.229 C  
BRANCH   7   8
HETATM    8  C   UNK     1      -9.748  13.258  66.444  1.00  0.00    -0.276 C  
BRANCH   8   9
HETATM    9  O   UNK     1     -10.703  13.596  67.450  1.00  0.00    -0.263 OA 
BRANCH   9  10
HETATM   10  P   UNK     1     -10.650  15.259  67.924  1.00  0.00    -0.273 P  
HETATM   11  O   UNK     1      -9.383  14.990  68.922  1.00  0.00    -0.195 OA 
HETATM   12  O   UNK     1     -10.075  15.621  66.553  1.00  0.00    -0.261 OA 
BRANCH  10  13
HETATM   13  O   UNK     1     -10.597  16.923  68.397  1.00  0.00    -0.327 OA 
BRANCH  13  14
HETATM   14  C   UNK     1      -9.288  17.494  68.249  1.00  0.00    -0.281 C  
BRANCH  14  15
HETATM   15  C   UNK     1      -9.369  18.974  67.869  1.00  0.00    -0.308 C  
HETATM   16  N   UNK     1     -10.724  19.561  68.085  1.00  0.00    -0.399 NA 
HETATM   17  C   UNK     1      -9.014  19.095  66.389  1.00  0.00    -0.342 C  
HETATM   18  O   UNK     1     -10.130  19.196  65.620  1.00  0.00    -0.448 OA 
HETATM   19  O   UNK     1      -7.880  19.053  65.937  1.00  0.00    -0.428 OA 
HETATM   20  H1  UNK     1     -10.777  20.547  67.832  1.00  0.00     0.000 HD 
HETATM   21  H2  UNK     1     -11.035  19.414  69.045  1.00  0.00     0.000 HD 
ENDBRANCH  14  15
ENDBRANCH  13  14
ENDBRANCH  10  13
ENDBRANCH   9  10
ENDBRANCH   8   9
ENDBRANCH   7   8
BRANCH   7  22
HETATM   22  C   UNK     1      -9.514  10.963  67.514  1.00  0.00    -0.155 C  
BRANCH  22  23
HETATM   23  O   UNK     1      -8.961   9.654  67.280  1.00  0.00    -0.134 OA 
BRANCH  23  24
HETATM   24  C   UNK     1      -9.768   8.617  67.638  1.00  0.00    -0.159 C  
HETATM   25  O   UNK     1     -10.320   7.864  66.853  1.00  0.00    -0.298 OA 
BRANCH  24  26
HETATM   26  C   UNK     1      -9.853   8.533  69.144  1.00  0.00    -0.186 C  
HETATM   27  C   UNK     1     -10.890   7.515  69.582  1.00  0.00    -0.210 C  
ENDBRANCH  24  26
ENDBRANCH  23  24
ENDBRANCH  22  23
ENDBRANCH   7  22
ENDBRANCH   6   7
ENDBRANCH   4   6
ENDBRANCH   3   4
ENDBRANCH   2   3
TORSDOF 14
ENDMDL
MODEL      183
REMARK 921   NORMALIZED FREE ENERGY PREDICTED BY IDOCK:   -4.10 KCAL/MOL
REMARK 922        TOTAL FREE ENERGY PREDICTED BY IDOCK:   -8.55 KCAL/MOL
REMARK 923 INTER-LIGAND FREE ENERGY PREDICTED BY IDOCK:   -7.53 KCAL/MOL
REMARK 924 INTRA-LIGAND FREE ENERGY PREDICTED BY IDOCK:   -1.02 KCAL/MOL
REMARK 927      BINDING AFFINITY PREDICTED BY RF-SCORE:    0.00 PKD
ROOT
HETATM    1  C   UNK     1      -6.367  13.835  67.727  1.00  0.00    -0.171 C  
HETATM    2  C   UNK     1      -6.268  12.345  67.434  1.00  0.00    -0.158 C  
ENDROOT
BRANCH   2   3
HETATM    3  C   UNK     1      -7.635  11.675  67.344  1.00  0.00    -0.139 C  
BRANCH   3   4
HETATM    4  C   UNK     1      -7.721  10.494  68.277  1.00  0.00    -0.101 C  
HETATM    5  O   UNK     1      -6.760  10.001  68.851  1.00  0.00    -0.052 OA 
BRANCH   4   6
HETATM    6  O   UNK     1      -8.997  10.046  68.361  1.00  0.00    -0.118 OA 
BRANCH   6   7
HETATM    7  C   UNK     1      -9.812  10.454  69.485  1.00  0.00    -0.184 C  
BRANCH   7   8
HETATM    8  C   UNK     1     -11.137  11.104  69.064  1.00  0.00    -0.242 C  
BRANCH   8   9
HETATM    9  O   UNK     1     -11.276  12.410  69.625  1.00  0.00    -0.166 OA 
BRANCH   9  10
HETATM   10  P   UNK     1     -11.588  13.638  68.446  1.00  0.00    -0.384 P  
HETATM   11  O   UNK     1     -12.015  14.713  69.602  1.00  0.00    -0.293 OA 
HETATM   12  O   UNK     1     -10.082  13.792  68.223  1.00  0.00    -0.227 OA 
BRANCH  10  13
HETATM   13  O   UNK     1     -11.899  14.867  67.268  1.00  0.00    -0.345 OA 
BRANCH  13  14
HETATM   14  C   UNK     1     -12.335  14.325  66.013  1.00  0.00    -0.395 C  
BRANCH  14  15
HETATM   15  C   UNK     1     -11.233  14.419  64.956  1.00  0.00    -0.375 C  
HETATM   16  N   UNK     1      -9.908  13.939  65.447  1.00  0.00    -0.544 NA 
HETATM   17  C   UNK     1     -11.102  15.884  64.547  1.00  0.00    -0.269 C  
HETATM   18  O   UNK     1     -10.061  16.483  65.183  1.00  0.00    -0.536 OA 
HETATM   19  O   UNK     1     -11.862  16.469  63.790  1.00  0.00    -1.011 OA 
HETATM   20  H1  UNK     1      -9.174  14.002  64.742  1.00  0.00     0.000 HD 
HETATM   21  H2  UNK     1      -9.978  12.991  65.816  1.00  0.00     0.000 HD 
ENDBRANCH  14  15
ENDBRANCH  13  14
ENDBRANCH  10  13
ENDBRANCH   9  10
ENDBRANCH   8   9
ENDBRANCH   7   8
BRANCH   7  22
HETATM   22  C   UNK     1     -10.038   9.294  70.473  1.00  0.00    -0.255 C  
BRANCH  22  23
HETATM   23  O   UNK     1     -11.130   9.566  71.371  1.00  0.00    -0.351 OA 
BRANCH  23  24
HETATM   24  C   UNK     1     -11.657   8.469  71.984  1.00  0.00    -0.362 C  
HETATM   25  O   UNK     1     -12.597   8.492  72.760  1.00  0.00    -0.307 OA 
BRANCH  24  26
HETATM   26  C   UNK     1     -10.914   7.231  71.539  1.00  0.00    -0.259 C  
HETATM   27  C   UNK     1     -11.661   5.969  71.931  1.00  0.00    -0.287 C  
ENDBRANCH  24  26
ENDBRANCH  23  24
ENDBRANCH  22  23
ENDBRANCH   7  22
ENDBRANCH   6   7
ENDBRANCH   4   6
ENDBRANCH   3   4
ENDBRANCH   2   3
TORSDOF 14
ENDMDL
MODEL      184
REMARK 921   NORMALIZED FREE ENERGY PREDICTED BY IDOCK:   -4.09 KCAL/MOL
REMARK 922        TOTAL FREE ENERGY PREDICTED BY IDOCK:   -8.53 KCAL/MOL
REMARK 923 INTER-LIGAND FREE ENERGY PREDICTED BY IDOCK:   -7.50 KCAL/MOL
REMARK 924 INTRA-LIGAND FREE ENERGY PREDICTED BY IDOCK:   -1.03 KCAL/MOL
REMARK 927      BINDING AFFINITY PREDICTED BY RF-SCORE:    0.00 PKD
ROOT
HETATM    1  C   UNK     1      -7.246   8.148  65.934  1.00  0.00    -0.072 C  
HETATM    2  C   UNK     1      -7.552   9.638  65.995  1.00  0.00    -0.102 C  
ENDROOT
BRANCH   2   3
HETATM    3  C   UNK     1      -8.657   9.967  66.993  1.00  0.00    -0.130 C  
BRANCH   3   4
HETATM    4  C   UNK     1     -10.001  10.020  66.312  1.00  0.00    -0.245 C  
HETATM    5  O   UNK     1     -10.157  10.023  65.099  1.00  0.00    -0.325 OA 
BRANCH   4   6
HETATM    6  O   UNK     1     -10.996  10.097  67.229  1.00  0.00    -0.266 OA 
BRANCH   6   7
HETATM    7  C   UNK     1     -11.058  11.248  68.104  1.00  0.00    -0.259 C  
BRANCH   7   8
HETATM    8  C   UNK     1     -11.719  12.468  67.449  1.00  0.00    -0.366 C  
BRANCH   8   9
HETATM    9  O   UNK     1     -10.754  13.302  66.807  1.00  0.00    -0.273 OA 
BRANCH   9  10
HETATM   10  P   UNK     1     -10.314  14.692  67.738  1.00  0.00    -0.240 P  
HETATM   11  O   UNK     1      -9.026  14.994  66.776  1.00  0.00    -0.233 OA 
HETATM   12  O   UNK     1     -11.504  15.452  67.149  1.00  0.00    -0.266 OA 
BRANCH  10  13
HETATM   13  O   UNK     1      -9.873  16.083  68.669  1.00  0.00    -0.206 OA 
BRANCH  13  14
HETATM   14  C   UNK     1     -10.714  17.214  68.398  1.00  0.00    -0.347 C  
BRANCH  14  15
HETATM   15  C   UNK     1      -9.884  18.467  68.116  1.00  0.00    -0.346 C  
HETATM   16  N   UNK     1     -10.390  19.677  68.830  1.00  0.00    -0.565 NA 
HETATM   17  C   UNK     1      -9.932  18.730  66.613  1.00  0.00    -0.365 C  
HETATM   18  O   UNK     1     -10.845  19.691  66.309  1.00  0.00    -0.430 OA 
HETATM   19  O   UNK     1      -9.281  18.126  65.776  1.00  0.00    -0.469 OA 
HETATM   20  H1  UNK     1      -9.836  20.513  68.642  1.00  0.00     0.000 HD 
HETATM   21  H2  UNK     1     -10.459  19.504  69.832  1.00  0.00     0.000 HD 
ENDBRANCH  14  15
ENDBRANCH  13  14
ENDBRANCH  10  13
ENDBRANCH   9  10
ENDBRANCH   8   9
ENDBRANCH   7   8
BRANCH   7  22
HETATM   22  C   UNK     1     -11.715  10.902  69.452  1.00  0.00    -0.325 C  
BRANCH  22  23
HETATM   23  O   UNK     1     -11.218   9.659  69.983  1.00  0.00    -0.241 OA 
BRANCH  23  24
HETATM   24  C   UNK     1     -11.598   9.386  71.262  1.00  0.00    -0.364 C  
HETATM   25  O   UNK     1     -12.437  10.014  71.886  1.00  0.00    -0.385 OA 
BRANCH  24  26
HETATM   26  C   UNK     1     -10.840   8.183  71.774  1.00  0.00    -0.317 C  
HETATM   27  C   UNK     1      -9.481   8.580  72.322  1.00  0.00    -0.365 C  
ENDBRANCH  24  26
ENDBRANCH  23  24
ENDBRANCH  22  23
ENDBRANCH   7  22
ENDBRANCH   6   7
ENDBRANCH   4   6
ENDBRANCH   3   4
ENDBRANCH   2   3
TORSDOF 14
ENDMDL
MODEL      185
REMARK 921   NORMALIZED FREE ENERGY PREDICTED BY IDOCK:   -4.09 KCAL/MOL
REMARK 922        TOTAL FREE ENERGY PREDICTED BY IDOCK:   -8.53 KCAL/MOL
REMARK 923 INTER-LIGAND FREE ENERGY PREDICTED BY IDOCK:   -7.64 KCAL/MOL
REMARK 924 INTRA-LIGAND FREE ENERGY PREDICTED BY IDOCK:   -0.88 KCAL/MOL
REMARK 927      BINDING AFFINITY PREDICTED BY RF-SCORE:    0.00 PKD
ROOT
HETATM    1  C   UNK     1      -7.121  18.542  68.490  1.00  0.00    -0.293 C  
HETATM    2  C   UNK     1      -8.440  18.430  67.740  1.00  0.00    -0.270 C  
ENDROOT
BRANCH   2   3
HETATM    3  C   UNK     1      -8.387  17.400  66.616  1.00  0.00    -0.295 C  
BRANCH   3   4
HETATM    4  C   UNK     1      -9.705  16.683  66.478  1.00  0.00    -0.274 C  
HETATM    5  O   UNK     1     -10.353  16.627  65.442  1.00  0.00    -0.584 OA 
BRANCH   4   6
HETATM    6  O   UNK     1     -10.079  16.143  67.664  1.00  0.00    -0.239 OA 
BRANCH   6   7
HETATM    7  C   UNK     1     -11.363  15.481  67.761  1.00  0.00    -0.286 C  
BRANCH   7   8
HETATM    8  C   UNK     1     -11.302  13.992  67.398  1.00  0.00    -0.329 C  
BRANCH   8   9
HETATM    9  O   UNK     1     -10.130  13.373  67.931  1.00  0.00    -0.226 OA 
BRANCH   9  10
HETATM   10  P   UNK     1      -9.703  11.899  67.133  1.00  0.00    -0.189 P  
HETATM   11  O   UNK     1      -8.611  11.526  68.293  1.00  0.00    -0.149 OA 
HETATM   12  O   UNK     1     -11.040  11.291  67.561  1.00  0.00    -0.249 OA 
BRANCH  10  13
HETATM   13  O   UNK     1      -9.276  10.424  66.336  1.00  0.00    -0.157 OA 
BRANCH  13  14
HETATM   14  C   UNK     1     -10.210   9.367  66.598  1.00  0.00    -0.249 C  
BRANCH  14  15
HETATM   15  C   UNK     1      -9.493   8.035  66.821  1.00  0.00    -0.202 C  
HETATM   16  N   UNK     1      -9.074   7.376  65.549  1.00  0.00    -0.381 NA 
HETATM   17  C   UNK     1     -10.453   7.106  67.560  1.00  0.00    -0.260 C  
HETATM   18  O   UNK     1     -11.058   6.239  66.705  1.00  0.00    -0.343 OA 
HETATM   19  O   UNK     1     -10.697   7.160  68.755  1.00  0.00    -0.212 OA 
HETATM   20  H1  UNK     1      -8.596   6.487  65.698  1.00  0.00     0.000 HD 
HETATM   21  H2  UNK     1      -8.505   8.005  64.984  1.00  0.00     0.000 HD 
ENDBRANCH  14  15
ENDBRANCH  13  14
ENDBRANCH  10  13
ENDBRANCH   9  10
ENDBRANCH   8   9
ENDBRANCH   7   8
BRANCH   7  22
HETATM   22  C   UNK     1     -12.014  15.704  69.139  1.00  0.00    -0.310 C  
BRANCH  22  23
HETATM   23  O   UNK     1     -11.093  15.435  70.212  1.00  0.00    -0.265 OA 
BRANCH  23  24
HETATM   24  C   UNK     1     -11.666  14.982  71.362  1.00  0.00    -0.357 C  
HETATM   25  O   UNK     1     -11.551  15.516  72.452  1.00  0.00    -0.434 OA 
BRANCH  24  26
HETATM   26  C   UNK     1     -12.475  13.739  71.073  1.00  0.00    -0.458 C  
HETATM   27  C   UNK     1     -13.491  13.474  72.169  1.00  0.00    -0.631 C  
ENDBRANCH  24  26
ENDBRANCH  23  24
ENDBRANCH  22  23
ENDBRANCH   7  22
ENDBRANCH   6   7
ENDBRANCH   4   6
ENDBRANCH   3   4
ENDBRANCH   2   3
TORSDOF 14
ENDMDL
MODEL      186
REMARK 921   NORMALIZED FREE ENERGY PREDICTED BY IDOCK:   -4.09 KCAL/MOL
REMARK 922        TOTAL FREE ENERGY PREDICTED BY IDOCK:   -8.53 KCAL/MOL
REMARK 923 INTER-LIGAND FREE ENERGY PREDICTED BY IDOCK:   -7.37 KCAL/MOL
REMARK 924 INTRA-LIGAND FREE ENERGY PREDICTED BY IDOCK:   -1.15 KCAL/MOL
REMARK 927      BINDING AFFINITY PREDICTED BY RF-SCORE:    0.00 PKD
ROOT
HETATM    1  C   UNK     1     -14.330   8.309  71.573  1.00  0.00    -0.525 C  
HETATM    2  C   UNK     1     -13.521   9.508  72.048  1.00  0.00    -0.522 C  
ENDROOT
BRANCH   2   3
HETATM    3  C   UNK     1     -12.683  10.126  70.933  1.00  0.00    -0.448 C  
BRANCH   3   4
HETATM    4  C   UNK     1     -11.247   9.681  71.027  1.00  0.00    -0.375 C  
HETATM    5  O   UNK     1     -10.768   9.101  71.993  1.00  0.00    -0.341 OA 
BRANCH   4   6
HETATM    6  O   UNK     1     -10.563  10.042  69.914  1.00  0.00    -0.244 OA 
BRANCH   6   7
HETATM    7  C   UNK     1     -10.630   9.194  68.743  1.00  0.00    -0.181 C  
BRANCH   7   8
HETATM    8  C   UNK     1     -10.549   9.977  67.427  1.00  0.00    -0.271 C  
BRANCH   8   9
HETATM    9  O   UNK     1     -11.541  11.003  67.369  1.00  0.00    -0.525 OA 
BRANCH   9  10
HETATM   10  P   UNK     1     -11.031  12.410  66.502  1.00  0.00    -0.302 P  
HETATM   11  O   UNK     1     -10.164  11.511  65.446  1.00  0.00    -0.242 OA 
HETATM   12  O   UNK     1     -12.439  12.552  65.922  1.00  0.00    -0.596 OA 
BRANCH  10  13
HETATM   13  O   UNK     1     -10.520  13.818  65.634  1.00  0.00    -0.287 OA 
BRANCH  13  14
HETATM   14  C   UNK     1     -11.087  15.025  66.164  1.00  0.00    -0.329 C  
BRANCH  14  15
HETATM   15  C   UNK     1     -10.819  15.151  67.665  1.00  0.00    -0.295 C  
HETATM   16  N   UNK     1     -12.060  15.367  68.465  1.00  0.00    -0.556 NA 
HETATM   17  C   UNK     1      -9.888  16.343  67.874  1.00  0.00    -0.238 C  
HETATM   18  O   UNK     1     -10.580  17.448  68.259  1.00  0.00    -0.365 OA 
HETATM   19  O   UNK     1      -8.684  16.333  67.672  1.00  0.00    -0.180 OA 
HETATM   20  H1  UNK     1     -11.880  15.451  69.466  1.00  0.00     0.000 HD 
HETATM   21  H2  UNK     1     -12.745  14.635  68.279  1.00  0.00     0.000 HD 
ENDBRANCH  14  15
ENDBRANCH  13  14
ENDBRANCH  10  13
ENDBRANCH   9  10
ENDBRANCH   8   9
ENDBRANCH   7   8
BRANCH   7  22
HETATM   22  C   UNK     1      -9.583   8.066  68.798  1.00  0.00    -0.149 C  
BRANCH  22  23
HETATM   23  O   UNK     1      -8.322   8.536  69.313  1.00  0.00    -0.116 OA 
BRANCH  23  24
HETATM   24  C   UNK     1      -7.779   7.764  70.295  1.00  0.00    -0.089 C  
HETATM   25  O   UNK     1      -8.377   6.896  70.907  1.00  0.00    -0.127 OA 
BRANCH  24  26
HETATM   26  C   UNK     1      -6.328   8.136  70.491  1.00  0.00    -0.036 C  
HETATM   27  C   UNK     1      -5.915   9.260  69.558  1.00  0.00    -0.033 C  
ENDBRANCH  24  26
ENDBRANCH  23  24
ENDBRANCH  22  23
ENDBRANCH   7  22
ENDBRANCH   6   7
ENDBRANCH   4   6
ENDBRANCH   3   4
ENDBRANCH   2   3
TORSDOF 14
ENDMDL
MODEL      187
REMARK 921   NORMALIZED FREE ENERGY PREDICTED BY IDOCK:   -4.08 KCAL/MOL
REMARK 922        TOTAL FREE ENERGY PREDICTED BY IDOCK:   -8.52 KCAL/MOL
REMARK 923 INTER-LIGAND FREE ENERGY PREDICTED BY IDOCK:   -7.43 KCAL/MOL
REMARK 924 INTRA-LIGAND FREE ENERGY PREDICTED BY IDOCK:   -1.09 KCAL/MOL
REMARK 927      BINDING AFFINITY PREDICTED BY RF-SCORE:    0.00 PKD
ROOT
HETATM    1  C   UNK     1     -12.223  14.716  64.020  1.00  0.00    -0.226 C  
HETATM    2  C   UNK     1     -11.943  13.262  63.665  1.00  0.00    -0.547 C  
ENDROOT
BRANCH   2   3
HETATM    3  C   UNK     1     -12.508  12.290  64.696  1.00  0.00    -0.424 C  
BRANCH   3   4
HETATM    4  C   UNK     1     -11.656  12.263  65.938  1.00  0.00    -0.393 C  
HETATM    5  O   UNK     1     -12.065  12.533  67.059  1.00  0.00    -0.521 OA 
BRANCH   4   6
HETATM    6  O   UNK     1     -10.378  11.931  65.630  1.00  0.00    -0.231 OA 
BRANCH   6   7
HETATM    7  C   UNK     1      -9.611  11.143  66.571  1.00  0.00    -0.197 C  
BRANCH   7   8
HETATM    8  C   UNK     1      -9.008  11.979  67.707  1.00  0.00    -0.176 C  
BRANCH   8   9
HETATM    9  O   UNK     1      -8.419  13.182  67.213  1.00  0.00    -0.189 OA 
BRANCH   9  10
HETATM   10  P   UNK     1      -9.072  14.617  67.926  1.00  0.00    -0.203 P  
HETATM   11  O   UNK     1      -7.974  14.579  69.136  1.00  0.00    -0.125 OA 
HETATM   12  O   UNK     1      -8.466  15.445  66.792  1.00  0.00    -0.238 OA 
BRANCH  10  13
HETATM   13  O   UNK     1      -9.726  16.051  68.638  1.00  0.00    -0.203 OA 
BRANCH  13  14
HETATM   14  C   UNK     1     -11.135  15.947  68.888  1.00  0.00    -0.316 C  
BRANCH  14  15
HETATM   15  C   UNK     1     -11.423  14.997  70.053  1.00  0.00    -0.276 C  
HETATM   16  N   UNK     1     -12.309  13.858  69.674  1.00  0.00    -0.346 NA 
HETATM   17  C   UNK     1     -12.108  15.804  71.154  1.00  0.00    -0.427 C  
HETATM   18  O   UNK     1     -13.456  15.626  71.131  1.00  0.00    -0.552 OA 
HETATM   19  O   UNK     1     -11.537  16.559  71.926  1.00  0.00    -0.419 OA 
HETATM   20  H1  UNK     1     -12.501  13.225  70.451  1.00  0.00     0.000 HD 
HETATM   21  H2  UNK     1     -11.927  13.350  68.877  1.00  0.00     0.000 HD 
ENDBRANCH  14  15
ENDBRANCH  13  14
ENDBRANCH  10  13
ENDBRANCH   9  10
ENDBRANCH   8   9
ENDBRANCH   7   8
BRANCH   7  22
HETATM   22  C   UNK     1     -10.425   9.953  67.112  1.00  0.00    -0.242 C  
BRANCH  22  23
HETATM   23  O   UNK     1     -10.510   9.976  68.549  1.00  0.00    -0.184 OA 
BRANCH  23  24
HETATM   24  C   UNK     1     -10.031   8.863  69.171  1.00  0.00    -0.190 C  
HETATM   25  O   UNK     1      -9.014   8.271  68.850  1.00  0.00    -0.143 OA 
BRANCH  24  26
HETATM   26  C   UNK     1     -10.938   8.493  70.322  1.00  0.00    -0.245 C  
HETATM   27  C   UNK     1     -10.362   8.955  71.648  1.00  0.00    -0.416 C  
ENDBRANCH  24  26
ENDBRANCH  23  24
ENDBRANCH  22  23
ENDBRANCH   7  22
ENDBRANCH   6   7
ENDBRANCH   4   6
ENDBRANCH   3   4
ENDBRANCH   2   3
TORSDOF 14
ENDMDL
MODEL      188
REMARK 921   NORMALIZED FREE ENERGY PREDICTED BY IDOCK:   -4.08 KCAL/MOL
REMARK 922        TOTAL FREE ENERGY PREDICTED BY IDOCK:   -8.52 KCAL/MOL
REMARK 923 INTER-LIGAND FREE ENERGY PREDICTED BY IDOCK:   -7.45 KCAL/MOL
REMARK 924 INTRA-LIGAND FREE ENERGY PREDICTED BY IDOCK:   -1.07 KCAL/MOL
REMARK 927      BINDING AFFINITY PREDICTED BY RF-SCORE:    0.00 PKD
ROOT
HETATM    1  C   UNK     1      -9.670  15.336  67.959  1.00  0.00    -0.211 C  
HETATM    2  C   UNK     1     -11.048  14.968  68.490  1.00  0.00    -0.279 C  
ENDROOT
BRANCH   2   3
HETATM    3  C   UNK     1     -11.854  14.139  67.496  1.00  0.00    -0.437 C  
BRANCH   3   4
HETATM    4  C   UNK     1     -11.731  12.667  67.795  1.00  0.00    -0.356 C  
HETATM    5  O   UNK     1     -11.954  11.779  66.983  1.00  0.00    -0.610 OA 
BRANCH   4   6
HETATM    6  O   UNK     1     -11.374  12.473  69.088  1.00  0.00    -0.257 OA 
BRANCH   6   7
HETATM    7  C   UNK     1     -12.002  11.406  69.838  1.00  0.00    -0.359 C  
BRANCH   7   8
HETATM    8  C   UNK     1     -11.083  10.195  70.047  1.00  0.00    -0.308 C  
BRANCH   8   9
HETATM    9  O   UNK     1     -11.317   9.576  71.312  1.00  0.00    -0.319 OA 
BRANCH   9  10
HETATM   10  P   UNK     1     -10.498   8.064  71.504  1.00  0.00    -0.238 P  
HETATM   11  O   UNK     1      -9.730   8.238  70.071  1.00  0.00    -0.174 OA 
HETATM   12  O   UNK     1      -9.605   8.695  72.574  1.00  0.00    -0.278 OA 
BRANCH  10  13
HETATM   13  O   UNK     1      -9.679   6.552  71.696  1.00  0.00    -0.164 OA 
BRANCH  13  14
HETATM   14  C   UNK     1      -9.228   6.010  70.447  1.00  0.00    -0.156 C  
BRANCH  14  15
HETATM   15  C   UNK     1      -7.701   5.928  70.396  1.00  0.00    -0.096 C  
HETATM   16  N   UNK     1      -7.069   7.153  69.823  1.00  0.00    -0.071 NA 
HETATM   17  C   UNK     1      -7.327   4.731  69.525  1.00  0.00    -0.056 C  
HETATM   18  O   UNK     1      -7.000   5.121  68.264  1.00  0.00    -0.058 OA 
HETATM   19  O   UNK     1      -7.365   3.565  69.886  1.00  0.00    -0.041 OA 
HETATM   20  H1  UNK     1      -6.050   7.098  69.789  1.00  0.00     0.000 HD 
HETATM   21  H2  UNK     1      -7.372   7.987  70.325  1.00  0.00     0.000 HD 
ENDBRANCH  14  15
ENDBRANCH  13  14
ENDBRANCH  10  13
ENDBRANCH   9  10
ENDBRANCH   8   9
ENDBRANCH   7   8
BRANCH   7  22
HETATM   22  C   UNK     1     -12.583  11.914  71.170  1.00  0.00    -0.288 C  
BRANCH  22  23
HETATM   23  O   UNK     1     -12.471  13.345  71.288  1.00  0.00    -0.345 OA 
BRANCH  23  24
HETATM   24  C   UNK     1     -13.494  13.949  71.954  1.00  0.00    -0.427 C  
HETATM   25  O   UNK     1     -14.270  13.377  72.702  1.00  0.00    -0.747 OA 
BRANCH  24  26
HETATM   26  C   UNK     1     -13.504  15.427  71.641  1.00  0.00    -0.593 C  
HETATM   27  C   UNK     1     -12.177  16.075  71.994  1.00  0.00    -0.582 C  
ENDBRANCH  24  26
ENDBRANCH  23  24
ENDBRANCH  22  23
ENDBRANCH   7  22
ENDBRANCH   6   7
ENDBRANCH   4   6
ENDBRANCH   3   4
ENDBRANCH   2   3
TORSDOF 14
ENDMDL
MODEL      189
REMARK 921   NORMALIZED FREE ENERGY PREDICTED BY IDOCK:   -4.08 KCAL/MOL
REMARK 922        TOTAL FREE ENERGY PREDICTED BY IDOCK:   -8.50 KCAL/MOL
REMARK 923 INTER-LIGAND FREE ENERGY PREDICTED BY IDOCK:   -7.27 KCAL/MOL
REMARK 924 INTRA-LIGAND FREE ENERGY PREDICTED BY IDOCK:   -1.23 KCAL/MOL
REMARK 927      BINDING AFFINITY PREDICTED BY RF-SCORE:    0.00 PKD
ROOT
HETATM    1  C   UNK     1     -10.647   7.237  73.284  1.00  0.00    -0.428 C  
HETATM    2  C   UNK     1     -11.478   8.132  72.375  1.00  0.00    -0.462 C  
ENDROOT
BRANCH   2   3
HETATM    3  C   UNK     1     -12.242   7.341  71.317  1.00  0.00    -0.389 C  
BRANCH   3   4
HETATM    4  C   UNK     1     -11.391   7.112  70.095  1.00  0.00    -0.241 C  
HETATM    5  O   UNK     1     -11.465   6.121  69.382  1.00  0.00    -0.423 OA 
BRANCH   4   6
HETATM    6  O   UNK     1     -10.520   8.136  69.923  1.00  0.00    -0.217 OA 
BRANCH   6   7
HETATM    7  C   UNK     1     -10.669   8.999  68.770  1.00  0.00    -0.108 C  
BRANCH   7   8
HETATM    8  C   UNK     1     -11.281  10.363  69.114  1.00  0.00    -0.246 C  
BRANCH   8   9
HETATM    9  O   UNK     1     -11.834  10.992  67.957  1.00  0.00    -0.593 OA 
BRANCH   9  10
HETATM   10  P   UNK     1     -11.418  12.665  67.814  1.00  0.00    -0.356 P  
HETATM   11  O   UNK     1     -10.016  12.441  68.627  1.00  0.00    -0.196 OA 
HETATM   12  O   UNK     1     -11.117  12.454  66.329  1.00  0.00    -0.277 OA 
BRANCH  10  13
HETATM   13  O   UNK     1     -11.001  14.338  67.672  1.00  0.00    -0.267 OA 
BRANCH  13  14
HETATM   14  C   UNK     1     -11.978  15.201  68.274  1.00  0.00    -0.159 C  
BRANCH  14  15
HETATM   15  C   UNK     1     -11.555  15.619  69.683  1.00  0.00    -0.356 C  
HETATM   16  N   UNK     1     -10.235  15.053  70.090  1.00  0.00    -0.501 NA 
HETATM   17  C   UNK     1     -12.621  15.124  70.656  1.00  0.00    -0.395 C  
HETATM   18  O   UNK     1     -12.238  13.968  71.262  1.00  0.00    -0.350 OA 
HETATM   19  O   UNK     1     -13.705  15.656  70.837  1.00  0.00    -0.549 OA 
HETATM   20  H1  UNK     1      -9.953  15.333  71.030  1.00  0.00     0.000 HD 
HETATM   21  H2  UNK     1      -9.513  15.288  69.409  1.00  0.00     0.000 HD 
ENDBRANCH  14  15
ENDBRANCH  13  14
ENDBRANCH  10  13
ENDBRANCH   9  10
ENDBRANCH   8   9
ENDBRANCH   7   8
BRANCH   7  22
HETATM   22  C   UNK     1      -9.346   9.148  67.998  1.00  0.00    -0.137 C  
BRANCH  22  23
HETATM   23  O   UNK     1      -9.427   8.562  66.685  1.00  0.00    -0.173 OA 
BRANCH  23  24
HETATM   24  C   UNK     1      -8.714   7.414  66.522  1.00  0.00    -0.140 C  
HETATM   25  O   UNK     1      -9.031   6.497  65.784  1.00  0.00    -0.134 OA 
BRANCH  24  26
HETATM   26  C   UNK     1      -7.468   7.463  67.377  1.00  0.00    -0.104 C  
HETATM   27  C   UNK     1      -7.013   6.068  67.769  1.00  0.00    -0.069 C  
ENDBRANCH  24  26
ENDBRANCH  23  24
ENDBRANCH  22  23
ENDBRANCH   7  22
ENDBRANCH   6   7
ENDBRANCH   4   6
ENDBRANCH   3   4
ENDBRANCH   2   3
TORSDOF 14
ENDMDL
MODEL      190
REMARK 921   NORMALIZED FREE ENERGY PREDICTED BY IDOCK:   -4.07 KCAL/MOL
REMARK 922        TOTAL FREE ENERGY PREDICTED BY IDOCK:   -8.49 KCAL/MOL
REMARK 923 INTER-LIGAND FREE ENERGY PREDICTED BY IDOCK:   -7.42 KCAL/MOL
REMARK 924 INTRA-LIGAND FREE ENERGY PREDICTED BY IDOCK:   -1.08 KCAL/MOL
REMARK 927      BINDING AFFINITY PREDICTED BY RF-SCORE:    0.00 PKD
ROOT
HETATM    1  C   UNK     1     -11.047  15.670  64.814  1.00  0.00    -0.426 C  
HETATM    2  C   UNK     1     -12.316  14.959  64.367  1.00  0.00    -0.342 C  
ENDROOT
BRANCH   2   3
HETATM    3  C   UNK     1     -12.873  14.027  65.439  1.00  0.00    -0.442 C  
BRANCH   3   4
HETATM    4  C   UNK     1     -12.750  12.586  65.019  1.00  0.00    -0.219 C  
HETATM    5  O   UNK     1     -13.270  12.116  64.016  1.00  0.00    -0.728 OA 
BRANCH   4   6
HETATM    6  O   UNK     1     -12.018  11.888  65.920  1.00  0.00    -0.480 OA 
BRANCH   6   7
HETATM    7  C   UNK     1     -10.580  11.831  65.763  1.00  0.00    -0.268 C  
BRANCH   7   8
HETATM    8  C   UNK     1      -9.828  11.826  67.101  1.00  0.00    -0.193 C  
BRANCH   8   9
HETATM    9  O   UNK     1     -10.731  11.826  68.207  1.00  0.00    -0.196 OA 
BRANCH   9  10
HETATM   10  P   UNK     1     -10.533  10.468  69.261  1.00  0.00    -0.237 P  
HETATM   11  O   UNK     1     -10.903   9.417  68.064  1.00  0.00    -0.220 OA 
HETATM   12  O   UNK     1      -9.018  10.675  69.227  1.00  0.00    -0.159 OA 
BRANCH  10  13
HETATM   13  O   UNK     1     -10.335   9.111  70.315  1.00  0.00    -0.190 OA 
BRANCH  13  14
HETATM   14  C   UNK     1     -11.536   8.335  70.442  1.00  0.00    -0.122 C  
BRANCH  14  15
HETATM   15  C   UNK     1     -11.937   8.170  71.910  1.00  0.00    -0.320 C  
HETATM   16  N   UNK     1     -12.230   6.754  72.280  1.00  0.00    -0.509 NA 
HETATM   17  C   UNK     1     -13.190   9.008  72.148  1.00  0.00    -0.446 C  
HETATM   18  O   UNK     1     -14.311   8.239  72.117  1.00  0.00    -0.417 OA 
HETATM   19  O   UNK     1     -13.203  10.220  72.294  1.00  0.00    -0.409 OA 
HETATM   20  H1  UNK     1     -12.498   6.644  73.259  1.00  0.00     0.000 HD 
HETATM   21  H2  UNK     1     -11.445   6.147  72.047  1.00  0.00     0.000 HD 
ENDBRANCH  14  15
ENDBRANCH  13  14
ENDBRANCH  10  13
ENDBRANCH   9  10
ENDBRANCH   8   9
ENDBRANCH   7   8
BRANCH   7  22
HETATM   22  C   UNK     1     -10.153  10.654  64.867  1.00  0.00    -0.335 C  
BRANCH  22  23
HETATM   23  O   UNK     1      -9.137  11.045  63.925  1.00  0.00    -0.187 OA 
BRANCH  23  24
HETATM   24  C   UNK     1      -8.081  10.189  63.829  1.00  0.00    -0.160 C  
HETATM   25  O   UNK     1      -7.107  10.365  63.117  1.00  0.00    -0.130 OA 
BRANCH  24  26
HETATM   26  C   UNK     1      -8.296   9.010  64.750  1.00  0.00    -0.181 C  
HETATM   27  C   UNK     1      -7.997   7.699  64.046  1.00  0.00    -0.099 C  
ENDBRANCH  24  26
ENDBRANCH  23  24
ENDBRANCH  22  23
ENDBRANCH   7  22
ENDBRANCH   6   7
ENDBRANCH   4   6
ENDBRANCH   3   4
ENDBRANCH   2   3
TORSDOF 14
ENDMDL
MODEL      191
REMARK 921   NORMALIZED FREE ENERGY PREDICTED BY IDOCK:   -4.07 KCAL/MOL
REMARK 922        TOTAL FREE ENERGY PREDICTED BY IDOCK:   -8.49 KCAL/MOL
REMARK 923 INTER-LIGAND FREE ENERGY PREDICTED BY IDOCK:   -7.87 KCAL/MOL
REMARK 924 INTRA-LIGAND FREE ENERGY PREDICTED BY IDOCK:   -0.62 KCAL/MOL
REMARK 927      BINDING AFFINITY PREDICTED BY RF-SCORE:    0.00 PKD
ROOT
HETATM    1  C   UNK     1      -5.688  16.031  67.706  1.00  0.00    -0.161 C  
HETATM    2  C   UNK     1      -6.986  15.246  67.578  1.00  0.00    -0.225 C  
ENDROOT
BRANCH   2   3
HETATM    3  C   UNK     1      -7.862  15.359  68.821  1.00  0.00    -0.155 C  
BRANCH   3   4
HETATM    4  C   UNK     1      -9.296  15.023  68.504  1.00  0.00    -0.196 C  
HETATM    5  O   UNK     1     -10.207  15.055  69.321  1.00  0.00    -0.234 OA 
BRANCH   4   6
HETATM    6  O   UNK     1      -9.422  14.653  67.207  1.00  0.00    -0.209 OA 
BRANCH   6   7
HETATM    7  C   UNK     1     -10.638  14.986  66.496  1.00  0.00    -0.305 C  
BRANCH   7   8
HETATM    8  C   UNK     1     -10.380  15.563  65.098  1.00  0.00    -0.356 C  
BRANCH   8   9
HETATM    9  O   UNK     1     -10.717  16.949  65.036  1.00  0.00    -0.700 OA 
BRANCH   9  10
HETATM   10  P   UNK     1     -10.054  17.881  66.335  1.00  0.00    -0.329 P  
HETATM   11  O   UNK     1      -8.528  17.642  65.798  1.00  0.00    -0.525 OA 
HETATM   12  O   UNK     1     -10.571  19.158  65.670  1.00  0.00    -0.523 OA 
BRANCH  10  13
HETATM   13  O   UNK     1      -9.391  18.812  67.634  1.00  0.00    -0.287 OA 
BRANCH  13  14
HETATM   14  C   UNK     1      -7.962  18.915  67.562  1.00  0.00    -0.244 C  
BRANCH  14  15
HETATM   15  C   UNK     1      -7.526  20.330  67.176  1.00  0.00    -0.297 C  
HETATM   16  N   UNK     1      -7.574  20.577  65.705  1.00  0.00    -0.526 NA 
HETATM   17  C   UNK     1      -6.090  20.522  67.657  1.00  0.00    -0.245 C  
HETATM   18  O   UNK     1      -5.202  20.348  66.643  1.00  0.00    -0.158 OA 
HETATM   19  O   UNK     1      -5.764  20.749  68.812  1.00  0.00    -0.314 OA 
HETATM   20  H1  UNK     1      -7.284  21.520  65.449  1.00  0.00     0.000 HD 
HETATM   21  H2  UNK     1      -8.500  20.367  65.332  1.00  0.00     0.000 HD 
ENDBRANCH  14  15
ENDBRANCH  13  14
ENDBRANCH  10  13
ENDBRANCH   9  10
ENDBRANCH   8   9
ENDBRANCH   7   8
BRANCH   7  22
HETATM   22  C   UNK     1     -11.613  13.795  66.448  1.00  0.00    -0.360 C  
BRANCH  22  23
HETATM   23  O   UNK     1     -11.822  13.333  65.100  1.00  0.00    -0.320 OA 
BRANCH  23  24
HETATM   24  C   UNK     1     -11.299  12.106  64.825  1.00  0.00    -0.325 C  
HETATM   25  O   UNK     1     -11.615  11.413  63.873  1.00  0.00    -0.299 OA 
BRANCH  24  26
HETATM   26  C   UNK     1     -10.261  11.750  65.865  1.00  0.00    -0.272 C  
HETATM   27  C   UNK     1     -10.850  10.870  66.953  1.00  0.00    -0.307 C  
ENDBRANCH  24  26
ENDBRANCH  23  24
ENDBRANCH  22  23
ENDBRANCH   7  22
ENDBRANCH   6   7
ENDBRANCH   4   6
ENDBRANCH   3   4
ENDBRANCH   2   3
TORSDOF 14
ENDMDL
MODEL      192
REMARK 921   NORMALIZED FREE ENERGY PREDICTED BY IDOCK:   -4.07 KCAL/MOL
REMARK 922        TOTAL FREE ENERGY PREDICTED BY IDOCK:   -8.49 KCAL/MOL
REMARK 923 INTER-LIGAND FREE ENERGY PREDICTED BY IDOCK:   -7.30 KCAL/MOL
REMARK 924 INTRA-LIGAND FREE ENERGY PREDICTED BY IDOCK:   -1.19 KCAL/MOL
REMARK 927      BINDING AFFINITY PREDICTED BY RF-SCORE:    0.00 PKD
ROOT
HETATM    1  C   UNK     1     -13.021   8.720  72.343  1.00  0.00    -0.442 C  
HETATM    2  C   UNK     1     -13.442   9.729  71.284  1.00  0.00    -0.362 C  
ENDROOT
BRANCH   2   3
HETATM    3  C   UNK     1     -12.442  10.872  71.136  1.00  0.00    -0.511 C  
BRANCH   3   4
HETATM    4  C   UNK     1     -11.376  10.531  70.127  1.00  0.00    -0.323 C  
HETATM    5  O   UNK     1     -10.287  10.052  70.413  1.00  0.00    -0.282 OA 
BRANCH   4   6
HETATM    6  O   UNK     1     -11.783  10.858  68.877  1.00  0.00    -0.297 OA 
BRANCH   6   7
HETATM    7  C   UNK     1     -10.835  11.462  67.965  1.00  0.00    -0.217 C  
BRANCH   7   8
HETATM    8  C   UNK     1     -10.267  10.469  66.943  1.00  0.00    -0.229 C  
BRANCH   8   9
HETATM    9  O   UNK     1     -10.929   9.206  67.019  1.00  0.00    -0.098 OA 
BRANCH   9  10
HETATM   10  P   UNK     1      -9.852   7.874  67.261  1.00  0.00    -0.245 P  
HETATM   11  O   UNK     1     -11.049   6.790  67.000  1.00  0.00    -0.403 OA 
HETATM   12  O   UNK     1      -9.203   8.164  65.907  1.00  0.00    -0.171 OA 
BRANCH  10  13
HETATM   13  O   UNK     1      -8.776   6.541  67.504  1.00  0.00    -0.115 OA 
BRANCH  13  14
HETATM   14  C   UNK     1      -9.365   5.285  67.138  1.00  0.00    -0.122 C  
BRANCH  14  15
HETATM   15  C   UNK     1      -8.502   4.545  66.115  1.00  0.00    -0.113 C  
HETATM   16  N   UNK     1      -8.247   5.341  64.878  1.00  0.00    -0.129 NA 
HETATM   17  C   UNK     1      -9.233   3.262  65.729  1.00  0.00    -0.149 C  
HETATM   18  O   UNK     1      -9.893   3.405  64.548  1.00  0.00    -0.163 OA 
HETATM   19  O   UNK     1      -9.275   2.249  66.409  1.00  0.00    -0.096 OA 
HETATM   20  H1  UNK     1      -7.671   4.847  64.196  1.00  0.00     0.000 HD 
HETATM   21  H2  UNK     1      -7.842   6.248  65.107  1.00  0.00     0.000 HD 
ENDBRANCH  14  15
ENDBRANCH  13  14
ENDBRANCH  10  13
ENDBRANCH   9  10
ENDBRANCH   8   9
ENDBRANCH   7   8
BRANCH   7  22
HETATM   22  C   UNK     1     -11.421  12.710  67.279  1.00  0.00    -0.342 C  
BRANCH  22  23
HETATM   23  O   UNK     1     -12.237  12.360  66.146  1.00  0.00    -0.635 OA 
BRANCH  23  24
HETATM   24  C   UNK     1     -12.032  13.119  65.034  1.00  0.00    -0.383 C  
HETATM   25  O   UNK     1     -12.765  13.137  64.060  1.00  0.00    -0.653 OA 
BRANCH  24  26
HETATM   26  C   UNK     1     -10.776  13.942  65.203  1.00  0.00    -0.371 C  
HETATM   27  C   UNK     1     -11.021  15.400  64.856  1.00  0.00    -0.453 C  
ENDBRANCH  24  26
ENDBRANCH  23  24
ENDBRANCH  22  23
ENDBRANCH   7  22
ENDBRANCH   6   7
ENDBRANCH   4   6
ENDBRANCH   3   4
ENDBRANCH   2   3
TORSDOF 14
ENDMDL
MODEL      193
REMARK 921   NORMALIZED FREE ENERGY PREDICTED BY IDOCK:   -4.07 KCAL/MOL
REMARK 922        TOTAL FREE ENERGY PREDICTED BY IDOCK:   -8.48 KCAL/MOL
REMARK 923 INTER-LIGAND FREE ENERGY PREDICTED BY IDOCK:   -7.35 KCAL/MOL
REMARK 924 INTRA-LIGAND FREE ENERGY PREDICTED BY IDOCK:   -1.13 KCAL/MOL
REMARK 927      BINDING AFFINITY PREDICTED BY RF-SCORE:    0.00 PKD
ROOT
HETATM    1  C   UNK     1      -7.827   7.656  66.508  1.00  0.00    -0.105 C  
HETATM    2  C   UNK     1      -7.325   6.498  67.360  1.00  0.00    -0.091 C  
ENDROOT
BRANCH   2   3
HETATM    3  C   UNK     1      -8.401   5.947  68.290  1.00  0.00    -0.112 C  
BRANCH   3   4
HETATM    4  C   UNK     1      -8.255   6.510  69.680  1.00  0.00    -0.126 C  
HETATM    5  O   UNK     1      -7.338   6.231  70.441  1.00  0.00    -0.083 OA 
BRANCH   4   6
HETATM    6  O   UNK     1      -9.290   7.334  69.970  1.00  0.00    -0.155 OA 
BRANCH   6   7
HETATM    7  C   UNK     1      -9.013   8.700  70.358  1.00  0.00    -0.158 C  
BRANCH   7   8
HETATM    8  C   UNK     1      -9.223   9.705  69.218  1.00  0.00    -0.183 C  
BRANCH   8   9
HETATM    9  O   UNK     1     -10.187  10.699  69.569  1.00  0.00    -0.218 OA 
BRANCH   9  10
HETATM   10  P   UNK     1     -11.152  11.228  68.234  1.00  0.00    -0.296 P  
HETATM   11  O   UNK     1     -10.826   9.865  67.390  1.00  0.00    -0.280 OA 
HETATM   12  O   UNK     1     -12.416  10.959  69.054  1.00  0.00    -0.425 OA 
BRANCH  10  13
HETATM   13  O   UNK     1     -12.118  11.757  66.900  1.00  0.00    -0.566 OA 
BRANCH  13  14
HETATM   14  C   UNK     1     -12.016  13.171  66.675  1.00  0.00    -0.389 C  
BRANCH  14  15
HETATM   15  C   UNK     1     -12.335  13.526  65.222  1.00  0.00    -0.467 C  
HETATM   16  N   UNK     1     -12.989  12.410  64.476  1.00  0.00    -0.810 NA 
HETATM   17  C   UNK     1     -11.021  13.874  64.528  1.00  0.00    -0.369 C  
HETATM   18  O   UNK     1     -10.553  12.824  63.802  1.00  0.00    -0.412 OA 
HETATM   19  O   UNK     1     -10.429  14.935  64.644  1.00  0.00    -0.337 OA 
HETATM   20  H1  UNK     1     -13.202  12.647  63.507  1.00  0.00     0.000 HD 
HETATM   21  H2  UNK     1     -13.825  12.088  64.964  1.00  0.00     0.000 HD 
ENDBRANCH  14  15
ENDBRANCH  13  14
ENDBRANCH  10  13
ENDBRANCH   9  10
ENDBRANCH   8   9
ENDBRANCH   7   8
BRANCH   7  22
HETATM   22  C   UNK     1      -9.798   9.103  71.621  1.00  0.00    -0.225 C  
BRANCH  22  23
HETATM   23  O   UNK     1     -10.474   7.975  72.209  1.00  0.00    -0.235 OA 
BRANCH  23  24
HETATM   24  C   UNK     1     -11.808   7.903  71.944  1.00  0.00    -0.301 C  
HETATM   25  O   UNK     1     -12.527   8.863  71.726  1.00  0.00    -0.319 OA 
BRANCH  24  26
HETATM   26  C   UNK     1     -12.249   6.457  71.942  1.00  0.00    -0.332 C  
HETATM   27  C   UNK     1     -11.279   5.584  72.717  1.00  0.00    -0.358 C  
ENDBRANCH  24  26
ENDBRANCH  23  24
ENDBRANCH  22  23
ENDBRANCH   7  22
ENDBRANCH   6   7
ENDBRANCH   4   6
ENDBRANCH   3   4
ENDBRANCH   2   3
TORSDOF 14
ENDMDL
MODEL      194
REMARK 921   NORMALIZED FREE ENERGY PREDICTED BY IDOCK:   -4.06 KCAL/MOL
REMARK 922        TOTAL FREE ENERGY PREDICTED BY IDOCK:   -8.47 KCAL/MOL
REMARK 923 INTER-LIGAND FREE ENERGY PREDICTED BY IDOCK:   -7.54 KCAL/MOL
REMARK 924 INTRA-LIGAND FREE ENERGY PREDICTED BY IDOCK:   -0.94 KCAL/MOL
REMARK 927      BINDING AFFINITY PREDICTED BY RF-SCORE:    0.00 PKD
ROOT
HETATM    1  C   UNK     1      -9.178  10.694  62.455  1.00  0.00    -0.300 C  
HETATM    2  C   UNK     1      -9.980  11.726  63.235  1.00  0.00    -0.435 C  
ENDROOT
BRANCH   2   3
HETATM    3  C   UNK     1     -10.824  11.097  64.340  1.00  0.00    -0.340 C  
BRANCH   3   4
HETATM    4  C   UNK     1      -9.972  10.726  65.526  1.00  0.00    -0.263 C  
HETATM    5  O   UNK     1      -9.745   9.576  65.876  1.00  0.00    -0.245 OA 
BRANCH   4   6
HETATM    6  O   UNK     1      -9.526  11.839  66.157  1.00  0.00    -0.218 OA 
BRANCH   6   7
HETATM    7  C   UNK     1     -10.489  12.771  66.703  1.00  0.00    -0.257 C  
BRANCH   7   8
HETATM    8  C   UNK     1     -11.249  12.213  67.913  1.00  0.00    -0.272 C  
BRANCH   8   9
HETATM    9  O   UNK     1     -10.363  11.584  68.840  1.00  0.00    -0.209 OA 
BRANCH   9  10
HETATM   10  P   UNK     1     -11.174  10.625  70.030  1.00  0.00    -0.266 P  
HETATM   11  O   UNK     1     -12.642  11.055  69.453  1.00  0.00    -0.331 OA 
HETATM   12  O   UNK     1     -10.750   9.358  69.284  1.00  0.00    -0.227 OA 
BRANCH  10  13
HETATM   13  O   UNK     1     -11.985   9.666  71.220  1.00  0.00    -0.324 OA 
BRANCH  13  14
HETATM   14  C   UNK     1     -11.071   8.958  72.070  1.00  0.00    -0.351 C  
BRANCH  14  15
HETATM   15  C   UNK     1     -11.707   7.684  72.631  1.00  0.00    -0.270 C  
HETATM   16  N   UNK     1     -10.848   6.994  73.636  1.00  0.00    -0.542 NA 
HETATM   17  C   UNK     1     -11.953   6.733  71.462  1.00  0.00    -0.350 C  
HETATM   18  O   UNK     1     -10.977   5.791  71.379  1.00  0.00    -0.267 OA 
HETATM   19  O   UNK     1     -12.873   6.828  70.665  1.00  0.00    -0.138 OA 
HETATM   20  H1  UNK     1     -11.272   6.145  74.010  1.00  0.00     0.000 HD 
HETATM   21  H2  UNK     1     -10.585   7.631  74.389  1.00  0.00     0.000 HD 
ENDBRANCH  14  15
ENDBRANCH  13  14
ENDBRANCH  10  13
ENDBRANCH   9  10
ENDBRANCH   8   9
ENDBRANCH   7   8
BRANCH   7  22
HETATM   22  C   UNK     1      -9.846  14.135  67.015  1.00  0.00    -0.258 C  
BRANCH  22  23
HETATM   23  O   UNK     1     -10.720  15.226  66.671  1.00  0.00    -0.301 OA 
BRANCH  23  24
HETATM   24  C   UNK     1     -10.760  16.239  67.580  1.00  0.00    -0.311 C  
HETATM   25  O   UNK     1     -11.463  16.252  68.576  1.00  0.00    -0.371 OA 
BRANCH  24  26
HETATM   26  C   UNK     1      -9.791  17.326  67.176  1.00  0.00    -0.269 C  
HETATM   27  C   UNK     1     -10.465  18.370  66.305  1.00  0.00    -0.421 C  
ENDBRANCH  24  26
ENDBRANCH  23  24
ENDBRANCH  22  23
ENDBRANCH   7  22
ENDBRANCH   6   7
ENDBRANCH   4   6
ENDBRANCH   3   4
ENDBRANCH   2   3
TORSDOF 14
ENDMDL
MODEL      195
REMARK 921   NORMALIZED FREE ENERGY PREDICTED BY IDOCK:   -4.06 KCAL/MOL
REMARK 922        TOTAL FREE ENERGY PREDICTED BY IDOCK:   -8.47 KCAL/MOL
REMARK 923 INTER-LIGAND FREE ENERGY PREDICTED BY IDOCK:   -8.22 KCAL/MOL
REMARK 924 INTRA-LIGAND FREE ENERGY PREDICTED BY IDOCK:   -0.25 KCAL/MOL
REMARK 927      BINDING AFFINITY PREDICTED BY RF-SCORE:    0.00 PKD
ROOT
HETATM    1  C   UNK     1      -6.820  18.966  68.923  1.00  0.00    -0.329 C  
HETATM    2  C   UNK     1      -8.280  18.870  68.503  1.00  0.00    -0.388 C  
ENDROOT
BRANCH   2   3
HETATM    3  C   UNK     1      -8.452  18.223  67.133  1.00  0.00    -0.253 C  
BRANCH   3   4
HETATM    4  C   UNK     1      -9.646  17.304  67.116  1.00  0.00    -0.257 C  
HETATM    5  O   UNK     1     -10.459  17.250  66.204  1.00  0.00    -0.338 OA 
BRANCH   4   6
HETATM    6  O   UNK     1      -9.704  16.579  68.260  1.00  0.00    -0.221 OA 
BRANCH   6   7
HETATM    7  C   UNK     1     -10.997  16.208  68.792  1.00  0.00    -0.330 C  
BRANCH   7   8
HETATM    8  C   UNK     1     -11.377  14.752  68.495  1.00  0.00    -0.290 C  
BRANCH   8   9
HETATM    9  O   UNK     1     -10.241  13.890  68.576  1.00  0.00    -0.234 OA 
BRANCH   9  10
HETATM   10  P   UNK     1     -10.494  12.341  67.849  1.00  0.00    -0.227 P  
HETATM   11  O   UNK     1      -9.350  11.652  68.793  1.00  0.00    -0.152 OA 
HETATM   12  O   UNK     1     -11.826  12.220  68.592  1.00  0.00    -0.310 OA 
BRANCH  10  13
HETATM   13  O   UNK     1     -10.747  10.792  67.121  1.00  0.00    -0.244 OA 
BRANCH  13  14
HETATM   14  C   UNK     1     -10.595  10.825  65.694  1.00  0.00    -0.129 C  
BRANCH  14  15
HETATM   15  C   UNK     1     -11.015  12.180  65.122  1.00  0.00    -0.310 C  
HETATM   16  N   UNK     1     -12.363  12.619  65.586  1.00  0.00    -0.630 NA 
HETATM   17  C   UNK     1     -11.037  12.057  63.601  1.00  0.00    -0.452 C  
HETATM   18  O   UNK     1     -12.301  11.863  63.139  1.00  0.00    -0.485 OA 
HETATM   19  O   UNK     1     -10.049  12.073  62.883  1.00  0.00    -0.231 OA 
HETATM   20  H1  UNK     1     -12.643  13.523  65.204  1.00  0.00     0.000 HD 
HETATM   21  H2  UNK     1     -12.414  12.623  66.605  1.00  0.00     0.000 HD 
ENDBRANCH  14  15
ENDBRANCH  13  14
ENDBRANCH  10  13
ENDBRANCH   9  10
ENDBRANCH   8   9
ENDBRANCH   7   8
BRANCH   7  22
HETATM   22  C   UNK     1     -11.106  16.529  70.294  1.00  0.00    -0.157 C  
BRANCH  22  23
HETATM   23  O   UNK     1     -10.889  15.359  71.105  1.00  0.00    -0.310 OA 
BRANCH  23  24
HETATM   24  C   UNK     1     -11.874  15.092  72.006  1.00  0.00    -0.416 C  
HETATM   25  O   UNK     1     -11.812  15.344  73.198  1.00  0.00    -0.443 OA 
BRANCH  24  26
HETATM   26  C   UNK     1     -13.053  14.461  71.302  1.00  0.00    -0.421 C  
HETATM   27  C   UNK     1     -14.337  15.218  71.589  1.00  0.00    -0.666 C  
ENDBRANCH  24  26
ENDBRANCH  23  24
ENDBRANCH  22  23
ENDBRANCH   7  22
ENDBRANCH   6   7
ENDBRANCH   4   6
ENDBRANCH   3   4
ENDBRANCH   2   3
TORSDOF 14
ENDMDL
MODEL      196
REMARK 921   NORMALIZED FREE ENERGY PREDICTED BY IDOCK:   -4.06 KCAL/MOL
REMARK 922        TOTAL FREE ENERGY PREDICTED BY IDOCK:   -8.47 KCAL/MOL
REMARK 923 INTER-LIGAND FREE ENERGY PREDICTED BY IDOCK:   -7.78 KCAL/MOL
REMARK 924 INTRA-LIGAND FREE ENERGY PREDICTED BY IDOCK:   -0.68 KCAL/MOL
REMARK 927      BINDING AFFINITY PREDICTED BY RF-SCORE:    0.00 PKD
ROOT
HETATM    1  C   UNK     1     -12.299  14.612  64.253  1.00  0.00    -0.375 C  
HETATM    2  C   UNK     1     -11.901  13.239  63.728  1.00  0.00    -0.522 C  
ENDROOT
BRANCH   2   3
HETATM    3  C   UNK     1     -12.223  12.121  64.714  1.00  0.00    -0.341 C  
BRANCH   3   4
HETATM    4  C   UNK     1     -11.587  12.384  66.054  1.00  0.00    -0.401 C  
HETATM    5  O   UNK     1     -12.193  12.371  67.117  1.00  0.00    -0.492 OA 
BRANCH   4   6
HETATM    6  O   UNK     1     -10.269  12.665  65.909  1.00  0.00    -0.264 OA 
BRANCH   6   7
HETATM    7  C   UNK     1      -9.330  12.157  66.886  1.00  0.00    -0.203 C  
BRANCH   7   8
HETATM    8  C   UNK     1      -9.035  13.156  68.013  1.00  0.00    -0.195 C  
BRANCH   8   9
HETATM    9  O   UNK     1      -9.262  14.501  67.591  1.00  0.00    -0.187 OA 
BRANCH   9  10
HETATM   10  P   UNK     1     -10.403  15.351  68.575  1.00  0.00    -0.239 P  
HETATM   11  O   UNK     1      -9.209  16.105  69.400  1.00  0.00    -0.248 OA 
HETATM   12  O   UNK     1     -10.756  16.240  67.381  1.00  0.00    -0.319 OA 
BRANCH  10  13
HETATM   13  O   UNK     1     -11.544  16.202  69.559  1.00  0.00    -0.316 OA 
BRANCH  13  14
HETATM   14  C   UNK     1     -12.599  15.353  70.035  1.00  0.00    -0.234 C  
BRANCH  14  15
HETATM   15  C   UNK     1     -12.143  14.522  71.235  1.00  0.00    -0.354 C  
HETATM   16  N   UNK     1     -12.312  13.054  71.029  1.00  0.00    -0.391 NA 
HETATM   17  C   UNK     1     -12.979  14.946  72.440  1.00  0.00    -0.352 C  
HETATM   18  O   UNK     1     -13.997  14.074  72.666  1.00  0.00    -0.654 OA 
HETATM   19  O   UNK     1     -12.801  15.963  73.092  1.00  0.00    -0.446 OA 
HETATM   20  H1  UNK     1     -12.008  12.500  71.829  1.00  0.00     0.000 HD 
HETATM   21  H2  UNK     1     -11.841  12.750  70.176  1.00  0.00     0.000 HD 
ENDBRANCH  14  15
ENDBRANCH  13  14
ENDBRANCH  10  13
ENDBRANCH   9  10
ENDBRANCH   8   9
ENDBRANCH   7   8
BRANCH   7  22
HETATM   22  C   UNK     1      -9.769  10.789  67.440  1.00  0.00    -0.171 C  
BRANCH  22  23
HETATM   23  O   UNK     1      -8.845   9.747  67.076  1.00  0.00    -0.133 OA 
BRANCH  23  24
HETATM   24  C   UNK     1      -9.322   8.844  66.174  1.00  0.00    -0.239 C  
HETATM   25  O   UNK     1      -8.791   8.579  65.109  1.00  0.00    -0.165 OA 
BRANCH  24  26
HETATM   26  C   UNK     1     -10.590   8.215  66.705  1.00  0.00    -0.223 C  
HETATM   27  C   UNK     1     -10.318   6.845  67.299  1.00  0.00    -0.320 C  
ENDBRANCH  24  26
ENDBRANCH  23  24
ENDBRANCH  22  23
ENDBRANCH   7  22
ENDBRANCH   6   7
ENDBRANCH   4   6
ENDBRANCH   3   4
ENDBRANCH   2   3
TORSDOF 14
ENDMDL
MODEL      197
REMARK 921   NORMALIZED FREE ENERGY PREDICTED BY IDOCK:   -4.05 KCAL/MOL
REMARK 922        TOTAL FREE ENERGY PREDICTED BY IDOCK:   -8.46 KCAL/MOL
REMARK 923 INTER-LIGAND FREE ENERGY PREDICTED BY IDOCK:   -7.31 KCAL/MOL
REMARK 924 INTRA-LIGAND FREE ENERGY PREDICTED BY IDOCK:   -1.15 KCAL/MOL
REMARK 927      BINDING AFFINITY PREDICTED BY RF-SCORE:    0.00 PKD
ROOT
HETATM    1  C   UNK     1     -12.271   6.579  71.786  1.00  0.00    -0.374 C  
HETATM    2  C   UNK     1     -12.995   7.917  71.745  1.00  0.00    -0.351 C  
ENDROOT
BRANCH   2   3
HETATM    3  C   UNK     1     -12.087   9.085  72.116  1.00  0.00    -0.412 C  
BRANCH   3   4
HETATM    4  C   UNK     1     -11.725   9.895  70.899  1.00  0.00    -0.364 C  
HETATM    5  O   UNK     1     -12.531  10.521  70.225  1.00  0.00    -0.305 OA 
BRANCH   4   6
HETATM    6  O   UNK     1     -10.397   9.803  70.644  1.00  0.00    -0.289 OA 
BRANCH   6   7
HETATM    7  C   UNK     1      -9.943   8.930  69.583  1.00  0.00    -0.191 C  
BRANCH   7   8
HETATM    8  C   UNK     1      -9.578   9.684  68.297  1.00  0.00    -0.140 C  
BRANCH   8   9
HETATM    9  O   UNK     1     -10.686   9.749  67.399  1.00  0.00    -0.268 OA 
BRANCH   9  10
HETATM   10  P   UNK     1     -10.286  10.420  65.855  1.00  0.00    -0.156 P  
HETATM   11  O   UNK     1      -9.354  11.576  66.540  1.00  0.00    -0.186 OA 
HETATM   12  O   UNK     1      -9.382   9.217  65.577  1.00  0.00    -0.227 OA 
BRANCH  10  13
HETATM   13  O   UNK     1      -9.886  11.090  64.311  1.00  0.00    -0.252 OA 
BRANCH  13  14
HETATM   14  C   UNK     1     -10.369  12.433  64.154  1.00  0.00    -0.382 C  
BRANCH  14  15
HETATM   15  C   UNK     1     -11.885  12.503  64.349  1.00  0.00    -0.386 C  
HETATM   16  N   UNK     1     -12.649  12.276  63.087  1.00  0.00    -0.803 NA 
HETATM   17  C   UNK     1     -12.222  13.894  64.881  1.00  0.00    -0.422 C  
HETATM   18  O   UNK     1     -12.663  14.709  63.887  1.00  0.00    -0.788 OA 
HETATM   19  O   UNK     1     -12.069  14.256  66.037  1.00  0.00    -0.405 OA 
HETATM   20  H1  UNK     1     -13.659  12.323  63.218  1.00  0.00     0.000 HD 
HETATM   21  H2  UNK     1     -12.379  11.394  62.653  1.00  0.00     0.000 HD 
ENDBRANCH  14  15
ENDBRANCH  13  14
ENDBRANCH  10  13
ENDBRANCH   9  10
ENDBRANCH   8   9
ENDBRANCH   7   8
BRANCH   7  22
HETATM   22  C   UNK     1      -8.796   8.016  70.050  1.00  0.00    -0.143 C  
BRANCH  22  23
HETATM   23  O   UNK     1      -7.844   7.776  68.997  1.00  0.00    -0.113 OA 
BRANCH  23  24
HETATM   24  C   UNK     1      -7.963   6.568  68.379  1.00  0.00    -0.110 C  
HETATM   25  O   UNK     1      -8.553   6.381  67.328  1.00  0.00    -0.111 OA 
BRANCH  24  26
HETATM   26  C   UNK     1      -7.238   5.512  69.180  1.00  0.00    -0.069 C  
HETATM   27  C   UNK     1      -8.164   4.369  69.551  1.00  0.00    -0.065 C  
ENDBRANCH  24  26
ENDBRANCH  23  24
ENDBRANCH  22  23
ENDBRANCH   7  22
ENDBRANCH   6   7
ENDBRANCH   4   6
ENDBRANCH   3   4
ENDBRANCH   2   3
TORSDOF 14
ENDMDL
MODEL      198
REMARK 921   NORMALIZED FREE ENERGY PREDICTED BY IDOCK:   -4.05 KCAL/MOL
REMARK 922        TOTAL FREE ENERGY PREDICTED BY IDOCK:   -8.45 KCAL/MOL
REMARK 923 INTER-LIGAND FREE ENERGY PREDICTED BY IDOCK:   -7.34 KCAL/MOL
REMARK 924 INTRA-LIGAND FREE ENERGY PREDICTED BY IDOCK:   -1.11 KCAL/MOL
REMARK 927      BINDING AFFINITY PREDICTED BY RF-SCORE:    0.00 PKD
ROOT
HETATM    1  C   UNK     1     -12.280  13.520  63.389  1.00  0.00    -0.338 C  
HETATM    2  C   UNK     1     -11.987  12.030  63.496  1.00  0.00    -0.605 C  
ENDROOT
BRANCH   2   3
HETATM    3  C   UNK     1     -10.883  11.722  64.503  1.00  0.00    -0.377 C  
BRANCH   3   4
HETATM    4  C   UNK     1     -11.177  12.357  65.837  1.00  0.00    -0.336 C  
HETATM    5  O   UNK     1     -12.150  12.085  66.528  1.00  0.00    -0.617 OA 
BRANCH   4   6
HETATM    6  O   UNK     1     -10.236  13.283  66.141  1.00  0.00    -0.283 OA 
BRANCH   6   7
HETATM    7  C   UNK     1     -10.118  13.744  67.508  1.00  0.00    -0.241 C  
BRANCH   7   8
HETATM    8  C   UNK     1      -8.704  13.581  68.079  1.00  0.00    -0.181 C  
BRANCH   8   9
HETATM    9  O   UNK     1      -7.910  12.716  67.266  1.00  0.00    -0.171 OA 
BRANCH   9  10
HETATM   10  P   UNK     1      -8.167  11.035  67.589  1.00  0.00    -0.122 P  
HETATM   11  O   UNK     1      -6.809  10.618  66.778  1.00  0.00    -0.094 OA 
HETATM   12  O   UNK     1      -7.768  11.264  69.048  1.00  0.00    -0.135 OA 
BRANCH  10  13
HETATM   13  O   UNK     1      -8.423   9.355  67.912  1.00  0.00    -0.116 OA 
BRANCH  13  14
HETATM   14  C   UNK     1      -8.977   9.125  69.216  1.00  0.00    -0.145 C  
BRANCH  14  15
HETATM   15  C   UNK     1     -10.500   9.000  69.158  1.00  0.00    -0.225 C  
HETATM   16  N   UNK     1     -11.062   9.306  67.809  1.00  0.00    -0.478 NA 
HETATM   17  C   UNK     1     -11.088   9.983  70.167  1.00  0.00    -0.310 C  
HETATM   18  O   UNK     1     -11.507  11.124  69.557  1.00  0.00    -0.249 OA 
HETATM   19  O   UNK     1     -11.131   9.804  71.374  1.00  0.00    -0.359 OA 
HETATM   20  H1  UNK     1     -12.078   9.222  67.771  1.00  0.00     0.000 HD 
HETATM   21  H2  UNK     1     -10.622   8.728  67.093  1.00  0.00     0.000 HD 
ENDBRANCH  14  15
ENDBRANCH  13  14
ENDBRANCH  10  13
ENDBRANCH   9  10
ENDBRANCH   8   9
ENDBRANCH   7   8
BRANCH   7  22
HETATM   22  C   UNK     1     -10.633  15.186  67.668  1.00  0.00    -0.263 C  
BRANCH  22  23
HETATM   23  O   UNK     1      -9.563  16.145  67.577  1.00  0.00    -0.227 OA 
BRANCH  23  24
HETATM   24  C   UNK     1      -9.391  16.699  66.345  1.00  0.00    -0.281 C  
HETATM   25  O   UNK     1     -10.237  16.718  65.467  1.00  0.00    -0.567 OA 
BRANCH  24  26
HETATM   26  C   UNK     1      -8.007  17.298  66.244  1.00  0.00    -0.330 C  
HETATM   27  C   UNK     1      -8.029  18.788  66.533  1.00  0.00    -0.294 C  
ENDBRANCH  24  26
ENDBRANCH  23  24
ENDBRANCH  22  23
ENDBRANCH   7  22
ENDBRANCH   6   7
ENDBRANCH   4   6
ENDBRANCH   3   4
ENDBRANCH   2   3
TORSDOF 14
ENDMDL
MODEL      199
REMARK 921   NORMALIZED FREE ENERGY PREDICTED BY IDOCK:   -4.04 KCAL/MOL
REMARK 922        TOTAL FREE ENERGY PREDICTED BY IDOCK:   -8.44 KCAL/MOL
REMARK 923 INTER-LIGAND FREE ENERGY PREDICTED BY IDOCK:   -7.36 KCAL/MOL
REMARK 924 INTRA-LIGAND FREE ENERGY PREDICTED BY IDOCK:   -1.08 KCAL/MOL
REMARK 927      BINDING AFFINITY PREDICTED BY RF-SCORE:    0.00 PKD
ROOT
HETATM    1  C   UNK     1      -6.564  14.017  68.975  1.00  0.00    -0.106 C  
HETATM    2  C   UNK     1      -6.754  12.816  68.060  1.00  0.00    -0.100 C  
ENDROOT
BRANCH   2   3
HETATM    3  C   UNK     1      -8.131  12.179  68.211  1.00  0.00    -0.166 C  
BRANCH   3   4
HETATM    4  C   UNK     1      -8.682  11.759  66.872  1.00  0.00    -0.189 C  
HETATM    5  O   UNK     1      -8.083  11.052  66.073  1.00  0.00    -0.159 OA 
BRANCH   4   6
HETATM    6  O   UNK     1      -9.908  12.300  66.672  1.00  0.00    -0.211 OA 
BRANCH   6   7
HETATM    7  C   UNK     1     -10.775  12.517  67.810  1.00  0.00    -0.219 C  
BRANCH   7   8
HETATM    8  C   UNK     1     -11.624  13.789  67.688  1.00  0.00    -0.347 C  
BRANCH   8   9
HETATM    9  O   UNK     1     -11.195  14.792  68.610  1.00  0.00    -0.249 OA 
BRANCH   9  10
HETATM   10  P   UNK     1     -10.897  16.328  67.873  1.00  0.00    -0.266 P  
HETATM   11  O   UNK     1      -9.329  16.306  68.336  1.00  0.00    -0.199 OA 
HETATM   12  O   UNK     1     -10.969  15.669  66.494  1.00  0.00    -0.298 OA 
BRANCH  10  13
HETATM   13  O   UNK     1     -10.598  17.864  67.135  1.00  0.00    -0.360 OA 
BRANCH  13  14
HETATM   14  C   UNK     1     -10.094  18.832  68.066  1.00  0.00    -0.369 C  
BRANCH  14  15
HETATM   15  C   UNK     1      -9.294  19.924  67.354  1.00  0.00    -0.355 C  
HETATM   16  N   UNK     1      -9.854  20.282  66.018  1.00  0.00    -0.638 NA 
HETATM   17  C   UNK     1      -7.869  19.410  67.164  1.00  0.00    -0.254 C  
HETATM   18  O   UNK     1      -7.679  18.935  65.905  1.00  0.00    -0.426 OA 
HETATM   19  O   UNK     1      -7.017  19.373  68.039  1.00  0.00    -0.242 OA 
HETATM   20  H1  UNK     1      -9.321  21.010  65.543  1.00  0.00     0.000 HD 
HETATM   21  H2  UNK     1     -10.837  20.543  66.094  1.00  0.00     0.000 HD 
ENDBRANCH  14  15
ENDBRANCH  13  14
ENDBRANCH  10  13
ENDBRANCH   9  10
ENDBRANCH   8   9
ENDBRANCH   7   8
BRANCH   7  22
HETATM   22  C   UNK     1     -11.644  11.280  68.106  1.00  0.00    -0.289 C  
BRANCH  22  23
HETATM   23  O   UNK     1     -12.469  11.476  69.270  1.00  0.00    -0.221 OA 
BRANCH  23  24
HETATM   24  C   UNK     1     -12.000  10.898  70.410  1.00  0.00    -0.362 C  
HETATM   25  O   UNK     1     -10.920  10.341  70.514  1.00  0.00    -0.307 OA 
BRANCH  24  26
HETATM   26  C   UNK     1     -13.010  11.072  71.522  1.00  0.00    -0.553 C  
HETATM   27  C   UNK     1     -13.119  12.525  71.946  1.00  0.00    -0.473 C  
ENDBRANCH  24  26
ENDBRANCH  23  24
ENDBRANCH  22  23
ENDBRANCH   7  22
ENDBRANCH   6   7
ENDBRANCH   4   6
ENDBRANCH   3   4
ENDBRANCH   2   3
TORSDOF 14
ENDMDL
MODEL      200
REMARK 921   NORMALIZED FREE ENERGY PREDICTED BY IDOCK:   -4.03 KCAL/MOL
REMARK 922        TOTAL FREE ENERGY PREDICTED BY IDOCK:   -8.42 KCAL/MOL
REMARK 923 INTER-LIGAND FREE ENERGY PREDICTED BY IDOCK:   -7.69 KCAL/MOL
REMARK 924 INTRA-LIGAND FREE ENERGY PREDICTED BY IDOCK:   -0.74 KCAL/MOL
REMARK 927      BINDING AFFINITY PREDICTED BY RF-SCORE:    0.00 PKD
ROOT
HETATM    1  C   UNK     1      -5.189   9.414  72.743  1.00  0.00    -0.068 C  
HETATM    2  C   UNK     1      -6.322   8.505  73.200  1.00  0.00    -0.104 C  
ENDROOT
BRANCH   2   3
HETATM    3  C   UNK     1      -7.227   8.076  72.050  1.00  0.00    -0.089 C  
BRANCH   3   4
HETATM    4  C   UNK     1      -8.680   8.243  72.416  1.00  0.00    -0.213 C  
HETATM    5  O   UNK     1      -9.123   8.109  73.548  1.00  0.00    -0.260 OA 
BRANCH   4   6
HETATM    6  O   UNK     1      -9.417   8.529  71.315  1.00  0.00    -0.169 OA 
BRANCH   6   7
HETATM    7  C   UNK     1     -10.805   8.906  71.478  1.00  0.00    -0.326 C  
BRANCH   7   8
HETATM    8  C   UNK     1     -11.173  10.189  70.721  1.00  0.00    -0.336 C  
BRANCH   8   9
HETATM    9  O   UNK     1     -11.128   9.991  69.307  1.00  0.00    -0.228 OA 
BRANCH   9  10
HETATM   10  P   UNK     1     -11.592  11.388  68.398  1.00  0.00    -0.284 P  
HETATM   11  O   UNK     1     -11.864  12.250  69.761  1.00  0.00    -0.313 OA 
HETATM   12  O   UNK     1     -10.129  11.609  68.010  1.00  0.00    -0.179 OA 
BRANCH  10  13
HETATM   13  O   UNK     1     -12.055  12.785  67.490  1.00  0.00    -0.359 OA 
BRANCH  13  14
HETATM   14  C   UNK     1     -11.210  13.005  66.351  1.00  0.00    -0.300 C  
BRANCH  14  15
HETATM   15  C   UNK     1     -11.976  13.684  65.214  1.00  0.00    -0.376 C  
HETATM   16  N   UNK     1     -13.339  14.139  65.616  1.00  0.00    -0.669 NA 
HETATM   17  C   UNK     1     -12.113  12.675  64.077  1.00  0.00    -0.462 C  
HETATM   18  O   UNK     1     -13.339  12.086  64.084  1.00  0.00    -0.725 OA 
HETATM   19  O   UNK     1     -11.227  12.383  63.289  1.00  0.00    -0.441 OA 
HETATM   20  H1  UNK     1     -13.850  14.592  64.858  1.00  0.00     0.000 HD 
HETATM   21  H2  UNK     1     -13.293  14.744  66.436  1.00  0.00     0.000 HD 
ENDBRANCH  14  15
ENDBRANCH  13  14
ENDBRANCH  10  13
ENDBRANCH   9  10
ENDBRANCH   8   9
ENDBRANCH   7   8
BRANCH   7  22
HETATM   22  C   UNK     1     -11.754   7.746  71.125  1.00  0.00    -0.284 C  
BRANCH  22  23
HETATM   23  O   UNK     1     -11.084   6.473  71.188  1.00  0.00    -0.256 OA 
BRANCH  23  24
HETATM   24  C   UNK     1     -10.831   5.896  69.980  1.00  0.00    -0.351 C  
HETATM   25  O   UNK     1     -11.332   6.245  68.925  1.00  0.00    -0.373 OA 
BRANCH  24  26
HETATM   26  C   UNK     1      -9.825   4.781  70.149  1.00  0.00    -0.308 C  
HETATM   27  C   UNK     1      -9.626   4.016  68.853  1.00  0.00    -0.213 C  
ENDBRANCH  24  26
ENDBRANCH  23  24
ENDBRANCH  22  23
ENDBRANCH   7  22
ENDBRANCH   6   7
ENDBRANCH   4   6
ENDBRANCH   3   4
ENDBRANCH   2   3
TORSDOF 14
ENDMDL
MODEL      201
REMARK 921   NORMALIZED FREE ENERGY PREDICTED BY IDOCK:   -4.03 KCAL/MOL
REMARK 922        TOTAL FREE ENERGY PREDICTED BY IDOCK:   -8.42 KCAL/MOL
REMARK 923 INTER-LIGAND FREE ENERGY PREDICTED BY IDOCK:   -7.23 KCAL/MOL
REMARK 924 INTRA-LIGAND FREE ENERGY PREDICTED BY IDOCK:   -1.19 KCAL/MOL
REMARK 927      BINDING AFFINITY PREDICTED BY RF-SCORE:    0.00 PKD
ROOT
HETATM    1  C   UNK     1     -11.112  16.101  69.825  1.00  0.00    -0.350 C  
HETATM    2  C   UNK     1     -12.296  15.235  70.232  1.00  0.00    -0.407 C  
ENDROOT
BRANCH   2   3
HETATM    3  C   UNK     1     -12.226  14.801  71.693  1.00  0.00    -0.413 C  
BRANCH   3   4
HETATM    4  C   UNK     1     -13.180  13.668  71.966  1.00  0.00    -0.434 C  
HETATM    5  O   UNK     1     -14.338  13.817  72.334  1.00  0.00    -0.664 OA 
BRANCH   4   6
HETATM    6  O   UNK     1     -12.567  12.474  71.779  1.00  0.00    -0.163 OA 
BRANCH   6   7
HETATM    7  C   UNK     1     -12.866  11.710  70.587  1.00  0.00    -0.040 C  
BRANCH   7   8
HETATM    8  C   UNK     1     -11.817  11.882  69.481  1.00  0.00    -0.331 C  
BRANCH   8   9
HETATM    9  O   UNK     1     -12.062  10.997  68.388  1.00  0.00    -0.594 OA 
BRANCH   9  10
HETATM   10  P   UNK     1     -10.749  10.904  67.265  1.00  0.00    -0.280 P  
HETATM   11  O   UNK     1     -10.999   9.306  67.024  1.00  0.00    -0.106 OA 
HETATM   12  O   UNK     1     -11.592  11.654  66.232  1.00  0.00    -0.420 OA 
BRANCH  10  13
HETATM   13  O   UNK     1      -9.436  10.812  66.143  1.00  0.00    -0.176 OA 
BRANCH  13  14
HETATM   14  C   UNK     1      -8.156  10.900  66.786  1.00  0.00    -0.142 C  
BRANCH  14  15
HETATM   15  C   UNK     1      -8.189  11.886  67.955  1.00  0.00    -0.150 C  
HETATM   16  N   UNK     1      -7.744  13.259  67.574  1.00  0.00    -0.166 NA 
HETATM   17  C   UNK     1      -7.258  11.354  69.041  1.00  0.00    -0.118 C  
HETATM   18  O   UNK     1      -6.050  11.976  69.005  1.00  0.00    -0.063 OA 
HETATM   19  O   UNK     1      -7.531  10.449  69.814  1.00  0.00    -0.150 OA 
HETATM   20  H1  UNK     1      -7.766  13.917  68.354  1.00  0.00     0.000 HD 
HETATM   21  H2  UNK     1      -8.286  13.611  66.785  1.00  0.00     0.000 HD 
ENDBRANCH  14  15
ENDBRANCH  13  14
ENDBRANCH  10  13
ENDBRANCH   9  10
ENDBRANCH   8   9
ENDBRANCH   7   8
BRANCH   7  22
HETATM   22  C   UNK     1     -13.110  10.224  70.912  1.00  0.00    -0.344 C  
BRANCH  22  23
HETATM   23  O   UNK     1     -12.356   9.800  72.063  1.00  0.00    -0.354 OA 
BRANCH  23  24
HETATM   24  C   UNK     1     -11.384   8.882  71.807  1.00  0.00    -0.361 C  
HETATM   25  O   UNK     1     -10.235   9.152  71.502  1.00  0.00    -0.323 OA 
BRANCH  24  26
HETATM   26  C   UNK     1     -11.942   7.488  71.980  1.00  0.00    -0.330 C  
HETATM   27  C   UNK     1     -11.201   6.486  71.114  1.00  0.00    -0.353 C  
ENDBRANCH  24  26
ENDBRANCH  23  24
ENDBRANCH  22  23
ENDBRANCH   7  22
ENDBRANCH   6   7
ENDBRANCH   4   6
ENDBRANCH   3   4
ENDBRANCH   2   3
TORSDOF 14
ENDMDL
MODEL      202
REMARK 921   NORMALIZED FREE ENERGY PREDICTED BY IDOCK:   -4.03 KCAL/MOL
REMARK 922        TOTAL FREE ENERGY PREDICTED BY IDOCK:   -8.42 KCAL/MOL
REMARK 923 INTER-LIGAND FREE ENERGY PREDICTED BY IDOCK:   -7.01 KCAL/MOL
REMARK 924 INTRA-LIGAND FREE ENERGY PREDICTED BY IDOCK:   -1.41 KCAL/MOL
REMARK 927      BINDING AFFINITY PREDICTED BY RF-SCORE:    0.00 PKD
ROOT
HETATM    1  C   UNK     1     -11.123  15.221  65.047  1.00  0.00    -0.436 C  
HETATM    2  C   UNK     1     -10.872  15.066  66.540  1.00  0.00    -0.320 C  
ENDROOT
BRANCH   2   3
HETATM    3  C   UNK     1     -12.021  14.363  67.256  1.00  0.00    -0.409 C  
BRANCH   3   4
HETATM    4  C   UNK     1     -11.782  12.877  67.330  1.00  0.00    -0.373 C  
HETATM    5  O   UNK     1     -12.039  12.094  66.426  1.00  0.00    -0.630 OA 
BRANCH   4   6
HETATM    6  O   UNK     1     -11.278  12.536  68.541  1.00  0.00    -0.244 OA 
BRANCH   6   7
HETATM    7  C   UNK     1     -11.405  11.168  68.995  1.00  0.00    -0.276 C  
BRANCH   7   8
HETATM    8  C   UNK     1     -10.055  10.452  69.136  1.00  0.00    -0.222 C  
BRANCH   8   9
HETATM    9  O   UNK     1      -9.783   9.624  68.006  1.00  0.00    -0.142 OA 
BRANCH   9  10
HETATM   10  P   UNK     1      -9.664   7.942  68.393  1.00  0.00    -0.169 P  
HETATM   11  O   UNK     1      -8.268   7.793  67.555  1.00  0.00    -0.121 OA 
HETATM   12  O   UNK     1      -9.291   8.309  69.830  1.00  0.00    -0.157 OA 
BRANCH  10  13
HETATM   13  O   UNK     1      -9.546   6.260  68.780  1.00  0.00    -0.122 OA 
BRANCH  13  14
HETATM   14  C   UNK     1     -10.322   5.437  67.897  1.00  0.00    -0.160 C  
BRANCH  14  15
HETATM   15  C   UNK     1      -9.441   4.416  67.173  1.00  0.00    -0.172 C  
HETATM   16  N   UNK     1      -7.994   4.545  67.515  1.00  0.00    -0.099 NA 
HETATM   17  C   UNK     1      -9.611   4.636  65.672  1.00  0.00    -0.182 C  
HETATM   18  O   UNK     1      -8.583   5.364  65.161  1.00  0.00    -0.147 OA 
HETATM   19  O   UNK     1     -10.568   4.259  65.014  1.00  0.00    -0.250 OA 
HETATM   20  H1  UNK     1      -7.408   3.864  67.033  1.00  0.00     0.000 HD 
HETATM   21  H2  UNK     1      -7.853   4.496  68.524  1.00  0.00     0.000 HD 
ENDBRANCH  14  15
ENDBRANCH  13  14
ENDBRANCH  10  13
ENDBRANCH   9  10
ENDBRANCH   8   9
ENDBRANCH   7   8
BRANCH   7  22
HETATM   22  C   UNK     1     -12.237  11.072  70.287  1.00  0.00    -0.363 C  
BRANCH  22  23
HETATM   23  O   UNK     1     -11.646  10.162  71.234  1.00  0.00    -0.364 OA 
BRANCH  23  24
HETATM   24  C   UNK     1     -12.532   9.375  71.905  1.00  0.00    -0.390 C  
HETATM   25  O   UNK     1     -13.702   9.657  72.100  1.00  0.00    -0.403 OA 
BRANCH  24  26
HETATM   26  C   UNK     1     -11.849   8.102  72.349  1.00  0.00    -0.448 C  
HETATM   27  C   UNK     1     -12.160   6.953  71.408  1.00  0.00    -0.408 C  
ENDBRANCH  24  26
ENDBRANCH  23  24
ENDBRANCH  22  23
ENDBRANCH   7  22
ENDBRANCH   6   7
ENDBRANCH   4   6
ENDBRANCH   3   4
ENDBRANCH   2   3
TORSDOF 14
ENDMDL
MODEL      203
REMARK 921   NORMALIZED FREE ENERGY PREDICTED BY IDOCK:   -4.03 KCAL/MOL
REMARK 922        TOTAL FREE ENERGY PREDICTED BY IDOCK:   -8.41 KCAL/MOL
REMARK 923 INTER-LIGAND FREE ENERGY PREDICTED BY IDOCK:   -8.27 KCAL/MOL
REMARK 924 INTRA-LIGAND FREE ENERGY PREDICTED BY IDOCK:   -0.14 KCAL/MOL
REMARK 927      BINDING AFFINITY PREDICTED BY RF-SCORE:    0.00 PKD
ROOT
HETATM    1  C   UNK     1      -9.900   5.031  72.107  1.00  0.00    -0.220 C  
HETATM    2  C   UNK     1     -10.890   5.964  72.790  1.00  0.00    -0.289 C  
ENDROOT
BRANCH   2   3
HETATM    3  C   UNK     1     -10.228   7.235  73.314  1.00  0.00    -0.365 C  
BRANCH   3   4
HETATM    4  C   UNK     1     -10.171   8.294  72.244  1.00  0.00    -0.305 C  
HETATM    5  O   UNK     1      -9.207   9.022  72.047  1.00  0.00    -0.373 OA 
BRANCH   4   6
HETATM    6  O   UNK     1     -11.340   8.344  71.561  1.00  0.00    -0.252 OA 
BRANCH   6   7
HETATM    7  C   UNK     1     -11.350   8.895  70.223  1.00  0.00    -0.159 C  
BRANCH   7   8
HETATM    8  C   UNK     1     -11.413  10.428  70.203  1.00  0.00    -0.319 C  
BRANCH   8   9
HETATM    9  O   UNK     1     -10.386  10.981  69.380  1.00  0.00    -0.196 OA 
BRANCH   9  10
HETATM   10  P   UNK     1     -10.966  12.145  68.238  1.00  0.00    -0.274 P  
HETATM   11  O   UNK     1      -9.582  12.062  67.371  1.00  0.00    -0.173 OA 
HETATM   12  O   UNK     1     -11.920  11.095  67.667  1.00  0.00    -0.613 OA 
BRANCH  10  13
HETATM   13  O   UNK     1     -11.545  13.309  67.097  1.00  0.00    -0.319 OA 
BRANCH  13  14
HETATM   14  C   UNK     1     -10.613  13.544  66.032  1.00  0.00    -0.285 C  
BRANCH  14  15
HETATM   15  C   UNK     1     -10.953  12.701  64.801  1.00  0.00    -0.302 C  
HETATM   16  N   UNK     1     -10.033  12.945  63.652  1.00  0.00    -0.709 NA 
HETATM   17  C   UNK     1     -12.375  13.053  64.372  1.00  0.00    -0.376 C  
HETATM   18  O   UNK     1     -12.375  13.934  63.337  1.00  0.00    -0.760 OA 
HETATM   19  O   UNK     1     -13.390  12.647  64.916  1.00  0.00    -0.741 OA 
HETATM   20  H1  UNK     1     -10.259  12.382  62.832  1.00  0.00     0.000 HD 
HETATM   21  H2  UNK     1      -9.061  12.809  63.929  1.00  0.00     0.000 HD 
ENDBRANCH  14  15
ENDBRANCH  13  14
ENDBRANCH  10  13
ENDBRANCH   9  10
ENDBRANCH   8   9
ENDBRANCH   7   8
BRANCH   7  22
HETATM   22  C   UNK     1     -10.174   8.364  69.381  1.00  0.00    -0.208 C  
BRANCH  22  23
HETATM   23  O   UNK     1     -10.582   8.051  68.036  1.00  0.00    -0.200 OA 
BRANCH  23  24
HETATM   24  C   UNK     1     -10.602   6.722  67.736  1.00  0.00    -0.249 C  
HETATM   25  O   UNK     1     -11.167   6.236  66.771  1.00  0.00    -0.310 OA 
BRANCH  24  26
HETATM   26  C   UNK     1      -9.806   5.955  68.766  1.00  0.00    -0.177 C  
HETATM   27  C   UNK     1      -8.443   5.560  68.227  1.00  0.00    -0.097 C  
ENDBRANCH  24  26
ENDBRANCH  23  24
ENDBRANCH  22  23
ENDBRANCH   7  22
ENDBRANCH   6   7
ENDBRANCH   4   6
ENDBRANCH   3   4
ENDBRANCH   2   3
TORSDOF 14
ENDMDL
MODEL      204
REMARK 921   NORMALIZED FREE ENERGY PREDICTED BY IDOCK:   -4.02 KCAL/MOL
REMARK 922        TOTAL FREE ENERGY PREDICTED BY IDOCK:   -8.40 KCAL/MOL
REMARK 923 INTER-LIGAND FREE ENERGY PREDICTED BY IDOCK:   -7.46 KCAL/MOL
REMARK 924 INTRA-LIGAND FREE ENERGY PREDICTED BY IDOCK:   -0.94 KCAL/MOL
REMARK 927      BINDING AFFINITY PREDICTED BY RF-SCORE:    0.00 PKD
ROOT
HETATM    1  C   UNK     1      -6.479  15.613  69.565  1.00  0.00    -0.173 C  
HETATM    2  C   UNK     1      -6.181  14.524  68.543  1.00  0.00    -0.089 C  
ENDROOT
BRANCH   2   3
HETATM    3  C   UNK     1      -7.370  14.237  67.632  1.00  0.00    -0.192 C  
BRANCH   3   4
HETATM    4  C   UNK     1      -7.685  12.763  67.604  1.00  0.00    -0.162 C  
HETATM    5  O   UNK     1      -7.105  11.924  68.278  1.00  0.00    -0.070 OA 
BRANCH   4   6
HETATM    6  O   UNK     1      -8.670  12.505  66.710  1.00  0.00    -0.200 OA 
BRANCH   6   7
HETATM    7  C   UNK     1      -9.915  13.235  66.805  1.00  0.00    -0.263 C  
BRANCH   7   8
HETATM    8  C   UNK     1     -10.133  14.212  65.642  1.00  0.00    -0.328 C  
BRANCH   8   9
HETATM    9  O   UNK     1     -11.096  15.212  65.973  1.00  0.00    -0.338 OA 
BRANCH   9  10
HETATM   10  P   UNK     1     -10.501  16.828  65.809  1.00  0.00    -0.105 P  
HETATM   11  O   UNK     1      -8.961  16.301  65.650  1.00  0.00    -0.403 OA 
HETATM   12  O   UNK     1     -11.101  16.896  64.403  1.00  0.00    -1.128 OA 
BRANCH  10  13
HETATM   13  O   UNK     1      -9.906  18.444  65.644  1.00  0.00    -0.440 OA 
BRANCH  13  14
HETATM   14  C   UNK     1      -9.015  18.811  66.707  1.00  0.00    -0.308 C  
BRANCH  14  15
HETATM   15  C   UNK     1      -7.699  19.369  66.161  1.00  0.00    -0.303 C  
HETATM   16  N   UNK     1      -6.988  18.414  65.261  1.00  0.00    -0.503 NA 
HETATM   17  C   UNK     1      -6.796  19.684  67.350  1.00  0.00    -0.207 C  
HETATM   18  O   UNK     1      -5.887  18.695  67.557  1.00  0.00    -0.168 OA 
HETATM   19  O   UNK     1      -6.901  20.668  68.067  1.00  0.00    -0.298 OA 
HETATM   20  H1  UNK     1      -6.110  18.786  64.896  1.00  0.00     0.000 HD 
HETATM   21  H2  UNK     1      -7.596  18.108  64.502  1.00  0.00     0.000 HD 
ENDBRANCH  14  15
ENDBRANCH  13  14
ENDBRANCH  10  13
ENDBRANCH   9  10
ENDBRANCH   8   9
ENDBRANCH   7   8
BRANCH   7  22
HETATM   22  C   UNK     1     -11.117  12.289  66.985  1.00  0.00    -0.287 C  
BRANCH  22  23
HETATM   23  O   UNK     1     -12.022  12.765  67.999  1.00  0.00    -0.346 OA 
BRANCH  23  24
HETATM   24  C   UNK     1     -12.146  11.952  69.085  1.00  0.00    -0.201 C  
HETATM   25  O   UNK     1     -12.373  10.755  69.035  1.00  0.00    -0.422 OA 
BRANCH  24  26
HETATM   26  C   UNK     1     -11.938  12.755  70.348  1.00  0.00    -0.331 C  
HETATM   27  C   UNK     1     -11.295  14.097  70.050  1.00  0.00    -0.195 C  
ENDBRANCH  24  26
ENDBRANCH  23  24
ENDBRANCH  22  23
ENDBRANCH   7  22
ENDBRANCH   6   7
ENDBRANCH   4   6
ENDBRANCH   3   4
ENDBRANCH   2   3
TORSDOF 14
ENDMDL
MODEL      205
REMARK 921   NORMALIZED FREE ENERGY PREDICTED BY IDOCK:   -4.02 KCAL/MOL
REMARK 922        TOTAL FREE ENERGY PREDICTED BY IDOCK:   -8.40 KCAL/MOL
REMARK 923 INTER-LIGAND FREE ENERGY PREDICTED BY IDOCK:   -7.18 KCAL/MOL
REMARK 924 INTRA-LIGAND FREE ENERGY PREDICTED BY IDOCK:   -1.22 KCAL/MOL
REMARK 927      BINDING AFFINITY PREDICTED BY RF-SCORE:    0.00 PKD
ROOT
HETATM    1  C   UNK     1      -6.622  17.959  69.236  1.00  0.00    -0.235 C  
HETATM    2  C   UNK     1      -6.694  16.597  68.560  1.00  0.00    -0.148 C  
ENDROOT
BRANCH   2   3
HETATM    3  C   UNK     1      -7.207  16.683  67.126  1.00  0.00    -0.219 C  
BRANCH   3   4
HETATM    4  C   UNK     1      -8.536  15.987  66.985  1.00  0.00    -0.214 C  
HETATM    5  O   UNK     1      -9.127  15.441  67.907  1.00  0.00    -0.177 OA 
BRANCH   4   6
HETATM    6  O   UNK     1      -8.958  16.024  65.698  1.00  0.00    -0.331 OA 
BRANCH   6   7
HETATM    7  C   UNK     1     -10.183  16.728  65.380  1.00  0.00    -0.073 C  
BRANCH   7   8
HETATM    8  C   UNK     1     -11.411  15.809  65.334  1.00  0.00    -0.032 C  
BRANCH   8   9
HETATM    9  O   UNK     1     -11.132  14.601  64.625  1.00  0.00    -0.376 OA 
BRANCH   9  10
HETATM   10  P   UNK     1     -11.523  13.171  65.516  1.00  0.00    -0.346 P  
HETATM   11  O   UNK     1     -12.000  12.392  64.160  1.00  0.00    -0.376 OA 
HETATM   12  O   UNK     1     -10.030  12.887  65.698  1.00  0.00    -0.274 OA 
BRANCH  10  13
HETATM   13  O   UNK     1     -11.913  11.740  66.407  1.00  0.00    -0.515 OA 
BRANCH  13  14
HETATM   14  C   UNK     1     -10.810  11.264  67.192  1.00  0.00    -0.270 C  
BRANCH  14  15
HETATM   15  C   UNK     1     -11.210  10.048  68.031  1.00  0.00    -0.122 C  
HETATM   16  N   UNK     1     -12.198  10.374  69.101  1.00  0.00    -0.695 NA 
HETATM   17  C   UNK     1      -9.946   9.496  68.684  1.00  0.00    -0.167 C  
HETATM   18  O   UNK     1      -9.834   9.911  69.973  1.00  0.00    -0.241 OA 
HETATM   19  O   UNK     1      -9.106   8.814  68.117  1.00  0.00    -0.140 OA 
HETATM   20  H1  UNK     1     -12.464   9.563  69.659  1.00  0.00     0.000 HD 
HETATM   21  H2  UNK     1     -13.021  10.832  68.709  1.00  0.00     0.000 HD 
ENDBRANCH  14  15
ENDBRANCH  13  14
ENDBRANCH  10  13
ENDBRANCH   9  10
ENDBRANCH   8   9
ENDBRANCH   7   8
BRANCH   7  22
HETATM   22  C   UNK     1     -10.407  17.929  66.317  1.00  0.00    -0.364 C  
BRANCH  22  23
HETATM   23  O   UNK     1      -9.782  19.123  65.809  1.00  0.00    -0.428 OA 
BRANCH  23  24
HETATM   24  C   UNK     1      -9.101  19.853  66.735  1.00  0.00    -0.367 C  
HETATM   25  O   UNK     1      -9.547  20.193  67.817  1.00  0.00    -0.366 OA 
BRANCH  24  26
HETATM   26  C   UNK     1      -7.711  20.156  66.223  1.00  0.00    -0.291 C  
HETATM   27  C   UNK     1      -6.950  21.047  67.188  1.00  0.00    -0.411 C  
ENDBRANCH  24  26
ENDBRANCH  23  24
ENDBRANCH  22  23
ENDBRANCH   7  22
ENDBRANCH   6   7
ENDBRANCH   4   6
ENDBRANCH   3   4
ENDBRANCH   2   3
TORSDOF 14
ENDMDL
MODEL      206
REMARK 921   NORMALIZED FREE ENERGY PREDICTED BY IDOCK:   -4.02 KCAL/MOL
REMARK 922        TOTAL FREE ENERGY PREDICTED BY IDOCK:   -8.39 KCAL/MOL
REMARK 923 INTER-LIGAND FREE ENERGY PREDICTED BY IDOCK:   -7.50 KCAL/MOL
REMARK 924 INTRA-LIGAND FREE ENERGY PREDICTED BY IDOCK:   -0.90 KCAL/MOL
REMARK 927      BINDING AFFINITY PREDICTED BY RF-SCORE:    0.00 PKD
ROOT
HETATM    1  C   UNK     1      -8.542  10.055  64.555  1.00  0.00    -0.197 C  
HETATM    2  C   UNK     1      -8.321   9.695  66.017  1.00  0.00    -0.123 C  
ENDROOT
BRANCH   2   3
HETATM    3  C   UNK     1      -9.115  10.588  66.965  1.00  0.00    -0.156 C  
BRANCH   3   4
HETATM    4  C   UNK     1     -10.501  10.039  67.189  1.00  0.00    -0.244 C  
HETATM    5  O   UNK     1     -10.742   8.873  67.469  1.00  0.00    -0.258 OA 
BRANCH   4   6
HETATM    6  O   UNK     1     -11.431  11.007  67.004  1.00  0.00    -0.415 OA 
BRANCH   6   7
HETATM    7  C   UNK     1     -11.907  11.752  68.150  1.00  0.00    -0.254 C  
BRANCH   7   8
HETATM    8  C   UNK     1     -11.410  11.185  69.486  1.00  0.00    -0.290 C  
BRANCH   8   9
HETATM    9  O   UNK     1     -12.483  11.028  70.416  1.00  0.00    -0.314 OA 
BRANCH   9  10
HETATM   10  P   UNK     1     -12.230   9.748  71.553  1.00  0.00    -0.396 P  
HETATM   11  O   UNK     1     -13.699   9.104  71.234  1.00  0.00    -0.332 OA 
HETATM   12  O   UNK     1     -11.234   9.100  70.588  1.00  0.00    -0.250 OA 
BRANCH  10  13
HETATM   13  O   UNK     1     -11.977   8.469  72.690  1.00  0.00    -0.373 OA 
BRANCH  13  14
HETATM   14  C   UNK     1     -11.667   7.221  72.052  1.00  0.00    -0.292 C  
BRANCH  14  15
HETATM   15  C   UNK     1     -10.761   6.359  72.932  1.00  0.00    -0.249 C  
HETATM   16  N   UNK     1     -10.454   6.988  74.250  1.00  0.00    -0.528 NA 
HETATM   17  C   UNK     1      -9.451   6.139  72.179  1.00  0.00    -0.151 C  
HETATM   18  O   UNK     1      -8.482   6.987  72.615  1.00  0.00    -0.112 OA 
HETATM   19  O   UNK     1      -9.296   5.346  71.263  1.00  0.00    -0.144 OA 
HETATM   20  H1  UNK     1      -9.849   6.412  74.837  1.00  0.00     0.000 HD 
HETATM   21  H2  UNK     1     -11.312   7.234  74.744  1.00  0.00     0.000 HD 
ENDBRANCH  14  15
ENDBRANCH  13  14
ENDBRANCH  10  13
ENDBRANCH   9  10
ENDBRANCH   8   9
ENDBRANCH   7   8
BRANCH   7  22
HETATM   22  C   UNK     1     -11.596  13.255  68.020  1.00  0.00    -0.336 C  
BRANCH  22  23
HETATM   23  O   UNK     1     -10.891  13.548  66.800  1.00  0.00    -0.280 OA 
BRANCH  23  24
HETATM   24  C   UNK     1     -11.685  13.794  65.721  1.00  0.00    -0.349 C  
HETATM   25  O   UNK     1     -12.818  14.241  65.780  1.00  0.00    -0.460 OA 
BRANCH  24  26
HETATM   26  C   UNK     1     -10.942  13.448  64.451  1.00  0.00    -0.413 C  
HETATM   27  C   UNK     1     -11.623  12.315  63.705  1.00  0.00    -0.581 C  
ENDBRANCH  24  26
ENDBRANCH  23  24
ENDBRANCH  22  23
ENDBRANCH   7  22
ENDBRANCH   6   7
ENDBRANCH   4   6
ENDBRANCH   3   4
ENDBRANCH   2   3
TORSDOF 14
ENDMDL
MODEL      207
REMARK 921   NORMALIZED FREE ENERGY PREDICTED BY IDOCK:   -4.00 KCAL/MOL
REMARK 922        TOTAL FREE ENERGY PREDICTED BY IDOCK:   -8.36 KCAL/MOL
REMARK 923 INTER-LIGAND FREE ENERGY PREDICTED BY IDOCK:   -6.97 KCAL/MOL
REMARK 924 INTRA-LIGAND FREE ENERGY PREDICTED BY IDOCK:   -1.38 KCAL/MOL
REMARK 927      BINDING AFFINITY PREDICTED BY RF-SCORE:    0.00 PKD
ROOT
HETATM    1  C   UNK     1     -13.981  14.091  72.308  1.00  0.00    -0.651 C  
HETATM    2  C   UNK     1     -13.263  12.783  72.005  1.00  0.00    -0.538 C  
ENDROOT
BRANCH   2   3
HETATM    3  C   UNK     1     -12.500  12.827  70.686  1.00  0.00    -0.328 C  
BRANCH   3   4
HETATM    4  C   UNK     1     -12.384  11.451  70.083  1.00  0.00    -0.266 C  
HETATM    5  O   UNK     1     -12.503  10.411  70.716  1.00  0.00    -0.316 OA 
BRANCH   4   6
HETATM    6  O   UNK     1     -12.100  11.533  68.760  1.00  0.00    -0.439 OA 
BRANCH   6   7
HETATM    7  C   UNK     1     -10.791  11.995  68.350  1.00  0.00    -0.233 C  
BRANCH   7   8
HETATM    8  C   UNK     1      -9.857  10.856  67.921  1.00  0.00    -0.172 C  
BRANCH   8   9
HETATM    9  O   UNK     1      -8.766  10.707  68.829  1.00  0.00    -0.142 OA 
BRANCH   9  10
HETATM   10  P   UNK     1      -8.599   9.103  69.454  1.00  0.00    -0.154 P  
HETATM   11  O   UNK     1      -9.389   9.500  70.830  1.00  0.00    -0.229 OA 
HETATM   12  O   UNK     1      -9.651   8.615  68.456  1.00  0.00    -0.151 OA 
BRANCH  10  13
HETATM   13  O   UNK     1      -8.433   7.498  70.079  1.00  0.00    -0.134 OA 
BRANCH  13  14
HETATM   14  C   UNK     1      -9.147   7.311  71.310  1.00  0.00    -0.146 C  
BRANCH  14  15
HETATM   15  C   UNK     1     -10.019   6.055  71.260  1.00  0.00    -0.184 C  
HETATM   16  N   UNK     1      -9.469   4.996  70.364  1.00  0.00    -0.157 NA 
HETATM   17  C   UNK     1     -11.397   6.463  70.747  1.00  0.00    -0.350 C  
HETATM   18  O   UNK     1     -11.533   6.186  69.423  1.00  0.00    -0.423 OA 
HETATM   19  O   UNK     1     -12.256   7.018  71.415  1.00  0.00    -0.325 OA 
HETATM   20  H1  UNK     1     -10.050   4.158  70.331  1.00  0.00     0.000 HD 
HETATM   21  H2  UNK     1      -8.510   4.763  70.621  1.00  0.00     0.000 HD 
ENDBRANCH  14  15
ENDBRANCH  13  14
ENDBRANCH  10  13
ENDBRANCH   9  10
ENDBRANCH   8   9
ENDBRANCH   7   8
BRANCH   7  22
HETATM   22  C   UNK     1     -10.888  13.088  67.270  1.00  0.00    -0.252 C  
BRANCH  22  23
HETATM   23  O   UNK     1      -9.795  14.022  67.359  1.00  0.00    -0.233 OA 
BRANCH  23  24
HETATM   24  C   UNK     1     -10.163  15.329  67.464  1.00  0.00    -0.239 C  
HETATM   25  O   UNK     1      -9.562  16.263  66.961  1.00  0.00    -0.224 OA 
BRANCH  24  26
HETATM   26  C   UNK     1     -11.433  15.437  68.276  1.00  0.00    -0.362 C  
HETATM   27  C   UNK     1     -11.141  15.862  69.704  1.00  0.00    -0.320 C  
ENDBRANCH  24  26
ENDBRANCH  23  24
ENDBRANCH  22  23
ENDBRANCH   7  22
ENDBRANCH   6   7
ENDBRANCH   4   6
ENDBRANCH   3   4
ENDBRANCH   2   3
TORSDOF 14
ENDMDL
MODEL      208
REMARK 921   NORMALIZED FREE ENERGY PREDICTED BY IDOCK:   -3.99 KCAL/MOL
REMARK 922        TOTAL FREE ENERGY PREDICTED BY IDOCK:   -8.35 KCAL/MOL
REMARK 923 INTER-LIGAND FREE ENERGY PREDICTED BY IDOCK:   -7.25 KCAL/MOL
REMARK 924 INTRA-LIGAND FREE ENERGY PREDICTED BY IDOCK:   -1.10 KCAL/MOL
REMARK 927      BINDING AFFINITY PREDICTED BY RF-SCORE:    0.00 PKD
ROOT
HETATM    1  C   UNK     1     -10.010  17.353  68.627  1.00  0.00    -0.340 C  
HETATM    2  C   UNK     1     -10.897  16.834  67.504  1.00  0.00    -0.216 C  
ENDROOT
BRANCH   2   3
HETATM    3  C   UNK     1     -10.116  16.043  66.460  1.00  0.00    -0.297 C  
BRANCH   3   4
HETATM    4  C   UNK     1     -10.649  14.639  66.335  1.00  0.00    -0.301 C  
HETATM    5  O   UNK     1     -11.219  14.206  65.343  1.00  0.00    -0.309 OA 
BRANCH   4   6
HETATM    6  O   UNK     1     -10.436  13.946  67.480  1.00  0.00    -0.246 OA 
BRANCH   6   7
HETATM    7  C   UNK     1     -11.575  13.466  68.233  1.00  0.00    -0.344 C  
BRANCH   7   8
HETATM    8  C   UNK     1     -11.741  11.942  68.168  1.00  0.00    -0.320 C  
BRANCH   8   9
HETATM    9  O   UNK     1     -10.983  11.291  69.189  1.00  0.00    -0.215 OA 
BRANCH   9  10
HETATM   10  P   UNK     1      -9.973  10.018  68.595  1.00  0.00    -0.184 P  
HETATM   11  O   UNK     1      -8.734  10.479  69.557  1.00  0.00    -0.129 OA 
HETATM   12  O   UNK     1     -10.804   9.004  69.383  1.00  0.00    -0.217 OA 
BRANCH  10  13
HETATM   13  O   UNK     1      -8.964   8.744  68.000  1.00  0.00    -0.139 OA 
BRANCH  13  14
HETATM   14  C   UNK     1      -9.354   8.300  66.693  1.00  0.00    -0.192 C  
BRANCH  14  15
HETATM   15  C   UNK     1      -9.879   6.863  66.729  1.00  0.00    -0.181 C  
HETATM   16  N   UNK     1     -11.291   6.767  67.201  1.00  0.00    -0.755 NA 
HETATM   17  C   UNK     1      -8.990   6.066  67.681  1.00  0.00    -0.111 C  
HETATM   18  O   UNK     1      -9.567   5.938  68.905  1.00  0.00    -0.127 OA 
HETATM   19  O   UNK     1      -7.878   5.640  67.408  1.00  0.00    -0.099 OA 
HETATM   20  H1  UNK     1     -11.641   5.809  67.225  1.00  0.00     0.000 HD 
HETATM   21  H2  UNK     1     -11.902   7.364  66.643  1.00  0.00     0.000 HD 
ENDBRANCH  14  15
ENDBRANCH  13  14
ENDBRANCH  10  13
ENDBRANCH   9  10
ENDBRANCH   8   9
ENDBRANCH   7   8
BRANCH   7  22
HETATM   22  C   UNK     1     -11.549  13.973  69.687  1.00  0.00    -0.289 C  
BRANCH  22  23
HETATM   23  O   UNK     1     -12.879  14.171  70.204  1.00  0.00    -0.267 OA 
BRANCH  23  24
HETATM   24  C   UNK     1     -13.001  14.010  71.551  1.00  0.00    -0.351 C  
HETATM   25  O   UNK     1     -13.700  13.168  72.089  1.00  0.00    -0.510 OA 
BRANCH  24  26
HETATM   26  C   UNK     1     -12.129  15.015  72.266  1.00  0.00    -0.446 C  
HETATM   27  C   UNK     1     -12.468  15.088  73.744  1.00  0.00    -0.665 C  
ENDBRANCH  24  26
ENDBRANCH  23  24
ENDBRANCH  22  23
ENDBRANCH   7  22
ENDBRANCH   6   7
ENDBRANCH   4   6
ENDBRANCH   3   4
ENDBRANCH   2   3
TORSDOF 14
ENDMDL
MODEL      209
REMARK 921   NORMALIZED FREE ENERGY PREDICTED BY IDOCK:   -3.98 KCAL/MOL
REMARK 922        TOTAL FREE ENERGY PREDICTED BY IDOCK:   -8.33 KCAL/MOL
REMARK 923 INTER-LIGAND FREE ENERGY PREDICTED BY IDOCK:   -7.67 KCAL/MOL
REMARK 924 INTRA-LIGAND FREE ENERGY PREDICTED BY IDOCK:   -0.65 KCAL/MOL
REMARK 927      BINDING AFFINITY PREDICTED BY RF-SCORE:    0.00 PKD
ROOT
HETATM    1  C   UNK     1      -5.999  15.011  67.842  1.00  0.00    -0.163 C  
HETATM    2  C   UNK     1      -7.064  14.160  68.518  1.00  0.00    -0.103 C  
ENDROOT
BRANCH   2   3
HETATM    3  C   UNK     1      -8.425  14.849  68.557  1.00  0.00    -0.163 C  
BRANCH   3   4
HETATM    4  C   UNK     1      -9.285  14.412  67.399  1.00  0.00    -0.198 C  
HETATM    5  O   UNK     1     -10.126  15.120  66.862  1.00  0.00    -0.249 OA 
BRANCH   4   6
HETATM    6  O   UNK     1      -9.016  13.127  67.066  1.00  0.00    -0.219 OA 
BRANCH   6   7
HETATM    7  C   UNK     1     -10.000  12.106  67.354  1.00  0.00    -0.199 C  
BRANCH   7   8
HETATM    8  C   UNK     1     -10.991  12.516  68.452  1.00  0.00    -0.248 C  
BRANCH   8   9
HETATM    9  O   UNK     1     -12.085  11.602  68.534  1.00  0.00    -0.491 OA 
BRANCH   9  10
HETATM   10  P   UNK     1     -12.426  11.075  70.147  1.00  0.00    -0.154 P  
HETATM   11  O   UNK     1     -10.903  10.512  70.341  1.00  0.00    -0.263 OA 
HETATM   12  O   UNK     1     -12.430  12.533  70.612  1.00  0.00    -0.319 OA 
BRANCH  10  13
HETATM   13  O   UNK     1     -12.767  10.548  71.759  1.00  0.00    -0.420 OA 
BRANCH  13  14
HETATM   14  C   UNK     1     -12.229   9.247  72.036  1.00  0.00    -0.348 C  
BRANCH  14  15
HETATM   15  C   UNK     1     -13.119   8.145  71.457  1.00  0.00    -0.287 C  
HETATM   16  N   UNK     1     -14.232   7.751  72.369  1.00  0.00    -0.585 NA 
HETATM   17  C   UNK     1     -12.240   6.923  71.202  1.00  0.00    -0.379 C  
HETATM   18  O   UNK     1     -12.360   6.011  72.204  1.00  0.00    -0.254 OA 
HETATM   19  O   UNK     1     -11.481   6.792  70.254  1.00  0.00    -0.326 OA 
HETATM   20  H1  UNK     1     -14.825   7.016  71.983  1.00  0.00     0.000 HD 
HETATM   21  H2  UNK     1     -14.788   8.564  72.636  1.00  0.00     0.000 HD 
ENDBRANCH  14  15
ENDBRANCH  13  14
ENDBRANCH  10  13
ENDBRANCH   9  10
ENDBRANCH   8   9
ENDBRANCH   7   8
BRANCH   7  22
HETATM   22  C   UNK     1     -10.727  11.641  66.078  1.00  0.00    -0.280 C  
BRANCH  22  23
HETATM   23  O   UNK     1     -10.060  12.102  64.889  1.00  0.00    -0.266 OA 
BRANCH  23  24
HETATM   24  C   UNK     1     -10.562  11.612  63.721  1.00  0.00    -0.416 C  
HETATM   25  O   UNK     1      -9.920  10.983  62.898  1.00  0.00    -0.299 OA 
BRANCH  24  26
HETATM   26  C   UNK     1     -12.032  11.949  63.618  1.00  0.00    -0.578 C  
HETATM   27  C   UNK     1     -12.245  13.444  63.460  1.00  0.00    -0.468 C  
ENDBRANCH  24  26
ENDBRANCH  23  24
ENDBRANCH  22  23
ENDBRANCH   7  22
ENDBRANCH   6   7
ENDBRANCH   4   6
ENDBRANCH   3   4
ENDBRANCH   2   3
TORSDOF 14
ENDMDL
MODEL      210
REMARK 921   NORMALIZED FREE ENERGY PREDICTED BY IDOCK:   -3.98 KCAL/MOL
REMARK 922        TOTAL FREE ENERGY PREDICTED BY IDOCK:   -8.32 KCAL/MOL
REMARK 923 INTER-LIGAND FREE ENERGY PREDICTED BY IDOCK:   -7.41 KCAL/MOL
REMARK 924 INTRA-LIGAND FREE ENERGY PREDICTED BY IDOCK:   -0.91 KCAL/MOL
REMARK 927      BINDING AFFINITY PREDICTED BY RF-SCORE:    0.00 PKD
ROOT
HETATM    1  C   UNK     1     -13.385   7.287  71.453  1.00  0.00    -0.399 C  
HETATM    2  C   UNK     1     -14.197   8.573  71.514  1.00  0.00    -0.448 C  
ENDROOT
BRANCH   2   3
HETATM    3  C   UNK     1     -13.392   9.748  72.061  1.00  0.00    -0.547 C  
BRANCH   3   4
HETATM    4  C   UNK     1     -12.249  10.093  71.142  1.00  0.00    -0.389 C  
HETATM    5  O   UNK     1     -11.088   9.756  71.333  1.00  0.00    -0.359 OA 
BRANCH   4   6
HETATM    6  O   UNK     1     -12.684  10.849  70.106  1.00  0.00    -0.278 OA 
BRANCH   6   7
HETATM    7  C   UNK     1     -11.771  11.788  69.489  1.00  0.00    -0.343 C  
BRANCH   7   8
HETATM    8  C   UNK     1     -11.508  11.488  68.007  1.00  0.00    -0.311 C  
BRANCH   8   9
HETATM    9  O   UNK     1     -10.112  11.354  67.743  1.00  0.00    -0.176 OA 
BRANCH   9  10
HETATM   10  P   UNK     1      -9.371  12.812  67.180  1.00  0.00    -0.229 P  
HETATM   11  O   UNK     1      -8.612  13.042  68.611  1.00  0.00    -0.089 OA 
HETATM   12  O   UNK     1      -8.432  11.985  66.300  1.00  0.00    -0.066 OA 
BRANCH  10  13
HETATM   13  O   UNK     1      -8.630  14.271  66.618  1.00  0.00    -0.141 OA 
BRANCH  13  14
HETATM   14  C   UNK     1      -8.107  15.070  67.689  1.00  0.00    -0.169 C  
BRANCH  14  15
HETATM   15  C   UNK     1      -8.480  16.544  67.515  1.00  0.00    -0.176 C  
HETATM   16  N   UNK     1      -8.428  16.997  66.095  1.00  0.00    -0.466 NA 
HETATM   17  C   UNK     1      -7.492  17.374  68.330  1.00  0.00    -0.234 C  
HETATM   18  O   UNK     1      -6.512  17.889  67.541  1.00  0.00    -0.163 OA 
HETATM   19  O   UNK     1      -7.533  17.519  69.542  1.00  0.00     0.025 OA 
HETATM   20  H1  UNK     1      -8.677  17.980  65.979  1.00  0.00     0.000 HD 
HETATM   21  H2  UNK     1      -9.008  16.403  65.502  1.00  0.00     0.000 HD 
ENDBRANCH  14  15
ENDBRANCH  13  14
ENDBRANCH  10  13
ENDBRANCH   9  10
ENDBRANCH   8   9
ENDBRANCH   7   8
BRANCH   7  22
HETATM   22  C   UNK     1     -12.224  13.244  69.702  1.00  0.00    -0.199 C  
BRANCH  22  23
HETATM   23  O   UNK     1     -11.871  13.725  71.012  1.00  0.00    -0.226 OA 
BRANCH  23  24
HETATM   24  C   UNK     1     -12.620  14.770  71.463  1.00  0.00    -0.333 C  
HETATM   25  O   UNK     1     -12.905  15.756  70.804  1.00  0.00    -0.457 OA 
BRANCH  24  26
HETATM   26  C   UNK     1     -13.057  14.508  72.885  1.00  0.00    -0.614 C  
HETATM   27  C   UNK     1     -12.073  15.096  73.881  1.00  0.00    -0.626 C  
ENDBRANCH  24  26
ENDBRANCH  23  24
ENDBRANCH  22  23
ENDBRANCH   7  22
ENDBRANCH   6   7
ENDBRANCH   4   6
ENDBRANCH   3   4
ENDBRANCH   2   3
TORSDOF 14
ENDMDL
MODEL      211
REMARK 921   NORMALIZED FREE ENERGY PREDICTED BY IDOCK:   -3.97 KCAL/MOL
REMARK 922        TOTAL FREE ENERGY PREDICTED BY IDOCK:   -8.31 KCAL/MOL
REMARK 923 INTER-LIGAND FREE ENERGY PREDICTED BY IDOCK:   -7.12 KCAL/MOL
REMARK 924 INTRA-LIGAND FREE ENERGY PREDICTED BY IDOCK:   -1.18 KCAL/MOL
REMARK 927      BINDING AFFINITY PREDICTED BY RF-SCORE:    0.00 PKD
ROOT
HETATM    1  C   UNK     1     -10.331   8.445  72.237  1.00  0.00    -0.403 C  
HETATM    2  C   UNK     1      -9.386   8.039  71.115  1.00  0.00    -0.176 C  
ENDROOT
BRANCH   2   3
HETATM    3  C   UNK     1      -9.981   8.288  69.732  1.00  0.00    -0.191 C  
BRANCH   3   4
HETATM    4  C   UNK     1      -9.010   9.033  68.853  1.00  0.00    -0.140 C  
HETATM    5  O   UNK     1      -7.933   8.584  68.483  1.00  0.00    -0.113 OA 
BRANCH   4   6
HETATM    6  O   UNK     1      -9.484  10.268  68.561  1.00  0.00    -0.148 OA 
BRANCH   6   7
HETATM    7  C   UNK     1     -10.579  10.398  67.624  1.00  0.00    -0.257 C  
BRANCH   7   8
HETATM    8  C   UNK     1     -11.162  11.816  67.570  1.00  0.00    -0.291 C  
BRANCH   8   9
HETATM    9  O   UNK     1     -11.577  12.258  68.863  1.00  0.00    -0.269 OA 
BRANCH   9  10
HETATM   10  P   UNK     1     -11.830  13.967  68.962  1.00  0.00    -0.358 P  
HETATM   11  O   UNK     1     -10.223  14.251  69.073  1.00  0.00    -0.220 OA 
HETATM   12  O   UNK     1     -12.190  13.990  67.475  1.00  0.00    -0.366 OA 
BRANCH  10  13
HETATM   13  O   UNK     1     -12.083  15.675  69.060  1.00  0.00    -0.337 OA 
BRANCH  13  14
HETATM   14  C   UNK     1     -10.851  16.410  69.122  1.00  0.00    -0.329 C  
BRANCH  14  15
HETATM   15  C   UNK     1     -10.693  17.330  67.910  1.00  0.00    -0.351 C  
HETATM   16  N   UNK     1     -10.396  16.591  66.648  1.00  0.00    -0.299 NA 
HETATM   17  C   UNK     1      -9.540  18.288  68.199  1.00  0.00    -0.304 C  
HETATM   18  O   UNK     1      -8.393  17.875  67.597  1.00  0.00    -0.229 OA 
HETATM   19  O   UNK     1      -9.611  19.270  68.921  1.00  0.00    -0.396 OA 
HETATM   20  H1  UNK     1     -10.291  17.205  65.840  1.00  0.00     0.000 HD 
HETATM   21  H2  UNK     1     -11.101  15.875  66.472  1.00  0.00     0.000 HD 
ENDBRANCH  14  15
ENDBRANCH  13  14
ENDBRANCH  10  13
ENDBRANCH   9  10
ENDBRANCH   8   9
ENDBRANCH   7   8
BRANCH   7  22
HETATM   22  C   UNK     1     -10.191   9.890  66.223  1.00  0.00    -0.211 C  
BRANCH  22  23
HETATM   23  O   UNK     1     -10.716  10.739  65.186  1.00  0.00    -0.215 OA 
BRANCH  23  24
HETATM   24  C   UNK     1     -10.018  10.716  64.016  1.00  0.00    -0.337 C  
HETATM   25  O   UNK     1      -9.389   9.758  63.601  1.00  0.00    -0.253 OA 
BRANCH  24  26
HETATM   26  C   UNK     1     -10.162  12.045  63.311  1.00  0.00    -0.398 C  
HETATM   27  C   UNK     1     -11.425  12.766  63.745  1.00  0.00    -0.533 C  
ENDBRANCH  24  26
ENDBRANCH  23  24
ENDBRANCH  22  23
ENDBRANCH   7  22
ENDBRANCH   6   7
ENDBRANCH   4   6
ENDBRANCH   3   4
ENDBRANCH   2   3
TORSDOF 14
ENDMDL
MODEL      212
REMARK 921   NORMALIZED FREE ENERGY PREDICTED BY IDOCK:   -3.96 KCAL/MOL
REMARK 922        TOTAL FREE ENERGY PREDICTED BY IDOCK:   -8.29 KCAL/MOL
REMARK 923 INTER-LIGAND FREE ENERGY PREDICTED BY IDOCK:   -7.18 KCAL/MOL
REMARK 924 INTRA-LIGAND FREE ENERGY PREDICTED BY IDOCK:   -1.11 KCAL/MOL
REMARK 927      BINDING AFFINITY PREDICTED BY RF-SCORE:    0.00 PKD
ROOT
HETATM    1  C   UNK     1     -11.980  13.337  63.523  1.00  0.00    -0.537 C  
HETATM    2  C   UNK     1     -11.899  11.846  63.820  1.00  0.00    -0.558 C  
ENDROOT
BRANCH   2   3
HETATM    3  C   UNK     1     -10.509  11.274  63.561  1.00  0.00    -0.457 C  
BRANCH   3   4
HETATM    4  C   UNK     1     -10.065  10.396  64.702  1.00  0.00    -0.308 C  
HETATM    5  O   UNK     1      -9.342   9.417  64.576  1.00  0.00    -0.189 OA 
BRANCH   4   6
HETATM    6  O   UNK     1     -10.603  10.825  65.869  1.00  0.00    -0.225 OA 
BRANCH   6   7
HETATM    7  C   UNK     1      -9.731  11.066  66.999  1.00  0.00    -0.182 C  
BRANCH   7   8
HETATM    8  C   UNK     1      -9.262  12.524  67.098  1.00  0.00    -0.205 C  
BRANCH   8   9
HETATM    9  O   UNK     1     -10.099  13.282  67.972  1.00  0.00    -0.222 OA 
BRANCH   9  10
HETATM   10  P   UNK     1     -10.409  14.889  67.411  1.00  0.00    -0.248 P  
HETATM   11  O   UNK     1      -9.762  14.559  65.946  1.00  0.00    -0.311 OA 
HETATM   12  O   UNK     1     -11.902  14.563  67.329  1.00  0.00    -0.394 OA 
BRANCH  10  13
HETATM   13  O   UNK     1     -10.719  16.496  66.851  1.00  0.00    -0.279 OA 
BRANCH  13  14
HETATM   14  C   UNK     1     -10.088  17.493  67.667  1.00  0.00    -0.328 C  
BRANCH  14  15
HETATM   15  C   UNK     1      -9.045  18.282  66.873  1.00  0.00    -0.282 C  
HETATM   16  N   UNK     1      -8.422  17.488  65.774  1.00  0.00    -0.489 NA 
HETATM   17  C   UNK     1      -7.951  18.718  67.844  1.00  0.00    -0.259 C  
HETATM   18  O   UNK     1      -6.871  17.894  67.772  1.00  0.00    -0.185 OA 
HETATM   19  O   UNK     1      -8.041  19.650  68.627  1.00  0.00    -0.342 OA 
HETATM   20  H1  UNK     1      -7.727  18.014  65.245  1.00  0.00     0.000 HD 
HETATM   21  H2  UNK     1      -9.135  17.101  65.155  1.00  0.00     0.000 HD 
ENDBRANCH  14  15
ENDBRANCH  13  14
ENDBRANCH  10  13
ENDBRANCH   9  10
ENDBRANCH   8   9
ENDBRANCH   7   8
BRANCH   7  22
HETATM   22  C   UNK     1     -10.361  10.581  68.317  1.00  0.00    -0.168 C  
BRANCH  22  23
HETATM   23  O   UNK     1     -10.295   9.148  68.443  1.00  0.00    -0.195 OA 
BRANCH  23  24
HETATM   24  C   UNK     1     -10.563   8.667  69.688  1.00  0.00    -0.218 C  
HETATM   25  O   UNK     1     -10.375   9.281  70.725  1.00  0.00    -0.236 OA 
BRANCH  24  26
HETATM   26  C   UNK     1     -11.143   7.276  69.584  1.00  0.00    -0.161 C  
HETATM   27  C   UNK     1     -10.095   6.273  69.135  1.00  0.00    -0.204 C  
ENDBRANCH  24  26
ENDBRANCH  23  24
ENDBRANCH  22  23
ENDBRANCH   7  22
ENDBRANCH   6   7
ENDBRANCH   4   6
ENDBRANCH   3   4
ENDBRANCH   2   3
TORSDOF 14
ENDMDL
MODEL      213
REMARK 921   NORMALIZED FREE ENERGY PREDICTED BY IDOCK:   -3.95 KCAL/MOL
REMARK 922        TOTAL FREE ENERGY PREDICTED BY IDOCK:   -8.28 KCAL/MOL
REMARK 923 INTER-LIGAND FREE ENERGY PREDICTED BY IDOCK:   -6.99 KCAL/MOL
REMARK 924 INTRA-LIGAND FREE ENERGY PREDICTED BY IDOCK:   -1.29 KCAL/MOL
REMARK 927      BINDING AFFINITY PREDICTED BY RF-SCORE:    0.00 PKD
ROOT
HETATM    1  C   UNK     1      -6.769  15.677  69.672  1.00  0.00    -0.178 C  
HETATM    2  C   UNK     1      -6.711  14.303  69.018  1.00  0.00    -0.106 C  
ENDROOT
BRANCH   2   3
HETATM    3  C   UNK     1      -8.047  13.890  68.408  1.00  0.00    -0.145 C  
BRANCH   3   4
HETATM    4  C   UNK     1      -8.102  12.400  68.189  1.00  0.00    -0.163 C  
HETATM    5  O   UNK     1      -7.727  11.571  69.007  1.00  0.00    -0.113 OA 
BRANCH   4   6
HETATM    6  O   UNK     1      -8.593  12.118  66.958  1.00  0.00    -0.180 OA 
BRANCH   6   7
HETATM    7  C   UNK     1     -10.026  12.115  66.756  1.00  0.00    -0.203 C  
BRANCH   7   8
HETATM    8  C   UNK     1     -10.493  13.165  65.740  1.00  0.00    -0.283 C  
BRANCH   8   9
HETATM    9  O   UNK     1     -11.266  14.189  66.367  1.00  0.00    -0.315 OA 
BRANCH   9  10
HETATM   10  P   UNK     1     -10.935  15.775  65.760  1.00  0.00    -0.081 P  
HETATM   11  O   UNK     1      -9.341  15.442  65.609  1.00  0.00    -0.296 OA 
HETATM   12  O   UNK     1     -11.602  15.398  64.436  1.00  0.00    -0.376 OA 
BRANCH  10  13
HETATM   13  O   UNK     1     -10.604  17.361  65.153  1.00  0.00    -0.681 OA 
BRANCH  13  14
HETATM   14  C   UNK     1     -10.519  18.342  66.198  1.00  0.00    -0.395 C  
BRANCH  14  15
HETATM   15  C   UNK     1      -9.236  19.167  66.081  1.00  0.00    -0.229 C  
HETATM   16  N   UNK     1      -8.007  18.327  65.978  1.00  0.00    -0.498 NA 
HETATM   17  C   UNK     1      -9.128  20.041  67.328  1.00  0.00    -0.356 C  
HETATM   18  O   UNK     1      -8.280  19.496  68.241  1.00  0.00    -0.321 OA 
HETATM   19  O   UNK     1      -9.758  21.069  67.518  1.00  0.00    -0.385 OA 
HETATM   20  H1  UNK     1      -7.151  18.877  65.900  1.00  0.00     0.000 HD 
HETATM   21  H2  UNK     1      -8.084  17.663  65.207  1.00  0.00     0.000 HD 
ENDBRANCH  14  15
ENDBRANCH  13  14
ENDBRANCH  10  13
ENDBRANCH   9  10
ENDBRANCH   8   9
ENDBRANCH   7   8
BRANCH   7  22
HETATM   22  C   UNK     1     -10.547  10.710  66.401  1.00  0.00    -0.175 C  
BRANCH  22  23
HETATM   23  O   UNK     1     -11.012  10.005  67.567  1.00  0.00    -0.288 OA 
BRANCH  23  24
HETATM   24  C   UNK     1     -10.273   8.914  67.912  1.00  0.00    -0.222 C  
HETATM   25  O   UNK     1      -9.777   8.729  69.010  1.00  0.00    -0.166 OA 
BRANCH  24  26
HETATM   26  C   UNK     1     -10.184   7.968  66.737  1.00  0.00    -0.367 C  
HETATM   27  C   UNK     1     -10.830   6.631  67.055  1.00  0.00    -0.467 C  
ENDBRANCH  24  26
ENDBRANCH  23  24
ENDBRANCH  22  23
ENDBRANCH   7  22
ENDBRANCH   6   7
ENDBRANCH   4   6
ENDBRANCH   3   4
ENDBRANCH   2   3
TORSDOF 14
ENDMDL
MODEL      214
REMARK 921   NORMALIZED FREE ENERGY PREDICTED BY IDOCK:   -3.95 KCAL/MOL
REMARK 922        TOTAL FREE ENERGY PREDICTED BY IDOCK:   -8.27 KCAL/MOL
REMARK 923 INTER-LIGAND FREE ENERGY PREDICTED BY IDOCK:   -6.87 KCAL/MOL
REMARK 924 INTRA-LIGAND FREE ENERGY PREDICTED BY IDOCK:   -1.40 KCAL/MOL
REMARK 927      BINDING AFFINITY PREDICTED BY RF-SCORE:    0.00 PKD
ROOT
HETATM    1  C   UNK     1      -5.484  12.904  70.199  1.00  0.00    -0.124 C  
HETATM    2  C   UNK     1      -6.516  11.917  69.670  1.00  0.00    -0.101 C  
ENDROOT
BRANCH   2   3
HETATM    3  C   UNK     1      -6.357  11.649  68.177  1.00  0.00    -0.050 C  
BRANCH   3   4
HETATM    4  C   UNK     1      -7.549  12.157  67.408  1.00  0.00    -0.155 C  
HETATM    5  O   UNK     1      -7.914  13.325  67.398  1.00  0.00    -0.171 OA 
BRANCH   4   6
HETATM    6  O   UNK     1      -8.169  11.139  66.764  1.00  0.00    -0.142 OA 
BRANCH   6   7
HETATM    7  C   UNK     1      -9.554  10.852  67.071  1.00  0.00    -0.173 C  
BRANCH   7   8
HETATM    8  C   UNK     1     -10.410  10.608  65.821  1.00  0.00    -0.219 C  
BRANCH   8   9
HETATM    9  O   UNK     1     -10.422  11.752  64.967  1.00  0.00    -0.261 OA 
BRANCH   9  10
HETATM   10  P   UNK     1     -11.218  13.124  65.659  1.00  0.00    -0.298 P  
HETATM   11  O   UNK     1     -11.450  13.799  64.188  1.00  0.00    -0.364 OA 
HETATM   12  O   UNK     1     -12.441  12.254  65.954  1.00  0.00    -0.535 OA 
BRANCH  10  13
HETATM   13  O   UNK     1     -12.013  14.496  66.352  1.00  0.00    -0.392 OA 
BRANCH  13  14
HETATM   14  C   UNK     1     -11.164  15.228  67.248  1.00  0.00    -0.306 C  
BRANCH  14  15
HETATM   15  C   UNK     1     -11.159  14.601  68.644  1.00  0.00    -0.262 C  
HETATM   16  N   UNK     1     -12.523  14.488  69.239  1.00  0.00    -0.570 NA 
HETATM   17  C   UNK     1     -10.303  15.484  69.548  1.00  0.00    -0.271 C  
HETATM   18  O   UNK     1     -11.073  16.312  70.303  1.00  0.00    -0.357 OA 
HETATM   19  O   UNK     1      -9.082  15.494  69.562  1.00  0.00    -0.273 OA 
HETATM   20  H1  UNK     1     -12.519  14.070  70.170  1.00  0.00     0.000 HD 
HETATM   21  H2  UNK     1     -13.151  13.981  68.615  1.00  0.00     0.000 HD 
ENDBRANCH  14  15
ENDBRANCH  13  14
ENDBRANCH  10  13
ENDBRANCH   9  10
ENDBRANCH   8   9
ENDBRANCH   7   8
BRANCH   7  22
HETATM   22  C   UNK     1      -9.685   9.699  68.083  1.00  0.00    -0.146 C  
BRANCH  22  23
HETATM   23  O   UNK     1      -9.881  10.188  69.423  1.00  0.00    -0.206 OA 
BRANCH  23  24
HETATM   24  C   UNK     1     -10.974   9.688  70.063  1.00  0.00    -0.260 C  
HETATM   25  O   UNK     1     -11.257   8.503  70.133  1.00  0.00    -0.232 OA 
BRANCH  24  26
HETATM   26  C   UNK     1     -11.763  10.817  70.684  1.00  0.00    -0.442 C  
HETATM   27  C   UNK     1     -12.961  10.294  71.456  1.00  0.00    -0.556 C  
ENDBRANCH  24  26
ENDBRANCH  23  24
ENDBRANCH  22  23
ENDBRANCH   7  22
ENDBRANCH   6   7
ENDBRANCH   4   6
ENDBRANCH   3   4
ENDBRANCH   2   3
TORSDOF 14
ENDMDL
MODEL      215
REMARK 921   NORMALIZED FREE ENERGY PREDICTED BY IDOCK:   -3.95 KCAL/MOL
REMARK 922        TOTAL FREE ENERGY PREDICTED BY IDOCK:   -8.27 KCAL/MOL
REMARK 923 INTER-LIGAND FREE ENERGY PREDICTED BY IDOCK:   -7.28 KCAL/MOL
REMARK 924 INTRA-LIGAND FREE ENERGY PREDICTED BY IDOCK:   -0.99 KCAL/MOL
REMARK 927      BINDING AFFINITY PREDICTED BY RF-SCORE:    0.00 PKD
ROOT
HETATM    1  C   UNK     1      -7.127  10.493  66.088  1.00  0.00    -0.135 C  
HETATM    2  C   UNK     1      -8.476   9.817  66.288  1.00  0.00    -0.129 C  
ENDROOT
BRANCH   2   3
HETATM    3  C   UNK     1      -9.535  10.774  66.826  1.00  0.00    -0.198 C  
BRANCH   3   4
HETATM    4  C   UNK     1     -10.732  10.020  67.344  1.00  0.00    -0.274 C  
HETATM    5  O   UNK     1     -10.836   8.801  67.328  1.00  0.00    -0.214 OA 
BRANCH   4   6
HETATM    6  O   UNK     1     -11.678  10.879  67.795  1.00  0.00    -0.569 OA 
BRANCH   6   7
HETATM    7  C   UNK     1     -11.291  11.933  68.708  1.00  0.00    -0.274 C  
BRANCH   7   8
HETATM    8  C   UNK     1     -11.671  13.333  68.208  1.00  0.00    -0.353 C  
BRANCH   8   9
HETATM    9  O   UNK     1     -10.962  14.350  68.917  1.00  0.00    -0.238 OA 
BRANCH   9  10
HETATM   10  P   UNK     1     -10.244  15.539  67.886  1.00  0.00    -0.245 P  
HETATM   11  O   UNK     1     -10.724  14.741  66.542  1.00  0.00    -0.306 OA 
HETATM   12  O   UNK     1     -11.361  16.518  68.253  1.00  0.00    -0.331 OA 
BRANCH  10  13
HETATM   13  O   UNK     1      -9.526  16.729  66.855  1.00  0.00    -0.228 OA 
BRANCH  13  14
HETATM   14  C   UNK     1      -9.042  17.867  67.584  1.00  0.00    -0.250 C  
BRANCH  14  15
HETATM   15  C   UNK     1      -7.664  18.303  67.082  1.00  0.00    -0.221 C  
HETATM   16  N   UNK     1      -7.539  18.250  65.596  1.00  0.00    -0.529 NA 
HETATM   17  C   UNK     1      -6.627  17.364  67.694  1.00  0.00    -0.153 C  
HETATM   18  O   UNK     1      -6.256  16.397  66.813  1.00  0.00    -0.301 OA 
HETATM   19  O   UNK     1      -6.217  17.429  68.842  1.00  0.00    -0.180 OA 
HETATM   20  H1  UNK     1      -6.620  18.541  65.261  1.00  0.00     0.000 HD 
HETATM   21  H2  UNK     1      -8.277  18.794  65.149  1.00  0.00     0.000 HD 
ENDBRANCH  14  15
ENDBRANCH  13  14
ENDBRANCH  10  13
ENDBRANCH   9  10
ENDBRANCH   8   9
ENDBRANCH   7   8
BRANCH   7  22
HETATM   22  C   UNK     1     -11.821  11.675  70.131  1.00  0.00    -0.344 C  
BRANCH  22  23
HETATM   23  O   UNK     1     -12.402  10.364  70.252  1.00  0.00    -0.287 OA 
BRANCH  23  24
HETATM   24  C   UNK     1     -11.707   9.498  71.041  1.00  0.00    -0.343 C  
HETATM   25  O   UNK     1     -10.553   9.154  70.848  1.00  0.00    -0.228 OA 
BRANCH  24  26
HETATM   26  C   UNK     1     -12.575   9.050  72.194  1.00  0.00    -0.461 C  
HETATM   27  C   UNK     1     -13.947   8.612  71.714  1.00  0.00    -0.492 C  
ENDBRANCH  24  26
ENDBRANCH  23  24
ENDBRANCH  22  23
ENDBRANCH   7  22
ENDBRANCH   6   7
ENDBRANCH   4   6
ENDBRANCH   3   4
ENDBRANCH   2   3
TORSDOF 14
ENDMDL
MODEL      216
REMARK 921   NORMALIZED FREE ENERGY PREDICTED BY IDOCK:   -3.95 KCAL/MOL
REMARK 922        TOTAL FREE ENERGY PREDICTED BY IDOCK:   -8.27 KCAL/MOL
REMARK 923 INTER-LIGAND FREE ENERGY PREDICTED BY IDOCK:   -7.34 KCAL/MOL
REMARK 924 INTRA-LIGAND FREE ENERGY PREDICTED BY IDOCK:   -0.93 KCAL/MOL
REMARK 927      BINDING AFFINITY PREDICTED BY RF-SCORE:    0.00 PKD
ROOT
HETATM    1  C   UNK     1      -7.632   6.327  70.023  1.00  0.00    -0.096 C  
HETATM    2  C   UNK     1      -8.779   6.292  71.024  1.00  0.00    -0.136 C  
ENDROOT
BRANCH   2   3
HETATM    3  C   UNK     1      -8.716   7.443  72.024  1.00  0.00    -0.125 C  
BRANCH   3   4
HETATM    4  C   UNK     1      -9.000   8.760  71.350  1.00  0.00    -0.238 C  
HETATM    5  O   UNK     1      -8.140   9.492  70.881  1.00  0.00    -0.297 OA 
BRANCH   4   6
HETATM    6  O   UNK     1     -10.329   9.026  71.369  1.00  0.00    -0.271 OA 
BRANCH   6   7
HETATM    7  C   UNK     1     -10.984   9.419  70.139  1.00  0.00    -0.246 C  
BRANCH   7   8
HETATM    8  C   UNK     1     -11.218  10.932  70.038  1.00  0.00    -0.263 C  
BRANCH   8   9
HETATM    9  O   UNK     1     -10.383  11.522  69.042  1.00  0.00    -0.194 OA 
BRANCH   9  10
HETATM   10  P   UNK     1     -11.197  12.692  68.061  1.00  0.00    -0.311 P  
HETATM   11  O   UNK     1      -9.946  12.760  67.010  1.00  0.00    -0.225 OA 
HETATM   12  O   UNK     1     -12.146  11.601  67.563  1.00  0.00    -0.611 OA 
BRANCH  10  13
HETATM   13  O   UNK     1     -12.011  13.862  67.081  1.00  0.00    -0.392 OA 
BRANCH  13  14
HETATM   14  C   UNK     1     -11.262  14.213  65.908  1.00  0.00    -0.313 C  
BRANCH  14  15
HETATM   15  C   UNK     1     -11.262  15.726  65.682  1.00  0.00    -0.055 C  
HETATM   16  N   UNK     1     -11.083  16.104  64.249  1.00  0.00    -1.134 NA 
HETATM   17  C   UNK     1     -10.110  16.318  66.491  1.00  0.00    -0.291 C  
HETATM   18  O   UNK     1      -9.024  16.551  65.707  1.00  0.00    -0.481 OA 
HETATM   19  O   UNK     1     -10.129  16.510  67.697  1.00  0.00    -0.253 OA 
HETATM   20  H1  UNK     1     -11.083  17.113  64.099  1.00  0.00     0.000 HD 
HETATM   21  H2  UNK     1     -11.783  15.649  63.664  1.00  0.00     0.000 HD 
ENDBRANCH  14  15
ENDBRANCH  13  14
ENDBRANCH  10  13
ENDBRANCH   9  10
ENDBRANCH   8   9
ENDBRANCH   7   8
BRANCH   7  22
HETATM   22  C   UNK     1     -10.246   8.874  68.903  1.00  0.00    -0.206 C  
BRANCH  22  23
HETATM   23  O   UNK     1     -10.899   7.710  68.363  1.00  0.00    -0.098 OA 
BRANCH  23  24
HETATM   24  C   UNK     1     -10.525   7.376  67.097  1.00  0.00    -0.333 C  
HETATM   25  O   UNK     1      -9.951   8.122  66.322  1.00  0.00    -0.207 OA 
BRANCH  24  26
HETATM   26  C   UNK     1     -10.910   5.942  66.813  1.00  0.00    -0.347 C  
HETATM   27  C   UNK     1      -9.922   4.972  67.437  1.00  0.00    -0.214 C  
ENDBRANCH  24  26
ENDBRANCH  23  24
ENDBRANCH  22  23
ENDBRANCH   7  22
ENDBRANCH   6   7
ENDBRANCH   4   6
ENDBRANCH   3   4
ENDBRANCH   2   3
TORSDOF 14
ENDMDL
MODEL      217
REMARK 921   NORMALIZED FREE ENERGY PREDICTED BY IDOCK:   -3.94 KCAL/MOL
REMARK 922        TOTAL FREE ENERGY PREDICTED BY IDOCK:   -8.26 KCAL/MOL
REMARK 923 INTER-LIGAND FREE ENERGY PREDICTED BY IDOCK:   -7.46 KCAL/MOL
REMARK 924 INTRA-LIGAND FREE ENERGY PREDICTED BY IDOCK:   -0.80 KCAL/MOL
REMARK 927      BINDING AFFINITY PREDICTED BY RF-SCORE:    0.00 PKD
ROOT
HETATM    1  C   UNK     1      -8.081   9.273  63.052  1.00  0.00    -0.157 C  
HETATM    2  C   UNK     1      -9.402  10.028  63.103  1.00  0.00    -0.297 C  
ENDROOT
BRANCH   2   3
HETATM    3  C   UNK     1      -9.413  11.113  64.176  1.00  0.00    -0.237 C  
BRANCH   3   4
HETATM    4  C   UNK     1      -9.621  10.517  65.544  1.00  0.00    -0.230 C  
HETATM    5  O   UNK     1     -10.110   9.414  65.747  1.00  0.00    -0.288 OA 
BRANCH   4   6
HETATM    6  O   UNK     1      -9.221  11.384  66.506  1.00  0.00    -0.178 OA 
BRANCH   6   7
HETATM    7  C   UNK     1     -10.201  12.257  67.116  1.00  0.00    -0.211 C  
BRANCH   7   8
HETATM    8  C   UNK     1     -11.579  12.178  66.446  1.00  0.00    -0.364 C  
BRANCH   8   9
HETATM    9  O   UNK     1     -12.095  13.479  66.161  1.00  0.00    -0.396 OA 
BRANCH   9  10
HETATM   10  P   UNK     1     -10.872  14.696  66.036  1.00  0.00    -0.339 P  
HETATM   11  O   UNK     1     -11.547  15.308  64.677  1.00  0.00    -0.404 OA 
HETATM   12  O   UNK     1     -11.498  15.433  67.221  1.00  0.00    -0.286 OA 
BRANCH  10  13
HETATM   13  O   UNK     1      -9.650  15.914  65.910  1.00  0.00    -0.315 OA 
BRANCH  13  14
HETATM   14  C   UNK     1      -9.789  16.937  66.907  1.00  0.00    -0.276 C  
BRANCH  14  15
HETATM   15  C   UNK     1      -9.030  18.204  66.510  1.00  0.00    -0.275 C  
HETATM   16  N   UNK     1      -7.693  17.923  65.911  1.00  0.00    -0.545 NA 
HETATM   17  C   UNK     1      -8.835  19.044  67.770  1.00  0.00    -0.294 C  
HETATM   18  O   UNK     1      -7.588  18.878  68.285  1.00  0.00    -0.267 OA 
HETATM   19  O   UNK     1      -9.696  19.736  68.290  1.00  0.00    -0.366 OA 
HETATM   20  H1  UNK     1      -7.187  18.769  65.646  1.00  0.00     0.000 HD 
HETATM   21  H2  UNK     1      -7.777  17.287  65.118  1.00  0.00     0.000 HD 
ENDBRANCH  14  15
ENDBRANCH  13  14
ENDBRANCH  10  13
ENDBRANCH   9  10
ENDBRANCH   8   9
ENDBRANCH   7   8
BRANCH   7  22
HETATM   22  C   UNK     1     -10.295  12.031  68.636  1.00  0.00    -0.196 C  
BRANCH  22  23
HETATM   23  O   UNK     1      -9.683  10.788  69.028  1.00  0.00    -0.197 OA 
BRANCH  23  24
HETATM   24  C   UNK     1     -10.554   9.813  69.410  1.00  0.00    -0.228 C  
HETATM   25  O   UNK     1     -10.463   8.639  69.095  1.00  0.00    -0.220 OA 
BRANCH  24  26
HETATM   26  C   UNK     1     -11.628  10.407  70.291  1.00  0.00    -0.410 C  
HETATM   27  C   UNK     1     -11.797   9.606  71.570  1.00  0.00    -0.483 C  
ENDBRANCH  24  26
ENDBRANCH  23  24
ENDBRANCH  22  23
ENDBRANCH   7  22
ENDBRANCH   6   7
ENDBRANCH   4   6
ENDBRANCH   3   4
ENDBRANCH   2   3
TORSDOF 14
ENDMDL
MODEL      218
REMARK 921   NORMALIZED FREE ENERGY PREDICTED BY IDOCK:   -3.94 KCAL/MOL
REMARK 922        TOTAL FREE ENERGY PREDICTED BY IDOCK:   -8.26 KCAL/MOL
REMARK 923 INTER-LIGAND FREE ENERGY PREDICTED BY IDOCK:   -6.85 KCAL/MOL
REMARK 924 INTRA-LIGAND FREE ENERGY PREDICTED BY IDOCK:   -1.40 KCAL/MOL
REMARK 927      BINDING AFFINITY PREDICTED BY RF-SCORE:    0.00 PKD
ROOT
HETATM    1  C   UNK     1     -13.269   8.984  72.550  1.00  0.00    -0.467 C  
HETATM    2  C   UNK     1     -13.410   9.627  71.178  1.00  0.00    -0.344 C  
ENDROOT
BRANCH   2   3
HETATM    3  C   UNK     1     -12.315  10.652  70.897  1.00  0.00    -0.502 C  
BRANCH   3   4
HETATM    4  C   UNK     1     -11.209  10.048  70.071  1.00  0.00    -0.288 C  
HETATM    5  O   UNK     1     -10.329   9.327  70.522  1.00  0.00    -0.216 OA 
BRANCH   4   6
HETATM    6  O   UNK     1     -11.312  10.441  68.778  1.00  0.00    -0.250 OA 
BRANCH   6   7
HETATM    7  C   UNK     1     -10.302  11.318  68.228  1.00  0.00    -0.183 C  
BRANCH   7   8
HETATM    8  C   UNK     1      -9.270  10.582  67.364  1.00  0.00    -0.142 C  
BRANCH   8   9
HETATM    9  O   UNK     1      -9.904   9.759  66.384  1.00  0.00    -0.203 OA 
BRANCH   9  10
HETATM   10  P   UNK     1      -9.345   8.121  66.390  1.00  0.00    -0.179 P  
HETATM   11  O   UNK     1      -8.330   8.416  67.638  1.00  0.00    -0.127 OA 
HETATM   12  O   UNK     1     -10.680   7.677  66.989  1.00  0.00    -0.348 OA 
BRANCH  10  13
HETATM   13  O   UNK     1      -8.786   6.484  66.396  1.00  0.00    -0.129 OA 
BRANCH  13  14
HETATM   14  C   UNK     1      -9.737   5.581  66.978  1.00  0.00    -0.146 C  
BRANCH  14  15
HETATM   15  C   UNK     1      -9.046   4.537  67.856  1.00  0.00    -0.123 C  
HETATM   16  N   UNK     1      -9.690   3.192  67.784  1.00  0.00    -0.243 NA 
HETATM   17  C   UNK     1      -9.103   5.030  69.300  1.00  0.00    -0.103 C  
HETATM   18  O   UNK     1     -10.112   4.431  69.987  1.00  0.00    -0.218 OA 
HETATM   19  O   UNK     1      -8.378   5.891  69.774  1.00  0.00    -0.120 OA 
HETATM   20  H1  UNK     1      -9.229   2.496  68.370  1.00  0.00     0.000 HD 
HETATM   21  H2  UNK     1      -9.754   2.871  66.819  1.00  0.00     0.000 HD 
ENDBRANCH  14  15
ENDBRANCH  13  14
ENDBRANCH  10  13
ENDBRANCH   9  10
ENDBRANCH   8   9
ENDBRANCH   7   8
BRANCH   7  22
HETATM   22  C   UNK     1     -10.930  12.506  67.475  1.00  0.00    -0.251 C  
BRANCH  22  23
HETATM   23  O   UNK     1     -12.075  12.100  66.702  1.00  0.00    -0.622 OA 
BRANCH  23  24
HETATM   24  C   UNK     1     -12.072  12.520  65.406  1.00  0.00    -0.435 C  
HETATM   25  O   UNK     1     -11.524  11.935  64.488  1.00  0.00    -0.327 OA 
BRANCH  24  26
HETATM   26  C   UNK     1     -12.866  13.800  65.284  1.00  0.00    -0.430 C  
HETATM   27  C   UNK     1     -12.131  14.825  64.439  1.00  0.00    -0.457 C  
ENDBRANCH  24  26
ENDBRANCH  23  24
ENDBRANCH  22  23
ENDBRANCH   7  22
ENDBRANCH   6   7
ENDBRANCH   4   6
ENDBRANCH   3   4
ENDBRANCH   2   3
TORSDOF 14
ENDMDL
MODEL      219
REMARK 921   NORMALIZED FREE ENERGY PREDICTED BY IDOCK:   -3.94 KCAL/MOL
REMARK 922        TOTAL FREE ENERGY PREDICTED BY IDOCK:   -8.25 KCAL/MOL
REMARK 923 INTER-LIGAND FREE ENERGY PREDICTED BY IDOCK:   -7.21 KCAL/MOL
REMARK 924 INTRA-LIGAND FREE ENERGY PREDICTED BY IDOCK:   -1.04 KCAL/MOL
REMARK 927      BINDING AFFINITY PREDICTED BY RF-SCORE:    0.00 PKD
ROOT
HETATM    1  C   UNK     1      -9.897  15.635  65.769  1.00  0.00    -0.386 C  
HETATM    2  C   UNK     1     -11.142  15.192  66.526  1.00  0.00    -0.305 C  
ENDROOT
BRANCH   2   3
HETATM    3  C   UNK     1     -10.942  13.866  67.253  1.00  0.00    -0.299 C  
BRANCH   3   4
HETATM    4  C   UNK     1     -11.829  12.794  66.675  1.00  0.00    -0.393 C  
HETATM    5  O   UNK     1     -12.347  12.853  65.568  1.00  0.00    -0.460 OA 
BRANCH   4   6
HETATM    6  O   UNK     1     -11.994  11.783  67.563  1.00  0.00    -0.607 OA 
BRANCH   6   7
HETATM    7  C   UNK     1     -10.862  10.942  67.888  1.00  0.00    -0.247 C  
BRANCH   7   8
HETATM    8  C   UNK     1     -10.818  10.537  69.367  1.00  0.00    -0.249 C  
BRANCH   8   9
HETATM    9  O   UNK     1     -12.126  10.511  69.939  1.00  0.00    -0.283 OA 
BRANCH   9  10
HETATM   10  P   UNK     1     -12.293   9.370  71.230  1.00  0.00    -0.334 P  
HETATM   11  O   UNK     1     -10.730   9.562  71.673  1.00  0.00    -0.320 OA 
HETATM   12  O   UNK     1     -13.113  10.395  72.016  1.00  0.00    -0.455 OA 
BRANCH  10  13
HETATM   13  O   UNK     1     -12.460   8.230  72.520  1.00  0.00    -0.331 OA 
BRANCH  13  14
HETATM   14  C   UNK     1     -11.308   7.386  72.660  1.00  0.00    -0.313 C  
BRANCH  14  15
HETATM   15  C   UNK     1     -11.650   5.926  72.359  1.00  0.00    -0.288 C  
HETATM   16  N   UNK     1     -11.307   5.002  73.480  1.00  0.00    -0.455 NA 
HETATM   17  C   UNK     1     -10.860   5.508  71.121  1.00  0.00    -0.173 C  
HETATM   18  O   UNK     1      -9.742   4.812  71.461  1.00  0.00    -0.156 OA 
HETATM   19  O   UNK     1     -11.153   5.801  69.973  1.00  0.00    -0.348 OA 
HETATM   20  H1  UNK     1     -11.536   4.028  73.279  1.00  0.00     0.000 HD 
HETATM   21  H2  UNK     1     -11.746   5.306  74.349  1.00  0.00     0.000 HD 
ENDBRANCH  14  15
ENDBRANCH  13  14
ENDBRANCH  10  13
ENDBRANCH   9  10
ENDBRANCH   8   9
ENDBRANCH   7   8
BRANCH   7  22
HETATM   22  C   UNK     1     -10.781   9.716  66.960  1.00  0.00    -0.155 C  
BRANCH  22  23
HETATM   23  O   UNK     1      -9.742   9.862  65.974  1.00  0.00    -0.209 OA 
BRANCH  23  24
HETATM   24  C   UNK     1      -8.476   9.672  66.441  1.00  0.00    -0.123 C  
HETATM   25  O   UNK     1      -8.036   8.607  66.841  1.00  0.00    -0.098 OA 
BRANCH  24  26
HETATM   26  C   UNK     1      -7.704  10.969  66.365  1.00  0.00    -0.146 C  
HETATM   27  C   UNK     1      -6.511  10.956  67.304  1.00  0.00    -0.072 C  
ENDBRANCH  24  26
ENDBRANCH  23  24
ENDBRANCH  22  23
ENDBRANCH   7  22
ENDBRANCH   6   7
ENDBRANCH   4   6
ENDBRANCH   3   4
ENDBRANCH   2   3
TORSDOF 14
ENDMDL
MODEL      220
REMARK 921   NORMALIZED FREE ENERGY PREDICTED BY IDOCK:   -3.93 KCAL/MOL
REMARK 922        TOTAL FREE ENERGY PREDICTED BY IDOCK:   -8.24 KCAL/MOL
REMARK 923 INTER-LIGAND FREE ENERGY PREDICTED BY IDOCK:   -6.93 KCAL/MOL
REMARK 924 INTRA-LIGAND FREE ENERGY PREDICTED BY IDOCK:   -1.31 KCAL/MOL
REMARK 927      BINDING AFFINITY PREDICTED BY RF-SCORE:    0.00 PKD
ROOT
HETATM    1  C   UNK     1      -9.086   9.689  69.334  1.00  0.00    -0.194 C  
HETATM    2  C   UNK     1     -10.370   9.951  70.110  1.00  0.00    -0.336 C  
ENDROOT
BRANCH   2   3
HETATM    3  C   UNK     1     -11.491  10.482  69.222  1.00  0.00    -0.323 C  
BRANCH   3   4
HETATM    4  C   UNK     1     -11.458  11.987  69.153  1.00  0.00    -0.300 C  
HETATM    5  O   UNK     1     -11.939  12.725  70.002  1.00  0.00    -0.332 OA 
BRANCH   4   6
HETATM    6  O   UNK     1     -10.853  12.397  68.012  1.00  0.00    -0.206 OA 
BRANCH   6   7
HETATM    7  C   UNK     1     -11.672  12.757  66.873  1.00  0.00    -0.380 C  
BRANCH   7   8
HETATM    8  C   UNK     1     -12.155  14.212  66.914  1.00  0.00    -0.432 C  
BRANCH   8   9
HETATM    9  O   UNK     1     -11.241  15.084  66.247  1.00  0.00    -0.344 OA 
BRANCH   9  10
HETATM   10  P   UNK     1     -10.486  16.231  67.299  1.00  0.00    -0.259 P  
HETATM   11  O   UNK     1      -9.133  15.319  67.409  1.00  0.00    -0.184 OA 
HETATM   12  O   UNK     1     -10.296  17.179  66.114  1.00  0.00    -0.340 OA 
BRANCH  10  13
HETATM   13  O   UNK     1      -9.731  17.378  68.352  1.00  0.00    -0.277 OA 
BRANCH  13  14
HETATM   14  C   UNK     1      -9.057  18.422  67.633  1.00  0.00    -0.273 C  
BRANCH  14  15
HETATM   15  C   UNK     1      -7.541  18.339  67.826  1.00  0.00    -0.227 C  
HETATM   16  N   UNK     1      -7.138  17.363  68.880  1.00  0.00    -0.246 NA 
HETATM   17  C   UNK     1      -7.046  19.726  68.229  1.00  0.00    -0.300 C  
HETATM   18  O   UNK     1      -6.862  19.813  69.573  1.00  0.00    -0.344 OA 
HETATM   19  O   UNK     1      -6.885  20.661  67.460  1.00  0.00    -0.291 OA 
HETATM   20  H1  UNK     1      -6.127  17.308  69.009  1.00  0.00     0.000 HD 
HETATM   21  H2  UNK     1      -7.531  16.441  68.692  1.00  0.00     0.000 HD 
ENDBRANCH  14  15
ENDBRANCH  13  14
ENDBRANCH  10  13
ENDBRANCH   9  10
ENDBRANCH   8   9
ENDBRANCH   7   8
BRANCH   7  22
HETATM   22  C   UNK     1     -10.970  12.429  65.543  1.00  0.00    -0.293 C  
BRANCH  22  23
HETATM   23  O   UNK     1     -11.153  11.050  65.171  1.00  0.00    -0.105 OA 
BRANCH  23  24
HETATM   24  C   UNK     1     -10.093  10.237  65.438  1.00  0.00    -0.284 C  
HETATM   25  O   UNK     1     -10.151   9.218  66.106  1.00  0.00    -0.288 OA 
BRANCH  24  26
HETATM   26  C   UNK     1      -8.853  10.779  64.767  1.00  0.00    -0.162 C  
HETATM   27  C   UNK     1      -8.701  10.227  63.361  1.00  0.00    -0.209 C  
ENDBRANCH  24  26
ENDBRANCH  23  24
ENDBRANCH  22  23
ENDBRANCH   7  22
ENDBRANCH   6   7
ENDBRANCH   4   6
ENDBRANCH   3   4
ENDBRANCH   2   3
TORSDOF 14
ENDMDL
MODEL      221
REMARK 921   NORMALIZED FREE ENERGY PREDICTED BY IDOCK:   -3.93 KCAL/MOL
REMARK 922        TOTAL FREE ENERGY PREDICTED BY IDOCK:   -8.23 KCAL/MOL
REMARK 923 INTER-LIGAND FREE ENERGY PREDICTED BY IDOCK:   -7.13 KCAL/MOL
REMARK 924 INTRA-LIGAND FREE ENERGY PREDICTED BY IDOCK:   -1.10 KCAL/MOL
REMARK 927      BINDING AFFINITY PREDICTED BY RF-SCORE:    0.00 PKD
ROOT
HETATM    1  C   UNK     1     -13.434  13.297  72.196  1.00  0.00    -0.655 C  
HETATM    2  C   UNK     1     -12.797  11.962  71.835  1.00  0.00    -0.341 C  
ENDROOT
BRANCH   2   3
HETATM    3  C   UNK     1     -13.015  11.587  70.372  1.00  0.00     0.114 C  
BRANCH   3   4
HETATM    4  C   UNK     1     -11.907  12.127  69.506  1.00  0.00    -0.321 C  
HETATM    5  O   UNK     1     -11.829  13.289  69.133  1.00  0.00    -0.301 OA 
BRANCH   4   6
HETATM    6  O   UNK     1     -11.038  11.140  69.177  1.00  0.00    -0.213 OA 
BRANCH   6   7
HETATM    7  C   UNK     1      -9.878  11.464  68.375  1.00  0.00    -0.205 C  
BRANCH   7   8
HETATM    8  C   UNK     1      -8.599  10.766  68.855  1.00  0.00    -0.153 C  
BRANCH   8   9
HETATM    9  O   UNK     1      -8.531   9.420  68.382  1.00  0.00    -0.118 OA 
BRANCH   9  10
HETATM   10  P   UNK     1      -9.262   8.274  69.452  1.00  0.00    -0.154 P  
HETATM   11  O   UNK     1     -10.342   7.818  68.311  1.00  0.00    -0.197 OA 
HETATM   12  O   UNK     1      -8.038   7.368  69.301  1.00  0.00    -0.119 OA 
BRANCH  10  13
HETATM   13  O   UNK     1      -9.993   7.127  70.521  1.00  0.00    -0.187 OA 
BRANCH  13  14
HETATM   14  C   UNK     1     -11.239   6.624  70.018  1.00  0.00    -0.369 C  
BRANCH  14  15
HETATM   15  C   UNK     1     -12.355   6.768  71.056  1.00  0.00    -0.315 C  
HETATM   16  N   UNK     1     -13.025   8.100  71.014  1.00  0.00    -0.510 NA 
HETATM   17  C   UNK     1     -11.734   6.575  72.437  1.00  0.00    -0.234 C  
HETATM   18  O   UNK     1     -11.495   7.769  73.041  1.00  0.00    -0.372 OA 
HETATM   19  O   UNK     1     -11.436   5.497  72.925  1.00  0.00    -0.304 OA 
HETATM   20  H1  UNK     1     -13.768   8.196  71.705  1.00  0.00     0.000 HD 
HETATM   21  H2  UNK     1     -13.371   8.304  70.076  1.00  0.00     0.000 HD 
ENDBRANCH  14  15
ENDBRANCH  13  14
ENDBRANCH  10  13
ENDBRANCH   9  10
ENDBRANCH   8   9
ENDBRANCH   7   8
BRANCH   7  22
HETATM   22  C   UNK     1     -10.134  11.213  66.877  1.00  0.00    -0.214 C  
BRANCH  22  23
HETATM   23  O   UNK     1     -10.034  12.427  66.110  1.00  0.00    -0.243 OA 
BRANCH  23  24
HETATM   24  C   UNK     1     -11.222  12.927  65.668  1.00  0.00    -0.295 C  
HETATM   25  O   UNK     1     -12.302  12.381  65.812  1.00  0.00    -0.644 OA 
BRANCH  24  26
HETATM   26  C   UNK     1     -10.994  14.262  64.997  1.00  0.00    -0.394 C  
HETATM   27  C   UNK     1      -9.826  15.002  65.623  1.00  0.00    -0.380 C  
ENDBRANCH  24  26
ENDBRANCH  23  24
ENDBRANCH  22  23
ENDBRANCH   7  22
ENDBRANCH   6   7
ENDBRANCH   4   6
ENDBRANCH   3   4
ENDBRANCH   2   3
TORSDOF 14
ENDMDL
MODEL      222
REMARK 921   NORMALIZED FREE ENERGY PREDICTED BY IDOCK:   -3.92 KCAL/MOL
REMARK 922        TOTAL FREE ENERGY PREDICTED BY IDOCK:   -8.22 KCAL/MOL
REMARK 923 INTER-LIGAND FREE ENERGY PREDICTED BY IDOCK:   -7.07 KCAL/MOL
REMARK 924 INTRA-LIGAND FREE ENERGY PREDICTED BY IDOCK:   -1.15 KCAL/MOL
REMARK 927      BINDING AFFINITY PREDICTED BY RF-SCORE:    0.00 PKD
ROOT
HETATM    1  C   UNK     1      -7.360   7.787  66.684  1.00  0.00    -0.088 C  
HETATM    2  C   UNK     1      -7.309   9.054  67.527  1.00  0.00    -0.081 C  
ENDROOT
BRANCH   2   3
HETATM    3  C   UNK     1      -7.340   8.761  69.024  1.00  0.00    -0.073 C  
BRANCH   3   4
HETATM    4  C   UNK     1      -7.757   9.980  69.804  1.00  0.00    -0.168 C  
HETATM    5  O   UNK     1      -7.263  11.090  69.662  1.00  0.00    -0.129 OA 
BRANCH   4   6
HETATM    6  O   UNK     1      -8.726   9.665  70.698  1.00  0.00    -0.197 OA 
BRANCH   6   7
HETATM    7  C   UNK     1     -10.113   9.828  70.319  1.00  0.00    -0.266 C  
BRANCH   7   8
HETATM    8  C   UNK     1     -10.299  10.724  69.087  1.00  0.00    -0.217 C  
BRANCH   8   9
HETATM    9  O   UNK     1     -11.554  11.405  69.123  1.00  0.00    -0.255 OA 
BRANCH   9  10
HETATM   10  P   UNK     1     -11.762  12.540  67.834  1.00  0.00    -0.262 P  
HETATM   11  O   UNK     1     -12.095  13.750  68.882  1.00  0.00    -0.349 OA 
HETATM   12  O   UNK     1     -10.249  12.544  67.606  1.00  0.00    -0.213 OA 
BRANCH  10  13
HETATM   13  O   UNK     1     -11.970  13.674  66.544  1.00  0.00    -0.381 OA 
BRANCH  13  14
HETATM   14  C   UNK     1     -10.845  13.706  65.654  1.00  0.00    -0.279 C  
BRANCH  14  15
HETATM   15  C   UNK     1     -11.289  13.587  64.195  1.00  0.00    -0.340 C  
HETATM   16  N   UNK     1     -12.440  14.477  63.858  1.00  0.00    -1.031 NA 
HETATM   17  C   UNK     1     -11.704  12.138  63.950  1.00  0.00    -0.458 C  
HETATM   18  O   UNK     1     -13.054  11.994  64.008  1.00  0.00    -0.660 OA 
HETATM   19  O   UNK     1     -10.930  11.209  63.777  1.00  0.00    -0.363 OA 
HETATM   20  H1  UNK     1     -12.735  14.397  62.885  1.00  0.00     0.000 HD 
HETATM   21  H2  UNK     1     -12.231  15.446  64.097  1.00  0.00     0.000 HD 
ENDBRANCH  14  15
ENDBRANCH  13  14
ENDBRANCH  10  13
ENDBRANCH   9  10
ENDBRANCH   8   9
ENDBRANCH   7   8
BRANCH   7  22
HETATM   22  C   UNK     1     -10.819   8.471  70.146  1.00  0.00    -0.233 C  
BRANCH  22  23
HETATM   23  O   UNK     1     -10.544   7.889  68.857  1.00  0.00    -0.211 OA 
BRANCH  23  24
HETATM   24  C   UNK     1     -10.302   6.549  68.871  1.00  0.00    -0.196 C  
HETATM   25  O   UNK     1     -10.287   5.835  67.883  1.00  0.00    -0.177 OA 
BRANCH  24  26
HETATM   26  C   UNK     1     -10.038   6.094  70.288  1.00  0.00    -0.237 C  
HETATM   27  C   UNK     1     -10.271   4.601  70.440  1.00  0.00    -0.208 C  
ENDBRANCH  24  26
ENDBRANCH  23  24
ENDBRANCH  22  23
ENDBRANCH   7  22
ENDBRANCH   6   7
ENDBRANCH   4   6
ENDBRANCH   3   4
ENDBRANCH   2   3
TORSDOF 14
ENDMDL
MODEL      223
REMARK 921   NORMALIZED FREE ENERGY PREDICTED BY IDOCK:   -3.91 KCAL/MOL
REMARK 922        TOTAL FREE ENERGY PREDICTED BY IDOCK:   -8.20 KCAL/MOL
REMARK 923 INTER-LIGAND FREE ENERGY PREDICTED BY IDOCK:   -7.43 KCAL/MOL
REMARK 924 INTRA-LIGAND FREE ENERGY PREDICTED BY IDOCK:   -0.76 KCAL/MOL
REMARK 927      BINDING AFFINITY PREDICTED BY RF-SCORE:    0.00 PKD
ROOT
HETATM    1  C   UNK     1     -11.966  12.425  63.418  1.00  0.00    -0.595 C  
HETATM    2  C   UNK     1     -10.559  12.193  63.951  1.00  0.00    -0.457 C  
ENDROOT
BRANCH   2   3
HETATM    3  C   UNK     1     -10.288  10.724  64.264  1.00  0.00    -0.401 C  
BRANCH   3   4
HETATM    4  C   UNK     1      -9.536  10.579  65.562  1.00  0.00    -0.216 C  
HETATM    5  O   UNK     1      -8.549  11.237  65.862  1.00  0.00    -0.167 OA 
BRANCH   4   6
HETATM    6  O   UNK     1     -10.086   9.602  66.323  1.00  0.00    -0.258 OA 
BRANCH   6   7
HETATM    7  C   UNK     1     -10.195   9.802  67.752  1.00  0.00    -0.208 C  
BRANCH   7   8
HETATM    8  C   UNK     1     -11.490  10.514  68.164  1.00  0.00    -0.179 C  
BRANCH   8   9
HETATM    9  O   UNK     1     -11.223  11.633  69.010  1.00  0.00    -0.225 OA 
BRANCH   9  10
HETATM   10  P   UNK     1     -11.167  13.141  68.164  1.00  0.00    -0.315 P  
HETATM   11  O   UNK     1      -9.555  13.006  67.922  1.00  0.00    -0.201 OA 
HETATM   12  O   UNK     1     -11.859  12.485  66.968  1.00  0.00    -0.428 OA 
BRANCH  10  13
HETATM   13  O   UNK     1     -11.111  14.649  67.318  1.00  0.00    -0.307 OA 
BRANCH  13  14
HETATM   14  C   UNK     1      -9.771  15.050  66.999  1.00  0.00    -0.236 C  
BRANCH  14  15
HETATM   15  C   UNK     1      -9.486  16.473  67.484  1.00  0.00    -0.224 C  
HETATM   16  N   UNK     1     -10.682  17.139  68.078  1.00  0.00    -0.383 NA 
HETATM   17  C   UNK     1      -9.018  17.290  66.282  1.00  0.00    -0.217 C  
HETATM   18  O   UNK     1     -10.030  18.040  65.771  1.00  0.00    -0.550 OA 
HETATM   19  O   UNK     1      -7.898  17.244  65.799  1.00  0.00    -0.495 OA 
HETATM   20  H1  UNK     1     -10.493  18.087  68.401  1.00  0.00     0.000 HD 
HETATM   21  H2  UNK     1     -11.079  16.572  68.827  1.00  0.00     0.000 HD 
ENDBRANCH  14  15
ENDBRANCH  13  14
ENDBRANCH  10  13
ENDBRANCH   9  10
ENDBRANCH   8   9
ENDBRANCH   7   8
BRANCH   7  22
HETATM   22  C   UNK     1      -9.998   8.486  68.527  1.00  0.00    -0.184 C  
BRANCH  22  23
HETATM   23  O   UNK     1      -9.157   8.669  69.681  1.00  0.00    -0.145 OA 
BRANCH  23  24
HETATM   24  C   UNK     1      -9.769   8.457  70.879  1.00  0.00    -0.174 C  
HETATM   25  O   UNK     1      -9.479   9.026  71.918  1.00  0.00    -0.313 OA 
BRANCH  24  26
HETATM   26  C   UNK     1     -10.868   7.432  70.715  1.00  0.00    -0.257 C  
HETATM   27  C   UNK     1     -11.194   6.758  72.035  1.00  0.00    -0.297 C  
ENDBRANCH  24  26
ENDBRANCH  23  24
ENDBRANCH  22  23
ENDBRANCH   7  22
ENDBRANCH   6   7
ENDBRANCH   4   6
ENDBRANCH   3   4
ENDBRANCH   2   3
TORSDOF 14
ENDMDL
MODEL      224
REMARK 921   NORMALIZED FREE ENERGY PREDICTED BY IDOCK:   -3.90 KCAL/MOL
REMARK 922        TOTAL FREE ENERGY PREDICTED BY IDOCK:   -8.19 KCAL/MOL
REMARK 923 INTER-LIGAND FREE ENERGY PREDICTED BY IDOCK:   -7.29 KCAL/MOL
REMARK 924 INTRA-LIGAND FREE ENERGY PREDICTED BY IDOCK:   -0.90 KCAL/MOL
REMARK 927      BINDING AFFINITY PREDICTED BY RF-SCORE:    0.00 PKD
ROOT
HETATM    1  C   UNK     1     -11.538  12.133  63.914  1.00  0.00    -0.532 C  
HETATM    2  C   UNK     1     -10.056  12.283  64.226  1.00  0.00    -0.311 C  
ENDROOT
BRANCH   2   3
HETATM    3  C   UNK     1      -9.542  11.188  65.156  1.00  0.00    -0.273 C  
BRANCH   3   4
HETATM    4  C   UNK     1      -8.932  11.779  66.400  1.00  0.00    -0.201 C  
HETATM    5  O   UNK     1      -8.056  11.238  67.060  1.00  0.00    -0.136 OA 
BRANCH   4   6
HETATM    6  O   UNK     1      -9.512  12.968  66.696  1.00  0.00    -0.246 OA 
BRANCH   6   7
HETATM    7  C   UNK     1      -9.698  13.334  68.083  1.00  0.00    -0.227 C  
BRANCH   7   8
HETATM    8  C   UNK     1      -8.917  14.591  68.485  1.00  0.00    -0.188 C  
BRANCH   8   9
HETATM    9  O   UNK     1      -7.854  14.859  67.570  1.00  0.00    -0.154 OA 
BRANCH   9  10
HETATM   10  P   UNK     1      -7.145  16.424  67.771  1.00  0.00    -0.155 P  
HETATM   11  O   UNK     1      -7.442  16.410  69.379  1.00  0.00    -0.231 OA 
HETATM   12  O   UNK     1      -5.758  15.812  67.563  1.00  0.00    -0.206 OA 
BRANCH  10  13
HETATM   13  O   UNK     1      -6.436  17.989  67.973  1.00  0.00    -0.182 OA 
BRANCH  13  14
HETATM   14  C   UNK     1      -7.398  18.983  68.357  1.00  0.00    -0.295 C  
BRANCH  14  15
HETATM   15  C   UNK     1      -8.575  19.021  67.380  1.00  0.00    -0.278 C  
HETATM   16  N   UNK     1      -8.573  20.232  66.508  1.00  0.00    -0.523 NA 
HETATM   17  C   UNK     1      -9.862  19.011  68.201  1.00  0.00    -0.368 C  
HETATM   18  O   UNK     1     -10.377  20.263  68.327  1.00  0.00    -0.365 OA 
HETATM   19  O   UNK     1     -10.348  18.023  68.729  1.00  0.00    -0.368 OA 
HETATM   20  H1  UNK     1      -9.358  20.257  65.857  1.00  0.00     0.000 HD 
HETATM   21  H2  UNK     1      -7.687  20.322  66.013  1.00  0.00     0.000 HD 
ENDBRANCH  14  15
ENDBRANCH  13  14
ENDBRANCH  10  13
ENDBRANCH   9  10
ENDBRANCH   8   9
ENDBRANCH   7   8
BRANCH   7  22
HETATM   22  C   UNK     1     -11.190  13.453  68.445  1.00  0.00    -0.279 C  
BRANCH  22  23
HETATM   23  O   UNK     1     -11.827  12.163  68.508  1.00  0.00    -0.317 OA 
BRANCH  23  24
HETATM   24  C   UNK     1     -11.401  11.361  69.524  1.00  0.00    -0.289 C  
HETATM   25  O   UNK     1     -10.319  10.800  69.559  1.00  0.00    -0.215 OA 
BRANCH  24  26
HETATM   26  C   UNK     1     -12.462  11.293  70.598  1.00  0.00    -0.439 C  
HETATM   27  C   UNK     1     -12.292  10.058  71.463  1.00  0.00    -0.513 C  
ENDBRANCH  24  26
ENDBRANCH  23  24
ENDBRANCH  22  23
ENDBRANCH   7  22
ENDBRANCH   6   7
ENDBRANCH   4   6
ENDBRANCH   3   4
ENDBRANCH   2   3
TORSDOF 14
ENDMDL
MODEL      225
REMARK 921   NORMALIZED FREE ENERGY PREDICTED BY IDOCK:   -3.90 KCAL/MOL
REMARK 922        TOTAL FREE ENERGY PREDICTED BY IDOCK:   -8.19 KCAL/MOL
REMARK 923 INTER-LIGAND FREE ENERGY PREDICTED BY IDOCK:   -7.23 KCAL/MOL
REMARK 924 INTRA-LIGAND FREE ENERGY PREDICTED BY IDOCK:   -0.96 KCAL/MOL
REMARK 927      BINDING AFFINITY PREDICTED BY RF-SCORE:    0.00 PKD
ROOT
HETATM    1  C   UNK     1     -10.706   4.623  65.483  1.00  0.00    -0.176 C  
HETATM    2  C   UNK     1     -10.014   5.174  66.722  1.00  0.00    -0.231 C  
ENDROOT
BRANCH   2   3
HETATM    3  C   UNK     1     -10.832   6.259  67.414  1.00  0.00    -0.448 C  
BRANCH   3   4
HETATM    4  C   UNK     1     -10.035   6.921  68.507  1.00  0.00    -0.148 C  
HETATM    5  O   UNK     1      -8.841   6.731  68.700  1.00  0.00    -0.125 OA 
BRANCH   4   6
HETATM    6  O   UNK     1     -10.830   7.723  69.257  1.00  0.00    -0.188 OA 
BRANCH   6   7
HETATM    7  C   UNK     1     -10.553   9.143  69.302  1.00  0.00    -0.216 C  
BRANCH   7   8
HETATM    8  C   UNK     1     -10.758   9.840  67.951  1.00  0.00    -0.258 C  
BRANCH   8   9
HETATM    9  O   UNK     1     -11.871  10.735  67.990  1.00  0.00    -0.546 OA 
BRANCH   9  10
HETATM   10  P   UNK     1     -11.514  12.310  67.371  1.00  0.00    -0.347 P  
HETATM   11  O   UNK     1     -11.402  12.935  68.878  1.00  0.00    -0.254 OA 
HETATM   12  O   UNK     1     -10.116  11.828  66.978  1.00  0.00    -0.206 OA 
BRANCH  10  13
HETATM   13  O   UNK     1     -11.157  13.885  66.751  1.00  0.00    -0.296 OA 
BRANCH  13  14
HETATM   14  C   UNK     1     -11.217  14.900  67.764  1.00  0.00    -0.321 C  
BRANCH  14  15
HETATM   15  C   UNK     1     -10.134  15.960  67.553  1.00  0.00    -0.247 C  
HETATM   16  N   UNK     1      -8.856  15.394  67.031  1.00  0.00    -0.211 NA 
HETATM   17  C   UNK     1      -9.862  16.622  68.901  1.00  0.00    -0.261 C  
HETATM   18  O   UNK     1      -8.750  16.105  69.490  1.00  0.00    -0.173 OA 
HETATM   19  O   UNK     1     -10.572  17.469  69.421  1.00  0.00    -0.226 OA 
HETATM   20  H1  UNK     1      -8.134  16.101  66.891  1.00  0.00     0.000 HD 
HETATM   21  H2  UNK     1      -9.016  14.863  66.176  1.00  0.00     0.000 HD 
ENDBRANCH  14  15
ENDBRANCH  13  14
ENDBRANCH  10  13
ENDBRANCH   9  10
ENDBRANCH   8   9
ENDBRANCH   7   8
BRANCH   7  22
HETATM   22  C   UNK     1     -11.341   9.840  70.426  1.00  0.00    -0.297 C  
BRANCH  22  23
HETATM   23  O   UNK     1     -12.354   8.978  70.979  1.00  0.00    -0.280 OA 
BRANCH  23  24
HETATM   24  C   UNK     1     -13.214   9.583  71.845  1.00  0.00    -0.439 C  
HETATM   25  O   UNK     1     -13.094  10.724  72.260  1.00  0.00    -0.383 OA 
BRANCH  24  26
HETATM   26  C   UNK     1     -14.339   8.636  72.191  1.00  0.00    -0.518 C  
HETATM   27  C   UNK     1     -14.409   7.480  71.210  1.00  0.00    -0.434 C  
ENDBRANCH  24  26
ENDBRANCH  23  24
ENDBRANCH  22  23
ENDBRANCH   7  22
ENDBRANCH   6   7
ENDBRANCH   4   6
ENDBRANCH   3   4
ENDBRANCH   2   3
TORSDOF 14
ENDMDL
MODEL      226
REMARK 921   NORMALIZED FREE ENERGY PREDICTED BY IDOCK:   -3.88 KCAL/MOL
REMARK 922        TOTAL FREE ENERGY PREDICTED BY IDOCK:   -8.14 KCAL/MOL
REMARK 923 INTER-LIGAND FREE ENERGY PREDICTED BY IDOCK:   -7.14 KCAL/MOL
REMARK 924 INTRA-LIGAND FREE ENERGY PREDICTED BY IDOCK:   -1.00 KCAL/MOL
REMARK 927      BINDING AFFINITY PREDICTED BY RF-SCORE:    0.00 PKD
ROOT
HETATM    1  C   UNK     1      -6.194  19.449  69.738  1.00  0.00    -0.315 C  
HETATM    2  C   UNK     1      -6.129  17.933  69.608  1.00  0.00    -0.237 C  
ENDROOT
BRANCH   2   3
HETATM    3  C   UNK     1      -6.465  17.453  68.200  1.00  0.00    -0.168 C  
BRANCH   3   4
HETATM    4  C   UNK     1      -7.853  16.868  68.146  1.00  0.00    -0.189 C  
HETATM    5  O   UNK     1      -8.629  16.850  69.092  1.00  0.00    -0.192 OA 
BRANCH   4   6
HETATM    6  O   UNK     1      -8.100  16.343  66.921  1.00  0.00    -0.179 OA 
BRANCH   6   7
HETATM    7  C   UNK     1      -9.272  16.780  66.193  1.00  0.00    -0.249 C  
BRANCH   7   8
HETATM    8  C   UNK     1     -10.515  15.928  66.484  1.00  0.00    -0.304 C  
BRANCH   8   9
HETATM    9  O   UNK     1     -10.184  14.542  66.588  1.00  0.00    -0.266 OA 
BRANCH   9  10
HETATM   10  P   UNK     1     -11.099  13.701  67.790  1.00  0.00    -0.296 P  
HETATM   11  O   UNK     1     -10.912  12.275  67.011  1.00  0.00    -0.246 OA 
HETATM   12  O   UNK     1      -9.928  13.839  68.765  1.00  0.00    -0.203 OA 
BRANCH  10  13
HETATM   13  O   UNK     1     -12.015  12.859  68.993  1.00  0.00    -0.295 OA 
BRANCH  13  14
HETATM   14  C   UNK     1     -11.992  11.437  68.805  1.00  0.00    -0.287 C  
BRANCH  14  15
HETATM   15  C   UNK     1     -11.622  10.712  70.101  1.00  0.00    -0.330 C  
HETATM   16  N   UNK     1     -11.242   9.285  69.885  1.00  0.00    -0.390 NA 
HETATM   17  C   UNK     1     -12.836  10.761  71.025  1.00  0.00    -0.385 C  
HETATM   18  O   UNK     1     -13.535   9.595  70.983  1.00  0.00    -0.328 OA 
HETATM   19  O   UNK     1     -13.177  11.733  71.680  1.00  0.00    -0.411 OA 
HETATM   20  H1  UNK     1     -10.995   8.802  70.749  1.00  0.00     0.000 HD 
HETATM   21  H2  UNK     1     -10.491   9.209  69.199  1.00  0.00     0.000 HD 
ENDBRANCH  14  15
ENDBRANCH  13  14
ENDBRANCH  10  13
ENDBRANCH   9  10
ENDBRANCH   8   9
ENDBRANCH   7   8
BRANCH   7  22
HETATM   22  C   UNK     1      -9.549  18.279  66.408  1.00  0.00    -0.305 C  
BRANCH  22  23
HETATM   23  O   UNK     1      -8.555  19.101  65.767  1.00  0.00    -0.408 OA 
BRANCH  23  24
HETATM   24  C   UNK     1      -8.082  20.128  66.526  1.00  0.00    -0.274 C  
HETATM   25  O   UNK     1      -8.701  20.671  67.424  1.00  0.00    -0.330 OA 
BRANCH  24  26
HETATM   26  C   UNK     1      -6.674  20.471  66.097  1.00  0.00    -0.272 C  
HETATM   27  C   UNK     1      -6.445  20.135  64.634  1.00  0.00    -0.283 C  
ENDBRANCH  24  26
ENDBRANCH  23  24
ENDBRANCH  22  23
ENDBRANCH   7  22
ENDBRANCH   6   7
ENDBRANCH   4   6
ENDBRANCH   3   4
ENDBRANCH   2   3
TORSDOF 14
ENDMDL
MODEL      227
REMARK 921   NORMALIZED FREE ENERGY PREDICTED BY IDOCK:   -3.87 KCAL/MOL
REMARK 922        TOTAL FREE ENERGY PREDICTED BY IDOCK:   -8.12 KCAL/MOL
REMARK 923 INTER-LIGAND FREE ENERGY PREDICTED BY IDOCK:   -6.90 KCAL/MOL
REMARK 924 INTRA-LIGAND FREE ENERGY PREDICTED BY IDOCK:   -1.22 KCAL/MOL
REMARK 927      BINDING AFFINITY PREDICTED BY RF-SCORE:    0.00 PKD
ROOT
HETATM    1  C   UNK     1     -10.826   4.506  65.087  1.00  0.00    -0.078 C  
HETATM    2  C   UNK     1      -9.817   4.848  66.175  1.00  0.00    -0.222 C  
ENDROOT
BRANCH   2   3
HETATM    3  C   UNK     1     -10.429   5.679  67.298  1.00  0.00    -0.322 C  
BRANCH   3   4
HETATM    4  C   UNK     1      -9.361   6.211  68.218  1.00  0.00    -0.116 C  
HETATM    5  O   UNK     1      -8.185   5.876  68.174  1.00  0.00    -0.108 OA 
BRANCH   4   6
HETATM    6  O   UNK     1      -9.893   7.080  69.111  1.00  0.00    -0.155 OA 
BRANCH   6   7
HETATM    7  C   UNK     1      -9.421   8.448  69.128  1.00  0.00    -0.155 C  
BRANCH   7   8
HETATM    8  C   UNK     1      -9.394   9.093  67.736  1.00  0.00    -0.136 C  
BRANCH   8   9
HETATM    9  O   UNK     1     -10.499   9.980  67.552  1.00  0.00    -0.218 OA 
BRANCH   9  10
HETATM   10  P   UNK     1     -10.477  10.804  66.031  1.00  0.00    -0.116 P  
HETATM   11  O   UNK     1      -9.403  11.906  66.584  1.00  0.00    -0.194 OA 
HETATM   12  O   UNK     1      -9.671   9.652  65.428  1.00  0.00    -0.297 OA 
BRANCH  10  13
HETATM   13  O   UNK     1     -10.456  11.629  64.510  1.00  0.00    -0.270 OA 
BRANCH  13  14
HETATM   14  C   UNK     1     -11.696  12.293  64.228  1.00  0.00    -0.381 C  
BRANCH  14  15
HETATM   15  C   UNK     1     -11.572  13.806  64.420  1.00  0.00    -0.395 C  
HETATM   16  N   UNK     1     -10.169  14.251  64.664  1.00  0.00    -0.622 NA 
HETATM   17  C   UNK     1     -12.425  14.195  65.624  1.00  0.00    -0.469 C  
HETATM   18  O   UNK     1     -11.665  14.342  66.741  1.00  0.00    -0.370 OA 
HETATM   19  O   UNK     1     -13.641  14.308  65.612  1.00  0.00    -0.394 OA 
HETATM   20  H1  UNK     1     -10.086  15.260  64.792  1.00  0.00     0.000 HD 
HETATM   21  H2  UNK     1      -9.550  13.927  63.921  1.00  0.00     0.000 HD 
ENDBRANCH  14  15
ENDBRANCH  13  14
ENDBRANCH  10  13
ENDBRANCH   9  10
ENDBRANCH   8   9
ENDBRANCH   7   8
BRANCH   7  22
HETATM   22  C   UNK     1     -10.204   9.307  70.138  1.00  0.00    -0.215 C  
BRANCH  22  23
HETATM   23  O   UNK     1     -11.327   8.592  70.686  1.00  0.00    -0.261 OA 
BRANCH  23  24
HETATM   24  C   UNK     1     -12.231   9.364  71.351  1.00  0.00    -0.356 C  
HETATM   25  O   UNK     1     -12.137  10.571  71.501  1.00  0.00    -0.330 OA 
BRANCH  24  26
HETATM   26  C   UNK     1     -13.367   8.503  71.851  1.00  0.00    -0.401 C  
HETATM   27  C   UNK     1     -13.313   7.112  71.245  1.00  0.00    -0.321 C  
ENDBRANCH  24  26
ENDBRANCH  23  24
ENDBRANCH  22  23
ENDBRANCH   7  22
ENDBRANCH   6   7
ENDBRANCH   4   6
ENDBRANCH   3   4
ENDBRANCH   2   3
TORSDOF 14
ENDMDL
MODEL      228
REMARK 921   NORMALIZED FREE ENERGY PREDICTED BY IDOCK:   -3.87 KCAL/MOL
REMARK 922        TOTAL FREE ENERGY PREDICTED BY IDOCK:   -8.12 KCAL/MOL
REMARK 923 INTER-LIGAND FREE ENERGY PREDICTED BY IDOCK:   -7.24 KCAL/MOL
REMARK 924 INTRA-LIGAND FREE ENERGY PREDICTED BY IDOCK:   -0.88 KCAL/MOL
REMARK 927      BINDING AFFINITY PREDICTED BY RF-SCORE:    0.00 PKD
ROOT
HETATM    1  C   UNK     1      -6.928   4.532  66.182  1.00  0.00    -0.063 C  
HETATM    2  C   UNK     1      -8.084   4.942  65.281  1.00  0.00    -0.115 C  
ENDROOT
BRANCH   2   3
HETATM    3  C   UNK     1      -8.768   6.221  65.753  1.00  0.00    -0.145 C  
BRANCH   3   4
HETATM    4  C   UNK     1     -10.084   5.915  66.420  1.00  0.00    -0.110 C  
HETATM    5  O   UNK     1     -10.526   4.786  66.583  1.00  0.00    -0.248 OA 
BRANCH   4   6
HETATM    6  O   UNK     1     -10.713   7.061  66.779  1.00  0.00    -0.303 OA 
BRANCH   6   7
HETATM    7  C   UNK     1      -9.953   8.103  67.436  1.00  0.00    -0.209 C  
BRANCH   7   8
HETATM    8  C   UNK     1     -10.464   9.514  67.117  1.00  0.00    -0.253 C  
BRANCH   8   9
HETATM    9  O   UNK     1      -9.432  10.489  67.270  1.00  0.00    -0.156 OA 
BRANCH   9  10
HETATM   10  P   UNK     1     -10.018  12.116  67.312  1.00  0.00    -0.206 P  
HETATM   11  O   UNK     1     -10.226  12.055  68.933  1.00  0.00    -0.169 OA 
HETATM   12  O   UNK     1      -8.598  12.624  67.058  1.00  0.00    -0.194 OA 
BRANCH  10  13
HETATM   13  O   UNK     1     -10.605  13.743  67.353  1.00  0.00    -0.257 OA 
BRANCH  13  14
HETATM   14  C   UNK     1     -11.550  14.013  66.307  1.00  0.00    -0.369 C  
BRANCH  14  15
HETATM   15  C   UNK     1     -10.844  14.442  65.020  1.00  0.00    -0.407 C  
HETATM   16  N   UNK     1     -10.028  15.681  65.184  1.00  0.00    -0.370 NA 
HETATM   17  C   UNK     1     -11.916  14.699  63.964  1.00  0.00    -0.166 C  
HETATM   18  O   UNK     1     -12.185  16.026  63.846  1.00  0.00    -0.883 OA 
HETATM   19  O   UNK     1     -12.504  13.830  63.338  1.00  0.00    -0.817 OA 
HETATM   20  H1  UNK     1      -9.558  15.966  64.325  1.00  0.00     0.000 HD 
HETATM   21  H2  UNK     1      -9.360  15.577  65.947  1.00  0.00     0.000 HD 
ENDBRANCH  14  15
ENDBRANCH  13  14
ENDBRANCH  10  13
ENDBRANCH   9  10
ENDBRANCH   8   9
ENDBRANCH   7   8
BRANCH   7  22
HETATM   22  C   UNK     1      -9.856   7.864  68.955  1.00  0.00    -0.173 C  
BRANCH  22  23
HETATM   23  O   UNK     1     -11.106   8.133  69.616  1.00  0.00    -0.154 OA 
BRANCH  23  24
HETATM   24  C   UNK     1     -11.177   7.705  70.907  1.00  0.00    -0.268 C  
HETATM   25  O   UNK     1     -11.201   6.535  71.251  1.00  0.00    -0.262 OA 
BRANCH  24  26
HETATM   26  C   UNK     1     -11.201   8.894  71.839  1.00  0.00    -0.447 C  
HETATM   27  C   UNK     1     -12.255   9.902  71.420  1.00  0.00    -0.499 C  
ENDBRANCH  24  26
ENDBRANCH  23  24
ENDBRANCH  22  23
ENDBRANCH   7  22
ENDBRANCH   6   7
ENDBRANCH   4   6
ENDBRANCH   3   4
ENDBRANCH   2   3
TORSDOF 14
ENDMDL
MODEL      229
REMARK 921   NORMALIZED FREE ENERGY PREDICTED BY IDOCK:   -3.87 KCAL/MOL
REMARK 922        TOTAL FREE ENERGY PREDICTED BY IDOCK:   -8.12 KCAL/MOL
REMARK 923 INTER-LIGAND FREE ENERGY PREDICTED BY IDOCK:   -6.94 KCAL/MOL
REMARK 924 INTRA-LIGAND FREE ENERGY PREDICTED BY IDOCK:   -1.18 KCAL/MOL
REMARK 927      BINDING AFFINITY PREDICTED BY RF-SCORE:    0.00 PKD
ROOT
HETATM    1  C   UNK     1     -13.664   7.460  71.586  1.00  0.00    -0.468 C  
HETATM    2  C   UNK     1     -12.190   7.085  71.635  1.00  0.00    -0.395 C  
ENDROOT
BRANCH   2   3
HETATM    3  C   UNK     1     -11.463   7.402  70.332  1.00  0.00    -0.250 C  
BRANCH   3   4
HETATM    4  C   UNK     1     -10.185   8.156  70.597  1.00  0.00    -0.196 C  
HETATM    5  O   UNK     1      -9.157   7.641  71.016  1.00  0.00    -0.146 OA 
BRANCH   4   6
HETATM    6  O   UNK     1     -10.350   9.475  70.337  1.00  0.00    -0.237 OA 
BRANCH   6   7
HETATM    7  C   UNK     1     -11.256   9.876  69.281  1.00  0.00    -0.130 C  
BRANCH   7   8
HETATM    8  C   UNK     1     -12.231  10.979  69.711  1.00  0.00    -0.318 C  
BRANCH   8   9
HETATM    9  O   UNK     1     -11.540  12.179  70.060  1.00  0.00    -0.266 OA 
BRANCH   9  10
HETATM   10  P   UNK     1     -11.826  13.486  68.962  1.00  0.00    -0.314 P  
HETATM   11  O   UNK     1     -12.925  14.160  69.968  1.00  0.00    -0.124 OA 
HETATM   12  O   UNK     1     -10.462  14.076  69.324  1.00  0.00    -0.152 OA 
BRANCH  10  13
HETATM   13  O   UNK     1     -12.112  14.792  67.865  1.00  0.00    -0.288 OA 
BRANCH  13  14
HETATM   14  C   UNK     1     -11.208  14.780  66.750  1.00  0.00    -0.344 C  
BRANCH  14  15
HETATM   15  C   UNK     1     -11.000  13.361  66.219  1.00  0.00    -0.288 C  
HETATM   16  N   UNK     1      -9.600  13.101  65.774  1.00  0.00    -0.478 NA 
HETATM   17  C   UNK     1     -11.936  13.166  65.029  1.00  0.00    -0.383 C  
HETATM   18  O   UNK     1     -11.276  13.328  63.851  1.00  0.00    -0.373 OA 
HETATM   19  O   UNK     1     -13.134  12.947  65.110  1.00  0.00    -0.753 OA 
HETATM   20  H1  UNK     1      -9.461  12.155  65.421  1.00  0.00     0.000 HD 
HETATM   21  H2  UNK     1      -8.936  13.312  66.520  1.00  0.00     0.000 HD 
ENDBRANCH  14  15
ENDBRANCH  13  14
ENDBRANCH  10  13
ENDBRANCH   9  10
ENDBRANCH   8   9
ENDBRANCH   7   8
BRANCH   7  22
HETATM   22  C   UNK     1     -10.498  10.257  67.996  1.00  0.00    -0.196 C  
BRANCH  22  23
HETATM   23  O   UNK     1     -10.541   9.199  67.020  1.00  0.00    -0.253 OA 
BRANCH  23  24
HETATM   24  C   UNK     1      -9.351   8.926  66.416  1.00  0.00    -0.204 C  
HETATM   25  O   UNK     1      -8.484   9.751  66.184  1.00  0.00    -0.122 OA 
BRANCH  24  26
HETATM   26  C   UNK     1      -9.266   7.450  66.101  1.00  0.00    -0.148 C  
HETATM   27  C   UNK     1      -8.778   6.657  67.299  1.00  0.00    -0.118 C  
ENDBRANCH  24  26
ENDBRANCH  23  24
ENDBRANCH  22  23
ENDBRANCH   7  22
ENDBRANCH   6   7
ENDBRANCH   4   6
ENDBRANCH   3   4
ENDBRANCH   2   3
TORSDOF 14
ENDMDL
MODEL      230
REMARK 921   NORMALIZED FREE ENERGY PREDICTED BY IDOCK:   -3.85 KCAL/MOL
REMARK 922        TOTAL FREE ENERGY PREDICTED BY IDOCK:   -8.09 KCAL/MOL
REMARK 923 INTER-LIGAND FREE ENERGY PREDICTED BY IDOCK:   -7.04 KCAL/MOL
REMARK 924 INTRA-LIGAND FREE ENERGY PREDICTED BY IDOCK:   -1.05 KCAL/MOL
REMARK 927      BINDING AFFINITY PREDICTED BY RF-SCORE:    0.00 PKD
ROOT
HETATM    1  C   UNK     1     -14.352  14.046  72.018  1.00  0.00    -0.548 C  
HETATM    2  C   UNK     1     -13.273  13.007  72.289  1.00  0.00    -0.539 C  
ENDROOT
BRANCH   2   3
HETATM    3  C   UNK     1     -12.543  12.579  71.019  1.00  0.00    -0.350 C  
BRANCH   3   4
HETATM    4  C   UNK     1     -12.767  11.116  70.736  1.00  0.00    -0.297 C  
HETATM    5  O   UNK     1     -13.079  10.291  71.584  1.00  0.00    -0.395 OA 
BRANCH   4   6
HETATM    6  O   UNK     1     -12.543  10.846  69.427  1.00  0.00    -0.335 OA 
BRANCH   6   7
HETATM    7  C   UNK     1     -11.180  10.786  68.945  1.00  0.00    -0.268 C  
BRANCH   7   8
HETATM    8  C   UNK     1     -10.420   9.548  69.439  1.00  0.00    -0.217 C  
BRANCH   8   9
HETATM    9  O   UNK     1      -9.223   9.912  70.126  1.00  0.00    -0.228 OA 
BRANCH   9  10
HETATM   10  P   UNK     1      -8.311   8.555  70.694  1.00  0.00    -0.163 P  
HETATM   11  O   UNK     1      -8.868   8.751  72.219  1.00  0.00    -0.367 OA 
HETATM   12  O   UNK     1      -9.282   7.615  69.976  1.00  0.00    -0.151 OA 
BRANCH  10  13
HETATM   13  O   UNK     1      -7.400   7.198  71.261  1.00  0.00    -0.076 OA 
BRANCH  13  14
HETATM   14  C   UNK     1      -8.238   6.112  71.683  1.00  0.00    -0.118 C  
BRANCH  14  15
HETATM   15  C   UNK     1      -7.931   4.837  70.896  1.00  0.00    -0.082 C  
HETATM   16  N   UNK     1      -7.568   5.100  69.473  1.00  0.00    -0.064 NA 
HETATM   17  C   UNK     1      -9.178   3.958  70.928  1.00  0.00    -0.129 C  
HETATM   18  O   UNK     1      -9.896   4.077  69.779  1.00  0.00    -0.211 OA 
HETATM   19  O   UNK     1      -9.528   3.273  71.877  1.00  0.00    -0.118 OA 
HETATM   20  H1  UNK     1      -7.363   4.249  68.948  1.00  0.00     0.000 HD 
HETATM   21  H2  UNK     1      -6.793   5.761  69.411  1.00  0.00     0.000 HD 
ENDBRANCH  14  15
ENDBRANCH  13  14
ENDBRANCH  10  13
ENDBRANCH   9  10
ENDBRANCH   8   9
ENDBRANCH   7   8
BRANCH   7  22
HETATM   22  C   UNK     1     -11.113  10.919  67.412  1.00  0.00    -0.307 C  
BRANCH  22  23
HETATM   23  O   UNK     1     -12.126  11.811  66.911  1.00  0.00    -0.566 OA 
BRANCH  23  24
HETATM   24  C   UNK     1     -11.720  13.099  66.732  1.00  0.00    -0.385 C  
HETATM   25  O   UNK     1     -12.362  14.082  67.063  1.00  0.00    -0.397 OA 
BRANCH  24  26
HETATM   26  C   UNK     1     -10.355  13.118  66.084  1.00  0.00    -0.287 C  
HETATM   27  C   UNK     1     -10.440  13.551  64.632  1.00  0.00    -0.439 C  
ENDBRANCH  24  26
ENDBRANCH  23  24
ENDBRANCH  22  23
ENDBRANCH   7  22
ENDBRANCH   6   7
ENDBRANCH   4   6
ENDBRANCH   3   4
ENDBRANCH   2   3
TORSDOF 14
ENDMDL
MODEL      231
REMARK 921   NORMALIZED FREE ENERGY PREDICTED BY IDOCK:   -3.84 KCAL/MOL
REMARK 922        TOTAL FREE ENERGY PREDICTED BY IDOCK:   -8.08 KCAL/MOL
REMARK 923 INTER-LIGAND FREE ENERGY PREDICTED BY IDOCK:   -7.09 KCAL/MOL
REMARK 924 INTRA-LIGAND FREE ENERGY PREDICTED BY IDOCK:   -0.98 KCAL/MOL
REMARK 927      BINDING AFFINITY PREDICTED BY RF-SCORE:    0.00 PKD
ROOT
HETATM    1  C   UNK     1     -10.989   7.568  73.141  1.00  0.00    -0.420 C  
HETATM    2  C   UNK     1     -12.065   8.453  72.527  1.00  0.00    -0.403 C  
ENDROOT
BRANCH   2   3
HETATM    3  C   UNK     1     -11.498   9.450  71.521  1.00  0.00    -0.467 C  
BRANCH   3   4
HETATM    4  C   UNK     1     -12.290  10.732  71.527  1.00  0.00    -0.276 C  
HETATM    5  O   UNK     1     -13.342  10.888  72.132  1.00  0.00    -0.443 OA 
BRANCH   4   6
HETATM    6  O   UNK     1     -11.690  11.665  70.748  1.00  0.00    -0.162 OA 
BRANCH   6   7
HETATM    7  C   UNK     1     -12.129  11.823  69.378  1.00  0.00    -0.238 C  
BRANCH   7   8
HETATM    8  C   UNK     1     -12.352  13.289  68.982  1.00  0.00     0.058 C  
BRANCH   8   9
HETATM    9  O   UNK     1     -11.194  14.082  69.247  1.00  0.00    -0.254 OA 
BRANCH   9  10
HETATM   10  P   UNK     1     -10.539  14.841  67.837  1.00  0.00    -0.257 P  
HETATM   11  O   UNK     1     -11.868  14.475  66.957  1.00  0.00    -0.394 OA 
HETATM   12  O   UNK     1     -10.783  16.211  68.473  1.00  0.00    -0.268 OA 
BRANCH  10  13
HETATM   13  O   UNK     1      -9.884  15.601  66.427  1.00  0.00    -0.244 OA 
BRANCH  13  14
HETATM   14  C   UNK     1      -9.560  16.981  66.648  1.00  0.00    -0.266 C  
BRANCH  14  15
HETATM   15  C   UNK     1      -8.050  17.215  66.580  1.00  0.00    -0.283 C  
HETATM   16  N   UNK     1      -7.271  15.957  66.383  1.00  0.00    -0.103 NA 
HETATM   17  C   UNK     1      -7.618  17.857  67.896  1.00  0.00    -0.221 C  
HETATM   18  O   UNK     1      -7.086  16.936  68.743  1.00  0.00    -0.192 OA 
HETATM   19  O   UNK     1      -7.775  19.033  68.185  1.00  0.00    -0.274 OA 
HETATM   20  H1  UNK     1      -6.264  16.113  66.338  1.00  0.00     0.000 HD 
HETATM   21  H2  UNK     1      -7.598  15.452  65.560  1.00  0.00     0.000 HD 
ENDBRANCH  14  15
ENDBRANCH  13  14
ENDBRANCH  10  13
ENDBRANCH   9  10
ENDBRANCH   8   9
ENDBRANCH   7   8
BRANCH   7  22
HETATM   22  C   UNK     1     -11.187  11.106  68.393  1.00  0.00    -0.262 C  
BRANCH  22  23
HETATM   23  O   UNK     1     -11.546  11.372  67.024  1.00  0.00    -0.510 OA 
BRANCH  23  24
HETATM   24  C   UNK     1     -10.547  11.177  66.119  1.00  0.00    -0.248 C  
HETATM   25  O   UNK     1      -9.678  10.328  66.216  1.00  0.00    -0.189 OA 
BRANCH  24  26
HETATM   26  C   UNK     1     -10.696  12.156  64.977  1.00  0.00    -0.338 C  
HETATM   27  C   UNK     1     -12.090  12.097  64.379  1.00  0.00    -0.443 C  
ENDBRANCH  24  26
ENDBRANCH  23  24
ENDBRANCH  22  23
ENDBRANCH   7  22
ENDBRANCH   6   7
ENDBRANCH   4   6
ENDBRANCH   3   4
ENDBRANCH   2   3
TORSDOF 14
ENDMDL
MODEL      232
REMARK 921   NORMALIZED FREE ENERGY PREDICTED BY IDOCK:   -3.84 KCAL/MOL
REMARK 922        TOTAL FREE ENERGY PREDICTED BY IDOCK:   -8.07 KCAL/MOL
REMARK 923 INTER-LIGAND FREE ENERGY PREDICTED BY IDOCK:   -6.96 KCAL/MOL
REMARK 924 INTRA-LIGAND FREE ENERGY PREDICTED BY IDOCK:   -1.10 KCAL/MOL
REMARK 927      BINDING AFFINITY PREDICTED BY RF-SCORE:    0.00 PKD
ROOT
HETATM    1  C   UNK     1     -10.496  11.518  63.796  1.00  0.00    -0.459 C  
HETATM    2  C   UNK     1      -9.767  10.755  64.893  1.00  0.00    -0.330 C  
ENDROOT
BRANCH   2   3
HETATM    3  C   UNK     1      -9.984  11.367  66.273  1.00  0.00    -0.259 C  
BRANCH   3   4
HETATM    4  C   UNK     1     -10.902  10.511  67.106  1.00  0.00    -0.259 C  
HETATM    5  O   UNK     1     -10.733   9.316  67.308  1.00  0.00    -0.268 OA 
BRANCH   4   6
HETATM    6  O   UNK     1     -11.947  11.242  67.566  1.00  0.00    -0.612 OA 
BRANCH   6   7
HETATM    7  C   UNK     1     -11.976  11.626  68.961  1.00  0.00    -0.305 C  
BRANCH   7   8
HETATM    8  C   UNK     1     -10.948  10.872  69.815  1.00  0.00    -0.226 C  
BRANCH   8   9
HETATM    9  O   UNK     1     -11.566   9.839  70.583  1.00  0.00    -0.275 OA 
BRANCH   9  10
HETATM   10  P   UNK     1     -10.489   9.066  71.695  1.00  0.00    -0.251 P  
HETATM   11  O   UNK     1     -11.735   8.412  72.529  1.00  0.00    -0.388 OA 
HETATM   12  O   UNK     1     -10.099   8.064  70.607  1.00  0.00    -0.193 OA 
BRANCH  10  13
HETATM   13  O   UNK     1      -9.412   8.294  72.808  1.00  0.00    -0.260 OA 
BRANCH  13  14
HETATM   14  C   UNK     1     -10.071   7.303  73.611  1.00  0.00    -0.340 C  
BRANCH  14  15
HETATM   15  C   UNK     1      -9.507   5.907  73.342  1.00  0.00    -0.138 C  
HETATM   16  N   UNK     1      -8.380   5.909  72.364  1.00  0.00    -0.117 NA 
HETATM   17  C   UNK     1     -10.638   5.047  72.783  1.00  0.00    -0.221 C  
HETATM   18  O   UNK     1     -10.566   4.956  71.429  1.00  0.00    -0.148 OA 
HETATM   19  O   UNK     1     -11.530   4.546  73.450  1.00  0.00    -0.316 OA 
HETATM   20  H1  UNK     1      -8.004   4.977  72.186  1.00  0.00     0.000 HD 
HETATM   21  H2  UNK     1      -7.642   6.548  72.661  1.00  0.00     0.000 HD 
ENDBRANCH  14  15
ENDBRANCH  13  14
ENDBRANCH  10  13
ENDBRANCH   9  10
ENDBRANCH   8   9
ENDBRANCH   7   8
BRANCH   7  22
HETATM   22  C   UNK     1     -11.849  13.151  69.133  1.00  0.00    -0.314 C  
BRANCH  22  23
HETATM   23  O   UNK     1     -11.888  13.834  67.867  1.00  0.00    -0.345 OA 
BRANCH  23  24
HETATM   24  C   UNK     1     -10.942  14.801  67.706  1.00  0.00    -0.291 C  
HETATM   25  O   UNK     1     -11.095  15.821  67.055  1.00  0.00    -0.270 OA 
BRANCH  24  26
HETATM   26  C   UNK     1      -9.694  14.426  68.471  1.00  0.00    -0.225 C  
HETATM   27  C   UNK     1      -8.538  15.346  68.125  1.00  0.00    -0.152 C  
ENDBRANCH  24  26
ENDBRANCH  23  24
ENDBRANCH  22  23
ENDBRANCH   7  22
ENDBRANCH   6   7
ENDBRANCH   4   6
ENDBRANCH   3   4
ENDBRANCH   2   3
TORSDOF 14
ENDMDL
MODEL      233
REMARK 921   NORMALIZED FREE ENERGY PREDICTED BY IDOCK:   -3.83 KCAL/MOL
REMARK 922        TOTAL FREE ENERGY PREDICTED BY IDOCK:   -8.05 KCAL/MOL
REMARK 923 INTER-LIGAND FREE ENERGY PREDICTED BY IDOCK:   -7.71 KCAL/MOL
REMARK 924 INTRA-LIGAND FREE ENERGY PREDICTED BY IDOCK:   -0.34 KCAL/MOL
REMARK 927      BINDING AFFINITY PREDICTED BY RF-SCORE:    0.00 PKD
ROOT
HETATM    1  C   UNK     1     -12.166  14.694  64.175  1.00  0.00    -0.343 C  
HETATM    2  C   UNK     1     -12.152  13.270  63.638  1.00  0.00    -0.551 C  
ENDROOT
BRANCH   2   3
HETATM    3  C   UNK     1     -12.672  12.258  64.654  1.00  0.00    -0.275 C  
BRANCH   3   4
HETATM    4  C   UNK     1     -11.831  12.267  65.905  1.00  0.00    -0.354 C  
HETATM    5  O   UNK     1     -11.997  13.041  66.838  1.00  0.00    -0.382 OA 
BRANCH   4   6
HETATM    6  O   UNK     1     -10.858  11.327  65.831  1.00  0.00    -0.264 OA 
BRANCH   6   7
HETATM    7  C   UNK     1     -10.199  10.901  67.047  1.00  0.00    -0.214 C  
BRANCH   7   8
HETATM    8  C   UNK     1      -9.283  11.977  67.644  1.00  0.00    -0.182 C  
BRANCH   8   9
HETATM    9  O   UNK     1      -8.810  12.875  66.640  1.00  0.00    -0.188 OA 
BRANCH   9  10
HETATM   10  P   UNK     1      -8.470  14.463  67.237  1.00  0.00    -0.186 P  
HETATM   11  O   UNK     1      -9.294  14.177  68.620  1.00  0.00    -0.201 OA 
HETATM   12  O   UNK     1      -7.018  14.049  67.484  1.00  0.00    -0.177 OA 
BRANCH  10  13
HETATM   13  O   UNK     1      -8.130  16.051  67.833  1.00  0.00    -0.139 OA 
BRANCH  13  14
HETATM   14  C   UNK     1      -8.457  17.076  66.883  1.00  0.00    -0.216 C  
BRANCH  14  15
HETATM   15  C   UNK     1      -9.971  17.229  66.730  1.00  0.00    -0.301 C  
HETATM   16  N   UNK     1     -10.359  18.069  65.559  1.00  0.00    -0.577 NA 
HETATM   17  C   UNK     1     -10.505  17.884  68.001  1.00  0.00    -0.382 C  
HETATM   18  O   UNK     1     -10.703  19.217  67.823  1.00  0.00    -0.426 OA 
HETATM   19  O   UNK     1     -10.682  17.308  69.063  1.00  0.00    -0.292 OA 
HETATM   20  H1  UNK     1     -11.369  18.171  65.457  1.00  0.00     0.000 HD 
HETATM   21  H2  UNK     1      -9.941  17.712  64.701  1.00  0.00     0.000 HD 
ENDBRANCH  14  15
ENDBRANCH  13  14
ENDBRANCH  10  13
ENDBRANCH   9  10
ENDBRANCH   8   9
ENDBRANCH   7   8
BRANCH   7  22
HETATM   22  C   UNK     1     -11.207  10.373  68.084  1.00  0.00    -0.268 C  
BRANCH  22  23
HETATM   23  O   UNK     1     -11.038  11.014  69.363  1.00  0.00    -0.228 OA 
BRANCH  23  24
HETATM   24  C   UNK     1     -11.147  10.186  70.439  1.00  0.00    -0.324 C  
HETATM   25  O   UNK     1     -10.228   9.543  70.917  1.00  0.00    -0.292 OA 
BRANCH  24  26
HETATM   26  C   UNK     1     -12.567  10.206  70.956  1.00  0.00    -0.478 C  
HETATM   27  C   UNK     1     -12.759   9.202  72.078  1.00  0.00    -0.473 C  
ENDBRANCH  24  26
ENDBRANCH  23  24
ENDBRANCH  22  23
ENDBRANCH   7  22
ENDBRANCH   6   7
ENDBRANCH   4   6
ENDBRANCH   3   4
ENDBRANCH   2   3
TORSDOF 14
ENDMDL
MODEL      234
REMARK 921   NORMALIZED FREE ENERGY PREDICTED BY IDOCK:   -3.82 KCAL/MOL
REMARK 922        TOTAL FREE ENERGY PREDICTED BY IDOCK:   -8.03 KCAL/MOL
REMARK 923 INTER-LIGAND FREE ENERGY PREDICTED BY IDOCK:   -6.71 KCAL/MOL
REMARK 924 INTRA-LIGAND FREE ENERGY PREDICTED BY IDOCK:   -1.32 KCAL/MOL
REMARK 927      BINDING AFFINITY PREDICTED BY RF-SCORE:    0.00 PKD
ROOT
HETATM    1  C   UNK     1     -12.293  12.706  63.388  1.00  0.00    -0.553 C  
HETATM    2  C   UNK     1     -10.833  12.436  63.723  1.00  0.00    -0.500 C  
ENDROOT
BRANCH   2   3
HETATM    3  C   UNK     1     -10.567  10.967  64.037  1.00  0.00    -0.395 C  
BRANCH   3   4
HETATM    4  C   UNK     1      -9.210  10.786  64.666  1.00  0.00    -0.219 C  
HETATM    5  O   UNK     1      -8.392   9.950  64.307  1.00  0.00    -0.144 OA 
BRANCH   4   6
HETATM    6  O   UNK     1      -9.044  11.652  65.695  1.00  0.00    -0.182 OA 
BRANCH   6   7
HETATM    7  C   UNK     1      -9.192  11.167  67.051  1.00  0.00    -0.163 C  
BRANCH   7   8
HETATM    8  C   UNK     1      -7.913  11.315  67.886  1.00  0.00    -0.118 C  
BRANCH   8   9
HETATM    9  O   UNK     1      -6.955  12.146  67.230  1.00  0.00    -0.136 OA 
BRANCH   9  10
HETATM   10  P   UNK     1      -7.038  13.807  67.707  1.00  0.00    -0.171 P  
HETATM   11  O   UNK     1      -7.203  13.402  69.282  1.00  0.00    -0.022 OA 
HETATM   12  O   UNK     1      -5.540  13.951  67.433  1.00  0.00    -0.351 OA 
BRANCH  10  13
HETATM   13  O   UNK     1      -7.121  15.468  68.184  1.00  0.00    -0.109 OA 
BRANCH  13  14
HETATM   14  C   UNK     1      -8.301  16.122  67.694  1.00  0.00    -0.151 C  
BRANCH  14  15
HETATM   15  C   UNK     1      -9.237  16.509  68.841  1.00  0.00    -0.258 C  
HETATM   16  N   UNK     1      -9.501  15.384  69.786  1.00  0.00    -0.414 NA 
HETATM   17  C   UNK     1     -10.563  16.956  68.230  1.00  0.00    -0.363 C  
HETATM   18  O   UNK     1     -11.487  15.960  68.274  1.00  0.00    -0.363 OA 
HETATM   19  O   UNK     1     -10.763  18.044  67.714  1.00  0.00    -0.410 OA 
HETATM   20  H1  UNK     1     -10.125  15.642  70.550  1.00  0.00     0.000 HD 
HETATM   21  H2  UNK     1      -8.628  14.998  70.144  1.00  0.00     0.000 HD 
ENDBRANCH  14  15
ENDBRANCH  13  14
ENDBRANCH  10  13
ENDBRANCH   9  10
ENDBRANCH   8   9
ENDBRANCH   7   8
BRANCH   7  22
HETATM   22  C   UNK     1     -10.405  11.804  67.753  1.00  0.00    -0.194 C  
BRANCH  22  23
HETATM   23  O   UNK     1     -11.473  10.856  67.934  1.00  0.00    -0.412 OA 
BRANCH  23  24
HETATM   24  C   UNK     1     -11.274   9.948  68.930  1.00  0.00    -0.079 C  
HETATM   25  O   UNK     1     -10.851   8.817  68.765  1.00  0.00    -0.127 OA 
BRANCH  24  26
HETATM   26  C   UNK     1     -11.636  10.565  70.261  1.00  0.00    -0.417 C  
HETATM   27  C   UNK     1     -11.414   9.587  71.401  1.00  0.00    -0.462 C  
ENDBRANCH  24  26
ENDBRANCH  23  24
ENDBRANCH  22  23
ENDBRANCH   7  22
ENDBRANCH   6   7
ENDBRANCH   4   6
ENDBRANCH   3   4
ENDBRANCH   2   3
TORSDOF 14
ENDMDL
MODEL      235
REMARK 921   NORMALIZED FREE ENERGY PREDICTED BY IDOCK:   -3.81 KCAL/MOL
REMARK 922        TOTAL FREE ENERGY PREDICTED BY IDOCK:   -8.01 KCAL/MOL
REMARK 923 INTER-LIGAND FREE ENERGY PREDICTED BY IDOCK:   -7.47 KCAL/MOL
REMARK 924 INTRA-LIGAND FREE ENERGY PREDICTED BY IDOCK:   -0.53 KCAL/MOL
REMARK 927      BINDING AFFINITY PREDICTED BY RF-SCORE:    0.00 PKD
ROOT
HETATM    1  C   UNK     1      -6.302  16.422  67.949  1.00  0.00    -0.149 C  
HETATM    2  C   UNK     1      -7.371  15.350  67.780  1.00  0.00    -0.180 C  
ENDROOT
BRANCH   2   3
HETATM    3  C   UNK     1      -8.341  15.302  68.955  1.00  0.00    -0.215 C  
BRANCH   3   4
HETATM    4  C   UNK     1      -9.414  14.268  68.728  1.00  0.00    -0.131 C  
HETATM    5  O   UNK     1     -10.588  14.417  69.036  1.00  0.00    -0.241 OA 
BRANCH   4   6
HETATM    6  O   UNK     1      -8.886  13.151  68.170  1.00  0.00    -0.185 OA 
BRANCH   6   7
HETATM    7  C   UNK     1      -9.544  12.561  67.024  1.00  0.00    -0.216 C  
BRANCH   7   8
HETATM    8  C   UNK     1     -10.578  11.494  67.406  1.00  0.00    -0.214 C  
BRANCH   8   9
HETATM    9  O   UNK     1     -10.321  10.257  66.739  1.00  0.00    -0.221 OA 
BRANCH   9  10
HETATM   10  P   UNK     1      -9.928   8.960  67.814  1.00  0.00    -0.219 P  
HETATM   11  O   UNK     1     -10.796   9.632  69.027  1.00  0.00    -0.223 OA 
HETATM   12  O   UNK     1     -10.874   8.042  67.037  1.00  0.00    -0.283 OA 
BRANCH  10  13
HETATM   13  O   UNK     1      -9.535   7.663  68.889  1.00  0.00    -0.149 OA 
BRANCH  13  14
HETATM   14  C   UNK     1      -9.787   7.992  70.263  1.00  0.00    -0.184 C  
BRANCH  14  15
HETATM   15  C   UNK     1     -10.868   7.090  70.861  1.00  0.00    -0.241 C  
HETATM   16  N   UNK     1     -11.986   6.808  69.912  1.00  0.00    -0.659 NA 
HETATM   17  C   UNK     1     -11.436   7.795  72.090  1.00  0.00    -0.310 C  
HETATM   18  O   UNK     1     -12.609   8.421  71.803  1.00  0.00    -0.313 OA 
HETATM   19  O   UNK     1     -10.891   7.845  73.181  1.00  0.00    -0.375 OA 
HETATM   20  H1  UNK     1     -12.706   6.206  70.311  1.00  0.00     0.000 HD 
HETATM   21  H2  UNK     1     -11.631   6.421  69.038  1.00  0.00     0.000 HD 
ENDBRANCH  14  15
ENDBRANCH  13  14
ENDBRANCH  10  13
ENDBRANCH   9  10
ENDBRANCH   8   9
ENDBRANCH   7   8
BRANCH   7  22
HETATM   22  C   UNK     1     -10.150  13.634  66.101  1.00  0.00    -0.306 C  
BRANCH  22  23
HETATM   23  O   UNK     1     -11.583  13.518  66.020  1.00  0.00    -0.318 OA 
BRANCH  23  24
HETATM   24  C   UNK     1     -12.044  12.857  64.921  1.00  0.00    -0.432 C  
HETATM   25  O   UNK     1     -13.168  12.397  64.808  1.00  0.00    -0.784 OA 
BRANCH  24  26
HETATM   26  C   UNK     1     -10.962  12.803  63.867  1.00  0.00    -0.458 C  
HETATM   27  C   UNK     1     -10.610  11.370  63.512  1.00  0.00    -0.468 C  
ENDBRANCH  24  26
ENDBRANCH  23  24
ENDBRANCH  22  23
ENDBRANCH   7  22
ENDBRANCH   6   7
ENDBRANCH   4   6
ENDBRANCH   3   4
ENDBRANCH   2   3
TORSDOF 14
ENDMDL
MODEL      236
REMARK 921   NORMALIZED FREE ENERGY PREDICTED BY IDOCK:   -3.80 KCAL/MOL
REMARK 922        TOTAL FREE ENERGY PREDICTED BY IDOCK:   -8.01 KCAL/MOL
REMARK 923 INTER-LIGAND FREE ENERGY PREDICTED BY IDOCK:   -7.04 KCAL/MOL
REMARK 924 INTRA-LIGAND FREE ENERGY PREDICTED BY IDOCK:   -0.97 KCAL/MOL
REMARK 927      BINDING AFFINITY PREDICTED BY RF-SCORE:    0.00 PKD
ROOT
HETATM    1  C   UNK     1     -12.246  14.557  64.664  1.00  0.00    -0.474 C  
HETATM    2  C   UNK     1     -12.206  13.276  63.843  1.00  0.00    -0.491 C  
ENDROOT
BRANCH   2   3
HETATM    3  C   UNK     1     -11.650  12.094  64.632  1.00  0.00    -0.392 C  
BRANCH   3   4
HETATM    4  C   UNK     1     -10.299  11.683  64.109  1.00  0.00    -0.337 C  
HETATM    5  O   UNK     1      -9.928  11.852  62.955  1.00  0.00    -0.387 OA 
BRANCH   4   6
HETATM    6  O   UNK     1      -9.576  11.077  65.082  1.00  0.00    -0.214 OA 
BRANCH   6   7
HETATM    7  C   UNK     1      -9.669  11.573  66.438  1.00  0.00    -0.207 C  
BRANCH   7   8
HETATM    8  C   UNK     1      -9.074  10.611  67.474  1.00  0.00    -0.139 C  
BRANCH   8   9
HETATM    9  O   UNK     1      -9.932   9.491  67.699  1.00  0.00    -0.161 OA 
BRANCH   9  10
HETATM   10  P   UNK     1      -9.983   8.979  69.350  1.00  0.00    -0.207 P  
HETATM   11  O   UNK     1      -8.612   9.799  69.702  1.00  0.00    -0.158 OA 
HETATM   12  O   UNK     1     -11.154   9.932  69.599  1.00  0.00    -0.240 OA 
BRANCH  10  13
HETATM   13  O   UNK     1     -10.035   8.467  71.002  1.00  0.00    -0.184 OA 
BRANCH  13  14
HETATM   14  C   UNK     1     -11.100   9.087  71.736  1.00  0.00    -0.374 C  
BRANCH  14  15
HETATM   15  C   UNK     1     -11.828   8.074  72.621  1.00  0.00    -0.321 C  
HETATM   16  N   UNK     1     -10.899   7.218  73.417  1.00  0.00    -0.512 NA 
HETATM   17  C   UNK     1     -12.662   7.175  71.712  1.00  0.00    -0.339 C  
HETATM   18  O   UNK     1     -12.034   5.993  71.475  1.00  0.00    -0.165 OA 
HETATM   19  O   UNK     1     -13.731   7.487  71.211  1.00  0.00    -0.339 OA 
HETATM   20  H1  UNK     1     -11.384   6.542  74.007  1.00  0.00     0.000 HD 
HETATM   21  H2  UNK     1     -10.261   7.791  73.969  1.00  0.00     0.000 HD 
ENDBRANCH  14  15
ENDBRANCH  13  14
ENDBRANCH  10  13
ENDBRANCH   9  10
ENDBRANCH   8   9
ENDBRANCH   7   8
BRANCH   7  22
HETATM   22  C   UNK     1      -9.072  12.987  66.568  1.00  0.00    -0.127 C  
BRANCH  22  23
HETATM   23  O   UNK     1      -9.143  13.472  67.922  1.00  0.00    -0.186 OA 
BRANCH  23  24
HETATM   24  C   UNK     1     -10.051  14.465  68.130  1.00  0.00    -0.226 C  
HETATM   25  O   UNK     1      -9.801  15.658  68.078  1.00  0.00    -0.209 OA 
BRANCH  24  26
HETATM   26  C   UNK     1     -11.409  13.864  68.412  1.00  0.00    -0.316 C  
HETATM   27  C   UNK     1     -12.151  14.654  69.474  1.00  0.00    -0.335 C  
ENDBRANCH  24  26
ENDBRANCH  23  24
ENDBRANCH  22  23
ENDBRANCH   7  22
ENDBRANCH   6   7
ENDBRANCH   4   6
ENDBRANCH   3   4
ENDBRANCH   2   3
TORSDOF 14
ENDMDL
MODEL      237
REMARK 921   NORMALIZED FREE ENERGY PREDICTED BY IDOCK:   -3.80 KCAL/MOL
REMARK 922        TOTAL FREE ENERGY PREDICTED BY IDOCK:   -7.99 KCAL/MOL
REMARK 923 INTER-LIGAND FREE ENERGY PREDICTED BY IDOCK:   -6.87 KCAL/MOL
REMARK 924 INTRA-LIGAND FREE ENERGY PREDICTED BY IDOCK:   -1.12 KCAL/MOL
REMARK 927      BINDING AFFINITY PREDICTED BY RF-SCORE:    0.00 PKD
ROOT
HETATM    1  C   UNK     1      -7.743   7.513  64.742  1.00  0.00    -0.117 C  
HETATM    2  C   UNK     1      -8.259   8.747  64.014  1.00  0.00    -0.161 C  
ENDROOT
BRANCH   2   3
HETATM    3  C   UNK     1      -8.437   9.942  64.945  1.00  0.00    -0.168 C  
BRANCH   3   4
HETATM    4  C   UNK     1      -9.896  10.200  65.220  1.00  0.00    -0.319 C  
HETATM    5  O   UNK     1     -10.657  10.748  64.434  1.00  0.00    -0.347 OA 
BRANCH   4   6
HETATM    6  O   UNK     1     -10.228   9.771  66.461  1.00  0.00    -0.232 OA 
BRANCH   6   7
HETATM    7  C   UNK     1      -9.741  10.502  67.611  1.00  0.00    -0.165 C  
BRANCH   7   8
HETATM    8  C   UNK     1     -10.495  11.816  67.853  1.00  0.00    -0.196 C  
BRANCH   8   9
HETATM    9  O   UNK     1      -9.768  12.935  67.346  1.00  0.00    -0.195 OA 
BRANCH   9  10
HETATM   10  P   UNK     1     -10.594  14.443  67.538  1.00  0.00    -0.270 P  
HETATM   11  O   UNK     1     -10.758  14.208  69.148  1.00  0.00    -0.240 OA 
HETATM   12  O   UNK     1      -9.274  15.184  67.323  1.00  0.00    -0.189 OA 
BRANCH  10  13
HETATM   13  O   UNK     1     -11.421  15.950  67.730  1.00  0.00    -0.260 OA 
BRANCH  13  14
HETATM   14  C   UNK     1     -10.582  16.969  68.294  1.00  0.00    -0.372 C  
BRANCH  14  15
HETATM   15  C   UNK     1     -10.621  18.247  67.454  1.00  0.00    -0.401 C  
HETATM   16  N   UNK     1     -10.006  18.080  66.105  1.00  0.00    -0.500 NA 
HETATM   17  C   UNK     1      -9.853  19.327  68.212  1.00  0.00    -0.400 C  
HETATM   18  O   UNK     1      -8.589  19.464  67.730  1.00  0.00    -0.296 OA 
HETATM   19  O   UNK     1     -10.286  19.954  69.166  1.00  0.00    -0.407 OA 
HETATM   20  H1  UNK     1     -10.032  18.933  65.545  1.00  0.00     0.000 HD 
HETATM   21  H2  UNK     1     -10.435  17.303  65.603  1.00  0.00     0.000 HD 
ENDBRANCH  14  15
ENDBRANCH  13  14
ENDBRANCH  10  13
ENDBRANCH   9  10
ENDBRANCH   8   9
ENDBRANCH   7   8
BRANCH   7  22
HETATM   22  C   UNK     1      -9.715   9.622  68.875  1.00  0.00    -0.162 C  
BRANCH  22  23
HETATM   23  O   UNK     1      -9.744   8.220  68.547  1.00  0.00    -0.150 OA 
BRANCH  23  24
HETATM   24  C   UNK     1     -10.659   7.487  69.239  1.00  0.00    -0.210 C  
HETATM   25  O   UNK     1     -11.220   7.856  70.257  1.00  0.00    -0.264 OA 
BRANCH  24  26
HETATM   26  C   UNK     1     -10.885   6.165  68.542  1.00  0.00    -0.389 C  
HETATM   27  C   UNK     1     -11.013   6.347  67.041  1.00  0.00    -0.463 C  
ENDBRANCH  24  26
ENDBRANCH  23  24
ENDBRANCH  22  23
ENDBRANCH   7  22
ENDBRANCH   6   7
ENDBRANCH   4   6
ENDBRANCH   3   4
ENDBRANCH   2   3
TORSDOF 14
ENDMDL
MODEL      238
REMARK 921   NORMALIZED FREE ENERGY PREDICTED BY IDOCK:   -3.79 KCAL/MOL
REMARK 922        TOTAL FREE ENERGY PREDICTED BY IDOCK:   -7.99 KCAL/MOL
REMARK 923 INTER-LIGAND FREE ENERGY PREDICTED BY IDOCK:   -6.72 KCAL/MOL
REMARK 924 INTRA-LIGAND FREE ENERGY PREDICTED BY IDOCK:   -1.26 KCAL/MOL
REMARK 927      BINDING AFFINITY PREDICTED BY RF-SCORE:    0.00 PKD
ROOT
HETATM    1  C   UNK     1     -10.425   7.009  73.187  1.00  0.00    -0.335 C  
HETATM    2  C   UNK     1     -11.481   7.330  72.138  1.00  0.00    -0.310 C  
ENDROOT
BRANCH   2   3
HETATM    3  C   UNK     1     -11.299   8.718  71.532  1.00  0.00    -0.375 C  
BRANCH   3   4
HETATM    4  C   UNK     1      -9.966   8.835  70.840  1.00  0.00    -0.222 C  
HETATM    5  O   UNK     1      -9.065   9.578  71.205  1.00  0.00    -0.239 OA 
BRANCH   4   6
HETATM    6  O   UNK     1      -9.923   8.030  69.751  1.00  0.00    -0.185 OA 
BRANCH   6   7
HETATM    7  C   UNK     1     -10.754   8.349  68.609  1.00  0.00    -0.034 C  
BRANCH   7   8
HETATM    8  C   UNK     1     -10.368   9.671  67.934  1.00  0.00    -0.224 C  
BRANCH   8   9
HETATM    9  O   UNK     1      -9.960   9.466  66.581  1.00  0.00    -0.219 OA 
BRANCH   9  10
HETATM   10  P   UNK     1     -10.305  10.807  65.543  1.00  0.00    -0.161 P  
HETATM   11  O   UNK     1     -11.181  11.550  66.707  1.00  0.00    -0.301 OA 
HETATM   12  O   UNK     1      -8.859  11.283  65.694  1.00  0.00    -0.189 OA 
BRANCH  10  13
HETATM   13  O   UNK     1     -10.650  12.147  64.505  1.00  0.00    -0.278 OA 
BRANCH  13  14
HETATM   14  C   UNK     1     -11.042  13.319  65.235  1.00  0.00    -0.288 C  
BRANCH  14  15
HETATM   15  C   UNK     1      -9.933  14.373  65.231  1.00  0.00    -0.280 C  
HETATM   16  N   UNK     1      -9.032  14.278  66.416  1.00  0.00    -0.479 NA 
HETATM   17  C   UNK     1     -10.596  15.748  65.229  1.00  0.00    -0.423 C  
HETATM   18  O   UNK     1     -10.623  16.285  66.478  1.00  0.00    -0.308 OA 
HETATM   19  O   UNK     1     -11.093  16.284  64.251  1.00  0.00    -0.762 OA 
HETATM   20  H1  UNK     1      -8.292  14.981  66.413  1.00  0.00     0.000 HD 
HETATM   21  H2  UNK     1      -8.641  13.340  66.502  1.00  0.00     0.000 HD 
ENDBRANCH  14  15
ENDBRANCH  13  14
ENDBRANCH  10  13
ENDBRANCH   9  10
ENDBRANCH   8   9
ENDBRANCH   7   8
BRANCH   7  22
HETATM   22  C   UNK     1     -10.801   7.188  67.599  1.00  0.00    -0.209 C  
BRANCH  22  23
HETATM   23  O   UNK     1      -9.580   6.426  67.607  1.00  0.00    -0.122 OA 
BRANCH  23  24
HETATM   24  C   UNK     1      -9.742   5.078  67.491  1.00  0.00    -0.157 C  
HETATM   25  O   UNK     1     -10.432   4.532  66.648  1.00  0.00    -0.181 OA 
BRANCH  24  26
HETATM   26  C   UNK     1      -8.923   4.373  68.548  1.00  0.00    -0.151 C  
HETATM   27  C   UNK     1      -9.690   4.257  69.853  1.00  0.00    -0.291 C  
ENDBRANCH  24  26
ENDBRANCH  23  24
ENDBRANCH  22  23
ENDBRANCH   7  22
ENDBRANCH   6   7
ENDBRANCH   4   6
ENDBRANCH   3   4
ENDBRANCH   2   3
TORSDOF 14
ENDMDL
MODEL      239
REMARK 921   NORMALIZED FREE ENERGY PREDICTED BY IDOCK:   -3.78 KCAL/MOL
REMARK 922        TOTAL FREE ENERGY PREDICTED BY IDOCK:   -7.97 KCAL/MOL
REMARK 923 INTER-LIGAND FREE ENERGY PREDICTED BY IDOCK:   -7.32 KCAL/MOL
REMARK 924 INTRA-LIGAND FREE ENERGY PREDICTED BY IDOCK:   -0.65 KCAL/MOL
REMARK 927      BINDING AFFINITY PREDICTED BY RF-SCORE:    0.00 PKD
ROOT
HETATM    1  C   UNK     1     -12.136  12.189  63.616  1.00  0.00    -0.648 C  
HETATM    2  C   UNK     1     -11.828  13.219  64.695  1.00  0.00    -0.420 C  
ENDROOT
BRANCH   2   3
HETATM    3  C   UNK     1     -10.574  12.872  65.491  1.00  0.00    -0.298 C  
BRANCH   3   4
HETATM    4  C   UNK     1     -10.830  11.720  66.427  1.00  0.00    -0.282 C  
HETATM    5  O   UNK     1     -10.049  10.796  66.610  1.00  0.00    -0.203 OA 
BRANCH   4   6
HETATM    6  O   UNK     1     -12.051  11.838  67.004  1.00  0.00    -0.575 OA 
BRANCH   6   7
HETATM    7  C   UNK     1     -12.135  12.211  68.400  1.00  0.00    -0.036 C  
BRANCH   7   8
HETATM    8  C   UNK     1     -11.138  11.455  69.287  1.00  0.00    -0.254 C  
BRANCH   8   9
HETATM    9  O   UNK     1     -11.720  11.104  70.543  1.00  0.00    -0.333 OA 
BRANCH   9  10
HETATM   10  P   UNK     1     -11.348   9.493  71.052  1.00  0.00    -0.406 P  
HETATM   11  O   UNK     1     -12.930   9.135  71.254  1.00  0.00    -0.313 OA 
HETATM   12  O   UNK     1     -10.983   9.132  69.611  1.00  0.00    -0.226 OA 
BRANCH  10  13
HETATM   13  O   UNK     1     -10.975   7.882  71.562  1.00  0.00    -0.227 OA 
BRANCH  13  14
HETATM   14  C   UNK     1     -10.405   7.841  72.878  1.00  0.00    -0.334 C  
BRANCH  14  15
HETATM   15  C   UNK     1      -9.006   7.222  72.857  1.00  0.00    -0.134 C  
HETATM   16  N   UNK     1      -8.741   6.333  74.026  1.00  0.00    -0.122 NA 
HETATM   17  C   UNK     1      -7.992   8.363  72.871  1.00  0.00    -0.091 C  
HETATM   18  O   UNK     1      -7.501   8.573  74.121  1.00  0.00    -0.309 OA 
HETATM   19  O   UNK     1      -7.692   9.045  71.903  1.00  0.00    -0.340 OA 
HETATM   20  H1  UNK     1      -7.808   5.921  74.012  1.00  0.00     0.000 HD 
HETATM   21  H2  UNK     1      -9.457   5.611  74.103  1.00  0.00     0.000 HD 
ENDBRANCH  14  15
ENDBRANCH  13  14
ENDBRANCH  10  13
ENDBRANCH   9  10
ENDBRANCH   8   9
ENDBRANCH   7   8
BRANCH   7  22
HETATM   22  C   UNK     1     -12.020  13.735  68.588  1.00  0.00    -0.366 C  
BRANCH  22  23
HETATM   23  O   UNK     1     -10.897  14.085  69.419  1.00  0.00    -0.206 OA 
BRANCH  23  24
HETATM   24  C   UNK     1     -10.498  15.384  69.329  1.00  0.00    -0.251 C  
HETATM   25  O   UNK     1      -9.737  15.820  68.482  1.00  0.00    -0.199 OA 
BRANCH  24  26
HETATM   26  C   UNK     1     -11.157  16.197  70.420  1.00  0.00    -0.362 C  
HETATM   27  C   UNK     1     -11.188  15.436  71.733  1.00  0.00    -0.380 C  
ENDBRANCH  24  26
ENDBRANCH  23  24
ENDBRANCH  22  23
ENDBRANCH   7  22
ENDBRANCH   6   7
ENDBRANCH   4   6
ENDBRANCH   3   4
ENDBRANCH   2   3
TORSDOF 14
ENDMDL
MODEL      240
REMARK 921   NORMALIZED FREE ENERGY PREDICTED BY IDOCK:   -3.77 KCAL/MOL
REMARK 922        TOTAL FREE ENERGY PREDICTED BY IDOCK:   -7.95 KCAL/MOL
REMARK 923 INTER-LIGAND FREE ENERGY PREDICTED BY IDOCK:   -6.73 KCAL/MOL
REMARK 924 INTRA-LIGAND FREE ENERGY PREDICTED BY IDOCK:   -1.22 KCAL/MOL
REMARK 927      BINDING AFFINITY PREDICTED BY RF-SCORE:    0.00 PKD
ROOT
HETATM    1  C   UNK     1     -12.180  13.110  63.094  1.00  0.00    -0.275 C  
HETATM    2  C   UNK     1     -12.698  12.062  64.069  1.00  0.00    -0.415 C  
ENDROOT
BRANCH   2   3
HETATM    3  C   UNK     1     -12.103  12.219  65.465  1.00  0.00    -0.326 C  
BRANCH   3   4
HETATM    4  C   UNK     1     -10.659  11.790  65.488  1.00  0.00    -0.276 C  
HETATM    5  O   UNK     1     -10.287  10.625  65.439  1.00  0.00    -0.272 OA 
BRANCH   4   6
HETATM    6  O   UNK     1      -9.845  12.867  65.601  1.00  0.00    -0.251 OA 
BRANCH   6   7
HETATM    7  C   UNK     1     -10.108  13.841  66.638  1.00  0.00    -0.277 C  
BRANCH   7   8
HETATM    8  C   UNK     1      -9.980  13.263  68.054  1.00  0.00    -0.233 C  
BRANCH   8   9
HETATM    9  O   UNK     1     -11.205  13.382  68.778  1.00  0.00    -0.248 OA 
BRANCH   9  10
HETATM   10  P   UNK     1     -11.538  12.027  69.800  1.00  0.00    -0.170 P  
HETATM   11  O   UNK     1     -12.527  12.919  70.749  1.00  0.00    -0.349 OA 
HETATM   12  O   UNK     1     -12.402  11.417  68.695  1.00  0.00    -0.491 OA 
BRANCH  10  13
HETATM   13  O   UNK     1     -11.870  10.672  70.823  1.00  0.00    -0.323 OA 
BRANCH  13  14
HETATM   14  C   UNK     1     -10.729   9.819  70.993  1.00  0.00    -0.272 C  
BRANCH  14  15
HETATM   15  C   UNK     1     -10.986   8.426  70.414  1.00  0.00    -0.239 C  
HETATM   16  N   UNK     1     -10.732   7.329  71.393  1.00  0.00    -0.227 NA 
HETATM   17  C   UNK     1     -10.055   8.240  69.218  1.00  0.00    -0.199 C  
HETATM   18  O   UNK     1      -8.956   7.515  69.556  1.00  0.00    -0.143 OA 
HETATM   19  O   UNK     1     -10.235   8.721  68.110  1.00  0.00    -0.189 OA 
HETATM   20  H1  UNK     1     -10.904   6.401  71.006  1.00  0.00     0.000 HD 
HETATM   21  H2  UNK     1     -11.271   7.472  72.247  1.00  0.00     0.000 HD 
ENDBRANCH  14  15
ENDBRANCH  13  14
ENDBRANCH  10  13
ENDBRANCH   9  10
ENDBRANCH   8   9
ENDBRANCH   7   8
BRANCH   7  22
HETATM   22  C   UNK     1      -9.248  15.106  66.461  1.00  0.00    -0.287 C  
BRANCH  22  23
HETATM   23  O   UNK     1      -8.844  15.656  67.728  1.00  0.00    -0.169 OA 
BRANCH  23  24
HETATM   24  C   UNK     1      -9.328  16.901  67.995  1.00  0.00    -0.238 C  
HETATM   25  O   UNK     1     -10.511  17.194  68.032  1.00  0.00    -0.336 OA 
BRANCH  24  26
HETATM   26  C   UNK     1      -8.179  17.849  68.256  1.00  0.00    -0.292 C  
HETATM   27  C   UNK     1      -7.030  17.144  68.953  1.00  0.00    -0.232 C  
ENDBRANCH  24  26
ENDBRANCH  23  24
ENDBRANCH  22  23
ENDBRANCH   7  22
ENDBRANCH   6   7
ENDBRANCH   4   6
ENDBRANCH   3   4
ENDBRANCH   2   3
TORSDOF 14
ENDMDL
MODEL      241
REMARK 921   NORMALIZED FREE ENERGY PREDICTED BY IDOCK:   -3.77 KCAL/MOL
REMARK 922        TOTAL FREE ENERGY PREDICTED BY IDOCK:   -7.94 KCAL/MOL
REMARK 923 INTER-LIGAND FREE ENERGY PREDICTED BY IDOCK:   -7.07 KCAL/MOL
REMARK 924 INTRA-LIGAND FREE ENERGY PREDICTED BY IDOCK:   -0.87 KCAL/MOL
REMARK 927      BINDING AFFINITY PREDICTED BY RF-SCORE:    0.00 PKD
ROOT
HETATM    1  C   UNK     1     -10.253   3.429  71.800  1.00  0.00    -0.038 C  
HETATM    2  C   UNK     1      -9.891   4.883  72.068  1.00  0.00    -0.232 C  
ENDROOT
BRANCH   2   3
HETATM    3  C   UNK     1     -11.108   5.801  72.052  1.00  0.00    -0.318 C  
BRANCH   3   4
HETATM    4  C   UNK     1     -10.863   7.039  72.875  1.00  0.00    -0.301 C  
HETATM    5  O   UNK     1     -10.363   7.034  73.991  1.00  0.00    -0.364 OA 
BRANCH   4   6
HETATM    6  O   UNK     1     -11.300   8.141  72.218  1.00  0.00    -0.310 OA 
BRANCH   6   7
HETATM    7  C   UNK     1     -10.996   8.287  70.811  1.00  0.00    -0.243 C  
BRANCH   7   8
HETATM    8  C   UNK     1     -11.535   9.592  70.210  1.00  0.00    -0.233 C  
BRANCH   8   9
HETATM    9  O   UNK     1     -10.487  10.372  69.634  1.00  0.00    -0.231 OA 
BRANCH   9  10
HETATM   10  P   UNK     1     -10.827  10.905  68.023  1.00  0.00    -0.292 P  
HETATM   11  O   UNK     1     -10.848   9.368  67.463  1.00  0.00    -0.269 OA 
HETATM   12  O   UNK     1     -12.256  11.249  68.448  1.00  0.00    -0.604 OA 
BRANCH  10  13
HETATM   13  O   UNK     1     -11.168  11.437  66.412  1.00  0.00    -0.283 OA 
BRANCH  13  14
HETATM   14  C   UNK     1     -11.618  12.799  66.368  1.00  0.00    -0.378 C  
BRANCH  14  15
HETATM   15  C   UNK     1     -10.868  13.596  65.299  1.00  0.00    -0.322 C  
HETATM   16  N   UNK     1     -10.446  14.949  65.766  1.00  0.00    -0.309 NA 
HETATM   17  C   UNK     1     -11.801  13.762  64.101  1.00  0.00    -0.401 C  
HETATM   18  O   UNK     1     -12.393  14.986  64.102  1.00  0.00    -0.659 OA 
HETATM   19  O   UNK     1     -12.037  12.896  63.273  1.00  0.00    -0.561 OA 
HETATM   20  H1  UNK     1      -9.946  15.480  65.053  1.00  0.00     0.000 HD 
HETATM   21  H2  UNK     1      -9.895  14.882  66.622  1.00  0.00     0.000 HD 
ENDBRANCH  14  15
ENDBRANCH  13  14
ENDBRANCH  10  13
ENDBRANCH   9  10
ENDBRANCH   8   9
ENDBRANCH   7   8
BRANCH   7  22
HETATM   22  C   UNK     1      -9.491   8.114  70.533  1.00  0.00    -0.163 C  
BRANCH  22  23
HETATM   23  O   UNK     1      -9.256   7.393  69.309  1.00  0.00    -0.148 OA 
BRANCH  23  24
HETATM   24  C   UNK     1      -8.124   7.750  68.640  1.00  0.00    -0.127 C  
HETATM   25  O   UNK     1      -7.553   8.820  68.762  1.00  0.00    -0.092 OA 
BRANCH  24  26
HETATM   26  C   UNK     1      -7.680   6.614  67.748  1.00  0.00    -0.107 C  
HETATM   27  C   UNK     1      -8.059   5.268  68.338  1.00  0.00    -0.091 C  
ENDBRANCH  24  26
ENDBRANCH  23  24
ENDBRANCH  22  23
ENDBRANCH   7  22
ENDBRANCH   6   7
ENDBRANCH   4   6
ENDBRANCH   3   4
ENDBRANCH   2   3
TORSDOF 14
ENDMDL
MODEL      242
REMARK 921   NORMALIZED FREE ENERGY PREDICTED BY IDOCK:   -3.76 KCAL/MOL
REMARK 922        TOTAL FREE ENERGY PREDICTED BY IDOCK:   -7.93 KCAL/MOL
REMARK 923 INTER-LIGAND FREE ENERGY PREDICTED BY IDOCK:   -7.29 KCAL/MOL
REMARK 924 INTRA-LIGAND FREE ENERGY PREDICTED BY IDOCK:   -0.64 KCAL/MOL
REMARK 927      BINDING AFFINITY PREDICTED BY RF-SCORE:    0.00 PKD
ROOT
HETATM    1  C   UNK     1     -12.011  13.755  64.374  1.00  0.00    -0.480 C  
HETATM    2  C   UNK     1     -11.494  14.272  65.709  1.00  0.00    -0.335 C  
ENDROOT
BRANCH   2   3
HETATM    3  C   UNK     1     -10.449  13.349  66.328  1.00  0.00    -0.289 C  
BRANCH   3   4
HETATM    4  C   UNK     1     -11.061  12.031  66.726  1.00  0.00    -0.305 C  
HETATM    5  O   UNK     1     -10.660  10.942  66.340  1.00  0.00    -0.254 OA 
BRANCH   4   6
HETATM    6  O   UNK     1     -12.127  12.228  67.539  1.00  0.00    -0.514 OA 
BRANCH   6   7
HETATM    7  C   UNK     1     -11.966  12.048  68.966  1.00  0.00    -0.264 C  
BRANCH   7   8
HETATM    8  C   UNK     1     -11.135  10.809  69.327  1.00  0.00    -0.256 C  
BRANCH   8   9
HETATM    9  O   UNK     1     -11.594  10.209  70.539  1.00  0.00    -0.280 OA 
BRANCH   9  10
HETATM   10  P   UNK     1     -11.346   8.498  70.600  1.00  0.00    -0.155 P  
HETATM   11  O   UNK     1     -10.120   8.661  71.671  1.00  0.00    -0.238 OA 
HETATM   12  O   UNK     1     -12.635   8.350  71.411  1.00  0.00    -0.307 OA 
BRANCH  10  13
HETATM   13  O   UNK     1     -11.098   6.787  70.662  1.00  0.00    -0.257 OA 
BRANCH  13  14
HETATM   14  C   UNK     1     -11.279   6.160  69.384  1.00  0.00    -0.396 C  
BRANCH  14  15
HETATM   15  C   UNK     1      -9.976   5.533  68.885  1.00  0.00    -0.174 C  
HETATM   16  N   UNK     1      -8.923   5.454  69.939  1.00  0.00    -0.123 NA 
HETATM   17  C   UNK     1      -9.455   6.392  67.736  1.00  0.00    -0.115 C  
HETATM   18  O   UNK     1      -8.478   7.239  68.156  1.00  0.00    -0.123 OA 
HETATM   19  O   UNK     1      -9.889   6.371  66.594  1.00  0.00    -0.164 OA 
HETATM   20  H1  UNK     1      -8.054   5.035  69.605  1.00  0.00     0.000 HD 
HETATM   21  H2  UNK     1      -9.269   4.964  70.763  1.00  0.00     0.000 HD 
ENDBRANCH  14  15
ENDBRANCH  13  14
ENDBRANCH  10  13
ENDBRANCH   9  10
ENDBRANCH   8   9
ENDBRANCH   7   8
BRANCH   7  22
HETATM   22  C   UNK     1     -11.414  13.318  69.641  1.00  0.00    -0.198 C  
BRANCH  22  23
HETATM   23  O   UNK     1     -12.363  13.885  70.563  1.00  0.00    -0.330 OA 
BRANCH  23  24
HETATM   24  C   UNK     1     -12.140  15.189  70.888  1.00  0.00    -0.334 C  
HETATM   25  O   UNK     1     -11.116  15.802  70.638  1.00  0.00    -0.318 OA 
BRANCH  24  26
HETATM   26  C   UNK     1     -13.357  15.757  71.581  1.00  0.00    -0.428 C  
HETATM   27  C   UNK     1     -14.381  14.674  71.873  1.00  0.00    -0.656 C  
ENDBRANCH  24  26
ENDBRANCH  23  24
ENDBRANCH  22  23
ENDBRANCH   7  22
ENDBRANCH   6   7
ENDBRANCH   4   6
ENDBRANCH   3   4
ENDBRANCH   2   3
TORSDOF 14
ENDMDL
MODEL      243
REMARK 921   NORMALIZED FREE ENERGY PREDICTED BY IDOCK:   -3.76 KCAL/MOL
REMARK 922        TOTAL FREE ENERGY PREDICTED BY IDOCK:   -7.93 KCAL/MOL
REMARK 923 INTER-LIGAND FREE ENERGY PREDICTED BY IDOCK:   -7.15 KCAL/MOL
REMARK 924 INTRA-LIGAND FREE ENERGY PREDICTED BY IDOCK:   -0.78 KCAL/MOL
REMARK 927      BINDING AFFINITY PREDICTED BY RF-SCORE:    0.00 PKD
ROOT
HETATM    1  C   UNK     1      -6.579   7.867  65.976  1.00  0.00    -0.049 C  
HETATM    2  C   UNK     1      -7.249   9.208  66.240  1.00  0.00    -0.091 C  
ENDROOT
BRANCH   2   3
HETATM    3  C   UNK     1      -8.260   9.141  67.381  1.00  0.00    -0.107 C  
BRANCH   3   4
HETATM    4  C   UNK     1      -9.669   9.260  66.861  1.00  0.00    -0.190 C  
HETATM    5  O   UNK     1      -9.955   9.451  65.687  1.00  0.00    -0.304 OA 
BRANCH   4   6
HETATM    6  O   UNK     1     -10.561   9.160  67.876  1.00  0.00    -0.240 OA 
BRANCH   6   7
HETATM    7  C   UNK     1     -10.762  10.296  68.750  1.00  0.00    -0.219 C  
BRANCH   7   8
HETATM    8  C   UNK     1     -11.436  11.483  68.050  1.00  0.00    -0.311 C  
BRANCH   8   9
HETATM    9  O   UNK     1     -10.534  12.579  67.898  1.00  0.00    -0.208 OA 
BRANCH   9  10
HETATM   10  P   UNK     1     -11.040  14.011  68.726  1.00  0.00    -0.287 P  
HETATM   11  O   UNK     1     -12.067  14.411  67.517  1.00  0.00    -0.377 OA 
HETATM   12  O   UNK     1     -11.825  13.150  69.717  1.00  0.00    -0.307 OA 
BRANCH  10  13
HETATM   13  O   UNK     1     -11.547  15.443  69.554  1.00  0.00    -0.287 OA 
BRANCH  13  14
HETATM   14  C   UNK     1     -11.351  15.356  70.973  1.00  0.00    -0.367 C  
BRANCH  14  15
HETATM   15  C   UNK     1     -12.515  15.993  71.735  1.00  0.00    -0.401 C  
HETATM   16  N   UNK     1     -12.075  16.796  72.912  1.00  0.00    -0.344 NA 
HETATM   17  C   UNK     1     -13.424  14.867  72.222  1.00  0.00    -0.409 C  
HETATM   18  O   UNK     1     -13.187  14.573  73.528  1.00  0.00    -0.526 OA 
HETATM   19  O   UNK     1     -14.225  14.264  71.526  1.00  0.00    -0.377 OA 
HETATM   20  H1  UNK     1     -12.851  17.220  73.420  1.00  0.00     0.000 HD 
HETATM   21  H2  UNK     1     -11.392  17.501  72.636  1.00  0.00     0.000 HD 
ENDBRANCH  14  15
ENDBRANCH  13  14
ENDBRANCH  10  13
ENDBRANCH   9  10
ENDBRANCH   8   9
ENDBRANCH   7   8
BRANCH   7  22
HETATM   22  C   UNK     1     -11.507   9.898  70.037  1.00  0.00    -0.217 C  
BRANCH  22  23
HETATM   23  O   UNK     1     -10.904   8.753  70.669  1.00  0.00    -0.217 OA 
BRANCH  23  24
HETATM   24  C   UNK     1     -11.331   8.506  71.939  1.00  0.00    -0.329 C  
HETATM   25  O   UNK     1     -12.311   9.016  72.454  1.00  0.00    -0.349 OA 
BRANCH  24  26
HETATM   26  C   UNK     1     -10.419   7.495  72.595  1.00  0.00    -0.322 C  
HETATM   27  C   UNK     1      -9.237   8.171  73.265  1.00  0.00    -0.316 C  
ENDBRANCH  24  26
ENDBRANCH  23  24
ENDBRANCH  22  23
ENDBRANCH   7  22
ENDBRANCH   6   7
ENDBRANCH   4   6
ENDBRANCH   3   4
ENDBRANCH   2   3
TORSDOF 14
ENDMDL
MODEL      244
REMARK 921   NORMALIZED FREE ENERGY PREDICTED BY IDOCK:   -3.76 KCAL/MOL
REMARK 922        TOTAL FREE ENERGY PREDICTED BY IDOCK:   -7.93 KCAL/MOL
REMARK 923 INTER-LIGAND FREE ENERGY PREDICTED BY IDOCK:   -6.93 KCAL/MOL
REMARK 924 INTRA-LIGAND FREE ENERGY PREDICTED BY IDOCK:   -1.00 KCAL/MOL
REMARK 927      BINDING AFFINITY PREDICTED BY RF-SCORE:    0.00 PKD
ROOT
HETATM    1  C   UNK     1     -12.691   8.866  72.148  1.00  0.00    -0.470 C  
HETATM    2  C   UNK     1     -13.138  10.090  71.360  1.00  0.00    -0.512 C  
ENDROOT
BRANCH   2   3
HETATM    3  C   UNK     1     -11.963  10.901  70.823  1.00  0.00    -0.449 C  
BRANCH   3   4
HETATM    4  C   UNK     1     -11.415  10.286  69.561  1.00  0.00    -0.210 C  
HETATM    5  O   UNK     1     -10.660   9.324  69.537  1.00  0.00    -0.217 OA 
BRANCH   4   6
HETATM    6  O   UNK     1     -11.850  10.967  68.473  1.00  0.00    -0.464 OA 
BRANCH   6   7
HETATM    7  C   UNK     1     -11.168  12.183  68.087  1.00  0.00    -0.267 C  
BRANCH   7   8
HETATM    8  C   UNK     1      -9.762  11.934  67.526  1.00  0.00    -0.181 C  
BRANCH   8   9
HETATM    9  O   UNK     1      -9.813  11.238  66.281  1.00  0.00    -0.202 OA 
BRANCH   9  10
HETATM   10  P   UNK     1      -8.919   9.757  66.279  1.00  0.00    -0.167 P  
HETATM   11  O   UNK     1      -8.476   9.961  67.840  1.00  0.00    -0.120 OA 
HETATM   12  O   UNK     1     -10.233   8.974  66.282  1.00  0.00    -0.284 OA 
BRANCH  10  13
HETATM   13  O   UNK     1      -8.024   8.276  66.277  1.00  0.00    -0.095 OA 
BRANCH  13  14
HETATM   14  C   UNK     1      -8.678   7.240  65.530  1.00  0.00    -0.024 C  
BRANCH  14  15
HETATM   15  C   UNK     1      -8.565   5.889  66.239  1.00  0.00    -0.132 C  
HETATM   16  N   UNK     1      -7.833   4.866  65.436  1.00  0.00    -0.090 NA 
HETATM   17  C   UNK     1      -9.980   5.382  66.505  1.00  0.00    -0.196 C  
HETATM   18  O   UNK     1     -10.360   4.468  65.573  1.00  0.00    -0.254 OA 
HETATM   19  O   UNK     1     -10.708   5.778  67.401  1.00  0.00    -0.255 OA 
HETATM   20  H1  UNK     1      -7.758   3.965  65.909  1.00  0.00     0.000 HD 
HETATM   21  H2  UNK     1      -6.914   5.210  65.161  1.00  0.00     0.000 HD 
ENDBRANCH  14  15
ENDBRANCH  13  14
ENDBRANCH  10  13
ENDBRANCH   9  10
ENDBRANCH   8   9
ENDBRANCH   7   8
BRANCH   7  22
HETATM   22  C   UNK     1     -12.021  13.032  67.125  1.00  0.00    -0.329 C  
BRANCH  22  23
HETATM   23  O   UNK     1     -11.301  14.186  66.654  1.00  0.00    -0.322 OA 
BRANCH  23  24
HETATM   24  C   UNK     1     -11.200  14.288  65.300  1.00  0.00    -0.337 C  
HETATM   25  O   UNK     1     -10.252  14.776  64.708  1.00  0.00    -0.349 OA 
BRANCH  24  26
HETATM   26  C   UNK     1     -12.426  13.687  64.651  1.00  0.00    -0.359 C  
HETATM   27  C   UNK     1     -12.050  12.803  63.476  1.00  0.00    -0.642 C  
ENDBRANCH  24  26
ENDBRANCH  23  24
ENDBRANCH  22  23
ENDBRANCH   7  22
ENDBRANCH   6   7
ENDBRANCH   4   6
ENDBRANCH   3   4
ENDBRANCH   2   3
TORSDOF 14
ENDMDL
MODEL      245
REMARK 921   NORMALIZED FREE ENERGY PREDICTED BY IDOCK:   -3.75 KCAL/MOL
REMARK 922        TOTAL FREE ENERGY PREDICTED BY IDOCK:   -7.91 KCAL/MOL
REMARK 923 INTER-LIGAND FREE ENERGY PREDICTED BY IDOCK:   -6.89 KCAL/MOL
REMARK 924 INTRA-LIGAND FREE ENERGY PREDICTED BY IDOCK:   -1.02 KCAL/MOL
REMARK 927      BINDING AFFINITY PREDICTED BY RF-SCORE:    0.00 PKD
ROOT
HETATM    1  C   UNK     1     -12.561  12.101  63.342  1.00  0.00    -0.584 C  
HETATM    2  C   UNK     1     -11.978  13.265  64.130  1.00  0.00    -0.505 C  
ENDROOT
BRANCH   2   3
HETATM    3  C   UNK     1     -10.702  12.885  64.876  1.00  0.00    -0.333 C  
BRANCH   3   4
HETATM    4  C   UNK     1     -10.947  11.728  65.809  1.00  0.00    -0.301 C  
HETATM    5  O   UNK     1     -10.273  10.706  65.828  1.00  0.00    -0.253 OA 
BRANCH   4   6
HETATM    6  O   UNK     1     -12.028  11.967  66.590  1.00  0.00    -0.601 OA 
BRANCH   6   7
HETATM    7  C   UNK     1     -11.833  12.537  67.905  1.00  0.00    -0.323 C  
BRANCH   7   8
HETATM    8  C   UNK     1     -10.507  12.117  68.553  1.00  0.00    -0.233 C  
BRANCH   8   9
HETATM    9  O   UNK     1     -10.704  11.088  69.524  1.00  0.00    -0.237 OA 
BRANCH   9  10
HETATM   10  P   UNK     1      -9.453   9.893  69.529  1.00  0.00    -0.224 P  
HETATM   11  O   UNK     1     -10.312   8.913  68.542  1.00  0.00    -0.195 OA 
HETATM   12  O   UNK     1      -8.599  10.796  68.636  1.00  0.00    -0.136 OA 
BRANCH  10  13
HETATM   13  O   UNK     1      -8.202   8.698  69.534  1.00  0.00    -0.110 OA 
BRANCH  13  14
HETATM   14  C   UNK     1      -8.612   7.470  68.915  1.00  0.00    -0.129 C  
BRANCH  14  15
HETATM   15  C   UNK     1      -8.496   6.294  69.886  1.00  0.00    -0.130 C  
HETATM   16  N   UNK     1      -8.041   5.034  69.228  1.00  0.00    -0.082 NA 
HETATM   17  C   UNK     1      -9.875   6.056  70.497  1.00  0.00    -0.180 C  
HETATM   18  O   UNK     1     -10.519   5.031  69.879  1.00  0.00    -0.280 OA 
HETATM   19  O   UNK     1     -10.369   6.727  71.389  1.00  0.00    -0.202 OA 
HETATM   20  H1  UNK     1      -7.964   4.250  69.875  1.00  0.00     0.000 HD 
HETATM   21  H2  UNK     1      -7.165   5.182  68.728  1.00  0.00     0.000 HD 
ENDBRANCH  14  15
ENDBRANCH  13  14
ENDBRANCH  10  13
ENDBRANCH   9  10
ENDBRANCH   8   9
ENDBRANCH   7   8
BRANCH   7  22
HETATM   22  C   UNK     1     -11.998  14.068  67.891  1.00  0.00    -0.351 C  
BRANCH  22  23
HETATM   23  O   UNK     1     -10.735  14.737  67.717  1.00  0.00    -0.260 OA 
BRANCH  23  24
HETATM   24  C   UNK     1     -10.714  16.039  68.119  1.00  0.00    -0.311 C  
HETATM   25  O   UNK     1     -11.182  16.450  69.167  1.00  0.00    -0.314 OA 
BRANCH  24  26
HETATM   26  C   UNK     1     -10.007  16.881  67.082  1.00  0.00    -0.276 C  
HETATM   27  C   UNK     1     -10.447  16.510  65.677  1.00  0.00    -0.341 C  
ENDBRANCH  24  26
ENDBRANCH  23  24
ENDBRANCH  22  23
ENDBRANCH   7  22
ENDBRANCH   6   7
ENDBRANCH   4   6
ENDBRANCH   3   4
ENDBRANCH   2   3
TORSDOF 14
ENDMDL
MODEL      246
REMARK 921   NORMALIZED FREE ENERGY PREDICTED BY IDOCK:   -3.74 KCAL/MOL
REMARK 922        TOTAL FREE ENERGY PREDICTED BY IDOCK:   -7.89 KCAL/MOL
REMARK 923 INTER-LIGAND FREE ENERGY PREDICTED BY IDOCK:   -6.72 KCAL/MOL
REMARK 924 INTRA-LIGAND FREE ENERGY PREDICTED BY IDOCK:   -1.17 KCAL/MOL
REMARK 927      BINDING AFFINITY PREDICTED BY RF-SCORE:    0.00 PKD
ROOT
HETATM    1  C   UNK     1      -6.552  10.785  70.120  1.00  0.00    -0.144 C  
HETATM    2  C   UNK     1      -7.700  10.496  69.162  1.00  0.00    -0.131 C  
ENDROOT
BRANCH   2   3
HETATM    3  C   UNK     1      -8.721   9.526  69.748  1.00  0.00    -0.204 C  
BRANCH   3   4
HETATM    4  C   UNK     1     -10.080  10.168  69.848  1.00  0.00    -0.222 C  
HETATM    5  O   UNK     1     -11.009   9.714  70.502  1.00  0.00    -0.262 OA 
BRANCH   4   6
HETATM    6  O   UNK     1     -10.133  11.291  69.090  1.00  0.00    -0.174 OA 
BRANCH   6   7
HETATM    7  C   UNK     1     -11.320  11.554  68.307  1.00  0.00    -0.286 C  
BRANCH   7   8
HETATM    8  C   UNK     1     -11.813  13.003  68.427  1.00  0.00    -0.334 C  
BRANCH   8   9
HETATM    9  O   UNK     1     -10.819  13.844  69.014  1.00  0.00    -0.245 OA 
BRANCH   9  10
HETATM   10  P   UNK     1     -10.917  15.493  68.500  1.00  0.00    -0.324 P  
HETATM   11  O   UNK     1      -9.356  15.767  68.904  1.00  0.00    -0.199 OA 
HETATM   12  O   UNK     1     -10.930  15.028  67.043  1.00  0.00    -0.307 OA 
BRANCH  10  13
HETATM   13  O   UNK     1     -11.015  17.142  67.986  1.00  0.00    -0.362 OA 
BRANCH  13  14
HETATM   14  C   UNK     1     -10.209  18.016  68.790  1.00  0.00    -0.354 C  
BRANCH  14  15
HETATM   15  C   UNK     1      -9.532  19.089  67.934  1.00  0.00    -0.310 C  
HETATM   16  N   UNK     1     -10.368  20.313  67.761  1.00  0.00    -0.324 NA 
HETATM   17  C   UNK     1      -9.259  18.485  66.559  1.00  0.00    -0.310 C  
HETATM   18  O   UNK     1     -10.205  18.859  65.658  1.00  0.00    -0.504 OA 
HETATM   19  O   UNK     1      -8.343  17.719  66.301  1.00  0.00    -0.364 OA 
HETATM   20  H1  UNK     1      -9.916  21.028  67.191  1.00  0.00     0.000 HD 
HETATM   21  H2  UNK     1     -10.648  20.692  68.665  1.00  0.00     0.000 HD 
ENDBRANCH  14  15
ENDBRANCH  13  14
ENDBRANCH  10  13
ENDBRANCH   9  10
ENDBRANCH   8   9
ENDBRANCH   7   8
BRANCH   7  22
HETATM   22  C   UNK     1     -11.135  11.138  66.836  1.00  0.00    -0.247 C  
BRANCH  22  23
HETATM   23  O   UNK     1      -9.836  10.560  66.607  1.00  0.00    -0.186 OA 
BRANCH  23  24
HETATM   24  C   UNK     1      -9.840   9.224  66.340  1.00  0.00    -0.277 C  
HETATM   25  O   UNK     1     -10.626   8.423  66.818  1.00  0.00    -0.295 OA 
BRANCH  24  26
HETATM   26  C   UNK     1      -8.744   8.898  65.354  1.00  0.00    -0.224 C  
HETATM   27  C   UNK     1      -7.656   9.957  65.367  1.00  0.00    -0.131 C  
ENDBRANCH  24  26
ENDBRANCH  23  24
ENDBRANCH  22  23
ENDBRANCH   7  22
ENDBRANCH   6   7
ENDBRANCH   4   6
ENDBRANCH   3   4
ENDBRANCH   2   3
TORSDOF 14
ENDMDL
MODEL      247
REMARK 921   NORMALIZED FREE ENERGY PREDICTED BY IDOCK:   -3.73 KCAL/MOL
REMARK 922        TOTAL FREE ENERGY PREDICTED BY IDOCK:   -7.88 KCAL/MOL
REMARK 923 INTER-LIGAND FREE ENERGY PREDICTED BY IDOCK:   -6.78 KCAL/MOL
REMARK 924 INTRA-LIGAND FREE ENERGY PREDICTED BY IDOCK:   -1.10 KCAL/MOL
REMARK 927      BINDING AFFINITY PREDICTED BY RF-SCORE:    0.00 PKD
ROOT
HETATM    1  C   UNK     1     -11.342   5.739  72.400  1.00  0.00    -0.348 C  
HETATM    2  C   UNK     1     -11.909   7.131  72.158  1.00  0.00    -0.315 C  
ENDROOT
BRANCH   2   3
HETATM    3  C   UNK     1     -11.469   7.716  70.820  1.00  0.00    -0.295 C  
BRANCH   3   4
HETATM    4  C   UNK     1     -10.465   8.823  71.018  1.00  0.00    -0.230 C  
HETATM    5  O   UNK     1      -9.735   8.921  71.994  1.00  0.00    -0.316 OA 
BRANCH   4   6
HETATM    6  O   UNK     1     -10.513   9.698  69.985  1.00  0.00    -0.222 OA 
BRANCH   6   7
HETATM    7  C   UNK     1     -10.288   9.212  68.641  1.00  0.00    -0.209 C  
BRANCH   7   8
HETATM    8  C   UNK     1     -10.759  10.192  67.558  1.00  0.00    -0.290 C  
BRANCH   8   9
HETATM    9  O   UNK     1     -11.829  11.013  68.029  1.00  0.00    -0.593 OA 
BRANCH   9  10
HETATM   10  P   UNK     1     -11.642  12.687  67.635  1.00  0.00    -0.348 P  
HETATM   11  O   UNK     1     -10.048  12.491  67.326  1.00  0.00    -0.211 OA 
HETATM   12  O   UNK     1     -12.388  12.452  66.320  1.00  0.00    -0.577 OA 
BRANCH  10  13
HETATM   13  O   UNK     1     -11.454  14.361  67.241  1.00  0.00    -0.326 OA 
BRANCH  13  14
HETATM   14  C   UNK     1     -10.078  14.741  67.098  1.00  0.00    -0.240 C  
BRANCH  14  15
HETATM   15  C   UNK     1      -9.615  15.604  68.273  1.00  0.00    -0.200 C  
HETATM   16  N   UNK     1      -9.367  14.816  69.516  1.00  0.00    -0.425 NA 
HETATM   17  C   UNK     1     -10.708  16.632  68.555  1.00  0.00    -0.351 C  
HETATM   18  O   UNK     1     -11.491  16.246  69.598  1.00  0.00    -0.300 OA 
HETATM   19  O   UNK     1     -10.901  17.645  67.902  1.00  0.00    -0.374 OA 
HETATM   20  H1  UNK     1      -9.059  15.392  70.300  1.00  0.00     0.000 HD 
HETATM   21  H2  UNK     1      -8.708  14.058  69.341  1.00  0.00     0.000 HD 
ENDBRANCH  14  15
ENDBRANCH  13  14
ENDBRANCH  10  13
ENDBRANCH   9  10
ENDBRANCH   8   9
ENDBRANCH   7   8
BRANCH   7  22
HETATM   22  C   UNK     1      -8.822   8.792  68.426  1.00  0.00    -0.138 C  
BRANCH  22  23
HETATM   23  O   UNK     1      -8.158   9.644  67.475  1.00  0.00    -0.112 OA 
BRANCH  23  24
HETATM   24  C   UNK     1      -7.105   9.072  66.827  1.00  0.00    -0.082 C  
HETATM   25  O   UNK     1      -6.023   8.833  67.336  1.00  0.00    -0.046 OA 
BRANCH  24  26
HETATM   26  C   UNK     1      -7.491   8.764  65.399  1.00  0.00    -0.086 C  
HETATM   27  C   UNK     1      -7.877  10.025  64.648  1.00  0.00    -0.145 C  
ENDBRANCH  24  26
ENDBRANCH  23  24
ENDBRANCH  22  23
ENDBRANCH   7  22
ENDBRANCH   6   7
ENDBRANCH   4   6
ENDBRANCH   3   4
ENDBRANCH   2   3
TORSDOF 14
ENDMDL
MODEL      248
REMARK 921   NORMALIZED FREE ENERGY PREDICTED BY IDOCK:   -3.73 KCAL/MOL
REMARK 922        TOTAL FREE ENERGY PREDICTED BY IDOCK:   -7.87 KCAL/MOL
REMARK 923 INTER-LIGAND FREE ENERGY PREDICTED BY IDOCK:   -7.51 KCAL/MOL
REMARK 924 INTRA-LIGAND FREE ENERGY PREDICTED BY IDOCK:   -0.36 KCAL/MOL
REMARK 927      BINDING AFFINITY PREDICTED BY RF-SCORE:    0.00 PKD
ROOT
HETATM    1  C   UNK     1     -11.137   4.710  73.373  1.00  0.00    -0.418 C  
HETATM    2  C   UNK     1     -11.477   5.716  72.282  1.00  0.00    -0.278 C  
ENDROOT
BRANCH   2   3
HETATM    3  C   UNK     1     -11.379   7.159  72.767  1.00  0.00    -0.285 C  
BRANCH   3   4
HETATM    4  C   UNK     1     -12.471   8.006  72.166  1.00  0.00    -0.296 C  
HETATM    5  O   UNK     1     -13.403   7.562  71.510  1.00  0.00    -0.356 OA 
BRANCH   4   6
HETATM    6  O   UNK     1     -12.252   9.318  72.426  1.00  0.00    -0.282 OA 
BRANCH   6   7
HETATM    7  C   UNK     1     -11.636  10.143  71.410  1.00  0.00    -0.235 C  
BRANCH   7   8
HETATM    8  C   UNK     1     -11.019   9.328  70.265  1.00  0.00    -0.247 C  
BRANCH   8   9
HETATM    9  O   UNK     1     -10.317  10.168  69.348  1.00  0.00    -0.202 OA 
BRANCH   9  10
HETATM   10  P   UNK     1     -10.203   9.507  67.753  1.00  0.00    -0.244 P  
HETATM   11  O   UNK     1     -11.434  10.442  67.220  1.00  0.00    -0.315 OA 
HETATM   12  O   UNK     1      -8.909  10.293  67.530  1.00  0.00    -0.128 OA 
BRANCH  10  13
HETATM   13  O   UNK     1     -10.089   8.846  66.158  1.00  0.00    -0.291 OA 
BRANCH  13  14
HETATM   14  C   UNK     1      -9.203   7.718  66.093  1.00  0.00    -0.128 C  
BRANCH  14  15
HETATM   15  C   UNK     1      -9.943   6.414  66.397  1.00  0.00    -0.036 C  
HETATM   16  N   UNK     1     -11.399   6.613  66.654  1.00  0.00    -0.689 NA 
HETATM   17  C   UNK     1      -9.307   5.797  67.640  1.00  0.00    -0.108 C  
HETATM   18  O   UNK     1     -10.039   6.064  68.754  1.00  0.00    -0.146 OA 
HETATM   19  O   UNK     1      -8.249   5.186  67.655  1.00  0.00    -0.099 OA 
HETATM   20  H1  UNK     1     -11.892   5.743  66.856  1.00  0.00     0.000 HD 
HETATM   21  H2  UNK     1     -11.840   7.109  65.879  1.00  0.00     0.000 HD 
ENDBRANCH  14  15
ENDBRANCH  13  14
ENDBRANCH  10  13
ENDBRANCH   9  10
ENDBRANCH   8   9
ENDBRANCH   7   8
BRANCH   7  22
HETATM   22  C   UNK     1     -12.605  11.217  70.885  1.00  0.00    -0.371 C  
BRANCH  22  23
HETATM   23  O   UNK     1     -13.045  12.097  71.937  1.00  0.00    -0.446 OA 
BRANCH  23  24
HETATM   24  C   UNK     1     -12.974  13.425  71.644  1.00  0.00    -0.355 C  
HETATM   25  O   UNK     1     -12.055  13.955  71.041  1.00  0.00    -0.340 OA 
BRANCH  24  26
HETATM   26  C   UNK     1     -14.209  14.127  72.158  1.00  0.00    -0.638 C  
HETATM   27  C   UNK     1     -13.857  15.449  72.817  1.00  0.00    -0.576 C  
ENDBRANCH  24  26
ENDBRANCH  23  24
ENDBRANCH  22  23
ENDBRANCH   7  22
ENDBRANCH   6   7
ENDBRANCH   4   6
ENDBRANCH   3   4
ENDBRANCH   2   3
TORSDOF 14
ENDMDL
MODEL      249
REMARK 921   NORMALIZED FREE ENERGY PREDICTED BY IDOCK:   -3.72 KCAL/MOL
REMARK 922        TOTAL FREE ENERGY PREDICTED BY IDOCK:   -7.85 KCAL/MOL
REMARK 923 INTER-LIGAND FREE ENERGY PREDICTED BY IDOCK:   -6.75 KCAL/MOL
REMARK 924 INTRA-LIGAND FREE ENERGY PREDICTED BY IDOCK:   -1.10 KCAL/MOL
REMARK 927      BINDING AFFINITY PREDICTED BY RF-SCORE:    0.00 PKD
ROOT
HETATM    1  C   UNK     1      -7.761   8.315  70.917  1.00  0.00    -0.082 C  
HETATM    2  C   UNK     1      -8.241   8.029  72.333  1.00  0.00    -0.193 C  
ENDROOT
BRANCH   2   3
HETATM    3  C   UNK     1      -8.948   6.682  72.449  1.00  0.00    -0.138 C  
BRANCH   3   4
HETATM    4  C   UNK     1     -10.429   6.866  72.660  1.00  0.00    -0.216 C  
HETATM    5  O   UNK     1     -10.918   7.505  73.582  1.00  0.00    -0.322 OA 
BRANCH   4   6
HETATM    6  O   UNK     1     -11.131   6.202  71.710  1.00  0.00    -0.253 OA 
BRANCH   6   7
HETATM    7  C   UNK     1     -11.706   6.949  70.612  1.00  0.00    -0.367 C  
BRANCH   7   8
HETATM    8  C   UNK     1     -11.464   8.460  70.718  1.00  0.00    -0.255 C  
BRANCH   8   9
HETATM    9  O   UNK     1     -10.848   8.974  69.537  1.00  0.00    -0.229 OA 
BRANCH   9  10
HETATM   10  P   UNK     1     -11.046  10.681  69.340  1.00  0.00    -0.299 P  
HETATM   11  O   UNK     1     -11.598  10.494  67.812  1.00  0.00    -0.462 OA 
HETATM   12  O   UNK     1     -12.262  10.638  70.267  1.00  0.00    -0.294 OA 
BRANCH  10  13
HETATM   13  O   UNK     1     -11.244  12.388  69.143  1.00  0.00    -0.245 OA 
BRANCH  13  14
HETATM   14  C   UNK     1     -10.351  12.935  68.160  1.00  0.00    -0.240 C  
BRANCH  14  15
HETATM   15  C   UNK     1     -10.975  14.139  67.453  1.00  0.00    -0.299 C  
HETATM   16  N   UNK     1     -12.258  14.582  68.073  1.00  0.00    -0.603 NA 
HETATM   17  C   UNK     1     -11.244  13.742  66.004  1.00  0.00    -0.304 C  
HETATM   18  O   UNK     1     -12.546  13.399  65.819  1.00  0.00    -0.446 OA 
HETATM   19  O   UNK     1     -10.396  13.681  65.127  1.00  0.00    -0.338 OA 
HETATM   20  H1  UNK     1     -12.674  15.385  67.601  1.00  0.00     0.000 HD 
HETATM   21  H2  UNK     1     -12.136  14.768  69.068  1.00  0.00     0.000 HD 
ENDBRANCH  14  15
ENDBRANCH  13  14
ENDBRANCH  10  13
ENDBRANCH   9  10
ENDBRANCH   8   9
ENDBRANCH   7   8
BRANCH   7  22
HETATM   22  C   UNK     1     -11.250   6.396  69.249  1.00  0.00    -0.375 C  
BRANCH  22  23
HETATM   23  O   UNK     1     -10.258   5.363  69.399  1.00  0.00    -0.220 OA 
BRANCH  23  24
HETATM   24  C   UNK     1      -9.143   5.521  68.632  1.00  0.00    -0.117 C  
HETATM   25  O   UNK     1      -8.810   6.565  68.097  1.00  0.00    -0.117 OA 
BRANCH  24  26
HETATM   26  C   UNK     1      -8.380   4.218  68.567  1.00  0.00    -0.091 C  
HETATM   27  C   UNK     1      -9.314   3.043  68.341  1.00  0.00    -0.248 C  
ENDBRANCH  24  26
ENDBRANCH  23  24
ENDBRANCH  22  23
ENDBRANCH   7  22
ENDBRANCH   6   7
ENDBRANCH   4   6
ENDBRANCH   3   4
ENDBRANCH   2   3
TORSDOF 14
ENDMDL
MODEL      250
REMARK 921   NORMALIZED FREE ENERGY PREDICTED BY IDOCK:   -3.72 KCAL/MOL
REMARK 922        TOTAL FREE ENERGY PREDICTED BY IDOCK:   -7.85 KCAL/MOL
REMARK 923 INTER-LIGAND FREE ENERGY PREDICTED BY IDOCK:   -6.85 KCAL/MOL
REMARK 924 INTRA-LIGAND FREE ENERGY PREDICTED BY IDOCK:   -1.00 KCAL/MOL
REMARK 927      BINDING AFFINITY PREDICTED BY RF-SCORE:    0.00 PKD
ROOT
HETATM    1  C   UNK     1      -7.078  16.664  68.787  1.00  0.00    -0.194 C  
HETATM    2  C   UNK     1      -8.590  16.484  68.785  1.00  0.00    -0.262 C  
ENDROOT
BRANCH   2   3
HETATM    3  C   UNK     1      -9.093  15.791  67.523  1.00  0.00    -0.201 C  
BRANCH   3   4
HETATM    4  C   UNK     1      -8.984  14.294  67.649  1.00  0.00    -0.194 C  
HETATM    5  O   UNK     1      -8.338  13.585  66.889  1.00  0.00    -0.124 OA 
BRANCH   4   6
HETATM    6  O   UNK     1      -9.723  13.849  68.694  1.00  0.00    -0.220 OA 
BRANCH   6   7
HETATM    7  C   UNK     1     -11.036  13.295  68.440  1.00  0.00    -0.270 C  
BRANCH   7   8
HETATM    8  C   UNK     1     -11.134  11.801  68.776  1.00  0.00    -0.241 C  
BRANCH   8   9
HETATM    9  O   UNK     1     -10.039  11.070  68.224  1.00  0.00    -0.166 OA 
BRANCH   9  10
HETATM   10  P   UNK     1      -9.811   9.514  68.946  1.00  0.00    -0.190 P  
HETATM   11  O   UNK     1      -9.027   8.956  67.624  1.00  0.00    -0.133 OA 
HETATM   12  O   UNK     1      -8.756  10.112  69.878  1.00  0.00    -0.173 OA 
BRANCH  10  13
HETATM   13  O   UNK     1      -9.584   7.959  69.668  1.00  0.00    -0.163 OA 
BRANCH  13  14
HETATM   14  C   UNK     1     -10.287   6.921  68.970  1.00  0.00    -0.192 C  
BRANCH  14  15
HETATM   15  C   UNK     1     -11.311   6.237  69.878  1.00  0.00    -0.434 C  
HETATM   16  N   UNK     1     -12.150   7.204  70.646  1.00  0.00    -0.543 NA 
HETATM   17  C   UNK     1     -10.546   5.361  70.866  1.00  0.00    -0.212 C  
HETATM   18  O   UNK     1     -10.410   5.978  72.070  1.00  0.00    -0.195 OA 
HETATM   19  O   UNK     1     -10.066   4.269  70.606  1.00  0.00    -0.190 OA 
HETATM   20  H1  UNK     1     -12.833   6.748  71.251  1.00  0.00     0.000 HD 
HETATM   21  H2  UNK     1     -12.606   7.868  70.019  1.00  0.00     0.000 HD 
ENDBRANCH  14  15
ENDBRANCH  13  14
ENDBRANCH  10  13
ENDBRANCH   9  10
ENDBRANCH   8   9
ENDBRANCH   7   8
BRANCH   7  22
HETATM   22  C   UNK     1     -12.141  14.108  69.140  1.00  0.00    -0.325 C  
BRANCH  22  23
HETATM   23  O   UNK     1     -11.620  14.873  70.243  1.00  0.00    -0.259 OA 
BRANCH  23  24
HETATM   24  C   UNK     1     -12.136  14.550  71.462  1.00  0.00    -0.331 C  
HETATM   25  O   UNK     1     -12.790  13.547  71.696  1.00  0.00    -0.348 OA 
BRANCH  24  26
HETATM   26  C   UNK     1     -11.758  15.608  72.472  1.00  0.00    -0.567 C  
HETATM   27  C   UNK     1     -12.727  15.625  73.641  1.00  0.00    -0.725 C  
ENDBRANCH  24  26
ENDBRANCH  23  24
ENDBRANCH  22  23
ENDBRANCH   7  22
ENDBRANCH   6   7
ENDBRANCH   4   6
ENDBRANCH   3   4
ENDBRANCH   2   3
TORSDOF 14
ENDMDL
MODEL      251
REMARK 921   NORMALIZED FREE ENERGY PREDICTED BY IDOCK:   -3.71 KCAL/MOL
REMARK 922        TOTAL FREE ENERGY PREDICTED BY IDOCK:   -7.83 KCAL/MOL
REMARK 923 INTER-LIGAND FREE ENERGY PREDICTED BY IDOCK:   -6.84 KCAL/MOL
REMARK 924 INTRA-LIGAND FREE ENERGY PREDICTED BY IDOCK:   -0.99 KCAL/MOL
REMARK 927      BINDING AFFINITY PREDICTED BY RF-SCORE:    0.00 PKD
ROOT
HETATM    1  C   UNK     1     -13.663   7.413  71.570  1.00  0.00    -0.467 C  
HETATM    2  C   UNK     1     -14.025   8.892  71.544  1.00  0.00    -0.365 C  
ENDROOT
BRANCH   2   3
HETATM    3  C   UNK     1     -12.865   9.784  71.973  1.00  0.00    -0.491 C  
BRANCH   3   4
HETATM    4  C   UNK     1     -11.791   9.819  70.917  1.00  0.00    -0.336 C  
HETATM    5  O   UNK     1     -10.754   9.172  70.969  1.00  0.00    -0.243 OA 
BRANCH   4   6
HETATM    6  O   UNK     1     -12.123  10.685  69.929  1.00  0.00    -0.303 OA 
BRANCH   6   7
HETATM    7  C   UNK     1     -11.429  11.952  69.843  1.00  0.00    -0.186 C  
BRANCH   7   8
HETATM    8  C   UNK     1     -10.468  12.034  68.650  1.00  0.00    -0.218 C  
BRANCH   8   9
HETATM    9  O   UNK     1     -10.988  11.340  67.515  1.00  0.00    -0.230 OA 
BRANCH   9  10
HETATM   10  P   UNK     1      -9.887  10.184  66.847  1.00  0.00    -0.213 P  
HETATM   11  O   UNK     1     -10.706   8.938  67.518  1.00  0.00    -0.258 OA 
HETATM   12  O   UNK     1     -10.490  10.425  65.461  1.00  0.00    -0.227 OA 
BRANCH  10  13
HETATM   13  O   UNK     1      -8.787   9.028  66.179  1.00  0.00    -0.146 OA 
BRANCH  13  14
HETATM   14  C   UNK     1      -9.195   7.675  66.427  1.00  0.00    -0.175 C  
BRANCH  14  15
HETATM   15  C   UNK     1      -8.022   6.705  66.272  1.00  0.00    -0.108 C  
HETATM   16  N   UNK     1      -7.098   7.077  65.161  1.00  0.00    -0.058 NA 
HETATM   17  C   UNK     1      -8.598   5.320  65.986  1.00  0.00    -0.124 C  
HETATM   18  O   UNK     1      -8.558   5.033  64.658  1.00  0.00    -0.144 OA 
HETATM   19  O   UNK     1      -9.085   4.578  66.825  1.00  0.00    -0.115 OA 
HETATM   20  H1  UNK     1      -6.316   6.430  65.058  1.00  0.00     0.000 HD 
HETATM   21  H2  UNK     1      -6.765   8.035  65.271  1.00  0.00     0.000 HD 
ENDBRANCH  14  15
ENDBRANCH  13  14
ENDBRANCH  10  13
ENDBRANCH   9  10
ENDBRANCH   8   9
ENDBRANCH   7   8
BRANCH   7  22
HETATM   22  C   UNK     1     -12.409  13.140  69.865  1.00  0.00    -0.135 C  
BRANCH  22  23
HETATM   23  O   UNK     1     -12.661  13.596  71.207  1.00  0.00    -0.342 OA 
BRANCH  23  24
HETATM   24  C   UNK     1     -12.677  14.950  71.361  1.00  0.00    -0.335 C  
HETATM   25  O   UNK     1     -12.250  15.747  70.543  1.00  0.00    -0.387 OA 
BRANCH  24  26
HETATM   26  C   UNK     1     -13.321  15.305  72.681  1.00  0.00    -0.577 C  
HETATM   27  C   UNK     1     -12.395  15.004  73.845  1.00  0.00    -0.658 C  
ENDBRANCH  24  26
ENDBRANCH  23  24
ENDBRANCH  22  23
ENDBRANCH   7  22
ENDBRANCH   6   7
ENDBRANCH   4   6
ENDBRANCH   3   4
ENDBRANCH   2   3
TORSDOF 14
ENDMDL
MODEL      252
REMARK 921   NORMALIZED FREE ENERGY PREDICTED BY IDOCK:   -3.70 KCAL/MOL
REMARK 922        TOTAL FREE ENERGY PREDICTED BY IDOCK:   -7.82 KCAL/MOL
REMARK 923 INTER-LIGAND FREE ENERGY PREDICTED BY IDOCK:   -6.50 KCAL/MOL
REMARK 924 INTRA-LIGAND FREE ENERGY PREDICTED BY IDOCK:   -1.32 KCAL/MOL
REMARK 927      BINDING AFFINITY PREDICTED BY RF-SCORE:    0.00 PKD
ROOT
HETATM    1  C   UNK     1     -12.509  13.456  70.877  1.00  0.00    -0.439 C  
HETATM    2  C   UNK     1     -12.415  11.941  70.761  1.00  0.00    -0.384 C  
ENDROOT
BRANCH   2   3
HETATM    3  C   UNK     1     -13.196  11.222  71.856  1.00  0.00    -0.491 C  
BRANCH   3   4
HETATM    4  C   UNK     1     -13.286   9.745  71.574  1.00  0.00    -0.385 C  
HETATM    5  O   UNK     1     -14.134   9.004  72.052  1.00  0.00    -0.407 OA 
BRANCH   4   6
HETATM    6  O   UNK     1     -12.284   9.356  70.748  1.00  0.00    -0.259 OA 
BRANCH   6   7
HETATM    7  C   UNK     1     -11.508   8.184  71.090  1.00  0.00    -0.276 C  
BRANCH   7   8
HETATM    8  C   UNK     1     -10.689   7.640  69.912  1.00  0.00    -0.249 C  
BRANCH   8   9
HETATM    9  O   UNK     1      -9.423   7.140  70.344  1.00  0.00    -0.162 OA 
BRANCH   9  10
HETATM   10  P   UNK     1      -8.972   5.651  69.587  1.00  0.00    -0.125 P  
HETATM   11  O   UNK     1      -8.270   5.104  70.960  1.00  0.00    -0.106 OA 
HETATM   12  O   UNK     1     -10.435   5.203  69.620  1.00  0.00    -0.280 OA 
BRANCH  10  13
HETATM   13  O   UNK     1      -8.521   4.162  68.831  1.00  0.00    -0.080 OA 
BRANCH  13  14
HETATM   14  C   UNK     1      -9.513   3.694  67.905  1.00  0.00    -0.169 C  
BRANCH  14  15
HETATM   15  C   UNK     1      -8.944   3.585  66.490  1.00  0.00    -0.147 C  
HETATM   16  N   UNK     1      -7.489   3.908  66.418  1.00  0.00    -0.082 NA 
HETATM   17  C   UNK     1      -9.707   4.565  65.603  1.00  0.00    -0.199 C  
HETATM   18  O   UNK     1      -9.006   5.716  65.421  1.00  0.00    -0.148 OA 
HETATM   19  O   UNK     1     -10.827   4.376  65.154  1.00  0.00    -0.255 OA 
HETATM   20  H1  UNK     1      -7.109   3.835  65.473  1.00  0.00     0.000 HD 
HETATM   21  H2  UNK     1      -6.956   3.333  67.069  1.00  0.00     0.000 HD 
ENDBRANCH  14  15
ENDBRANCH  13  14
ENDBRANCH  10  13
ENDBRANCH   9  10
ENDBRANCH   8   9
ENDBRANCH   7   8
BRANCH   7  22
HETATM   22  C   UNK     1     -10.627   8.426  72.329  1.00  0.00    -0.342 C  
BRANCH  22  23
HETATM   23  O   UNK     1     -10.923   7.490  73.383  1.00  0.00    -0.380 OA 
BRANCH  23  24
HETATM   24  C   UNK     1      -9.845   6.819  73.876  1.00  0.00    -0.289 C  
HETATM   25  O   UNK     1      -8.745   7.312  74.059  1.00  0.00    -0.172 OA 
BRANCH  24  26
HETATM   26  C   UNK     1     -10.229   5.389  74.177  1.00  0.00    -0.282 C  
HETATM   27  C   UNK     1     -11.142   4.825  73.104  1.00  0.00    -0.388 C  
ENDBRANCH  24  26
ENDBRANCH  23  24
ENDBRANCH  22  23
ENDBRANCH   7  22
ENDBRANCH   6   7
ENDBRANCH   4   6
ENDBRANCH   3   4
ENDBRANCH   2   3
TORSDOF 14
ENDMDL
MODEL      253
REMARK 921   NORMALIZED FREE ENERGY PREDICTED BY IDOCK:   -3.69 KCAL/MOL
REMARK 922        TOTAL FREE ENERGY PREDICTED BY IDOCK:   -7.79 KCAL/MOL
REMARK 923 INTER-LIGAND FREE ENERGY PREDICTED BY IDOCK:   -6.61 KCAL/MOL
REMARK 924 INTRA-LIGAND FREE ENERGY PREDICTED BY IDOCK:   -1.19 KCAL/MOL
REMARK 927      BINDING AFFINITY PREDICTED BY RF-SCORE:    0.00 PKD
ROOT
HETATM    1  C   UNK     1     -12.099  14.626  64.194  1.00  0.00    -0.346 C  
HETATM    2  C   UNK     1     -12.875  14.187  65.428  1.00  0.00    -0.393 C  
ENDROOT
BRANCH   2   3
HETATM    3  C   UNK     1     -11.968  13.635  66.523  1.00  0.00    -0.465 C  
BRANCH   3   4
HETATM    4  C   UNK     1     -10.957  12.674  65.954  1.00  0.00    -0.278 C  
HETATM    5  O   UNK     1     -11.238  11.582  65.479  1.00  0.00    -0.244 OA 
BRANCH   4   6
HETATM    6  O   UNK     1      -9.704  13.177  66.072  1.00  0.00    -0.279 OA 
BRANCH   6   7
HETATM    7  C   UNK     1      -9.248  13.628  67.370  1.00  0.00    -0.222 C  
BRANCH   7   8
HETATM    8  C   UNK     1      -8.543  12.529  68.176  1.00  0.00    -0.189 C  
BRANCH   8   9
HETATM    9  O   UNK     1      -9.459  11.836  69.024  1.00  0.00    -0.000 OA 
BRANCH   9  10
HETATM   10  P   UNK     1      -9.256  10.118  69.004  1.00  0.00    -0.202 P  
HETATM   11  O   UNK     1      -7.790  10.229  69.720  1.00  0.00    -0.162 OA 
HETATM   12  O   UNK     1     -10.295   9.992  70.120  1.00  0.00    -0.263 OA 
BRANCH  10  13
HETATM   13  O   UNK     1      -9.054   8.400  68.984  1.00  0.00    -0.146 OA 
BRANCH  13  14
HETATM   14  C   UNK     1      -9.956   7.752  68.076  1.00  0.00    -0.175 C  
BRANCH  14  15
HETATM   15  C   UNK     1     -10.698   6.601  68.758  1.00  0.00    -0.258 C  
HETATM   16  N   UNK     1     -11.750   7.065  69.709  1.00  0.00    -0.580 NA 
HETATM   17  C   UNK     1      -9.671   5.777  69.530  1.00  0.00    -0.153 C  
HETATM   18  O   UNK     1      -9.671   6.099  70.851  1.00  0.00    -0.174 OA 
HETATM   19  O   UNK     1      -8.903   4.970  69.029  1.00  0.00    -0.091 OA 
HETATM   20  H1  UNK     1     -12.245   6.297  70.164  1.00  0.00     0.000 HD 
HETATM   21  H2  UNK     1     -12.405   7.696  69.247  1.00  0.00     0.000 HD 
ENDBRANCH  14  15
ENDBRANCH  13  14
ENDBRANCH  10  13
ENDBRANCH   9  10
ENDBRANCH   8   9
ENDBRANCH   7   8
BRANCH   7  22
HETATM   22  C   UNK     1      -8.381  14.896  67.258  1.00  0.00    -0.210 C  
BRANCH  22  23
HETATM   23  O   UNK     1      -8.714  15.666  66.088  1.00  0.00    -0.317 OA 
BRANCH  23  24
HETATM   24  C   UNK     1      -9.538  16.727  66.315  1.00  0.00    -0.289 C  
HETATM   25  O   UNK     1     -10.181  17.304  65.454  1.00  0.00    -0.604 OA 
BRANCH  24  26
HETATM   26  C   UNK     1      -9.547  17.060  67.789  1.00  0.00    -0.244 C  
HETATM   27  C   UNK     1      -9.499  18.560  68.015  1.00  0.00    -0.326 C  
ENDBRANCH  24  26
ENDBRANCH  23  24
ENDBRANCH  22  23
ENDBRANCH   7  22
ENDBRANCH   6   7
ENDBRANCH   4   6
ENDBRANCH   3   4
ENDBRANCH   2   3
TORSDOF 14
ENDMDL
MODEL      254
REMARK 921   NORMALIZED FREE ENERGY PREDICTED BY IDOCK:   -3.69 KCAL/MOL
REMARK 922        TOTAL FREE ENERGY PREDICTED BY IDOCK:   -7.79 KCAL/MOL
REMARK 923 INTER-LIGAND FREE ENERGY PREDICTED BY IDOCK:   -6.26 KCAL/MOL
REMARK 924 INTRA-LIGAND FREE ENERGY PREDICTED BY IDOCK:   -1.53 KCAL/MOL
REMARK 927      BINDING AFFINITY PREDICTED BY RF-SCORE:    0.00 PKD
ROOT
HETATM    1  C   UNK     1     -11.064  15.200  67.747  1.00  0.00    -0.313 C  
HETATM    2  C   UNK     1     -12.139  14.141  67.549  1.00  0.00    -0.363 C  
ENDROOT
BRANCH   2   3
HETATM    3  C   UNK     1     -12.384  13.826  66.077  1.00  0.00    -0.499 C  
BRANCH   3   4
HETATM    4  C   UNK     1     -11.185  13.150  65.463  1.00  0.00    -0.281 C  
HETATM    5  O   UNK     1     -10.539  13.611  64.531  1.00  0.00    -0.417 OA 
BRANCH   4   6
HETATM    6  O   UNK     1     -10.951  11.959  66.064  1.00  0.00    -0.288 OA 
BRANCH   6   7
HETATM    7  C   UNK     1      -9.689  11.748  66.739  1.00  0.00    -0.197 C  
BRANCH   7   8
HETATM    8  C   UNK     1      -9.851  11.204  68.164  1.00  0.00    -0.180 C  
BRANCH   8   9
HETATM    9  O   UNK     1      -8.703  10.460  68.572  1.00  0.00    -0.123 OA 
BRANCH   9  10
HETATM   10  P   UNK     1      -8.888   9.689  70.110  1.00  0.00    -0.125 P  
HETATM   11  O   UNK     1     -10.456  10.142  70.207  1.00  0.00    -0.281 OA 
HETATM   12  O   UNK     1      -8.854   8.324  69.420  1.00  0.00    -0.143 OA 
BRANCH  10  13
HETATM   13  O   UNK     1      -9.073   8.919  71.648  1.00  0.00    -0.248 OA 
BRANCH  13  14
HETATM   14  C   UNK     1     -10.449   8.765  72.023  1.00  0.00    -0.344 C  
BRANCH  14  15
HETATM   15  C   UNK     1     -10.838   7.288  72.111  1.00  0.00    -0.229 C  
HETATM   16  N   UNK     1      -9.730   6.367  71.722  1.00  0.00    -0.160 NA 
HETATM   17  C   UNK     1     -12.017   7.059  71.168  1.00  0.00    -0.356 C  
HETATM   18  O   UNK     1     -11.610   6.522  69.988  1.00  0.00    -0.407 OA 
HETATM   19  O   UNK     1     -13.175   7.366  71.410  1.00  0.00    -0.364 OA 
HETATM   20  H1  UNK     1      -9.990   5.382  71.780  1.00  0.00     0.000 HD 
HETATM   21  H2  UNK     1      -8.891   6.555  72.270  1.00  0.00     0.000 HD 
ENDBRANCH  14  15
ENDBRANCH  13  14
ENDBRANCH  10  13
ENDBRANCH   9  10
ENDBRANCH   8   9
ENDBRANCH   7   8
BRANCH   7  22
HETATM   22  C   UNK     1      -8.735  10.875  65.903  1.00  0.00    -0.183 C  
BRANCH  22  23
HETATM   23  O   UNK     1      -9.365   9.650  65.485  1.00  0.00    -0.210 OA 
BRANCH  23  24
HETATM   24  C   UNK     1      -8.604   8.531  65.640  1.00  0.00    -0.177 C  
HETATM   25  O   UNK     1      -7.420   8.451  65.356  1.00  0.00    -0.081 OA 
BRANCH  24  26
HETATM   26  C   UNK     1      -9.442   7.422  66.231  1.00  0.00    -0.144 C  
HETATM   27  C   UNK     1      -8.751   6.077  66.099  1.00  0.00    -0.146 C  
ENDBRANCH  24  26
ENDBRANCH  23  24
ENDBRANCH  22  23
ENDBRANCH   7  22
ENDBRANCH   6   7
ENDBRANCH   4   6
ENDBRANCH   3   4
ENDBRANCH   2   3
TORSDOF 14
ENDMDL
MODEL      255
REMARK 921   NORMALIZED FREE ENERGY PREDICTED BY IDOCK:   -3.67 KCAL/MOL
REMARK 922        TOTAL FREE ENERGY PREDICTED BY IDOCK:   -7.77 KCAL/MOL
REMARK 923 INTER-LIGAND FREE ENERGY PREDICTED BY IDOCK:   -7.05 KCAL/MOL
REMARK 924 INTRA-LIGAND FREE ENERGY PREDICTED BY IDOCK:   -0.72 KCAL/MOL
REMARK 927      BINDING AFFINITY PREDICTED BY RF-SCORE:    0.00 PKD
ROOT
HETATM    1  C   UNK     1     -12.098  14.305  64.458  1.00  0.00    -0.499 C  
HETATM    2  C   UNK     1     -12.283  13.274  63.353  1.00  0.00    -0.476 C  
ENDROOT
BRANCH   2   3
HETATM    3  C   UNK     1     -12.018  11.850  63.833  1.00  0.00    -0.503 C  
BRANCH   3   4
HETATM    4  C   UNK     1     -10.546  11.529  63.782  1.00  0.00    -0.406 C  
HETATM    5  O   UNK     1      -9.763  12.020  62.981  1.00  0.00    -0.383 OA 
BRANCH   4   6
HETATM    6  O   UNK     1     -10.229  10.603  64.720  1.00  0.00    -0.325 OA 
BRANCH   6   7
HETATM    7  C   UNK     1     -10.342  10.954  66.119  1.00  0.00    -0.248 C  
BRANCH   7   8
HETATM    8  C   UNK     1      -9.797   9.869  67.058  1.00  0.00    -0.191 C  
BRANCH   8   9
HETATM    9  O   UNK     1     -10.814   9.376  67.930  1.00  0.00    -0.236 OA 
BRANCH   9  10
HETATM   10  P   UNK     1     -10.304   8.039  68.902  1.00  0.00    -0.153 P  
HETATM   11  O   UNK     1     -11.520   8.281  69.968  1.00  0.00    -0.089 OA 
HETATM   12  O   UNK     1     -10.826   7.076  67.834  1.00  0.00    -0.218 OA 
BRANCH  10  13
HETATM   13  O   UNK     1      -9.793   6.701  69.873  1.00  0.00    -0.166 OA 
BRANCH  13  14
HETATM   14  C   UNK     1     -10.861   6.158  70.663  1.00  0.00    -0.292 C  
BRANCH  14  15
HETATM   15  C   UNK     1     -10.438   5.983  72.123  1.00  0.00    -0.206 C  
HETATM   16  N   UNK     1     -11.587   5.724  73.039  1.00  0.00    -0.519 NA 
HETATM   17  C   UNK     1      -9.741   7.268  72.563  1.00  0.00    -0.154 C  
HETATM   18  O   UNK     1     -10.584   8.070  73.267  1.00  0.00    -0.286 OA 
HETATM   19  O   UNK     1      -8.594   7.574  72.280  1.00  0.00    -0.110 OA 
HETATM   20  H1  UNK     1     -11.305   5.608  74.012  1.00  0.00     0.000 HD 
HETATM   21  H2  UNK     1     -12.133   4.924  72.720  1.00  0.00     0.000 HD 
ENDBRANCH  14  15
ENDBRANCH  13  14
ENDBRANCH  10  13
ENDBRANCH   9  10
ENDBRANCH   8   9
ENDBRANCH   7   8
BRANCH   7  22
HETATM   22  C   UNK     1      -9.712  12.328  66.413  1.00  0.00    -0.234 C  
BRANCH  22  23
HETATM   23  O   UNK     1      -9.443  12.500  67.817  1.00  0.00    -0.184 OA 
BRANCH  23  24
HETATM   24  C   UNK     1     -10.111  13.530  68.408  1.00  0.00    -0.240 C  
HETATM   25  O   UNK     1      -9.609  14.597  68.717  1.00  0.00    -0.211 OA 
BRANCH  24  26
HETATM   26  C   UNK     1     -11.561  13.153  68.600  1.00  0.00    -0.356 C  
HETATM   27  C   UNK     1     -11.736  12.218  69.784  1.00  0.00    -0.368 C  
ENDBRANCH  24  26
ENDBRANCH  23  24
ENDBRANCH  22  23
ENDBRANCH   7  22
ENDBRANCH   6   7
ENDBRANCH   4   6
ENDBRANCH   3   4
ENDBRANCH   2   3
TORSDOF 14
ENDMDL
MODEL      256
REMARK 921   NORMALIZED FREE ENERGY PREDICTED BY IDOCK:   -3.67 KCAL/MOL
REMARK 922        TOTAL FREE ENERGY PREDICTED BY IDOCK:   -7.76 KCAL/MOL
REMARK 923 INTER-LIGAND FREE ENERGY PREDICTED BY IDOCK:   -7.13 KCAL/MOL
REMARK 924 INTRA-LIGAND FREE ENERGY PREDICTED BY IDOCK:   -0.63 KCAL/MOL
REMARK 927      BINDING AFFINITY PREDICTED BY RF-SCORE:    0.00 PKD
ROOT
HETATM    1  C   UNK     1      -7.195  11.313  69.105  1.00  0.00    -0.115 C  
HETATM    2  C   UNK     1      -7.840  12.051  67.940  1.00  0.00    -0.144 C  
ENDROOT
BRANCH   2   3
HETATM    3  C   UNK     1      -7.895  13.559  68.162  1.00  0.00    -0.144 C  
BRANCH   3   4
HETATM    4  C   UNK     1      -9.151  14.146  67.572  1.00  0.00    -0.195 C  
HETATM    5  O   UNK     1     -10.256  14.069  68.093  1.00  0.00    -0.231 OA 
BRANCH   4   6
HETATM    6  O   UNK     1      -8.887  14.736  66.381  1.00  0.00    -0.233 OA 
BRANCH   6   7
HETATM    7  C   UNK     1      -9.922  14.772  65.370  1.00  0.00    -0.334 C  
BRANCH   7   8
HETATM    8  C   UNK     1     -10.842  13.544  65.405  1.00  0.00    -0.294 C  
BRANCH   8   9
HETATM    9  O   UNK     1     -10.541  12.638  64.343  1.00  0.00    -0.319 OA 
BRANCH   9  10
HETATM   10  P   UNK     1     -10.339  11.001  64.867  1.00  0.00    -0.278 P  
HETATM   11  O   UNK     1      -8.717  11.178  64.970  1.00  0.00    -0.099 OA 
HETATM   12  O   UNK     1     -10.921  11.376  66.232  1.00  0.00    -0.285 OA 
BRANCH  10  13
HETATM   13  O   UNK     1     -10.138   9.365  65.391  1.00  0.00    -0.150 OA 
BRANCH  13  14
HETATM   14  C   UNK     1     -10.347   9.210  66.803  1.00  0.00    -0.238 C  
BRANCH  14  15
HETATM   15  C   UNK     1     -10.073   7.773  67.250  1.00  0.00    -0.238 C  
HETATM   16  N   UNK     1     -11.197   6.840  66.945  1.00  0.00    -0.759 NA 
HETATM   17  C   UNK     1      -9.848   7.790  68.760  1.00  0.00    -0.169 C  
HETATM   18  O   UNK     1     -10.970   7.415  69.431  1.00  0.00    -0.205 OA 
HETATM   19  O   UNK     1      -8.817   8.146  69.310  1.00  0.00    -0.142 OA 
HETATM   20  H1  UNK     1     -11.013   5.882  67.243  1.00  0.00     0.000 HD 
HETATM   21  H2  UNK     1     -11.437   6.873  65.954  1.00  0.00     0.000 HD 
ENDBRANCH  14  15
ENDBRANCH  13  14
ENDBRANCH  10  13
ENDBRANCH   9  10
ENDBRANCH   8   9
ENDBRANCH   7   8
BRANCH   7  22
HETATM   22  C   UNK     1     -10.725  16.084  65.426  1.00  0.00    -0.383 C  
BRANCH  22  23
HETATM   23  O   UNK     1      -9.935  17.169  65.947  1.00  0.00    -0.478 OA 
BRANCH  23  24
HETATM   24  C   UNK     1     -10.445  17.770  67.059  1.00  0.00    -0.322 C  
HETATM   25  O   UNK     1     -10.597  17.221  68.137  1.00  0.00    -0.363 OA 
BRANCH  24  26
HETATM   26  C   UNK     1     -10.770  19.214  66.754  1.00  0.00    -0.488 C  
HETATM   27  C   UNK     1      -9.508  20.048  66.624  1.00  0.00    -0.524 C  
ENDBRANCH  24  26
ENDBRANCH  23  24
ENDBRANCH  22  23
ENDBRANCH   7  22
ENDBRANCH   6   7
ENDBRANCH   4   6
ENDBRANCH   3   4
ENDBRANCH   2   3
TORSDOF 14
ENDMDL
MODEL      257
REMARK 921   NORMALIZED FREE ENERGY PREDICTED BY IDOCK:   -3.66 KCAL/MOL
REMARK 922        TOTAL FREE ENERGY PREDICTED BY IDOCK:   -7.75 KCAL/MOL
REMARK 923 INTER-LIGAND FREE ENERGY PREDICTED BY IDOCK:   -6.66 KCAL/MOL
REMARK 924 INTRA-LIGAND FREE ENERGY PREDICTED BY IDOCK:   -1.09 KCAL/MOL
REMARK 927      BINDING AFFINITY PREDICTED BY RF-SCORE:    0.00 PKD
ROOT
HETATM    1  C   UNK     1     -10.472  11.600  63.482  1.00  0.00    -0.498 C  
HETATM    2  C   UNK     1      -9.644  10.375  63.845  1.00  0.00    -0.370 C  
ENDROOT
BRANCH   2   3
HETATM    3  C   UNK     1      -9.863   9.927  65.286  1.00  0.00    -0.373 C  
BRANCH   3   4
HETATM    4  C   UNK     1      -8.821  10.519  66.200  1.00  0.00    -0.159 C  
HETATM    5  O   UNK     1      -7.819  11.104  65.812  1.00  0.00    -0.057 OA 
BRANCH   4   6
HETATM    6  O   UNK     1      -9.136  10.283  67.496  1.00  0.00    -0.137 OA 
BRANCH   6   7
HETATM    7  C   UNK     1      -9.819  11.310  68.252  1.00  0.00    -0.197 C  
BRANCH   7   8
HETATM    8  C   UNK     1     -10.226  12.517  67.397  1.00  0.00    -0.213 C  
BRANCH   8   9
HETATM    9  O   UNK     1      -9.659  13.728  67.901  1.00  0.00    -0.208 OA 
BRANCH   9  10
HETATM   10  P   UNK     1     -10.819  14.782  68.633  1.00  0.00    -0.276 P  
HETATM   11  O   UNK     1     -12.067  13.888  68.070  1.00  0.00    -0.367 OA 
HETATM   12  O   UNK     1     -10.446  14.222  70.007  1.00  0.00     0.194 OA 
BRANCH  10  13
HETATM   13  O   UNK     1     -11.978  15.837  69.365  1.00  0.00    -0.370 OA 
BRANCH  13  14
HETATM   14  C   UNK     1     -12.097  15.625  70.780  1.00  0.00    -0.412 C  
BRANCH  14  15
HETATM   15  C   UNK     1     -13.521  15.216  71.162  1.00  0.00    -0.465 C  
HETATM   16  N   UNK     1     -14.112  16.079  72.226  1.00  0.00    -0.174 NA 
HETATM   17  C   UNK     1     -13.472  13.777  71.670  1.00  0.00    -0.333 C  
HETATM   18  O   UNK     1     -13.467  13.733  73.028  1.00  0.00    -0.613 OA 
HETATM   19  O   UNK     1     -13.391  12.787  70.959  1.00  0.00     0.033 OA 
HETATM   20  H1  UNK     1     -15.061  15.806  72.481  1.00  0.00     0.000 HD 
HETATM   21  H2  UNK     1     -14.076  17.062  71.959  1.00  0.00     0.000 HD 
ENDBRANCH  14  15
ENDBRANCH  13  14
ENDBRANCH  10  13
ENDBRANCH   9  10
ENDBRANCH   8   9
ENDBRANCH   7   8
BRANCH   7  22
HETATM   22  C   UNK     1     -11.016  10.739  69.034  1.00  0.00    -0.240 C  
BRANCH  22  23
HETATM   23  O   UNK     1     -10.802  10.804  70.457  1.00  0.00    -0.070 OA 
BRANCH  23  24
HETATM   24  C   UNK     1     -10.948   9.621  71.115  1.00  0.00    -0.360 C  
HETATM   25  O   UNK     1     -10.052   8.815  71.303  1.00  0.00    -0.218 OA 
BRANCH  24  26
HETATM   26  C   UNK     1     -12.376   9.473  71.588  1.00  0.00    -0.480 C  
HETATM   27  C   UNK     1     -12.520   8.311  72.553  1.00  0.00    -0.300 C  
ENDBRANCH  24  26
ENDBRANCH  23  24
ENDBRANCH  22  23
ENDBRANCH   7  22
ENDBRANCH   6   7
ENDBRANCH   4   6
ENDBRANCH   3   4
ENDBRANCH   2   3
TORSDOF 14
ENDMDL
MODEL      258
REMARK 921   NORMALIZED FREE ENERGY PREDICTED BY IDOCK:   -3.66 KCAL/MOL
REMARK 922        TOTAL FREE ENERGY PREDICTED BY IDOCK:   -7.74 KCAL/MOL
REMARK 923 INTER-LIGAND FREE ENERGY PREDICTED BY IDOCK:   -7.34 KCAL/MOL
REMARK 924 INTRA-LIGAND FREE ENERGY PREDICTED BY IDOCK:   -0.40 KCAL/MOL
REMARK 927      BINDING AFFINITY PREDICTED BY RF-SCORE:    0.00 PKD
ROOT
HETATM    1  C   UNK     1      -6.209   5.264  69.852  1.00  0.00    -0.026 C  
HETATM    2  C   UNK     1      -5.864   6.710  70.178  1.00  0.00    -0.023 C  
ENDROOT
BRANCH   2   3
HETATM    3  C   UNK     1      -5.822   7.595  68.936  1.00  0.00    -0.027 C  
BRANCH   3   4
HETATM    4  C   UNK     1      -7.182   8.174  68.640  1.00  0.00    -0.084 C  
HETATM    5  O   UNK     1      -7.975   7.693  67.843  1.00  0.00    -0.115 OA 
BRANCH   4   6
HETATM    6  O   UNK     1      -7.381   9.309  69.353  1.00  0.00    -0.071 OA 
BRANCH   6   7
HETATM    7  C   UNK     1      -8.654   9.512  70.010  1.00  0.00    -0.215 C  
BRANCH   7   8
HETATM    8  C   UNK     1      -9.789   9.848  69.034  1.00  0.00    -0.190 C  
BRANCH   8   9
HETATM    9  O   UNK     1      -9.873  11.254  68.796  1.00  0.00    -0.205 OA 
BRANCH   9  10
HETATM   10  P   UNK     1     -11.002  11.680  67.557  1.00  0.00    -0.298 P  
HETATM   11  O   UNK     1     -10.367  10.581  66.526  1.00  0.00    -0.233 OA 
HETATM   12  O   UNK     1     -12.112  10.976  68.340  1.00  0.00    -0.594 OA 
BRANCH  10  13
HETATM   13  O   UNK     1     -12.132  12.107  66.318  1.00  0.00    -0.626 OA 
BRANCH  13  14
HETATM   14  C   UNK     1     -12.155  13.518  66.059  1.00  0.00    -0.445 C  
BRANCH  14  15
HETATM   15  C   UNK     1     -11.304  13.871  64.837  1.00  0.00    -0.347 C  
HETATM   16  N   UNK     1     -11.372  15.317  64.475  1.00  0.00    -0.653 NA 
HETATM   17  C   UNK     1     -11.816  13.047  63.658  1.00  0.00    -0.516 C  
HETATM   18  O   UNK     1     -12.639  13.781  62.863  1.00  0.00    -0.611 OA 
HETATM   19  O   UNK     1     -11.571  11.865  63.473  1.00  0.00    -0.439 OA 
HETATM   20  H1  UNK     1     -10.805  15.553  63.660  1.00  0.00     0.000 HD 
HETATM   21  H2  UNK     1     -11.126  15.904  65.272  1.00  0.00     0.000 HD 
ENDBRANCH  14  15
ENDBRANCH  13  14
ENDBRANCH  10  13
ENDBRANCH   9  10
ENDBRANCH   8   9
ENDBRANCH   7   8
BRANCH   7  22
HETATM   22  C   UNK     1      -9.021   8.324  70.919  1.00  0.00    -0.151 C  
BRANCH  22  23
HETATM   23  O   UNK     1      -9.603   8.763  72.160  1.00  0.00    -0.305 OA 
BRANCH  23  24
HETATM   24  C   UNK     1      -9.846   7.774  73.064  1.00  0.00    -0.282 C  
HETATM   25  O   UNK     1      -9.180   7.569  74.065  1.00  0.00    -0.254 OA 
BRANCH  24  26
HETATM   26  C   UNK     1     -11.068   6.990  72.646  1.00  0.00    -0.317 C  
HETATM   27  C   UNK     1     -10.873   5.502  72.873  1.00  0.00    -0.312 C  
ENDBRANCH  24  26
ENDBRANCH  23  24
ENDBRANCH  22  23
ENDBRANCH   7  22
ENDBRANCH   6   7
ENDBRANCH   4   6
ENDBRANCH   3   4
ENDBRANCH   2   3
TORSDOF 14
ENDMDL
MODEL      259
REMARK 921   NORMALIZED FREE ENERGY PREDICTED BY IDOCK:   -3.65 KCAL/MOL
REMARK 922        TOTAL FREE ENERGY PREDICTED BY IDOCK:   -7.73 KCAL/MOL
REMARK 923 INTER-LIGAND FREE ENERGY PREDICTED BY IDOCK:   -7.10 KCAL/MOL
REMARK 924 INTRA-LIGAND FREE ENERGY PREDICTED BY IDOCK:   -0.62 KCAL/MOL
REMARK 927      BINDING AFFINITY PREDICTED BY RF-SCORE:    0.00 PKD
ROOT
HETATM    1  C   UNK     1     -14.338  15.747  71.895  1.00  0.00    -0.235 C  
HETATM    2  C   UNK     1     -13.360  15.487  73.032  1.00  0.00    -0.650 C  
ENDROOT
BRANCH   2   3
HETATM    3  C   UNK     1     -12.473  14.272  72.774  1.00  0.00    -0.224 C  
BRANCH   3   4
HETATM    4  C   UNK     1     -13.216  13.217  71.996  1.00  0.00    -0.446 C  
HETATM    5  O   UNK     1     -14.282  12.729  72.345  1.00  0.00    -0.351 OA 
BRANCH   4   6
HETATM    6  O   UNK     1     -12.523  12.870  70.884  1.00  0.00    -0.367 OA 
BRANCH   6   7
HETATM    7  C   UNK     1     -12.649  11.523  70.371  1.00  0.00    -0.157 C  
BRANCH   7   8
HETATM    8  C   UNK     1     -12.123  11.373  68.937  1.00  0.00    -0.219 C  
BRANCH   8   9
HETATM    9  O   UNK     1     -10.776  11.833  68.826  1.00  0.00    -0.211 OA 
BRANCH   9  10
HETATM   10  P   UNK     1      -9.786  10.836  67.816  1.00  0.00    -0.167 P  
HETATM   11  O   UNK     1      -8.718  10.578  69.028  1.00  0.00    -0.146 OA 
HETATM   12  O   UNK     1     -10.836   9.726  67.898  1.00  0.00    -0.266 OA 
BRANCH  10  13
HETATM   13  O   UNK     1      -8.796   9.838  66.807  1.00  0.00    -0.136 OA 
BRANCH  13  14
HETATM   14  C   UNK     1      -9.460   9.453  65.595  1.00  0.00    -0.262 C  
BRANCH  14  15
HETATM   15  C   UNK     1      -9.423  10.578  64.560  1.00  0.00    -0.276 C  
HETATM   16  N   UNK     1     -10.756  10.859  63.952  1.00  0.00    -0.509 NA 
HETATM   17  C   UNK     1      -8.458  10.161  63.452  1.00  0.00    -0.185 C  
HETATM   18  O   UNK     1      -9.126   9.666  62.377  1.00  0.00    -0.264 OA 
HETATM   19  O   UNK     1      -7.241  10.208  63.531  1.00  0.00    -0.136 OA 
HETATM   20  H1  UNK     1     -10.731  11.610  63.261  1.00  0.00     0.000 HD 
HETATM   21  H2  UNK     1     -11.451  11.052  64.673  1.00  0.00     0.000 HD 
ENDBRANCH  14  15
ENDBRANCH  13  14
ENDBRANCH  10  13
ENDBRANCH   9  10
ENDBRANCH   8   9
ENDBRANCH   7   8
BRANCH   7  22
HETATM   22  C   UNK     1     -12.012  10.491  71.320  1.00  0.00    -0.289 C  
BRANCH  22  23
HETATM   23  O   UNK     1     -12.367   9.144  70.955  1.00  0.00    -0.288 OA 
BRANCH  23  24
HETATM   24  C   UNK     1     -13.090   8.467  71.890  1.00  0.00    -0.362 C  
HETATM   25  O   UNK     1     -14.150   8.848  72.358  1.00  0.00    -0.459 OA 
BRANCH  24  26
HETATM   26  C   UNK     1     -12.391   7.173  72.237  1.00  0.00    -0.137 C  
HETATM   27  C   UNK     1     -10.942   7.414  72.618  1.00  0.00    -0.363 C  
ENDBRANCH  24  26
ENDBRANCH  23  24
ENDBRANCH  22  23
ENDBRANCH   7  22
ENDBRANCH   6   7
ENDBRANCH   4   6
ENDBRANCH   3   4
ENDBRANCH   2   3
TORSDOF 14
ENDMDL
MODEL      260
REMARK 921   NORMALIZED FREE ENERGY PREDICTED BY IDOCK:   -3.65 KCAL/MOL
REMARK 922        TOTAL FREE ENERGY PREDICTED BY IDOCK:   -7.72 KCAL/MOL
REMARK 923 INTER-LIGAND FREE ENERGY PREDICTED BY IDOCK:   -6.31 KCAL/MOL
REMARK 924 INTRA-LIGAND FREE ENERGY PREDICTED BY IDOCK:   -1.41 KCAL/MOL
REMARK 927      BINDING AFFINITY PREDICTED BY RF-SCORE:    0.00 PKD
ROOT
HETATM    1  C   UNK     1     -12.466   8.292  71.408  1.00  0.00    -0.315 C  
HETATM    2  C   UNK     1     -12.583   9.728  70.915  1.00  0.00    -0.350 C  
ENDROOT
BRANCH   2   3
HETATM    3  C   UNK     1     -11.235  10.321  70.516  1.00  0.00    -0.408 C  
BRANCH   3   4
HETATM    4  C   UNK     1     -10.801   9.814  69.165  1.00  0.00    -0.207 C  
HETATM    5  O   UNK     1     -10.030   8.880  68.996  1.00  0.00    -0.179 OA 
BRANCH   4   6
HETATM    6  O   UNK     1     -11.359  10.556  68.177  1.00  0.00    -0.297 OA 
BRANCH   6   7
HETATM    7  C   UNK     1     -10.977  11.945  68.041  1.00  0.00    -0.224 C  
BRANCH   7   8
HETATM    8  C   UNK     1      -9.701  12.141  67.212  1.00  0.00    -0.191 C  
BRANCH   8   9
HETATM    9  O   UNK     1      -9.878  11.689  65.869  1.00  0.00    -0.219 OA 
BRANCH   9  10
HETATM   10  P   UNK     1      -8.705  10.518  65.372  1.00  0.00    -0.181 P  
HETATM   11  O   UNK     1      -7.983  10.542  66.840  1.00  0.00    -0.115 OA 
HETATM   12  O   UNK     1      -9.783   9.434  65.417  1.00  0.00    -0.280 OA 
BRANCH  10  13
HETATM   13  O   UNK     1      -7.532   9.348  64.876  1.00  0.00    -0.101 OA 
BRANCH  13  14
HETATM   14  C   UNK     1      -8.113   8.273  64.123  1.00  0.00    -0.136 C  
BRANCH  14  15
HETATM   15  C   UNK     1      -7.922   6.931  64.834  1.00  0.00    -0.124 C  
HETATM   16  N   UNK     1      -9.099   6.534  65.660  1.00  0.00    -0.367 NA 
HETATM   17  C   UNK     1      -6.704   7.056  65.745  1.00  0.00    -0.052 C  
HETATM   18  O   UNK     1      -7.073   7.289  67.033  1.00  0.00    -0.081 OA 
HETATM   19  O   UNK     1      -5.543   7.010  65.371  1.00  0.00    -0.030 OA 
HETATM   20  H1  UNK     1      -8.971   5.639  66.133  1.00  0.00     0.000 HD 
HETATM   21  H2  UNK     1      -9.952   6.531  65.100  1.00  0.00     0.000 HD 
ENDBRANCH  14  15
ENDBRANCH  13  14
ENDBRANCH  10  13
ENDBRANCH   9  10
ENDBRANCH   8   9
ENDBRANCH   7   8
BRANCH   7  22
HETATM   22  C   UNK     1     -12.138  12.805  67.508  1.00  0.00    -0.150 C  
BRANCH  22  23
HETATM   23  O   UNK     1     -11.664  14.023  66.904  1.00  0.00    -0.366 OA 
BRANCH  23  24
HETATM   24  C   UNK     1     -12.190  14.301  65.679  1.00  0.00    -0.400 C  
HETATM   25  O   UNK     1     -13.328  14.029  65.334  1.00  0.00    -0.721 OA 
BRANCH  24  26
HETATM   26  C   UNK     1     -11.160  15.010  64.831  1.00  0.00    -0.425 C  
HETATM   27  C   UNK     1      -9.982  15.475  65.667  1.00  0.00    -0.394 C  
ENDBRANCH  24  26
ENDBRANCH  23  24
ENDBRANCH  22  23
ENDBRANCH   7  22
ENDBRANCH   6   7
ENDBRANCH   4   6
ENDBRANCH   3   4
ENDBRANCH   2   3
TORSDOF 14
ENDMDL
MODEL      261
REMARK 921   NORMALIZED FREE ENERGY PREDICTED BY IDOCK:   -3.65 KCAL/MOL
REMARK 922        TOTAL FREE ENERGY PREDICTED BY IDOCK:   -7.72 KCAL/MOL
REMARK 923 INTER-LIGAND FREE ENERGY PREDICTED BY IDOCK:   -6.53 KCAL/MOL
REMARK 924 INTRA-LIGAND FREE ENERGY PREDICTED BY IDOCK:   -1.20 KCAL/MOL
REMARK 927      BINDING AFFINITY PREDICTED BY RF-SCORE:    0.00 PKD
ROOT
HETATM    1  C   UNK     1     -12.354  12.812  63.209  1.00  0.00    -0.437 C  
HETATM    2  C   UNK     1     -11.046  12.274  63.772  1.00  0.00    -0.507 C  
ENDROOT
BRANCH   2   3
HETATM    3  C   UNK     1     -11.240  11.524  65.086  1.00  0.00    -0.214 C  
BRANCH   3   4
HETATM    4  C   UNK     1      -9.916  11.240  65.746  1.00  0.00    -0.237 C  
HETATM    5  O   UNK     1      -9.033  10.554  65.249  1.00  0.00    -0.173 OA 
BRANCH   4   6
HETATM    6  O   UNK     1      -9.860  11.822  66.969  1.00  0.00    -0.195 OA 
BRANCH   6   7
HETATM    7  C   UNK     1     -10.461  11.144  68.097  1.00  0.00    -0.189 C  
BRANCH   7   8
HETATM    8  C   UNK     1      -9.432  10.652  69.123  1.00  0.00    -0.170 C  
BRANCH   8   9
HETATM    9  O   UNK     1      -8.640   9.586  68.596  1.00  0.00    -0.117 OA 
BRANCH   9  10
HETATM   10  P   UNK     1      -9.313   8.018  68.879  1.00  0.00    -0.151 P  
HETATM   11  O   UNK     1      -9.158   7.608  67.304  1.00  0.00    -0.125 OA 
HETATM   12  O   UNK     1      -8.021   7.601  69.584  1.00  0.00    -0.118 OA 
BRANCH  10  13
HETATM   13  O   UNK     1      -9.987   6.450  69.163  1.00  0.00    -0.143 OA 
BRANCH  13  14
HETATM   14  C   UNK     1     -11.237   6.508  69.866  1.00  0.00    -0.395 C  
BRANCH  14  15
HETATM   15  C   UNK     1     -11.039   6.964  71.313  1.00  0.00    -0.258 C  
HETATM   16  N   UNK     1      -9.854   6.336  71.968  1.00  0.00    -0.158 NA 
HETATM   17  C   UNK     1     -12.291   6.581  72.098  1.00  0.00    -0.198 C  
HETATM   18  O   UNK     1     -12.101   5.433  72.801  1.00  0.00    -0.182 OA 
HETATM   19  O   UNK     1     -13.350   7.188  72.064  1.00  0.00    -0.229 OA 
HETATM   20  H1  UNK     1      -9.722   6.640  72.932  1.00  0.00     0.000 HD 
HETATM   21  H2  UNK     1      -9.009   6.493  71.418  1.00  0.00     0.000 HD 
ENDBRANCH  14  15
ENDBRANCH  13  14
ENDBRANCH  10  13
ENDBRANCH   9  10
ENDBRANCH   8   9
ENDBRANCH   7   8
BRANCH   7  22
HETATM   22  C   UNK     1     -11.555  12.003  68.759  1.00  0.00    -0.311 C  
BRANCH  22  23
HETATM   23  O   UNK     1     -12.508  11.193  69.473  1.00  0.00    -0.254 OA 
BRANCH  23  24
HETATM   24  C   UNK     1     -12.600  11.454  70.806  1.00  0.00    -0.316 C  
HETATM   25  O   UNK     1     -12.652  10.605  71.679  1.00  0.00    -0.395 OA 
BRANCH  24  26
HETATM   26  C   UNK     1     -12.607  12.949  71.033  1.00  0.00    -0.376 C  
HETATM   27  C   UNK     1     -13.484  13.323  72.214  1.00  0.00    -0.679 C  
ENDBRANCH  24  26
ENDBRANCH  23  24
ENDBRANCH  22  23
ENDBRANCH   7  22
ENDBRANCH   6   7
ENDBRANCH   4   6
ENDBRANCH   3   4
ENDBRANCH   2   3
TORSDOF 14
ENDMDL
MODEL      262
REMARK 921   NORMALIZED FREE ENERGY PREDICTED BY IDOCK:   -3.65 KCAL/MOL
REMARK 922        TOTAL FREE ENERGY PREDICTED BY IDOCK:   -7.72 KCAL/MOL
REMARK 923 INTER-LIGAND FREE ENERGY PREDICTED BY IDOCK:   -6.51 KCAL/MOL
REMARK 924 INTRA-LIGAND FREE ENERGY PREDICTED BY IDOCK:   -1.21 KCAL/MOL
REMARK 927      BINDING AFFINITY PREDICTED BY RF-SCORE:    0.00 PKD
ROOT
HETATM    1  C   UNK     1      -9.438   2.928  71.793  1.00  0.00    -0.206 C  
HETATM    2  C   UNK     1      -9.094   3.499  70.424  1.00  0.00    -0.197 C  
ENDROOT
BRANCH   2   3
HETATM    3  C   UNK     1      -9.680   4.890  70.207  1.00  0.00    -0.287 C  
BRANCH   3   4
HETATM    4  C   UNK     1      -8.631   5.954  70.402  1.00  0.00    -0.135 C  
HETATM    5  O   UNK     1      -7.450   5.723  70.625  1.00  0.00    -0.081 OA 
BRANCH   4   6
HETATM    6  O   UNK     1      -9.186   7.188  70.328  1.00  0.00    -0.155 OA 
BRANCH   6   7
HETATM    7  C   UNK     1      -9.852   7.587  69.107  1.00  0.00    -0.170 C  
BRANCH   7   8
HETATM    8  C   UNK     1     -10.485   8.982  69.194  1.00  0.00    -0.225 C  
BRANCH   8   9
HETATM    9  O   UNK     1      -9.499  10.009  69.093  1.00  0.00    -0.183 OA 
BRANCH   9  10
HETATM   10  P   UNK     1      -9.924  11.271  67.988  1.00  0.00    -0.191 P  
HETATM   11  O   UNK     1      -8.708  10.865  66.973  1.00  0.00    -0.138 OA 
HETATM   12  O   UNK     1     -11.155  10.469  67.561  1.00  0.00    -0.310 OA 
BRANCH  10  13
HETATM   13  O   UNK     1     -10.350  12.533  66.884  1.00  0.00    -0.227 OA 
BRANCH  13  14
HETATM   14  C   UNK     1     -11.535  12.229  66.133  1.00  0.00    -0.374 C  
BRANCH  14  15
HETATM   15  C   UNK     1     -11.276  12.318  64.628  1.00  0.00    -0.315 C  
HETATM   16  N   UNK     1     -10.271  13.361  64.268  1.00  0.00    -0.706 NA 
HETATM   17  C   UNK     1     -12.599  12.659  63.947  1.00  0.00    -0.337 C  
HETATM   18  O   UNK     1     -12.680  13.985  63.659  1.00  0.00    -0.778 OA 
HETATM   19  O   UNK     1     -13.500  11.863  63.733  1.00  0.00    -0.527 OA 
HETATM   20  H1  UNK     1     -10.099  13.421  63.264  1.00  0.00     0.000 HD 
HETATM   21  H2  UNK     1      -9.400  13.218  64.779  1.00  0.00     0.000 HD 
ENDBRANCH  14  15
ENDBRANCH  13  14
ENDBRANCH  10  13
ENDBRANCH   9  10
ENDBRANCH   8   9
ENDBRANCH   7   8
BRANCH   7  22
HETATM   22  C   UNK     1      -8.923   7.460  67.886  1.00  0.00    -0.131 C  
BRANCH  22  23
HETATM   23  O   UNK     1      -9.624   6.949  66.736  1.00  0.00    -0.157 OA 
BRANCH  23  24
HETATM   24  C   UNK     1      -9.156   5.762  66.259  1.00  0.00    -0.147 C  
HETATM   25  O   UNK     1      -8.129   5.627  65.617  1.00  0.00    -0.109 OA 
BRANCH  24  26
HETATM   26  C   UNK     1     -10.092   4.647  66.664  1.00  0.00    -0.263 C  
HETATM   27  C   UNK     1      -9.397   3.298  66.615  1.00  0.00    -0.159 C  
ENDBRANCH  24  26
ENDBRANCH  23  24
ENDBRANCH  22  23
ENDBRANCH   7  22
ENDBRANCH   6   7
ENDBRANCH   4   6
ENDBRANCH   3   4
ENDBRANCH   2   3
TORSDOF 14
ENDMDL
MODEL      263
REMARK 921   NORMALIZED FREE ENERGY PREDICTED BY IDOCK:   -3.64 KCAL/MOL
REMARK 922        TOTAL FREE ENERGY PREDICTED BY IDOCK:   -7.71 KCAL/MOL
REMARK 923 INTER-LIGAND FREE ENERGY PREDICTED BY IDOCK:   -7.15 KCAL/MOL
REMARK 924 INTRA-LIGAND FREE ENERGY PREDICTED BY IDOCK:   -0.56 KCAL/MOL
REMARK 927      BINDING AFFINITY PREDICTED BY RF-SCORE:    0.00 PKD
ROOT
HETATM    1  C   UNK     1     -14.183  15.551  71.974  1.00  0.00    -0.606 C  
HETATM    2  C   UNK     1     -13.110  15.508  73.053  1.00  0.00    -0.632 C  
ENDROOT
BRANCH   2   3
HETATM    3  C   UNK     1     -12.121  14.364  72.848  1.00  0.00     0.006 C  
BRANCH   3   4
HETATM    4  C   UNK     1     -12.815  13.141  72.307  1.00  0.00    -0.129 C  
HETATM    5  O   UNK     1     -13.792  12.619  72.826  1.00  0.00    -0.325 OA 
BRANCH   4   6
HETATM    6  O   UNK     1     -12.185  12.690  71.196  1.00  0.00    -0.248 OA 
BRANCH   6   7
HETATM    7  C   UNK     1     -12.603  11.434  70.612  1.00  0.00    -0.271 C  
BRANCH   7   8
HETATM    8  C   UNK     1     -12.086  11.232  69.181  1.00  0.00    -0.279 C  
BRANCH   8   9
HETATM    9  O   UNK     1     -10.682  11.480  69.095  1.00  0.00    -0.214 OA 
BRANCH   9  10
HETATM   10  P   UNK     1     -10.212  12.297  67.645  1.00  0.00    -0.210 P  
HETATM   11  O   UNK     1      -9.073  11.171  67.316  1.00  0.00    -0.148 OA 
HETATM   12  O   UNK     1     -11.508  11.836  66.976  1.00  0.00    -0.389 OA 
BRANCH  10  13
HETATM   13  O   UNK     1      -9.742  13.115  66.194  1.00  0.00    -0.276 OA 
BRANCH  13  14
HETATM   14  C   UNK     1     -10.679  14.130  65.808  1.00  0.00    -0.299 C  
BRANCH  14  15
HETATM   15  C   UNK     1     -10.584  15.351  66.724  1.00  0.00    -0.309 C  
HETATM   16  N   UNK     1     -11.911  15.807  67.233  1.00  0.00     0.197 NA 
HETATM   17  C   UNK     1      -9.951  16.487  65.924  1.00  0.00    -0.317 C  
HETATM   18  O   UNK     1     -10.894  17.347  65.456  1.00  0.00    -0.429 OA 
HETATM   19  O   UNK     1      -8.759  16.591  65.681  1.00  0.00    -0.401 OA 
HETATM   20  H1  UNK     1     -11.847  16.621  67.844  1.00  0.00     0.000 HD 
HETATM   21  H2  UNK     1     -12.405  15.043  67.695  1.00  0.00     0.000 HD 
ENDBRANCH  14  15
ENDBRANCH  13  14
ENDBRANCH  10  13
ENDBRANCH   9  10
ENDBRANCH   8   9
ENDBRANCH   7   8
BRANCH   7  22
HETATM   22  C   UNK     1     -12.248  10.240  71.518  1.00  0.00    -0.353 C  
BRANCH  22  23
HETATM   23  O   UNK     1     -12.898   9.031  71.083  1.00  0.00    -0.275 OA 
BRANCH  23  24
HETATM   24  C   UNK     1     -13.527   8.331  72.067  1.00  0.00    -0.311 C  
HETATM   25  O   UNK     1     -14.249   8.823  72.918  1.00  0.00    -0.479 OA 
BRANCH  24  26
HETATM   26  C   UNK     1     -13.211   6.859  71.928  1.00  0.00    -0.218 C  
HETATM   27  C   UNK     1     -11.786   6.559  72.358  1.00  0.00    -0.235 C  
ENDBRANCH  24  26
ENDBRANCH  23  24
ENDBRANCH  22  23
ENDBRANCH   7  22
ENDBRANCH   6   7
ENDBRANCH   4   6
ENDBRANCH   3   4
ENDBRANCH   2   3
TORSDOF 14
ENDMDL
MODEL      264
REMARK 921   NORMALIZED FREE ENERGY PREDICTED BY IDOCK:   -3.63 KCAL/MOL
REMARK 922        TOTAL FREE ENERGY PREDICTED BY IDOCK:   -7.69 KCAL/MOL
REMARK 923 INTER-LIGAND FREE ENERGY PREDICTED BY IDOCK:   -6.84 KCAL/MOL
REMARK 924 INTRA-LIGAND FREE ENERGY PREDICTED BY IDOCK:   -0.85 KCAL/MOL
REMARK 927      BINDING AFFINITY PREDICTED BY RF-SCORE:    0.00 PKD
ROOT
HETATM    1  C   UNK     1      -6.093   6.429  70.726  1.00  0.00    -0.031 C  
HETATM    2  C   UNK     1      -7.336   6.822  71.512  1.00  0.00    -0.085 C  
ENDROOT
BRANCH   2   3
HETATM    3  C   UNK     1      -7.460   8.331  71.693  1.00  0.00    -0.105 C  
BRANCH   3   4
HETATM    4  C   UNK     1      -8.086   8.971  70.481  1.00  0.00    -0.154 C  
HETATM    5  O   UNK     1      -7.555   9.023  69.380  1.00  0.00    -0.074 OA 
BRANCH   4   6
HETATM    6  O   UNK     1      -9.293   9.502  70.793  1.00  0.00    -0.245 OA 
BRANCH   6   7
HETATM    7  C   UNK     1     -10.455   9.102  70.030  1.00  0.00    -0.221 C  
BRANCH   7   8
HETATM    8  C   UNK     1     -10.405   9.566  68.568  1.00  0.00    -0.207 C  
BRANCH   8   9
HETATM    9  O   UNK     1     -10.088  10.955  68.473  1.00  0.00    -0.169 OA 
BRANCH   9  10
HETATM   10  P   UNK     1     -10.964  11.782  67.231  1.00  0.00    -0.302 P  
HETATM   11  O   UNK     1     -10.661  10.591  66.152  1.00  0.00    -0.200 OA 
HETATM   12  O   UNK     1     -12.276  11.429  67.935  1.00  0.00    -0.592 OA 
BRANCH  10  13
HETATM   13  O   UNK     1     -11.840  12.608  65.989  1.00  0.00    -0.404 OA 
BRANCH  13  14
HETATM   14  C   UNK     1     -11.745  14.035  66.107  1.00  0.00    -0.384 C  
BRANCH  14  15
HETATM   15  C   UNK     1     -10.801  14.617  65.053  1.00  0.00    -0.417 C  
HETATM   16  N   UNK     1      -9.417  14.840  65.565  1.00  0.00    -0.481 NA 
HETATM   17  C   UNK     1     -11.376  15.957  64.601  1.00  0.00    -0.322 C  
HETATM   18  O   UNK     1     -10.758  16.995  65.223  1.00  0.00    -0.616 OA 
HETATM   19  O   UNK     1     -12.308  16.091  63.823  1.00  0.00    -0.858 OA 
HETATM   20  H1  UNK     1      -8.788  15.228  64.862  1.00  0.00     0.000 HD 
HETATM   21  H2  UNK     1      -9.034  13.982  65.962  1.00  0.00     0.000 HD 
ENDBRANCH  14  15
ENDBRANCH  13  14
ENDBRANCH  10  13
ENDBRANCH   9  10
ENDBRANCH   8   9
ENDBRANCH   7   8
BRANCH   7  22
HETATM   22  C   UNK     1     -10.711   7.587  70.136  1.00  0.00    -0.239 C  
BRANCH  22  23
HETATM   23  O   UNK     1     -10.611   6.940  68.854  1.00  0.00    -0.202 OA 
BRANCH  23  24
HETATM   24  C   UNK     1      -9.719   5.912  68.797  1.00  0.00    -0.131 C  
HETATM   25  O   UNK     1      -9.836   4.856  69.396  1.00  0.00    -0.176 OA 
BRANCH  24  26
HETATM   26  C   UNK     1      -8.583   6.274  67.869  1.00  0.00    -0.115 C  
HETATM   27  C   UNK     1      -8.451   5.268  66.740  1.00  0.00    -0.107 C  
ENDBRANCH  24  26
ENDBRANCH  23  24
ENDBRANCH  22  23
ENDBRANCH   7  22
ENDBRANCH   6   7
ENDBRANCH   4   6
ENDBRANCH   3   4
ENDBRANCH   2   3
TORSDOF 14
ENDMDL
MODEL      265
REMARK 921   NORMALIZED FREE ENERGY PREDICTED BY IDOCK:   -3.63 KCAL/MOL
REMARK 922        TOTAL FREE ENERGY PREDICTED BY IDOCK:   -7.69 KCAL/MOL
REMARK 923 INTER-LIGAND FREE ENERGY PREDICTED BY IDOCK:   -6.85 KCAL/MOL
REMARK 924 INTRA-LIGAND FREE ENERGY PREDICTED BY IDOCK:   -0.83 KCAL/MOL
REMARK 927      BINDING AFFINITY PREDICTED BY RF-SCORE:    0.00 PKD
ROOT
HETATM    1  C   UNK     1      -8.400  16.300  68.132  1.00  0.00    -0.172 C  
HETATM    2  C   UNK     1      -9.591  16.699  68.991  1.00  0.00    -0.246 C  
ENDROOT
BRANCH   2   3
HETATM    3  C   UNK     1     -10.913  16.605  68.236  1.00  0.00    -0.341 C  
BRANCH   3   4
HETATM    4  C   UNK     1     -11.278  15.170  67.961  1.00  0.00    -0.323 C  
HETATM    5  O   UNK     1     -11.584  14.737  66.858  1.00  0.00    -0.359 OA 
BRANCH   4   6
HETATM    6  O   UNK     1     -11.250  14.444  69.105  1.00  0.00    -0.249 OA 
BRANCH   6   7
HETATM    7  C   UNK     1     -12.035  13.232  69.189  1.00  0.00    -0.296 C  
BRANCH   7   8
HETATM    8  C   UNK     1     -11.255  11.978  68.772  1.00  0.00    -0.263 C  
BRANCH   8   9
HETATM    9  O   UNK     1     -11.087  11.081  69.870  1.00  0.00    -0.259 OA 
BRANCH   9  10
HETATM   10  P   UNK     1     -10.360   9.574  69.427  1.00  0.00    -0.237 P  
HETATM   11  O   UNK     1      -9.433  10.296  68.288  1.00  0.00    -0.138 OA 
HETATM   12  O   UNK     1      -9.562   9.586  70.732  1.00  0.00    -0.259 OA 
BRANCH  10  13
HETATM   13  O   UNK     1      -9.634   8.068  68.983  1.00  0.00    -0.154 OA 
BRANCH  13  14
HETATM   14  C   UNK     1      -8.250   8.209  68.628  1.00  0.00    -0.125 C  
BRANCH  14  15
HETATM   15  C   UNK     1      -7.885   7.303  67.450  1.00  0.00    -0.112 C  
HETATM   16  N   UNK     1      -6.433   6.963  67.402  1.00  0.00    -0.047 NA 
HETATM   17  C   UNK     1      -8.258   8.037  66.165  1.00  0.00    -0.116 C  
HETATM   18  O   UNK     1      -7.171   8.625  65.598  1.00  0.00    -0.081 OA 
HETATM   19  O   UNK     1      -9.391   8.137  65.720  1.00  0.00    -0.113 OA 
HETATM   20  H1  UNK     1      -6.190   6.359  66.617  1.00  0.00     0.000 HD 
HETATM   21  H2  UNK     1      -6.126   6.553  68.285  1.00  0.00     0.000 HD 
ENDBRANCH  14  15
ENDBRANCH  13  14
ENDBRANCH  10  13
ENDBRANCH   9  10
ENDBRANCH   8   9
ENDBRANCH   7   8
BRANCH   7  22
HETATM   22  C   UNK     1     -12.678  13.065  70.578  1.00  0.00    -0.039 C  
BRANCH  22  23
HETATM   23  O   UNK     1     -12.389  14.186  71.435  1.00  0.00    -0.342 OA 
BRANCH  23  24
HETATM   24  C   UNK     1     -13.302  14.405  72.422  1.00  0.00    -0.455 C  
HETATM   25  O   UNK     1     -14.196  13.633  72.725  1.00  0.00    -0.676 OA 
BRANCH  24  26
HETATM   26  C   UNK     1     -13.023  15.732  73.089  1.00  0.00    -0.651 C  
HETATM   27  C   UNK     1     -12.330  15.542  74.426  1.00  0.00    -0.798 C  
ENDBRANCH  24  26
ENDBRANCH  23  24
ENDBRANCH  22  23
ENDBRANCH   7  22
ENDBRANCH   6   7
ENDBRANCH   4   6
ENDBRANCH   3   4
ENDBRANCH   2   3
TORSDOF 14
ENDMDL
MODEL      266
REMARK 921   NORMALIZED FREE ENERGY PREDICTED BY IDOCK:   -3.62 KCAL/MOL
REMARK 922        TOTAL FREE ENERGY PREDICTED BY IDOCK:   -7.68 KCAL/MOL
REMARK 923 INTER-LIGAND FREE ENERGY PREDICTED BY IDOCK:   -6.49 KCAL/MOL
REMARK 924 INTRA-LIGAND FREE ENERGY PREDICTED BY IDOCK:   -1.18 KCAL/MOL
REMARK 927      BINDING AFFINITY PREDICTED BY RF-SCORE:    0.00 PKD
ROOT
HETATM    1  C   UNK     1     -11.175   5.670  72.242  1.00  0.00    -0.317 C  
HETATM    2  C   UNK     1     -11.924   6.977  72.019  1.00  0.00    -0.334 C  
ENDROOT
BRANCH   2   3
HETATM    3  C   UNK     1     -11.640   7.587  70.650  1.00  0.00    -0.272 C  
BRANCH   3   4
HETATM    4  C   UNK     1     -10.827   8.849  70.779  1.00  0.00    -0.241 C  
HETATM    5  O   UNK     1     -10.140   9.127  71.752  1.00  0.00    -0.329 OA 
BRANCH   4   6
HETATM    6  O   UNK     1     -10.993   9.635  69.688  1.00  0.00    -0.236 OA 
BRANCH   6   7
HETATM    7  C   UNK     1     -10.451   9.199  68.419  1.00  0.00    -0.199 C  
BRANCH   7   8
HETATM    8  C   UNK     1     -10.900  10.073  67.240  1.00  0.00    -0.217 C  
BRANCH   8   9
HETATM    9  O   UNK     1     -11.683  11.182  67.682  1.00  0.00    -0.573 OA 
BRANCH   9  10
HETATM   10  P   UNK     1     -11.514  12.587  66.687  1.00  0.00    -0.377 P  
HETATM   11  O   UNK     1      -9.916  12.311  66.475  1.00  0.00    -0.212 OA 
HETATM   12  O   UNK     1     -12.250  11.864  65.557  1.00  0.00    -0.399 OA 
BRANCH  10  13
HETATM   13  O   UNK     1     -11.346  13.992  65.692  1.00  0.00    -0.306 OA 
BRANCH  13  14
HETATM   14  C   UNK     1     -11.444  15.212  66.442  1.00  0.00    -0.160 C  
BRANCH  14  15
HETATM   15  C   UNK     1     -10.239  16.119  66.186  1.00  0.00    -0.336 C  
HETATM   16  N   UNK     1      -8.965  15.363  66.002  1.00  0.00    -0.441 NA 
HETATM   17  C   UNK     1     -10.089  17.046  67.389  1.00  0.00    -0.291 C  
HETATM   18  O   UNK     1      -9.128  16.598  68.241  1.00  0.00    -0.206 OA 
HETATM   19  O   UNK     1     -10.774  18.035  67.600  1.00  0.00    -0.415 OA 
HETATM   20  H1  UNK     1      -8.162  15.969  65.831  1.00  0.00     0.000 HD 
HETATM   21  H2  UNK     1      -9.059  14.666  65.264  1.00  0.00     0.000 HD 
ENDBRANCH  14  15
ENDBRANCH  13  14
ENDBRANCH  10  13
ENDBRANCH   9  10
ENDBRANCH   8   9
ENDBRANCH   7   8
BRANCH   7  22
HETATM   22  C   UNK     1      -8.919   9.060  68.473  1.00  0.00    -0.133 C  
BRANCH  22  23
HETATM   23  O   UNK     1      -8.499   7.704  68.236  1.00  0.00    -0.124 OA 
BRANCH  23  24
HETATM   24  C   UNK     1      -8.274   7.391  66.930  1.00  0.00    -0.121 C  
HETATM   25  O   UNK     1      -9.075   6.829  66.202  1.00  0.00    -0.154 OA 
BRANCH  24  26
HETATM   26  C   UNK     1      -6.897   7.863  66.522  1.00  0.00    -0.070 C  
HETATM   27  C   UNK     1      -5.826   7.292  67.433  1.00  0.00    -0.030 C  
ENDBRANCH  24  26
ENDBRANCH  23  24
ENDBRANCH  22  23
ENDBRANCH   7  22
ENDBRANCH   6   7
ENDBRANCH   4   6
ENDBRANCH   3   4
ENDBRANCH   2   3
TORSDOF 14
ENDMDL
MODEL      267
REMARK 921   NORMALIZED FREE ENERGY PREDICTED BY IDOCK:   -3.62 KCAL/MOL
REMARK 922        TOTAL FREE ENERGY PREDICTED BY IDOCK:   -7.67 KCAL/MOL
REMARK 923 INTER-LIGAND FREE ENERGY PREDICTED BY IDOCK:   -6.60 KCAL/MOL
REMARK 924 INTRA-LIGAND FREE ENERGY PREDICTED BY IDOCK:   -1.07 KCAL/MOL
REMARK 927      BINDING AFFINITY PREDICTED BY RF-SCORE:    0.00 PKD
ROOT
HETATM    1  C   UNK     1      -5.127   9.738  70.180  1.00  0.00    -0.032 C  
HETATM    2  C   UNK     1      -5.846   8.708  69.319  1.00  0.00    -0.038 C  
ENDROOT
BRANCH   2   3
HETATM    3  C   UNK     1      -6.691   7.744  70.145  1.00  0.00    -0.041 C  
BRANCH   3   4
HETATM    4  C   UNK     1      -7.825   8.465  70.824  1.00  0.00    -0.089 C  
HETATM    5  O   UNK     1      -7.993   8.496  72.036  1.00  0.00    -0.155 OA 
BRANCH   4   6
HETATM    6  O   UNK     1      -8.640   9.041  69.907  1.00  0.00    -0.122 OA 
BRANCH   6   7
HETATM    7  C   UNK     1     -10.050   9.176  70.206  1.00  0.00    -0.206 C  
BRANCH   7   8
HETATM    8  C   UNK     1     -10.660  10.474  69.660  1.00  0.00    -0.242 C  
BRANCH   8   9
HETATM    9  O   UNK     1      -9.848  11.038  68.630  1.00  0.00    -0.181 OA 
BRANCH   9  10
HETATM   10  P   UNK     1     -10.754  11.861  67.407  1.00  0.00    -0.258 P  
HETATM   11  O   UNK     1     -10.229  10.831  66.251  1.00  0.00    -0.231 OA 
HETATM   12  O   UNK     1     -12.045  11.273  67.982  1.00  0.00    -0.638 OA 
BRANCH  10  13
HETATM   13  O   UNK     1     -11.661  12.683  66.185  1.00  0.00    -0.349 OA 
BRANCH  13  14
HETATM   14  C   UNK     1     -10.842  13.544  65.380  1.00  0.00    -0.294 C  
BRANCH  14  15
HETATM   15  C   UNK     1     -11.414  13.694  63.969  1.00  0.00    -0.271 C  
HETATM   16  N   UNK     1     -12.408  14.801  63.855  1.00  0.00    -1.070 NA 
HETATM   17  C   UNK     1     -12.100  12.381  63.602  1.00  0.00    -0.556 C  
HETATM   18  O   UNK     1     -13.446  12.461  63.780  1.00  0.00    -0.313 OA 
HETATM   19  O   UNK     1     -11.523  11.365  63.247  1.00  0.00    -0.249 OA 
HETATM   20  H1  UNK     1     -12.789  14.901  62.914  1.00  0.00     0.000 HD 
HETATM   21  H2  UNK     1     -12.010  15.682  64.181  1.00  0.00     0.000 HD 
ENDBRANCH  14  15
ENDBRANCH  13  14
ENDBRANCH  10  13
ENDBRANCH   9  10
ENDBRANCH   8   9
ENDBRANCH   7   8
BRANCH   7  22
HETATM   22  C   UNK     1     -10.848   7.939  69.753  1.00  0.00    -0.202 C  
BRANCH  22  23
HETATM   23  O   UNK     1     -10.593   7.618  68.373  1.00  0.00    -0.190 OA 
BRANCH  23  24
HETATM   24  C   UNK     1     -10.038   6.393  68.161  1.00  0.00    -0.149 C  
HETATM   25  O   UNK     1      -9.160   5.899  68.848  1.00  0.00    -0.120 OA 
BRANCH  24  26
HETATM   26  C   UNK     1     -10.688   5.739  66.964  1.00  0.00    -0.369 C  
HETATM   27  C   UNK     1      -9.987   4.445  66.593  1.00  0.00    -0.234 C  
ENDBRANCH  24  26
ENDBRANCH  23  24
ENDBRANCH  22  23
ENDBRANCH   7  22
ENDBRANCH   6   7
ENDBRANCH   4   6
ENDBRANCH   3   4
ENDBRANCH   2   3
TORSDOF 14
ENDMDL
MODEL      268
REMARK 921   NORMALIZED FREE ENERGY PREDICTED BY IDOCK:   -3.61 KCAL/MOL
REMARK 922        TOTAL FREE ENERGY PREDICTED BY IDOCK:   -7.66 KCAL/MOL
REMARK 923 INTER-LIGAND FREE ENERGY PREDICTED BY IDOCK:   -6.36 KCAL/MOL
REMARK 924 INTRA-LIGAND FREE ENERGY PREDICTED BY IDOCK:   -1.30 KCAL/MOL
REMARK 927      BINDING AFFINITY PREDICTED BY RF-SCORE:    0.00 PKD
ROOT
HETATM    1  C   UNK     1     -13.707  14.921  72.496  1.00  0.00    -0.568 C  
HETATM    2  C   UNK     1     -13.475  13.419  72.578  1.00  0.00    -0.640 C  
ENDROOT
BRANCH   2   3
HETATM    3  C   UNK     1     -12.645  12.892  71.412  1.00  0.00    -0.319 C  
BRANCH   3   4
HETATM    4  C   UNK     1     -12.905  11.426  71.183  1.00  0.00    -0.341 C  
HETATM    5  O   UNK     1     -13.163  10.626  72.072  1.00  0.00    -0.473 OA 
BRANCH   4   6
HETATM    6  O   UNK     1     -12.783  11.120  69.868  1.00  0.00    -0.168 OA 
BRANCH   6   7
HETATM    7  C   UNK     1     -11.467  11.126  69.265  1.00  0.00    -0.294 C  
BRANCH   7   8
HETATM    8  C   UNK     1     -10.937   9.719  68.961  1.00  0.00    -0.163 C  
BRANCH   8   9
HETATM    9  O   UNK     1      -9.751   9.436  69.703  1.00  0.00    -0.171 OA 
BRANCH   9  10
HETATM   10  P   UNK     1      -9.964   8.216  70.911  1.00  0.00    -0.195 P  
HETATM   11  O   UNK     1     -10.057   9.335  72.100  1.00  0.00    -0.064 OA 
HETATM   12  O   UNK     1     -11.388   7.978  70.405  1.00  0.00    -0.261 OA 
BRANCH  10  13
HETATM   13  O   UNK     1     -10.178   6.997  72.120  1.00  0.00    -0.185 OA 
BRANCH  13  14
HETATM   14  C   UNK     1     -10.947   5.882  71.644  1.00  0.00    -0.268 C  
BRANCH  14  15
HETATM   15  C   UNK     1     -10.339   4.554  72.100  1.00  0.00    -0.162 C  
HETATM   16  N   UNK     1      -9.770   4.614  73.479  1.00  0.00    -0.127 NA 
HETATM   17  C   UNK     1      -9.221   4.194  71.125  1.00  0.00    -0.131 C  
HETATM   18  O   UNK     1      -8.002   4.524  71.627  1.00  0.00    -0.094 OA 
HETATM   19  O   UNK     1      -9.390   3.720  70.012  1.00  0.00    -0.144 OA 
HETATM   20  H1  UNK     1      -9.364   3.728  73.782  1.00  0.00     0.000 HD 
HETATM   21  H2  UNK     1     -10.467   4.942  74.146  1.00  0.00     0.000 HD 
ENDBRANCH  14  15
ENDBRANCH  13  14
ENDBRANCH  10  13
ENDBRANCH   9  10
ENDBRANCH   8   9
ENDBRANCH   7   8
BRANCH   7  22
HETATM   22  C   UNK     1     -11.415  12.034  68.022  1.00  0.00    -0.328 C  
BRANCH  22  23
HETATM   23  O   UNK     1     -10.129  12.666  67.879  1.00  0.00    -0.210 OA 
BRANCH  23  24
HETATM   24  C   UNK     1     -10.172  13.992  67.569  1.00  0.00    -0.244 C  
HETATM   25  O   UNK     1      -9.417  14.548  66.790  1.00  0.00    -0.245 OA 
BRANCH  24  26
HETATM   26  C   UNK     1     -11.305  14.654  68.318  1.00  0.00    -0.317 C  
HETATM   27  C   UNK     1     -10.785  15.523  69.449  1.00  0.00    -0.251 C  
ENDBRANCH  24  26
ENDBRANCH  23  24
ENDBRANCH  22  23
ENDBRANCH   7  22
ENDBRANCH   6   7
ENDBRANCH   4   6
ENDBRANCH   3   4
ENDBRANCH   2   3
TORSDOF 14
ENDMDL
MODEL      269
REMARK 921   NORMALIZED FREE ENERGY PREDICTED BY IDOCK:   -3.61 KCAL/MOL
REMARK 922        TOTAL FREE ENERGY PREDICTED BY IDOCK:   -7.65 KCAL/MOL
REMARK 923 INTER-LIGAND FREE ENERGY PREDICTED BY IDOCK:   -6.42 KCAL/MOL
REMARK 924 INTRA-LIGAND FREE ENERGY PREDICTED BY IDOCK:   -1.23 KCAL/MOL
REMARK 927      BINDING AFFINITY PREDICTED BY RF-SCORE:    0.00 PKD
ROOT
HETATM    1  C   UNK     1      -8.797   8.032  73.142  1.00  0.00    -0.318 C  
HETATM    2  C   UNK     1     -10.271   8.279  72.854  1.00  0.00    -0.260 C  
ENDROOT
BRANCH   2   3
HETATM    3  C   UNK     1     -10.491   9.066  71.566  1.00  0.00    -0.410 C  
BRANCH   3   4
HETATM    4  C   UNK     1     -10.779   8.142  70.411  1.00  0.00    -0.232 C  
HETATM    5  O   UNK     1     -11.218   7.006  70.532  1.00  0.00    -0.269 OA 
BRANCH   4   6
HETATM    6  O   UNK     1     -10.456   8.734  69.236  1.00  0.00    -0.219 OA 
BRANCH   6   7
HETATM    7  C   UNK     1      -9.950   7.918  68.153  1.00  0.00    -0.180 C  
BRANCH   7   8
HETATM    8  C   UNK     1     -10.429   8.385  66.773  1.00  0.00    -0.245 C  
BRANCH   8   9
HETATM    9  O   UNK     1      -9.330   8.734  65.931  1.00  0.00    -0.220 OA 
BRANCH   9  10
HETATM   10  P   UNK     1      -9.688  10.010  64.819  1.00  0.00    -0.116 P  
HETATM   11  O   UNK     1      -9.922  11.077  66.036  1.00  0.00    -0.220 OA 
HETATM   12  O   UNK     1      -8.208  10.080  64.437  1.00  0.00    -0.150 OA 
BRANCH  10  13
HETATM   13  O   UNK     1     -10.046  11.286  63.707  1.00  0.00    -0.290 OA 
BRANCH  13  14
HETATM   14  C   UNK     1     -11.339  11.866  63.934  1.00  0.00    -0.428 C  
BRANCH  14  15
HETATM   15  C   UNK     1     -11.238  13.374  64.167  1.00  0.00    -0.350 C  
HETATM   16  N   UNK     1      -9.864  13.817  64.547  1.00  0.00    -0.653 NA 
HETATM   17  C   UNK     1     -12.198  13.737  65.297  1.00  0.00    -0.439 C  
HETATM   18  O   UNK     1     -11.543  13.862  66.481  1.00  0.00    -0.337 OA 
HETATM   19  O   UNK     1     -13.408  13.849  65.177  1.00  0.00    -0.698 OA 
HETATM   20  H1  UNK     1      -9.797  14.823  64.703  1.00  0.00     0.000 HD 
HETATM   21  H2  UNK     1      -9.179  13.509  63.857  1.00  0.00     0.000 HD 
ENDBRANCH  14  15
ENDBRANCH  13  14
ENDBRANCH  10  13
ENDBRANCH   9  10
ENDBRANCH   8   9
ENDBRANCH   7   8
BRANCH   7  22
HETATM   22  C   UNK     1      -8.417   7.786  68.209  1.00  0.00    -0.124 C  
BRANCH  22  23
HETATM   23  O   UNK     1      -7.815   8.884  68.920  1.00  0.00    -0.093 OA 
BRANCH  23  24
HETATM   24  C   UNK     1      -6.455   8.937  68.849  1.00  0.00    -0.048 C  
HETATM   25  O   UNK     1      -5.697   8.301  69.561  1.00  0.00    -0.029 OA 
BRANCH  24  26
HETATM   26  C   UNK     1      -6.039   9.884  67.748  1.00  0.00    -0.054 C  
HETATM   27  C   UNK     1      -5.182   9.182  66.711  1.00  0.00    -0.038 C  
ENDBRANCH  24  26
ENDBRANCH  23  24
ENDBRANCH  22  23
ENDBRANCH   7  22
ENDBRANCH   6   7
ENDBRANCH   4   6
ENDBRANCH   3   4
ENDBRANCH   2   3
TORSDOF 14
ENDMDL
MODEL      270
REMARK 921   NORMALIZED FREE ENERGY PREDICTED BY IDOCK:   -3.61 KCAL/MOL
REMARK 922        TOTAL FREE ENERGY PREDICTED BY IDOCK:   -7.65 KCAL/MOL
REMARK 923 INTER-LIGAND FREE ENERGY PREDICTED BY IDOCK:   -6.34 KCAL/MOL
REMARK 924 INTRA-LIGAND FREE ENERGY PREDICTED BY IDOCK:   -1.30 KCAL/MOL
REMARK 927      BINDING AFFINITY PREDICTED BY RF-SCORE:    0.00 PKD
ROOT
HETATM    1  C   UNK     1      -9.479  10.325  62.385  1.00  0.00    -0.252 C  
HETATM    2  C   UNK     1      -8.771   9.127  63.002  1.00  0.00    -0.168 C  
ENDROOT
BRANCH   2   3
HETATM    3  C   UNK     1      -7.369   9.468  63.495  1.00  0.00    -0.107 C  
BRANCH   3   4
HETATM    4  C   UNK     1      -7.393   9.887  64.943  1.00  0.00    -0.136 C  
HETATM    5  O   UNK     1      -6.652  10.733  65.426  1.00  0.00    -0.071 OA 
BRANCH   4   6
HETATM    6  O   UNK     1      -8.320   9.175  65.628  1.00  0.00    -0.115 OA 
BRANCH   6   7
HETATM    7  C   UNK     1      -9.094   9.837  66.656  1.00  0.00    -0.147 C  
BRANCH   7   8
HETATM    8  C   UNK     1     -10.258  10.664  66.096  1.00  0.00    -0.248 C  
BRANCH   8   9
HETATM    9  O   UNK     1     -11.106  11.144  67.139  1.00  0.00    -0.282 OA 
BRANCH   9  10
HETATM   10  P   UNK     1     -11.317  12.861  67.124  1.00  0.00    -0.343 P  
HETATM   11  O   UNK     1      -9.985  13.086  68.045  1.00  0.00    -0.220 OA 
HETATM   12  O   UNK     1     -10.866  12.894  65.662  1.00  0.00    -0.269 OA 
BRANCH  10  13
HETATM   13  O   UNK     1     -11.528  14.578  67.109  1.00  0.00    -0.339 OA 
BRANCH  13  14
HETATM   14  C   UNK     1     -10.961  15.191  65.941  1.00  0.00    -0.339 C  
BRANCH  14  15
HETATM   15  C   UNK     1      -9.856  16.180  66.315  1.00  0.00    -0.307 C  
HETATM   16  N   UNK     1      -9.274  15.924  67.665  1.00  0.00    -0.207 NA 
HETATM   17  C   UNK     1     -10.460  17.582  66.300  1.00  0.00    -0.283 C  
HETATM   18  O   UNK     1     -10.775  17.997  67.556  1.00  0.00    -0.404 OA 
HETATM   19  O   UNK     1     -10.687  18.235  65.294  1.00  0.00    -0.605 OA 
HETATM   20  H1  UNK     1      -8.536  16.584  67.914  1.00  0.00     0.000 HD 
HETATM   21  H2  UNK     1      -8.943  14.962  67.742  1.00  0.00     0.000 HD 
ENDBRANCH  14  15
ENDBRANCH  13  14
ENDBRANCH  10  13
ENDBRANCH   9  10
ENDBRANCH   8   9
ENDBRANCH   7   8
BRANCH   7  22
HETATM   22  C   UNK     1      -9.569   8.847  67.736  1.00  0.00    -0.147 C  
BRANCH  22  23
HETATM   23  O   UNK     1     -10.668   8.041  67.272  1.00  0.00    -0.300 OA 
BRANCH  23  24
HETATM   24  C   UNK     1     -10.581   6.717  67.580  1.00  0.00    -0.279 C  
HETATM   25  O   UNK     1     -11.228   6.162  68.452  1.00  0.00    -0.330 OA 
BRANCH  24  26
HETATM   26  C   UNK     1      -9.582   6.046  66.666  1.00  0.00    -0.179 C  
HETATM   27  C   UNK     1      -9.975   4.608  66.379  1.00  0.00    -0.267 C  
ENDBRANCH  24  26
ENDBRANCH  23  24
ENDBRANCH  22  23
ENDBRANCH   7  22
ENDBRANCH   6   7
ENDBRANCH   4   6
ENDBRANCH   3   4
ENDBRANCH   2   3
TORSDOF 14
ENDMDL
MODEL      271
REMARK 921   NORMALIZED FREE ENERGY PREDICTED BY IDOCK:   -3.59 KCAL/MOL
REMARK 922        TOTAL FREE ENERGY PREDICTED BY IDOCK:   -7.62 KCAL/MOL
REMARK 923 INTER-LIGAND FREE ENERGY PREDICTED BY IDOCK:   -6.42 KCAL/MOL
REMARK 924 INTRA-LIGAND FREE ENERGY PREDICTED BY IDOCK:   -1.20 KCAL/MOL
REMARK 927      BINDING AFFINITY PREDICTED BY RF-SCORE:    0.00 PKD
ROOT
HETATM    1  C   UNK     1      -8.822   9.717  69.748  1.00  0.00    -0.241 C  
HETATM    2  C   UNK     1     -10.342   9.807  69.768  1.00  0.00    -0.274 C  
ENDROOT
BRANCH   2   3
HETATM    3  C   UNK     1     -10.934  10.009  68.377  1.00  0.00    -0.266 C  
BRANCH   3   4
HETATM    4  C   UNK     1     -11.018  11.473  68.033  1.00  0.00    -0.231 C  
HETATM    5  O   UNK     1     -11.673  12.291  68.665  1.00  0.00    -0.293 OA 
BRANCH   4   6
HETATM    6  O   UNK     1     -10.298  11.742  66.917  1.00  0.00    -0.210 OA 
BRANCH   6   7
HETATM    7  C   UNK     1     -10.791  11.284  65.635  1.00  0.00    -0.177 C  
BRANCH   7   8
HETATM    8  C   UNK     1     -11.873  12.198  65.045  1.00  0.00    -0.298 C  
BRANCH   8   9
HETATM    9  O   UNK     1     -11.307  13.183  64.179  1.00  0.00    -0.368 OA 
BRANCH   9  10
HETATM   10  P   UNK     1     -11.232  14.762  64.883  1.00  0.00    -0.384 P  
HETATM   11  O   UNK     1     -12.274  14.340  66.070  1.00  0.00    -0.421 OA 
HETATM   12  O   UNK     1      -9.822  14.457  65.392  1.00  0.00    -0.325 OA 
BRANCH  10  13
HETATM   13  O   UNK     1     -11.156  16.340  65.587  1.00  0.00    -0.148 OA 
BRANCH  13  14
HETATM   14  C   UNK     1      -9.907  16.587  66.249  1.00  0.00    -0.316 C  
BRANCH  14  15
HETATM   15  C   UNK     1     -10.000  16.273  67.743  1.00  0.00    -0.246 C  
HETATM   16  N   UNK     1     -11.396  16.323  68.267  1.00  0.00    -0.331 NA 
HETATM   17  C   UNK     1      -9.160  17.306  68.490  1.00  0.00    -0.269 C  
HETATM   18  O   UNK     1      -9.937  18.295  69.006  1.00  0.00    -0.357 OA 
HETATM   19  O   UNK     1      -7.942  17.288  68.574  1.00  0.00    -0.242 OA 
HETATM   20  H1  UNK     1     -11.457  16.113  69.264  1.00  0.00     0.000 HD 
HETATM   21  H2  UNK     1     -12.009  15.711  67.728  1.00  0.00     0.000 HD 
ENDBRANCH  14  15
ENDBRANCH  13  14
ENDBRANCH  10  13
ENDBRANCH   9  10
ENDBRANCH   8   9
ENDBRANCH   7   8
BRANCH   7  22
HETATM   22  C   UNK     1      -9.643  11.045  64.637  1.00  0.00    -0.254 C  
BRANCH  22  23
HETATM   23  O   UNK     1      -9.289   9.652  64.559  1.00  0.00    -0.261 OA 
BRANCH  23  24
HETATM   24  C   UNK     1      -8.348   9.247  65.457  1.00  0.00    -0.133 C  
HETATM   25  O   UNK     1      -8.456   8.276  66.187  1.00  0.00    -0.119 OA 
BRANCH  24  26
HETATM   26  C   UNK     1      -7.152  10.169  65.393  1.00  0.00    -0.143 C  
HETATM   27  C   UNK     1      -6.241   9.811  64.233  1.00  0.00    -0.115 C  
ENDBRANCH  24  26
ENDBRANCH  23  24
ENDBRANCH  22  23
ENDBRANCH   7  22
ENDBRANCH   6   7
ENDBRANCH   4   6
ENDBRANCH   3   4
ENDBRANCH   2   3
TORSDOF 14
ENDMDL
MODEL      272
REMARK 921   NORMALIZED FREE ENERGY PREDICTED BY IDOCK:   -3.59 KCAL/MOL
REMARK 922        TOTAL FREE ENERGY PREDICTED BY IDOCK:   -7.61 KCAL/MOL
REMARK 923 INTER-LIGAND FREE ENERGY PREDICTED BY IDOCK:   -6.83 KCAL/MOL
REMARK 924 INTRA-LIGAND FREE ENERGY PREDICTED BY IDOCK:   -0.78 KCAL/MOL
REMARK 927      BINDING AFFINITY PREDICTED BY RF-SCORE:    0.00 PKD
ROOT
HETATM    1  C   UNK     1      -6.097   4.838  68.222  1.00  0.00    -0.031 C  
HETATM    2  C   UNK     1      -6.754   6.147  68.639  1.00  0.00    -0.061 C  
ENDROOT
BRANCH   2   3
HETATM    3  C   UNK     1      -7.125   6.168  70.119  1.00  0.00    -0.074 C  
BRANCH   3   4
HETATM    4  C   UNK     1      -8.579   6.515  70.306  1.00  0.00    -0.136 C  
HETATM    5  O   UNK     1      -9.504   5.748  70.076  1.00  0.00    -0.152 OA 
BRANCH   4   6
HETATM    6  O   UNK     1      -8.711   7.795  70.731  1.00  0.00    -0.132 OA 
BRANCH   6   7
HETATM    7  C   UNK     1      -9.392   8.750  69.882  1.00  0.00    -0.162 C  
BRANCH   7   8
HETATM    8  C   UNK     1      -9.258   8.431  68.387  1.00  0.00    -0.135 C  
BRANCH   8   9
HETATM    9  O   UNK     1      -8.287   9.270  67.761  1.00  0.00    -0.115 OA 
BRANCH   9  10
HETATM   10  P   UNK     1      -8.808   9.917  66.243  1.00  0.00    -0.151 P  
HETATM   11  O   UNK     1     -10.078  10.675  66.943  1.00  0.00    -0.198 OA 
HETATM   12  O   UNK     1      -7.631  10.894  66.266  1.00  0.00    -0.142 OA 
BRANCH  10  13
HETATM   13  O   UNK     1      -9.330  10.564  64.726  1.00  0.00    -0.199 OA 
BRANCH  13  14
HETATM   14  C   UNK     1     -10.657  11.106  64.787  1.00  0.00    -0.303 C  
BRANCH  14  15
HETATM   15  C   UNK     1     -10.834  12.255  63.792  1.00  0.00    -0.442 C  
HETATM   16  N   UNK     1     -10.090  13.488  64.184  1.00  0.00    -0.761 NA 
HETATM   17  C   UNK     1     -12.323  12.584  63.720  1.00  0.00    -0.502 C  
HETATM   18  O   UNK     1     -12.628  13.665  64.487  1.00  0.00    -0.608 OA 
HETATM   19  O   UNK     1     -13.153  11.937  63.102  1.00  0.00    -0.605 OA 
HETATM   20  H1  UNK     1     -10.208  14.254  63.520  1.00  0.00     0.000 HD 
HETATM   21  H2  UNK     1      -9.102  13.285  64.332  1.00  0.00     0.000 HD 
ENDBRANCH  14  15
ENDBRANCH  13  14
ENDBRANCH  10  13
ENDBRANCH   9  10
ENDBRANCH   8   9
ENDBRANCH   7   8
BRANCH   7  22
HETATM   22  C   UNK     1     -10.865   8.928  70.295  1.00  0.00    -0.239 C  
BRANCH  22  23
HETATM   23  O   UNK     1     -11.025   8.890  71.725  1.00  0.00    -0.314 OA 
BRANCH  23  24
HETATM   24  C   UNK     1     -11.570   7.741  72.212  1.00  0.00    -0.338 C  
HETATM   25  O   UNK     1     -12.546   7.181  71.741  1.00  0.00    -0.335 OA 
BRANCH  24  26
HETATM   26  C   UNK     1     -10.773   7.263  73.404  1.00  0.00    -0.415 C  
HETATM   27  C   UNK     1     -10.567   5.760  73.362  1.00  0.00    -0.283 C  
ENDBRANCH  24  26
ENDBRANCH  23  24
ENDBRANCH  22  23
ENDBRANCH   7  22
ENDBRANCH   6   7
ENDBRANCH   4   6
ENDBRANCH   3   4
ENDBRANCH   2   3
TORSDOF 14
ENDMDL
MODEL      273
REMARK 921   NORMALIZED FREE ENERGY PREDICTED BY IDOCK:   -3.58 KCAL/MOL
REMARK 922        TOTAL FREE ENERGY PREDICTED BY IDOCK:   -7.59 KCAL/MOL
REMARK 923 INTER-LIGAND FREE ENERGY PREDICTED BY IDOCK:   -6.61 KCAL/MOL
REMARK 924 INTRA-LIGAND FREE ENERGY PREDICTED BY IDOCK:   -0.98 KCAL/MOL
REMARK 927      BINDING AFFINITY PREDICTED BY RF-SCORE:    0.00 PKD
ROOT
HETATM    1  C   UNK     1      -9.926  20.615  68.129  1.00  0.00    -0.100 C  
HETATM    2  C   UNK     1      -9.703  19.232  67.533  1.00  0.00    -0.406 C  
ENDROOT
BRANCH   2   3
HETATM    3  C   UNK     1     -11.001  18.448  67.375  1.00  0.00    -0.163 C  
BRANCH   3   4
HETATM    4  C   UNK     1     -10.772  16.974  67.589  1.00  0.00    -0.295 C  
HETATM    5  O   UNK     1     -11.309  16.315  68.468  1.00  0.00    -0.367 OA 
BRANCH   4   6
HETATM    6  O   UNK     1      -9.869  16.499  66.696  1.00  0.00    -0.244 OA 
BRANCH   6   7
HETATM    7  C   UNK     1      -8.719  15.767  67.181  1.00  0.00    -0.205 C  
BRANCH   7   8
HETATM    8  C   UNK     1      -8.799  14.262  66.895  1.00  0.00    -0.213 C  
BRANCH   8   9
HETATM    9  O   UNK     1      -9.922  13.947  66.071  1.00  0.00    -0.298 OA 
BRANCH   9  10
HETATM   10  P   UNK     1     -10.672  12.440  66.472  1.00  0.00    -0.253 P  
HETATM   11  O   UNK     1     -12.145  13.142  66.584  1.00  0.00    -0.391 OA 
HETATM   12  O   UNK     1     -10.501  11.980  65.023  1.00  0.00    -0.266 OA 
BRANCH  10  13
HETATM   13  O   UNK     1     -11.423  10.933  66.872  1.00  0.00    -0.342 OA 
BRANCH  13  14
HETATM   14  C   UNK     1     -11.210  10.561  68.242  1.00  0.00    -0.291 C  
BRANCH  14  15
HETATM   15  C   UNK     1     -10.090   9.526  68.368  1.00  0.00    -0.175 C  
HETATM   16  N   UNK     1      -8.729  10.138  68.394  1.00  0.00    -0.120 NA 
HETATM   17  C   UNK     1     -10.183   8.590  67.165  1.00  0.00    -0.284 C  
HETATM   18  O   UNK     1      -9.284   8.932  66.204  1.00  0.00    -0.184 OA 
HETATM   19  O   UNK     1     -10.991   7.683  67.046  1.00  0.00    -0.277 OA 
HETATM   20  H1  UNK     1      -7.982   9.447  68.478  1.00  0.00     0.000 HD 
HETATM   21  H2  UNK     1      -8.660  10.840  69.131  1.00  0.00     0.000 HD 
ENDBRANCH  14  15
ENDBRANCH  13  14
ENDBRANCH  10  13
ENDBRANCH   9  10
ENDBRANCH   8   9
ENDBRANCH   7   8
BRANCH   7  22
HETATM   22  C   UNK     1      -7.401  16.374  66.668  1.00  0.00    -0.206 C  
BRANCH  22  23
HETATM   23  O   UNK     1      -7.631  17.349  65.634  1.00  0.00    -0.434 OA 
BRANCH  23  24
HETATM   24  C   UNK     1      -6.735  18.375  65.601  1.00  0.00    -0.269 C  
HETATM   25  O   UNK     1      -6.699  19.238  64.741  1.00  0.00    -0.434 OA 
BRANCH  24  26
HETATM   26  C   UNK     1      -5.815  18.286  66.796  1.00  0.00    -0.173 C  
HETATM   27  C   UNK     1      -6.001  19.472  67.725  1.00  0.00    -0.216 C  
ENDBRANCH  24  26
ENDBRANCH  23  24
ENDBRANCH  22  23
ENDBRANCH   7  22
ENDBRANCH   6   7
ENDBRANCH   4   6
ENDBRANCH   3   4
ENDBRANCH   2   3
TORSDOF 14
ENDMDL
MODEL      274
REMARK 921   NORMALIZED FREE ENERGY PREDICTED BY IDOCK:   -3.57 KCAL/MOL
REMARK 922        TOTAL FREE ENERGY PREDICTED BY IDOCK:   -7.59 KCAL/MOL
REMARK 923 INTER-LIGAND FREE ENERGY PREDICTED BY IDOCK:   -6.94 KCAL/MOL
REMARK 924 INTRA-LIGAND FREE ENERGY PREDICTED BY IDOCK:   -0.65 KCAL/MOL
REMARK 927      BINDING AFFINITY PREDICTED BY RF-SCORE:    0.00 PKD
ROOT
HETATM    1  C   UNK     1      -5.955   7.098  71.792  1.00  0.00    -0.037 C  
HETATM    2  C   UNK     1      -6.291   7.646  70.413  1.00  0.00    -0.038 C  
ENDROOT
BRANCH   2   3
HETATM    3  C   UNK     1      -7.509   6.967  69.795  1.00  0.00    -0.095 C  
BRANCH   3   4
HETATM    4  C   UNK     1      -8.137   7.840  68.740  1.00  0.00    -0.126 C  
HETATM    5  O   UNK     1      -8.179   7.559  67.550  1.00  0.00    -0.112 OA 
BRANCH   4   6
HETATM    6  O   UNK     1      -8.614   8.982  69.292  1.00  0.00    -0.130 OA 
BRANCH   6   7
HETATM    7  C   UNK     1     -10.033   9.258  69.220  1.00  0.00    -0.180 C  
BRANCH   7   8
HETATM    8  C   UNK     1     -10.430  10.056  67.970  1.00  0.00    -0.218 C  
BRANCH   8   9
HETATM    9  O   UNK     1     -11.691  10.703  68.144  1.00  0.00    -0.474 OA 
BRANCH   9  10
HETATM   10  P   UNK     1     -11.813  12.215  67.310  1.00  0.00     0.053 P  
HETATM   11  O   UNK     1     -11.892  13.045  68.717  1.00  0.00    -0.303 OA 
HETATM   12  O   UNK     1     -10.334  12.113  66.930  1.00  0.00    -0.211 OA 
BRANCH  10  13
HETATM   13  O   UNK     1     -11.935  13.726  66.477  1.00  0.00    -0.387 OA 
BRANCH  13  14
HETATM   14  C   UNK     1     -10.655  14.240  66.081  1.00  0.00    -0.293 C  
BRANCH  14  15
HETATM   15  C   UNK     1     -10.626  14.567  64.587  1.00  0.00    -0.272 C  
HETATM   16  N   UNK     1     -11.169  15.921  64.274  1.00  0.00    -0.942 NA 
HETATM   17  C   UNK     1     -11.472  13.521  63.865  1.00  0.00    -0.250 C  
HETATM   18  O   UNK     1     -12.716  13.997  63.589  1.00  0.00    -0.778 OA 
HETATM   19  O   UNK     1     -11.110  12.383  63.610  1.00  0.00    -0.408 OA 
HETATM   20  H1  UNK     1     -11.149  16.139  63.277  1.00  0.00     0.000 HD 
HETATM   21  H2  UNK     1     -10.686  16.640  64.813  1.00  0.00     0.000 HD 
ENDBRANCH  14  15
ENDBRANCH  13  14
ENDBRANCH  10  13
ENDBRANCH   9  10
ENDBRANCH   8   9
ENDBRANCH   7   8
BRANCH   7  22
HETATM   22  C   UNK     1     -10.870   7.973  69.362  1.00  0.00    -0.094 C  
BRANCH  22  23
HETATM   23  O   UNK     1     -10.861   7.480  70.714  1.00  0.00    -0.233 OA 
BRANCH  23  24
HETATM   24  C   UNK     1     -11.281   8.372  71.654  1.00  0.00    -0.278 C  
HETATM   25  O   UNK     1     -10.595   8.788  72.572  1.00  0.00    -0.249 OA 
BRANCH  24  26
HETATM   26  C   UNK     1     -12.710   8.775  71.372  1.00  0.00    -0.324 C  
HETATM   27  C   UNK     1     -12.886  10.280  71.463  1.00  0.00    -0.557 C  
ENDBRANCH  24  26
ENDBRANCH  23  24
ENDBRANCH  22  23
ENDBRANCH   7  22
ENDBRANCH   6   7
ENDBRANCH   4   6
ENDBRANCH   3   4
ENDBRANCH   2   3
TORSDOF 14
ENDMDL
MODEL      275
REMARK 921   NORMALIZED FREE ENERGY PREDICTED BY IDOCK:   -3.56 KCAL/MOL
REMARK 922        TOTAL FREE ENERGY PREDICTED BY IDOCK:   -7.55 KCAL/MOL
REMARK 923 INTER-LIGAND FREE ENERGY PREDICTED BY IDOCK:   -6.24 KCAL/MOL
REMARK 924 INTRA-LIGAND FREE ENERGY PREDICTED BY IDOCK:   -1.31 KCAL/MOL
REMARK 927      BINDING AFFINITY PREDICTED BY RF-SCORE:    0.00 PKD
ROOT
HETATM    1  C   UNK     1     -13.291   7.261  71.545  1.00  0.00    -0.435 C  
HETATM    2  C   UNK     1     -12.033   6.479  71.896  1.00  0.00    -0.389 C  
ENDROOT
BRANCH   2   3
HETATM    3  C   UNK     1     -11.149   6.219  70.680  1.00  0.00    -0.389 C  
BRANCH   3   4
HETATM    4  C   UNK     1      -9.790   6.846  70.856  1.00  0.00    -0.185 C  
HETATM    5  O   UNK     1      -8.853   6.305  71.427  1.00  0.00    -0.138 OA 
BRANCH   4   6
HETATM    6  O   UNK     1      -9.769   8.092  70.325  1.00  0.00    -0.175 OA 
BRANCH   6   7
HETATM    7  C   UNK     1     -10.668   8.407  69.236  1.00  0.00    -0.126 C  
BRANCH   7   8
HETATM    8  C   UNK     1     -11.498   9.673  69.487  1.00  0.00     0.047 C  
BRANCH   8   9
HETATM    9  O   UNK     1     -10.665  10.828  69.595  1.00  0.00    -0.240 OA 
BRANCH   9  10
HETATM   10  P   UNK     1     -11.294  12.214  68.773  1.00  0.00    -0.337 P  
HETATM   11  O   UNK     1     -12.125  11.279  67.720  1.00  0.00    -0.631 OA 
HETATM   12  O   UNK     1     -12.219  12.488  69.960  1.00  0.00    -0.272 OA 
BRANCH  10  13
HETATM   13  O   UNK     1     -11.923  13.601  67.951  1.00  0.00    -0.358 OA 
BRANCH  13  14
HETATM   14  C   UNK     1     -11.874  14.787  68.757  1.00  0.00    -0.296 C  
BRANCH  14  15
HETATM   15  C   UNK     1     -10.437  15.284  68.925  1.00  0.00    -0.241 C  
HETATM   16  N   UNK     1     -10.039  15.452  70.354  1.00  0.00    -0.402 NA 
HETATM   17  C   UNK     1     -10.326  16.635  68.224  1.00  0.00    -0.304 C  
HETATM   18  O   UNK     1     -10.415  17.661  69.112  1.00  0.00    -0.331 OA 
HETATM   19  O   UNK     1     -10.226  16.791  67.017  1.00  0.00    -0.281 OA 
HETATM   20  H1  UNK     1      -9.080  15.784  70.465  1.00  0.00     0.000 HD 
HETATM   21  H2  UNK     1     -10.189  14.590  70.877  1.00  0.00     0.000 HD 
ENDBRANCH  14  15
ENDBRANCH  13  14
ENDBRANCH  10  13
ENDBRANCH   9  10
ENDBRANCH   8   9
ENDBRANCH   7   8
BRANCH   7  22
HETATM   22  C   UNK     1      -9.928   8.471  67.887  1.00  0.00    -0.181 C  
BRANCH  22  23
HETATM   23  O   UNK     1      -8.538   8.802  68.059  1.00  0.00    -0.132 OA 
BRANCH  23  24
HETATM   24  C   UNK     1      -8.155   9.983  67.497  1.00  0.00    -0.110 C  
HETATM   25  O   UNK     1      -8.796  10.594  66.660  1.00  0.00    -0.138 OA 
BRANCH  24  26
HETATM   26  C   UNK     1      -6.833  10.421  68.084  1.00  0.00    -0.072 C  
HETATM   27  C   UNK     1      -7.014  11.016  69.469  1.00  0.00    -0.126 C  
ENDBRANCH  24  26
ENDBRANCH  23  24
ENDBRANCH  22  23
ENDBRANCH   7  22
ENDBRANCH   6   7
ENDBRANCH   4   6
ENDBRANCH   3   4
ENDBRANCH   2   3
TORSDOF 14
ENDMDL
MODEL      276
REMARK 921   NORMALIZED FREE ENERGY PREDICTED BY IDOCK:   -3.55 KCAL/MOL
REMARK 922        TOTAL FREE ENERGY PREDICTED BY IDOCK:   -7.54 KCAL/MOL
REMARK 923 INTER-LIGAND FREE ENERGY PREDICTED BY IDOCK:   -6.89 KCAL/MOL
REMARK 924 INTRA-LIGAND FREE ENERGY PREDICTED BY IDOCK:   -0.65 KCAL/MOL
REMARK 927      BINDING AFFINITY PREDICTED BY RF-SCORE:    0.00 PKD
ROOT
HETATM    1  C   UNK     1     -10.818   4.942  72.338  1.00  0.00    -0.204 C  
HETATM    2  C   UNK     1     -11.598   6.246  72.428  1.00  0.00    -0.325 C  
ENDROOT
BRANCH   2   3
HETATM    3  C   UNK     1     -10.804   7.356  73.108  1.00  0.00    -0.435 C  
BRANCH   3   4
HETATM    4  C   UNK     1     -10.254   8.325  72.093  1.00  0.00    -0.285 C  
HETATM    5  O   UNK     1      -9.291   9.054  72.290  1.00  0.00    -0.333 OA 
BRANCH   4   6
HETATM    6  O   UNK     1     -10.991   8.293  70.957  1.00  0.00    -0.235 OA 
BRANCH   6   7
HETATM    7  C   UNK     1     -10.319   8.401  69.679  1.00  0.00    -0.218 C  
BRANCH   7   8
HETATM    8  C   UNK     1     -10.191   9.848  69.186  1.00  0.00    -0.205 C  
BRANCH   8   9
HETATM    9  O   UNK     1      -9.305   9.942  68.070  1.00  0.00    -0.131 OA 
BRANCH   9  10
HETATM   10  P   UNK     1     -10.107  10.289  66.577  1.00  0.00    -0.219 P  
HETATM   11  O   UNK     1      -8.772  11.010  65.967  1.00  0.00    -0.181 OA 
HETATM   12  O   UNK     1     -10.030   8.808  66.202  1.00  0.00    -0.275 OA 
BRANCH  10  13
HETATM   13  O   UNK     1     -10.908  10.636  65.084  1.00  0.00    -0.110 OA 
BRANCH  13  14
HETATM   14  C   UNK     1     -10.096  11.414  64.192  1.00  0.00    -0.309 C  
BRANCH  14  15
HETATM   15  C   UNK     1     -10.810  12.700  63.771  1.00  0.00    -0.426 C  
HETATM   16  N   UNK     1     -10.275  13.916  64.451  1.00  0.00    -0.732 NA 
HETATM   17  C   UNK     1     -12.287  12.551  64.126  1.00  0.00    -0.462 C  
HETATM   18  O   UNK     1     -12.580  13.184  65.293  1.00  0.00    -0.481 OA 
HETATM   19  O   UNK     1     -13.099  11.904  63.483  1.00  0.00    -0.715 OA 
HETATM   20  H1  UNK     1     -10.751  14.773  64.169  1.00  0.00     0.000 HD 
HETATM   21  H2  UNK     1      -9.268  13.997  64.311  1.00  0.00     0.000 HD 
ENDBRANCH  14  15
ENDBRANCH  13  14
ENDBRANCH  10  13
ENDBRANCH   9  10
ENDBRANCH   8   9
ENDBRANCH   7   8
BRANCH   7  22
HETATM   22  C   UNK     1      -8.957   7.683  69.691  1.00  0.00    -0.140 C  
BRANCH  22  23
HETATM   23  O   UNK     1      -9.027   6.400  69.041  1.00  0.00    -0.128 OA 
BRANCH  23  24
HETATM   24  C   UNK     1      -7.962   6.099  68.247  1.00  0.00    -0.107 C  
HETATM   25  O   UNK     1      -7.728   4.994  67.787  1.00  0.00    -0.086 OA 
BRANCH  24  26
HETATM   26  C   UNK     1      -7.135   7.342  68.011  1.00  0.00    -0.081 C  
HETATM   27  C   UNK     1      -6.797   7.508  66.541  1.00  0.00    -0.062 C  
ENDBRANCH  24  26
ENDBRANCH  23  24
ENDBRANCH  22  23
ENDBRANCH   7  22
ENDBRANCH   6   7
ENDBRANCH   4   6
ENDBRANCH   3   4
ENDBRANCH   2   3
TORSDOF 14
ENDMDL
MODEL      277
REMARK 921   NORMALIZED FREE ENERGY PREDICTED BY IDOCK:   -3.54 KCAL/MOL
REMARK 922        TOTAL FREE ENERGY PREDICTED BY IDOCK:   -7.53 KCAL/MOL
REMARK 923 INTER-LIGAND FREE ENERGY PREDICTED BY IDOCK:   -6.74 KCAL/MOL
REMARK 924 INTRA-LIGAND FREE ENERGY PREDICTED BY IDOCK:   -0.79 KCAL/MOL
REMARK 927      BINDING AFFINITY PREDICTED BY RF-SCORE:    0.00 PKD
ROOT
HETATM    1  C   UNK     1     -10.181   7.468  73.517  1.00  0.00    -0.380 C  
HETATM    2  C   UNK     1     -11.135   7.691  72.352  1.00  0.00    -0.362 C  
ENDROOT
BRANCH   2   3
HETATM    3  C   UNK     1     -10.962   9.064  71.710  1.00  0.00    -0.443 C  
BRANCH   3   4
HETATM    4  C   UNK     1      -9.717   9.109  70.862  1.00  0.00    -0.284 C  
HETATM    5  O   UNK     1      -8.609   9.415  71.282  1.00  0.00    -0.299 OA 
BRANCH   4   6
HETATM    6  O   UNK     1     -10.007   8.798  69.575  1.00  0.00    -0.186 OA 
BRANCH   6   7
HETATM    7  C   UNK     1     -10.567   9.817  68.714  1.00  0.00    -0.219 C  
BRANCH   7   8
HETATM    8  C   UNK     1      -9.858  11.172  68.845  1.00  0.00    -0.162 C  
BRANCH   8   9
HETATM    9  O   UNK     1      -8.977  11.407  67.746  1.00  0.00    -0.140 OA 
BRANCH   9  10
HETATM   10  P   UNK     1      -9.360  12.834  66.846  1.00  0.00    -0.234 P  
HETATM   11  O   UNK     1     -10.453  13.311  67.965  1.00  0.00    -0.230 OA 
HETATM   12  O   UNK     1      -8.012  13.437  67.246  1.00  0.00    -0.168 OA 
BRANCH  10  13
HETATM   13  O   UNK     1      -9.742  14.261  65.945  1.00  0.00    -0.303 OA 
BRANCH  13  14
HETATM   14  C   UNK     1      -9.469  15.463  66.680  1.00  0.00    -0.259 C  
BRANCH  14  15
HETATM   15  C   UNK     1     -10.445  16.579  66.302  1.00  0.00    -0.281 C  
HETATM   16  N   UNK     1     -10.574  16.769  64.827  1.00  0.00    -0.580 NA 
HETATM   17  C   UNK     1      -9.931  17.877  66.919  1.00  0.00    -0.335 C  
HETATM   18  O   UNK     1      -9.263  18.628  66.004  1.00  0.00    -0.484 OA 
HETATM   19  O   UNK     1     -10.050  18.187  68.094  1.00  0.00    -0.338 OA 
HETATM   20  H1  UNK     1     -11.225  17.513  64.575  1.00  0.00     0.000 HD 
HETATM   21  H2  UNK     1     -10.826  15.894  64.368  1.00  0.00     0.000 HD 
ENDBRANCH  14  15
ENDBRANCH  13  14
ENDBRANCH  10  13
ENDBRANCH   9  10
ENDBRANCH   8   9
ENDBRANCH   7   8
BRANCH   7  22
HETATM   22  C   UNK     1     -10.633   9.350  67.248  1.00  0.00    -0.244 C  
BRANCH  22  23
HETATM   23  O   UNK     1     -10.067   8.037  67.083  1.00  0.00    -0.208 OA 
BRANCH  23  24
HETATM   24  C   UNK     1      -8.895   7.999  66.389  1.00  0.00    -0.157 C  
HETATM   25  O   UNK     1      -7.985   7.217  66.605  1.00  0.00    -0.107 OA 
BRANCH  24  26
HETATM   26  C   UNK     1      -8.909   9.055  65.308  1.00  0.00    -0.234 C  
HETATM   27  C   UNK     1      -7.643   9.004  64.471  1.00  0.00    -0.108 C  
ENDBRANCH  24  26
ENDBRANCH  23  24
ENDBRANCH  22  23
ENDBRANCH   7  22
ENDBRANCH   6   7
ENDBRANCH   4   6
ENDBRANCH   3   4
ENDBRANCH   2   3
TORSDOF 14
ENDMDL
MODEL      278
REMARK 921   NORMALIZED FREE ENERGY PREDICTED BY IDOCK:   -3.50 KCAL/MOL
REMARK 922        TOTAL FREE ENERGY PREDICTED BY IDOCK:   -7.45 KCAL/MOL
REMARK 923 INTER-LIGAND FREE ENERGY PREDICTED BY IDOCK:   -6.43 KCAL/MOL
REMARK 924 INTRA-LIGAND FREE ENERGY PREDICTED BY IDOCK:   -1.02 KCAL/MOL
REMARK 927      BINDING AFFINITY PREDICTED BY RF-SCORE:    0.00 PKD
ROOT
HETATM    1  C   UNK     1      -8.397   8.342  72.249  1.00  0.00    -0.218 C  
HETATM    2  C   UNK     1      -9.878   8.228  72.579  1.00  0.00    -0.368 C  
ENDROOT
BRANCH   2   3
HETATM    3  C   UNK     1     -10.751   8.159  71.330  1.00  0.00    -0.280 C  
BRANCH   3   4
HETATM    4  C   UNK     1     -11.535   6.873  71.290  1.00  0.00    -0.296 C  
HETATM    5  O   UNK     1     -11.690   6.132  72.250  1.00  0.00    -0.309 OA 
BRANCH   4   6
HETATM    6  O   UNK     1     -12.010   6.645  70.041  1.00  0.00    -0.340 OA 
BRANCH   6   7
HETATM    7  C   UNK     1     -11.131   6.059  69.052  1.00  0.00    -0.307 C  
BRANCH   7   8
HETATM    8  C   UNK     1     -10.995   6.914  67.785  1.00  0.00    -0.207 C  
BRANCH   8   9
HETATM    9  O   UNK     1      -9.918   7.845  67.898  1.00  0.00    -0.162 OA 
BRANCH   9  10
HETATM   10  P   UNK     1     -10.141   9.278  66.954  1.00  0.00    -0.260 P  
HETATM   11  O   UNK     1     -11.033   9.979  68.132  1.00  0.00    -0.255 OA 
HETATM   12  O   UNK     1      -8.681   9.660  67.206  1.00  0.00    -0.131 OA 
BRANCH  10  13
HETATM   13  O   UNK     1     -10.364  10.711  66.010  1.00  0.00    -0.250 OA 
BRANCH  13  14
HETATM   14  C   UNK     1     -10.916  11.792  66.775  1.00  0.00    -0.288 C  
BRANCH  14  15
HETATM   15  C   UNK     1     -11.944  12.580  65.961  1.00  0.00    -0.392 C  
HETATM   16  N   UNK     1     -11.923  12.242  64.507  1.00  0.00    -0.388 NA 
HETATM   17  C   UNK     1     -11.629  14.064  66.123  1.00  0.00    -0.367 C  
HETATM   18  O   UNK     1     -10.935  14.541  65.056  1.00  0.00    -0.352 OA 
HETATM   19  O   UNK     1     -11.909  14.736  67.104  1.00  0.00    -0.374 OA 
HETATM   20  H1  UNK     1     -12.608  12.767  63.965  1.00  0.00     0.000 HD 
HETATM   21  H2  UNK     1     -12.038  11.239  64.365  1.00  0.00     0.000 HD 
ENDBRANCH  14  15
ENDBRANCH  13  14
ENDBRANCH  10  13
ENDBRANCH   9  10
ENDBRANCH   8   9
ENDBRANCH   7   8
BRANCH   7  22
HETATM   22  C   UNK     1      -9.757   5.708  69.649  1.00  0.00    -0.169 C  
BRANCH  22  23
HETATM   23  O   UNK     1      -9.595   4.286  69.811  1.00  0.00    -0.177 OA 
BRANCH  23  24
HETATM   24  C   UNK     1      -9.426   3.869  71.097  1.00  0.00    -0.163 C  
HETATM   25  O   UNK     1      -9.989   2.910  71.597  1.00  0.00    -0.158 OA 
BRANCH  24  26
HETATM   26  C   UNK     1      -8.424   4.761  71.794  1.00  0.00    -0.120 C  
HETATM   27  C   UNK     1      -8.614   4.732  73.300  1.00  0.00    -0.102 C  
ENDBRANCH  24  26
ENDBRANCH  23  24
ENDBRANCH  22  23
ENDBRANCH   7  22
ENDBRANCH   6   7
ENDBRANCH   4   6
ENDBRANCH   3   4
ENDBRANCH   2   3
TORSDOF 14
ENDMDL
MODEL      279
REMARK 921   NORMALIZED FREE ENERGY PREDICTED BY IDOCK:   -3.49 KCAL/MOL
REMARK 922        TOTAL FREE ENERGY PREDICTED BY IDOCK:   -7.44 KCAL/MOL
REMARK 923 INTER-LIGAND FREE ENERGY PREDICTED BY IDOCK:   -5.82 KCAL/MOL
REMARK 924 INTRA-LIGAND FREE ENERGY PREDICTED BY IDOCK:   -1.62 KCAL/MOL
REMARK 927      BINDING AFFINITY PREDICTED BY RF-SCORE:    0.00 PKD
ROOT
HETATM    1  C   UNK     1      -7.774   9.120  69.853  1.00  0.00    -0.087 C  
HETATM    2  C   UNK     1      -9.195   9.227  70.388  1.00  0.00    -0.291 C  
ENDROOT
BRANCH   2   3
HETATM    3  C   UNK     1     -10.225   9.408  69.278  1.00  0.00    -0.209 C  
BRANCH   3   4
HETATM    4  C   UNK     1     -10.356  10.859  68.894  1.00  0.00    -0.204 C  
HETATM    5  O   UNK     1     -11.183  11.624  69.370  1.00  0.00    -0.250 OA 
BRANCH   4   6
HETATM    6  O   UNK     1      -9.455  11.180  67.933  1.00  0.00    -0.167 OA 
BRANCH   6   7
HETATM    7  C   UNK     1      -9.523  10.507  66.654  1.00  0.00    -0.168 C  
BRANCH   7   8
HETATM    8  C   UNK     1     -10.545  11.133  65.697  1.00  0.00    -0.223 C  
BRANCH   8   9
HETATM    9  O   UNK     1      -9.957  12.173  64.913  1.00  0.00    -0.261 OA 
BRANCH   9  10
HETATM   10  P   UNK     1     -10.571  13.748  65.281  1.00  0.00    -0.394 P  
HETATM   11  O   UNK     1     -11.775  13.123  66.195  1.00  0.00    -0.345 OA 
HETATM   12  O   UNK     1      -9.378  13.986  66.209  1.00  0.00    -0.256 OA 
BRANCH  10  13
HETATM   13  O   UNK     1     -11.185  15.323  65.649  1.00  0.00    -0.323 OA 
BRANCH  13  14
HETATM   14  C   UNK     1     -10.846  15.748  66.977  1.00  0.00    -0.273 C  
BRANCH  14  15
HETATM   15  C   UNK     1     -10.611  17.258  67.033  1.00  0.00    -0.231 C  
HETATM   16  N   UNK     1      -9.794  17.766  65.892  1.00  0.00    -0.550 NA 
HETATM   17  C   UNK     1      -9.877  17.568  68.336  1.00  0.00    -0.325 C  
HETATM   18  O   UNK     1      -8.542  17.719  68.127  1.00  0.00    -0.247 OA 
HETATM   19  O   UNK     1     -10.401  17.621  69.438  1.00  0.00    -0.273 OA 
HETATM   20  H1  UNK     1      -9.637  18.774  65.930  1.00  0.00     0.000 HD 
HETATM   21  H2  UNK     1     -10.207  17.496  65.000  1.00  0.00     0.000 HD 
ENDBRANCH  14  15
ENDBRANCH  13  14
ENDBRANCH  10  13
ENDBRANCH   9  10
ENDBRANCH   8   9
ENDBRANCH   7   8
BRANCH   7  22
HETATM   22  C   UNK     1      -8.134  10.386  66.001  1.00  0.00    -0.143 C  
BRANCH  22  23
HETATM   23  O   UNK     1      -7.495   9.141  66.337  1.00  0.00    -0.091 OA 
BRANCH  23  24
HETATM   24  C   UNK     1      -8.109   8.029  65.846  1.00  0.00    -0.117 C  
HETATM   25  O   UNK     1      -8.441   7.875  64.683  1.00  0.00    -0.085 OA 
BRANCH  24  26
HETATM   26  C   UNK     1      -8.292   7.016  66.953  1.00  0.00    -0.118 C  
HETATM   27  C   UNK     1      -9.725   6.519  67.014  1.00  0.00    -0.188 C  
ENDBRANCH  24  26
ENDBRANCH  23  24
ENDBRANCH  22  23
ENDBRANCH   7  22
ENDBRANCH   6   7
ENDBRANCH   4   6
ENDBRANCH   3   4
ENDBRANCH   2   3
TORSDOF 14
ENDMDL
MODEL      280
REMARK 921   NORMALIZED FREE ENERGY PREDICTED BY IDOCK:   -3.49 KCAL/MOL
REMARK 922        TOTAL FREE ENERGY PREDICTED BY IDOCK:   -7.43 KCAL/MOL
REMARK 923 INTER-LIGAND FREE ENERGY PREDICTED BY IDOCK:   -6.89 KCAL/MOL
REMARK 924 INTRA-LIGAND FREE ENERGY PREDICTED BY IDOCK:   -0.55 KCAL/MOL
REMARK 927      BINDING AFFINITY PREDICTED BY RF-SCORE:    0.00 PKD
ROOT
HETATM    1  C   UNK     1     -10.412   7.417  73.311  1.00  0.00    -0.424 C  
HETATM    2  C   UNK     1     -10.687   6.478  72.144  1.00  0.00    -0.249 C  
ENDROOT
BRANCH   2   3
HETATM    3  C   UNK     1     -10.252   7.067  70.806  1.00  0.00    -0.208 C  
BRANCH   3   4
HETATM    4  C   UNK     1     -11.021   8.325  70.494  1.00  0.00    -0.242 C  
HETATM    5  O   UNK     1     -12.134   8.577  70.935  1.00  0.00    -0.253 OA 
BRANCH   4   6
HETATM    6  O   UNK     1     -10.322   9.111  69.639  1.00  0.00    -0.203 OA 
BRANCH   6   7
HETATM    7  C   UNK     1     -11.032   9.827  68.602  1.00  0.00    -0.147 C  
BRANCH   7   8
HETATM    8  C   UNK     1     -10.798  11.343  68.647  1.00  0.00    -0.208 C  
BRANCH   8   9
HETATM    9  O   UNK     1     -11.846  12.052  67.986  1.00  0.00    -0.428 OA 
BRANCH   9  10
HETATM   10  P   UNK     1     -11.436  13.687  67.596  1.00  0.00    -0.367 P  
HETATM   11  O   UNK     1     -12.486  13.707  66.343  1.00  0.00    -0.399 OA 
HETATM   12  O   UNK     1     -12.200  14.164  68.833  1.00  0.00    -0.328 OA 
BRANCH  10  13
HETATM   13  O   UNK     1     -11.025  15.322  67.206  1.00  0.00    -0.316 OA 
BRANCH  13  14
HETATM   14  C   UNK     1      -9.764  15.719  67.763  1.00  0.00    -0.216 C  
BRANCH  14  15
HETATM   15  C   UNK     1      -9.564  17.232  67.662  1.00  0.00    -0.256 C  
HETATM   16  N   UNK     1     -10.767  18.011  68.080  1.00  0.00    -0.344 NA 
HETATM   17  C   UNK     1      -9.249  17.564  66.205  1.00  0.00    -0.203 C  
HETATM   18  O   UNK     1     -10.353  18.017  65.552  1.00  0.00    -0.606 OA 
HETATM   19  O   UNK     1      -8.165  17.397  65.669  1.00  0.00    -0.491 OA 
HETATM   20  H1  UNK     1     -10.633  19.020  68.012  1.00  0.00     0.000 HD 
HETATM   21  H2  UNK     1     -11.063  17.745  69.019  1.00  0.00     0.000 HD 
ENDBRANCH  14  15
ENDBRANCH  13  14
ENDBRANCH  10  13
ENDBRANCH   9  10
ENDBRANCH   8   9
ENDBRANCH   7   8
BRANCH   7  22
HETATM   22  C   UNK     1     -10.736   9.248  67.206  1.00  0.00    -0.174 C  
BRANCH  22  23
HETATM   23  O   UNK     1     -10.220  10.252  66.313  1.00  0.00    -0.231 OA 
BRANCH  23  24
HETATM   24  C   UNK     1      -9.078   9.905  65.657  1.00  0.00    -0.178 C  
HETATM   25  O   UNK     1      -8.985   8.986  64.862  1.00  0.00    -0.194 OA 
BRANCH  24  26
HETATM   26  C   UNK     1      -7.960  10.843  66.050  1.00  0.00    -0.132 C  
HETATM   27  C   UNK     1      -6.711  10.077  66.447  1.00  0.00    -0.088 C  
ENDBRANCH  24  26
ENDBRANCH  23  24
ENDBRANCH  22  23
ENDBRANCH   7  22
ENDBRANCH   6   7
ENDBRANCH   4   6
ENDBRANCH   3   4
ENDBRANCH   2   3
TORSDOF 14
ENDMDL
MODEL      281
REMARK 921   NORMALIZED FREE ENERGY PREDICTED BY IDOCK:   -3.48 KCAL/MOL
REMARK 922        TOTAL FREE ENERGY PREDICTED BY IDOCK:   -7.42 KCAL/MOL
REMARK 923 INTER-LIGAND FREE ENERGY PREDICTED BY IDOCK:   -6.38 KCAL/MOL
REMARK 924 INTRA-LIGAND FREE ENERGY PREDICTED BY IDOCK:   -1.04 KCAL/MOL
REMARK 927      BINDING AFFINITY PREDICTED BY RF-SCORE:    0.00 PKD
ROOT
HETATM    1  C   UNK     1     -14.393   7.489  72.185  1.00  0.00    -0.336 C  
HETATM    2  C   UNK     1     -13.099   7.650  71.400  1.00  0.00    -0.339 C  
ENDROOT
BRANCH   2   3
HETATM    3  C   UNK     1     -12.066   8.493  72.141  1.00  0.00    -0.449 C  
BRANCH   3   4
HETATM    4  C   UNK     1     -11.708   9.726  71.352  1.00  0.00    -0.398 C  
HETATM    5  O   UNK     1     -12.509  10.594  71.034  1.00  0.00    -0.340 OA 
BRANCH   4   6
HETATM    6  O   UNK     1     -10.394   9.715  71.024  1.00  0.00    -0.298 OA 
BRANCH   6   7
HETATM    7  C   UNK     1     -10.017   9.545  69.637  1.00  0.00    -0.205 C  
BRANCH   7   8
HETATM    8  C   UNK     1      -9.607  10.859  68.959  1.00  0.00    -0.156 C  
BRANCH   8   9
HETATM    9  O   UNK     1     -10.540  11.235  67.945  1.00  0.00    -0.180 OA 
BRANCH   9  10
HETATM   10  P   UNK     1     -10.044  12.615  67.026  1.00  0.00    -0.230 P  
HETATM   11  O   UNK     1      -9.910  13.530  68.375  1.00  0.00    -0.232 OA 
HETATM   12  O   UNK     1      -8.683  11.957  66.791  1.00  0.00    -0.186 OA 
BRANCH  10  13
HETATM   13  O   UNK     1      -9.548  13.994  66.108  1.00  0.00    -0.286 OA 
BRANCH  13  14
HETATM   14  C   UNK     1     -10.362  15.148  66.367  1.00  0.00    -0.286 C  
BRANCH  14  15
HETATM   15  C   UNK     1      -9.514  16.419  66.445  1.00  0.00    -0.293 C  
HETATM   16  N   UNK     1      -8.825  16.584  67.758  1.00  0.00    -0.196 NA 
HETATM   17  C   UNK     1     -10.441  17.612  66.226  1.00  0.00    -0.292 C  
HETATM   18  O   UNK     1     -10.789  18.190  67.406  1.00  0.00    -0.374 OA 
HETATM   19  O   UNK     1     -10.867  17.976  65.141  1.00  0.00    -0.665 OA 
HETATM   20  H1  UNK     1      -8.260  17.431  67.810  1.00  0.00     0.000 HD 
HETATM   21  H2  UNK     1      -8.267  15.760  67.982  1.00  0.00     0.000 HD 
ENDBRANCH  14  15
ENDBRANCH  13  14
ENDBRANCH  10  13
ENDBRANCH   9  10
ENDBRANCH   8   9
ENDBRANCH   7   8
BRANCH   7  22
HETATM   22  C   UNK     1      -8.938   8.459  69.470  1.00  0.00    -0.149 C  
BRANCH  22  23
HETATM   23  O   UNK     1      -8.670   8.185  68.082  1.00  0.00    -0.135 OA 
BRANCH  23  24
HETATM   24  C   UNK     1      -7.409   8.493  67.669  1.00  0.00    -0.089 C  
HETATM   25  O   UNK     1      -6.547   8.986  68.376  1.00  0.00    -0.058 OA 
BRANCH  24  26
HETATM   26  C   UNK     1      -7.242   8.113  66.216  1.00  0.00    -0.078 C  
HETATM   27  C   UNK     1      -8.266   7.074  65.797  1.00  0.00    -0.132 C  
ENDBRANCH  24  26
ENDBRANCH  23  24
ENDBRANCH  22  23
ENDBRANCH   7  22
ENDBRANCH   6   7
ENDBRANCH   4   6
ENDBRANCH   3   4
ENDBRANCH   2   3
TORSDOF 14
ENDMDL
MODEL      282
REMARK 921   NORMALIZED FREE ENERGY PREDICTED BY IDOCK:   -3.48 KCAL/MOL
REMARK 922        TOTAL FREE ENERGY PREDICTED BY IDOCK:   -7.41 KCAL/MOL
REMARK 923 INTER-LIGAND FREE ENERGY PREDICTED BY IDOCK:   -6.44 KCAL/MOL
REMARK 924 INTRA-LIGAND FREE ENERGY PREDICTED BY IDOCK:   -0.98 KCAL/MOL
REMARK 927      BINDING AFFINITY PREDICTED BY RF-SCORE:    0.00 PKD
ROOT
HETATM    1  C   UNK     1     -10.565  10.992  66.450  1.00  0.00    -0.308 C  
HETATM    2  C   UNK     1     -11.051  10.447  67.786  1.00  0.00    -0.365 C  
ENDROOT
BRANCH   2   3
HETATM    3  C   UNK     1     -10.039  10.663  68.907  1.00  0.00    -0.215 C  
BRANCH   3   4
HETATM    4  C   UNK     1      -9.483   9.349  69.393  1.00  0.00    -0.173 C  
HETATM    5  O   UNK     1      -8.458   9.238  70.051  1.00  0.00    -0.139 OA 
BRANCH   4   6
HETATM    6  O   UNK     1     -10.259   8.321  68.973  1.00  0.00    -0.208 OA 
BRANCH   6   7
HETATM    7  C   UNK     1     -10.802   7.404  69.953  1.00  0.00    -0.246 C  
BRANCH   7   8
HETATM    8  C   UNK     1      -9.819   6.295  70.351  1.00  0.00    -0.176 C  
BRANCH   8   9
HETATM    9  O   UNK     1     -10.225   5.029  69.831  1.00  0.00    -0.259 OA 
BRANCH   9  10
HETATM   10  P   UNK     1      -9.495   4.639  68.311  1.00  0.00    -0.142 P  
HETATM   11  O   UNK     1      -8.102   5.387  68.728  1.00  0.00    -0.087 OA 
HETATM   12  O   UNK     1      -9.374   3.180  68.754  1.00  0.00    -0.156 OA 
BRANCH  10  13
HETATM   13  O   UNK     1      -8.765   4.250  66.791  1.00  0.00    -0.111 OA 
BRANCH  13  14
HETATM   14  C   UNK     1      -9.135   5.169  65.753  1.00  0.00    -0.156 C  
BRANCH  14  15
HETATM   15  C   UNK     1      -9.855   4.452  64.609  1.00  0.00    -0.085 C  
HETATM   16  N   UNK     1     -11.270   4.106  64.932  1.00  0.00    -0.956 NA 
HETATM   17  C   UNK     1      -9.091   3.164  64.312  1.00  0.00    -0.116 C  
HETATM   18  O   UNK     1      -9.689   2.091  64.895  1.00  0.00    -0.014 OA 
HETATM   19  O   UNK     1      -8.048   3.099  63.681  1.00  0.00    -0.083 OA 
HETATM   20  H1  UNK     1     -11.749   3.629  64.168  1.00  0.00     0.000 HD 
HETATM   21  H2  UNK     1     -11.788   4.934  65.226  1.00  0.00     0.000 HD 
ENDBRANCH  14  15
ENDBRANCH  13  14
ENDBRANCH  10  13
ENDBRANCH   9  10
ENDBRANCH   8   9
ENDBRANCH   7   8
BRANCH   7  22
HETATM   22  C   UNK     1     -11.348   8.148  71.185  1.00  0.00    -0.269 C  
BRANCH  22  23
HETATM   23  O   UNK     1     -12.756   7.911  71.369  1.00  0.00    -0.321 OA 
BRANCH  23  24
HETATM   24  C   UNK     1     -13.458   8.968  71.864  1.00  0.00    -0.425 C  
HETATM   25  O   UNK     1     -14.167   8.929  72.855  1.00  0.00    -0.514 OA 
BRANCH  24  26
HETATM   26  C   UNK     1     -13.204  10.191  71.013  1.00  0.00    -0.412 C  
HETATM   27  C   UNK     1     -13.093  11.443  71.865  1.00  0.00    -0.505 C  
ENDBRANCH  24  26
ENDBRANCH  23  24
ENDBRANCH  22  23
ENDBRANCH   7  22
ENDBRANCH   6   7
ENDBRANCH   4   6
ENDBRANCH   3   4
ENDBRANCH   2   3
TORSDOF 14
ENDMDL
MODEL      283
REMARK 921   NORMALIZED FREE ENERGY PREDICTED BY IDOCK:   -3.47 KCAL/MOL
REMARK 922        TOTAL FREE ENERGY PREDICTED BY IDOCK:   -7.40 KCAL/MOL
REMARK 923 INTER-LIGAND FREE ENERGY PREDICTED BY IDOCK:   -5.48 KCAL/MOL
REMARK 924 INTRA-LIGAND FREE ENERGY PREDICTED BY IDOCK:   -1.92 KCAL/MOL
REMARK 927      BINDING AFFINITY PREDICTED BY RF-SCORE:    0.00 PKD
ROOT
HETATM    1  C   UNK     1     -11.891  14.407  67.184  1.00  0.00    -0.437 C  
HETATM    2  C   UNK     1     -11.950  13.539  68.434  1.00  0.00    -0.378 C  
ENDROOT
BRANCH   2   3
HETATM    3  C   UNK     1     -11.748  12.059  68.126  1.00  0.00    -0.398 C  
BRANCH   3   4
HETATM    4  C   UNK     1     -10.512  11.530  68.807  1.00  0.00    -0.204 C  
HETATM    5  O   UNK     1      -9.374  11.692  68.390  1.00  0.00    -0.189 OA 
BRANCH   4   6
HETATM    6  O   UNK     1     -10.845  10.829  69.918  1.00  0.00    -0.261 OA 
BRANCH   6   7
HETATM    7  C   UNK     1     -10.440   9.443  70.022  1.00  0.00    -0.234 C  
BRANCH   7   8
HETATM    8  C   UNK     1      -9.327   9.216  71.053  1.00  0.00    -0.263 C  
BRANCH   8   9
HETATM    9  O   UNK     1      -8.035   9.392  70.471  1.00  0.00    -0.151 OA 
BRANCH   9  10
HETATM   10  P   UNK     1      -7.610   8.150  69.343  1.00  0.00    -0.105 P  
HETATM   11  O   UNK     1      -6.104   8.760  69.157  1.00  0.00    -0.041 OA 
HETATM   12  O   UNK     1      -7.550   7.141  70.491  1.00  0.00    -0.086 OA 
BRANCH  10  13
HETATM   13  O   UNK     1      -7.186   6.909  68.215  1.00  0.00    -0.085 OA 
BRANCH  13  14
HETATM   14  C   UNK     1      -8.054   6.885  67.072  1.00  0.00    -0.117 C  
BRANCH  14  15
HETATM   15  C   UNK     1      -8.815   8.204  66.926  1.00  0.00    -0.131 C  
HETATM   16  N   UNK     1     -10.235   8.018  66.508  1.00  0.00    -0.468 NA 
HETATM   17  C   UNK     1      -8.099   9.040  65.868  1.00  0.00    -0.108 C  
HETATM   18  O   UNK     1      -8.722   8.950  64.663  1.00  0.00    -0.172 OA 
HETATM   19  O   UNK     1      -7.069   9.669  66.053  1.00  0.00    -0.092 OA 
HETATM   20  H1  UNK     1     -10.742   8.898  66.410  1.00  0.00     0.000 HD 
HETATM   21  H2  UNK     1     -10.721   7.386  67.144  1.00  0.00     0.000 HD 
ENDBRANCH  14  15
ENDBRANCH  13  14
ENDBRANCH  10  13
ENDBRANCH   9  10
ENDBRANCH   8   9
ENDBRANCH   7   8
BRANCH   7  22
HETATM   22  C   UNK     1     -11.644   8.517  70.274  1.00  0.00     0.007 C  
BRANCH  22  23
HETATM   23  O   UNK     1     -11.235   7.250  70.822  1.00  0.00    -0.259 OA 
BRANCH  23  24
HETATM   24  C   UNK     1     -11.017   6.269  69.902  1.00  0.00    -0.370 C  
HETATM   25  O   UNK     1     -11.402   6.304  68.746  1.00  0.00    -0.356 OA 
BRANCH  24  26
HETATM   26  C   UNK     1     -10.212   5.153  70.528  1.00  0.00    -0.330 C  
HETATM   27  C   UNK     1      -9.720   4.173  69.478  1.00  0.00    -0.254 C  
ENDBRANCH  24  26
ENDBRANCH  23  24
ENDBRANCH  22  23
ENDBRANCH   7  22
ENDBRANCH   6   7
ENDBRANCH   4   6
ENDBRANCH   3   4
ENDBRANCH   2   3
TORSDOF 14
ENDMDL
MODEL      284
REMARK 921   NORMALIZED FREE ENERGY PREDICTED BY IDOCK:   -3.45 KCAL/MOL
REMARK 922        TOTAL FREE ENERGY PREDICTED BY IDOCK:   -7.37 KCAL/MOL
REMARK 923 INTER-LIGAND FREE ENERGY PREDICTED BY IDOCK:   -7.12 KCAL/MOL
REMARK 924 INTRA-LIGAND FREE ENERGY PREDICTED BY IDOCK:   -0.25 KCAL/MOL
REMARK 927      BINDING AFFINITY PREDICTED BY RF-SCORE:    0.00 PKD
ROOT
HETATM    1  C   UNK     1     -13.832  15.986  72.944  1.00  0.00    -0.409 C  
HETATM    2  C   UNK     1     -12.356  15.724  73.211  1.00  0.00    -0.611 C  
ENDROOT
BRANCH   2   3
HETATM    3  C   UNK     1     -11.733  14.790  72.179  1.00  0.00    -0.239 C  
BRANCH   3   4
HETATM    4  C   UNK     1     -12.771  13.876  71.581  1.00  0.00    -0.330 C  
HETATM    5  O   UNK     1     -13.526  13.172  72.237  1.00  0.00    -0.527 OA 
BRANCH   4   6
HETATM    6  O   UNK     1     -12.723  13.923  70.228  1.00  0.00    -0.296 OA 
BRANCH   6   7
HETATM    7  C   UNK     1     -12.498  12.699  69.489  1.00  0.00     0.235 C  
BRANCH   7   8
HETATM    8  C   UNK     1     -11.610  12.895  68.254  1.00  0.00    -0.335 C  
BRANCH   8   9
HETATM    9  O   UNK     1     -10.311  13.363  68.615  1.00  0.00    -0.240 OA 
BRANCH   9  10
HETATM   10  P   UNK     1      -9.034  12.634  67.703  1.00  0.00    -0.209 P  
HETATM   11  O   UNK     1      -7.929  13.667  68.325  1.00  0.00    -0.134 OA 
HETATM   12  O   UNK     1      -9.083  11.416  68.627  1.00  0.00    -0.175 OA 
BRANCH  10  13
HETATM   13  O   UNK     1      -7.757  11.905  66.791  1.00  0.00    -0.135 OA 
BRANCH  13  14
HETATM   14  C   UNK     1      -7.751  10.474  66.902  1.00  0.00    -0.114 C  
BRANCH  14  15
HETATM   15  C   UNK     1      -8.077   9.813  65.561  1.00  0.00    -0.125 C  
HETATM   16  N   UNK     1      -7.705  10.656  64.387  1.00  0.00    -0.356 NA 
HETATM   17  C   UNK     1      -9.581   9.554  65.522  1.00  0.00    -0.279 C  
HETATM   18  O   UNK     1     -10.228  10.514  64.809  1.00  0.00    -0.341 OA 
HETATM   19  O   UNK     1     -10.148   8.639  66.098  1.00  0.00    -0.250 OA 
HETATM   20  H1  UNK     1      -7.922  10.214  63.493  1.00  0.00     0.000 HD 
HETATM   21  H2  UNK     1      -6.723  10.926  64.430  1.00  0.00     0.000 HD 
ENDBRANCH  14  15
ENDBRANCH  13  14
ENDBRANCH  10  13
ENDBRANCH   9  10
ENDBRANCH   8   9
ENDBRANCH   7   8
BRANCH   7  22
HETATM   22  C   UNK     1     -11.967  11.576  70.399  1.00  0.00    -0.368 C  
BRANCH  22  23
HETATM   23  O   UNK     1     -12.928  10.515  70.552  1.00  0.00    -0.345 OA 
BRANCH  23  24
HETATM   24  C   UNK     1     -12.592   9.562  71.465  1.00  0.00    -0.373 C  
HETATM   25  O   UNK     1     -13.191   9.356  72.507  1.00  0.00    -0.426 OA 
BRANCH  24  26
HETATM   26  C   UNK     1     -11.385   8.794  70.979  1.00  0.00    -0.332 C  
HETATM   27  C   UNK     1     -10.222   8.923  71.946  1.00  0.00    -0.403 C  
ENDBRANCH  24  26
ENDBRANCH  23  24
ENDBRANCH  22  23
ENDBRANCH   7  22
ENDBRANCH   6   7
ENDBRANCH   4   6
ENDBRANCH   3   4
ENDBRANCH   2   3
TORSDOF 14
ENDMDL
MODEL      285
REMARK 921   NORMALIZED FREE ENERGY PREDICTED BY IDOCK:   -3.44 KCAL/MOL
REMARK 922        TOTAL FREE ENERGY PREDICTED BY IDOCK:   -7.34 KCAL/MOL
REMARK 923 INTER-LIGAND FREE ENERGY PREDICTED BY IDOCK:   -6.72 KCAL/MOL
REMARK 924 INTRA-LIGAND FREE ENERGY PREDICTED BY IDOCK:   -0.62 KCAL/MOL
REMARK 927      BINDING AFFINITY PREDICTED BY RF-SCORE:    0.00 PKD
ROOT
HETATM    1  C   UNK     1     -10.253   3.735  64.225  1.00  0.00    -0.240 C  
HETATM    2  C   UNK     1      -9.406   3.616  65.484  1.00  0.00    -0.160 C  
ENDROOT
BRANCH   2   3
HETATM    3  C   UNK     1      -9.887   4.536  66.602  1.00  0.00    -0.244 C  
BRANCH   3   4
HETATM    4  C   UNK     1      -8.800   5.494  67.018  1.00  0.00    -0.110 C  
HETATM    5  O   UNK     1      -7.914   5.893  66.275  1.00  0.00    -0.099 OA 
BRANCH   4   6
HETATM    6  O   UNK     1      -8.928   5.817  68.328  1.00  0.00    -0.116 OA 
BRANCH   6   7
HETATM    7  C   UNK     1      -9.639   7.026  68.686  1.00  0.00    -0.138 C  
BRANCH   7   8
HETATM    8  C   UNK     1      -9.372   8.191  67.725  1.00  0.00    -0.134 C  
BRANCH   8   9
HETATM    9  O   UNK     1     -10.579   8.871  67.381  1.00  0.00    -0.277 OA 
BRANCH   9  10
HETATM   10  P   UNK     1     -10.322  10.457  66.739  1.00  0.00    -0.201 P  
HETATM   11  O   UNK     1     -10.970  11.157  68.067  1.00  0.00    -0.214 OA 
HETATM   12  O   UNK     1      -8.821  10.307  66.996  1.00  0.00    -0.135 OA 
BRANCH  10  13
HETATM   13  O   UNK     1     -10.064  12.043  66.098  1.00  0.00    -0.216 OA 
BRANCH  13  14
HETATM   14  C   UNK     1     -10.636  12.206  64.792  1.00  0.00    -0.296 C  
BRANCH  14  15
HETATM   15  C   UNK     1     -12.085  12.690  64.877  1.00  0.00    -0.438 C  
HETATM   16  N   UNK     1     -13.042  11.802  64.155  1.00  0.00    -0.452 NA 
HETATM   17  C   UNK     1     -12.148  14.084  64.258  1.00  0.00    -0.445 C  
HETATM   18  O   UNK     1     -12.607  14.035  62.979  1.00  0.00    -0.643 OA 
HETATM   19  O   UNK     1     -11.785  15.111  64.809  1.00  0.00    -0.384 OA 
HETATM   20  H1  UNK     1     -14.008  12.125  64.212  1.00  0.00     0.000 HD 
HETATM   21  H2  UNK     1     -12.961  10.839  64.480  1.00  0.00     0.000 HD 
ENDBRANCH  14  15
ENDBRANCH  13  14
ENDBRANCH  10  13
ENDBRANCH   9  10
ENDBRANCH   8   9
ENDBRANCH   7   8
BRANCH   7  22
HETATM   22  C   UNK     1     -11.147   6.767  68.859  1.00  0.00    -0.181 C  
BRANCH  22  23
HETATM   23  O   UNK     1     -11.423   6.003  70.048  1.00  0.00    -0.372 OA 
BRANCH  23  24
HETATM   24  C   UNK     1     -11.105   6.625  71.218  1.00  0.00    -0.267 C  
HETATM   25  O   UNK     1     -10.277   6.222  72.017  1.00  0.00    -0.187 OA 
BRANCH  24  26
HETATM   26  C   UNK     1     -11.917   7.892  71.358  1.00  0.00    -0.331 C  
HETATM   27  C   UNK     1     -11.031   9.082  71.680  1.00  0.00    -0.435 C  
ENDBRANCH  24  26
ENDBRANCH  23  24
ENDBRANCH  22  23
ENDBRANCH   7  22
ENDBRANCH   6   7
ENDBRANCH   4   6
ENDBRANCH   3   4
ENDBRANCH   2   3
TORSDOF 14
ENDMDL
MODEL      286
REMARK 921   NORMALIZED FREE ENERGY PREDICTED BY IDOCK:   -3.42 KCAL/MOL
REMARK 922        TOTAL FREE ENERGY PREDICTED BY IDOCK:   -7.30 KCAL/MOL
REMARK 923 INTER-LIGAND FREE ENERGY PREDICTED BY IDOCK:   -5.87 KCAL/MOL
REMARK 924 INTRA-LIGAND FREE ENERGY PREDICTED BY IDOCK:   -1.43 KCAL/MOL
REMARK 927      BINDING AFFINITY PREDICTED BY RF-SCORE:    0.00 PKD
ROOT
HETATM    1  C   UNK     1     -10.629   4.246  65.230  1.00  0.00    -0.165 C  
HETATM    2  C   UNK     1      -9.461   4.317  66.204  1.00  0.00    -0.181 C  
ENDROOT
BRANCH   2   3
HETATM    3  C   UNK     1      -9.593   5.472  67.191  1.00  0.00    -0.140 C  
BRANCH   3   4
HETATM    4  C   UNK     1      -8.245   6.067  67.509  1.00  0.00    -0.106 C  
HETATM    5  O   UNK     1      -7.180   5.499  67.312  1.00  0.00    -0.072 OA 
BRANCH   4   6
HETATM    6  O   UNK     1      -8.386   7.293  68.068  1.00  0.00    -0.122 OA 
BRANCH   6   7
HETATM    7  C   UNK     1      -8.982   8.356  67.288  1.00  0.00    -0.130 C  
BRANCH   7   8
HETATM    8  C   UNK     1     -10.132   9.065  68.015  1.00  0.00    -0.190 C  
BRANCH   8   9
HETATM    9  O   UNK     1      -9.826  10.438  68.261  1.00  0.00    -0.149 OA 
BRANCH   9  10
HETATM   10  P   UNK     1     -11.111  11.519  67.847  1.00  0.00    -0.305 P  
HETATM   11  O   UNK     1     -10.942  11.193  66.253  1.00  0.00    -0.251 OA 
HETATM   12  O   UNK     1     -12.122  10.517  68.407  1.00  0.00    -0.330 OA 
BRANCH  10  13
HETATM   13  O   UNK     1     -12.397  12.600  67.432  1.00  0.00    -0.322 OA 
BRANCH  13  14
HETATM   14  C   UNK     1     -11.919  13.892  67.030  1.00  0.00    -0.424 C  
BRANCH  14  15
HETATM   15  C   UNK     1     -12.317  14.206  65.586  1.00  0.00    -0.456 C  
HETATM   16  N   UNK     1     -12.923  13.040  64.879  1.00  0.00    -0.768 NA 
HETATM   17  C   UNK     1     -11.056  14.631  64.837  1.00  0.00    -0.401 C  
HETATM   18  O   UNK     1     -10.547  13.604  64.105  1.00  0.00    -0.320 OA 
HETATM   19  O   UNK     1     -10.531  15.730  64.919  1.00  0.00    -0.499 OA 
HETATM   20  H1  UNK     1     -13.189  13.250  63.917  1.00  0.00     0.000 HD 
HETATM   21  H2  UNK     1     -13.717  12.670  65.402  1.00  0.00     0.000 HD 
ENDBRANCH  14  15
ENDBRANCH  13  14
ENDBRANCH  10  13
ENDBRANCH   9  10
ENDBRANCH   8   9
ENDBRANCH   7   8
BRANCH   7  22
HETATM   22  C   UNK     1      -7.923   9.357  66.790  1.00  0.00    -0.108 C  
BRANCH  22  23
HETATM   23  O   UNK     1      -7.865   9.398  65.352  1.00  0.00    -0.100 OA 
BRANCH  23  24
HETATM   24  C   UNK     1      -6.967   8.543  64.788  1.00  0.00    -0.073 C  
HETATM   25  O   UNK     1      -6.113   7.928  65.403  1.00  0.00    -0.038 OA 
BRANCH  24  26
HETATM   26  C   UNK     1      -7.207   8.461  63.298  1.00  0.00    -0.093 C  
HETATM   27  C   UNK     1      -7.726   9.778  62.750  1.00  0.00    -0.124 C  
ENDBRANCH  24  26
ENDBRANCH  23  24
ENDBRANCH  22  23
ENDBRANCH   7  22
ENDBRANCH   6   7
ENDBRANCH   4   6
ENDBRANCH   3   4
ENDBRANCH   2   3
TORSDOF 14
ENDMDL
MODEL      287
REMARK 921   NORMALIZED FREE ENERGY PREDICTED BY IDOCK:   -3.41 KCAL/MOL
REMARK 922        TOTAL FREE ENERGY PREDICTED BY IDOCK:   -7.29 KCAL/MOL
REMARK 923 INTER-LIGAND FREE ENERGY PREDICTED BY IDOCK:   -6.53 KCAL/MOL
REMARK 924 INTRA-LIGAND FREE ENERGY PREDICTED BY IDOCK:   -0.76 KCAL/MOL
REMARK 927      BINDING AFFINITY PREDICTED BY RF-SCORE:    0.00 PKD
ROOT
HETATM    1  C   UNK     1     -10.024   7.328  73.366  1.00  0.00    -0.343 C  
HETATM    2  C   UNK     1     -10.609   7.066  71.985  1.00  0.00    -0.237 C  
ENDROOT
BRANCH   2   3
HETATM    3  C   UNK     1     -10.463   8.264  71.052  1.00  0.00    -0.241 C  
BRANCH   3   4
HETATM    4  C   UNK     1      -9.013   8.538  70.749  1.00  0.00    -0.165 C  
HETATM    5  O   UNK     1      -8.406   9.529  71.131  1.00  0.00    -0.285 OA 
BRANCH   4   6
HETATM    6  O   UNK     1      -8.495   7.554  69.974  1.00  0.00    -0.134 OA 
BRANCH   6   7
HETATM    7  C   UNK     1      -8.886   7.476  68.583  1.00  0.00    -0.127 C  
BRANCH   7   8
HETATM    8  C   UNK     1      -8.867   8.836  67.874  1.00  0.00    -0.136 C  
BRANCH   8   9
HETATM    9  O   UNK     1      -8.480   8.706  66.506  1.00  0.00    -0.109 OA 
BRANCH   9  10
HETATM   10  P   UNK     1      -9.294   9.807  65.449  1.00  0.00    -0.279 P  
HETATM   11  O   UNK     1     -10.025  10.556  66.705  1.00  0.00    -0.189 OA 
HETATM   12  O   UNK     1      -7.970  10.532  65.200  1.00  0.00    -0.149 OA 
BRANCH  10  13
HETATM   13  O   UNK     1     -10.108  10.909  64.392  1.00  0.00    -0.288 OA 
BRANCH  13  14
HETATM   14  C   UNK     1     -10.900  11.870  65.105  1.00  0.00    -0.300 C  
BRANCH  14  15
HETATM   15  C   UNK     1     -12.311  11.967  64.523  1.00  0.00    -0.209 C  
HETATM   16  N   UNK     1     -12.401  11.470  63.119  1.00  0.00    -0.932 NA 
HETATM   17  C   UNK     1     -12.726  13.436  64.549  1.00  0.00    -0.127 C  
HETATM   18  O   UNK     1     -12.560  14.018  63.331  1.00  0.00    -0.845 OA 
HETATM   19  O   UNK     1     -13.106  14.038  65.541  1.00  0.00    -0.713 OA 
HETATM   20  H1  UNK     1     -13.342  11.535  62.731  1.00  0.00     0.000 HD 
HETATM   21  H2  UNK     1     -12.043  10.518  63.047  1.00  0.00     0.000 HD 
ENDBRANCH  14  15
ENDBRANCH  13  14
ENDBRANCH  10  13
ENDBRANCH   9  10
ENDBRANCH   8   9
ENDBRANCH   7   8
BRANCH   7  22
HETATM   22  C   UNK     1      -8.059   6.426  67.818  1.00  0.00    -0.115 C  
BRANCH  22  23
HETATM   23  O   UNK     1      -8.715   5.144  67.798  1.00  0.00    -0.104 OA 
BRANCH  23  24
HETATM   24  C   UNK     1      -8.323   4.314  66.792  1.00  0.00    -0.101 C  
HETATM   25  O   UNK     1      -7.314   3.630  66.809  1.00  0.00    -0.066 OA 
BRANCH  24  26
HETATM   26  C   UNK     1      -9.337   4.356  65.672  1.00  0.00    -0.161 C  
HETATM   27  C   UNK     1     -10.715   4.728  66.189  1.00  0.00    -0.177 C  
ENDBRANCH  24  26
ENDBRANCH  23  24
ENDBRANCH  22  23
ENDBRANCH   7  22
ENDBRANCH   6   7
ENDBRANCH   4   6
ENDBRANCH   3   4
ENDBRANCH   2   3
TORSDOF 14
ENDMDL
MODEL      288
REMARK 921   NORMALIZED FREE ENERGY PREDICTED BY IDOCK:   -3.41 KCAL/MOL
REMARK 922        TOTAL FREE ENERGY PREDICTED BY IDOCK:   -7.29 KCAL/MOL
REMARK 923 INTER-LIGAND FREE ENERGY PREDICTED BY IDOCK:   -6.87 KCAL/MOL
REMARK 924 INTRA-LIGAND FREE ENERGY PREDICTED BY IDOCK:   -0.42 KCAL/MOL
REMARK 927      BINDING AFFINITY PREDICTED BY RF-SCORE:    0.00 PKD
ROOT
HETATM    1  C   UNK     1      -8.357   5.574  69.616  1.00  0.00    -0.102 C  
HETATM    2  C   UNK     1      -7.983   6.963  69.116  1.00  0.00    -0.119 C  
ENDROOT
BRANCH   2   3
HETATM    3  C   UNK     1      -8.335   7.168  67.646  1.00  0.00    -0.117 C  
BRANCH   3   4
HETATM    4  C   UNK     1      -9.307   8.307  67.477  1.00  0.00    -0.140 C  
HETATM    5  O   UNK     1     -10.344   8.235  66.831  1.00  0.00    -0.298 OA 
BRANCH   4   6
HETATM    6  O   UNK     1      -8.854   9.416  68.110  1.00  0.00    -0.124 OA 
BRANCH   6   7
HETATM    7  C   UNK     1      -9.789  10.229  68.858  1.00  0.00    -0.195 C  
BRANCH   7   8
HETATM    8  C   UNK     1     -10.519  11.262  67.989  1.00  0.00    -0.188 C  
BRANCH   8   9
HETATM    9  O   UNK     1      -9.608  12.207  67.427  1.00  0.00    -0.174 OA 
BRANCH   9  10
HETATM   10  P   UNK     1     -10.313  13.761  67.139  1.00  0.00    -0.264 P  
HETATM   11  O   UNK     1     -11.547  13.102  66.292  1.00  0.00    -0.324 OA 
HETATM   12  O   UNK     1     -10.753  13.822  68.603  1.00  0.00    -0.246 OA 
BRANCH  10  13
HETATM   13  O   UNK     1     -11.018  15.314  66.851  1.00  0.00    -0.320 OA 
BRANCH  13  14
HETATM   14  C   UNK     1     -10.417  15.992  65.739  1.00  0.00    -0.374 C  
BRANCH  14  15
HETATM   15  C   UNK     1      -9.430  17.062  66.209  1.00  0.00    -0.256 C  
HETATM   16  N   UNK     1      -8.049  16.535  66.415  1.00  0.00    -0.307 NA 
HETATM   17  C   UNK     1      -9.943  17.620  67.534  1.00  0.00    -0.322 C  
HETATM   18  O   UNK     1      -9.298  17.057  68.590  1.00  0.00    -0.256 OA 
HETATM   19  O   UNK     1     -10.853  18.426  67.648  1.00  0.00    -0.406 OA 
HETATM   20  H1  UNK     1      -7.391  17.249  66.728  1.00  0.00     0.000 HD 
HETATM   21  H2  UNK     1      -7.708  16.070  65.573  1.00  0.00     0.000 HD 
ENDBRANCH  14  15
ENDBRANCH  13  14
ENDBRANCH  10  13
ENDBRANCH   9  10
ENDBRANCH   8   9
ENDBRANCH   7   8
BRANCH   7  22
HETATM   22  C   UNK     1     -10.776   9.365  69.663  1.00  0.00    -0.235 C  
BRANCH  22  23
HETATM   23  O   UNK     1     -10.974   9.881  70.992  1.00  0.00    -0.335 OA 
BRANCH  23  24
HETATM   24  C   UNK     1     -11.956   9.265  71.708  1.00  0.00    -0.385 C  
HETATM   25  O   UNK     1     -11.811   8.231  72.338  1.00  0.00    -0.364 OA 
BRANCH  24  26
HETATM   26  C   UNK     1     -13.233  10.067  71.617  1.00  0.00    -0.518 C  
HETATM   27  C   UNK     1     -12.952  11.558  71.644  1.00  0.00    -0.499 C  
ENDBRANCH  24  26
ENDBRANCH  23  24
ENDBRANCH  22  23
ENDBRANCH   7  22
ENDBRANCH   6   7
ENDBRANCH   4   6
ENDBRANCH   3   4
ENDBRANCH   2   3
TORSDOF 14
ENDMDL
MODEL      289
REMARK 921   NORMALIZED FREE ENERGY PREDICTED BY IDOCK:   -3.41 KCAL/MOL
REMARK 922        TOTAL FREE ENERGY PREDICTED BY IDOCK:   -7.28 KCAL/MOL
REMARK 923 INTER-LIGAND FREE ENERGY PREDICTED BY IDOCK:   -6.68 KCAL/MOL
REMARK 924 INTRA-LIGAND FREE ENERGY PREDICTED BY IDOCK:   -0.60 KCAL/MOL
REMARK 927      BINDING AFFINITY PREDICTED BY RF-SCORE:    0.00 PKD
ROOT
HETATM    1  C   UNK     1     -10.684  19.800  65.702  1.00  0.00    -0.418 C  
HETATM    2  C   UNK     1     -10.025  18.493  66.120  1.00  0.00    -0.341 C  
ENDROOT
BRANCH   2   3
HETATM    3  C   UNK     1     -11.003  17.323  66.131  1.00  0.00     0.211 C  
BRANCH   3   4
HETATM    4  C   UNK     1     -10.854  16.483  64.889  1.00  0.00    -0.204 C  
HETATM    5  O   UNK     1     -11.640  16.496  63.951  1.00  0.00    -1.175 OA 
BRANCH   4   6
HETATM    6  O   UNK     1      -9.753  15.697  64.976  1.00  0.00    -0.272 OA 
BRANCH   6   7
HETATM    7  C   UNK     1      -9.469  15.022  66.224  1.00  0.00    -0.311 C  
BRANCH   7   8
HETATM    8  C   UNK     1      -9.677  13.504  66.149  1.00  0.00    -0.252 C  
BRANCH   8   9
HETATM    9  O   UNK     1     -11.060  13.161  66.249  1.00  0.00    -0.282 OA 
BRANCH   9  10
HETATM   10  P   UNK     1     -11.492  12.466  67.773  1.00  0.00    -0.350 P  
HETATM   11  O   UNK     1      -9.926  12.380  68.237  1.00  0.00    -0.216 OA 
HETATM   12  O   UNK     1     -12.025  13.825  68.231  1.00  0.00    -0.357 OA 
BRANCH  10  13
HETATM   13  O   UNK     1     -11.924  11.770  69.297  1.00  0.00    -0.306 OA 
BRANCH  13  14
HETATM   14  C   UNK     1     -12.861  12.579  70.023  1.00  0.00     0.554 C  
BRANCH  14  15
HETATM   15  C   UNK     1     -12.598  12.516  71.529  1.00  0.00    -0.148 C  
HETATM   16  N   UNK     1     -13.357  11.427  72.211  1.00  0.00    -0.540 NA 
HETATM   17  C   UNK     1     -13.015  13.855  72.132  1.00  0.00    -0.350 C  
HETATM   18  O   UNK     1     -14.249  13.779  72.697  1.00  0.00    -0.710 OA 
HETATM   19  O   UNK     1     -12.359  14.883  72.072  1.00  0.00    -0.319 OA 
HETATM   20  H1  UNK     1     -13.181  11.385  73.215  1.00  0.00     0.000 HD 
HETATM   21  H2  UNK     1     -13.173  10.525  71.771  1.00  0.00     0.000 HD 
ENDBRANCH  14  15
ENDBRANCH  13  14
ENDBRANCH  10  13
ENDBRANCH   9  10
ENDBRANCH   8   9
ENDBRANCH   7   8
BRANCH   7  22
HETATM   22  C   UNK     1      -8.069  15.378  66.756  1.00  0.00    -0.177 C  
BRANCH  22  23
HETATM   23  O   UNK     1      -8.136  16.331  67.833  1.00  0.00    -0.144 OA 
BRANCH  23  24
HETATM   24  C   UNK     1      -8.445  15.804  69.050  1.00  0.00    -0.242 C  
HETATM   25  O   UNK     1      -9.567  15.483  69.404  1.00  0.00    -0.248 OA 
BRANCH  24  26
HETATM   26  C   UNK     1      -7.188  15.661  69.878  1.00  0.00     0.013 C  
HETATM   27  C   UNK     1      -6.145  14.826  69.157  1.00  0.00    -0.102 C  
ENDBRANCH  24  26
ENDBRANCH  23  24
ENDBRANCH  22  23
ENDBRANCH   7  22
ENDBRANCH   6   7
ENDBRANCH   4   6
ENDBRANCH   3   4
ENDBRANCH   2   3
TORSDOF 14
ENDMDL
MODEL      290
REMARK 921   NORMALIZED FREE ENERGY PREDICTED BY IDOCK:   -3.41 KCAL/MOL
REMARK 922        TOTAL FREE ENERGY PREDICTED BY IDOCK:   -7.28 KCAL/MOL
REMARK 923 INTER-LIGAND FREE ENERGY PREDICTED BY IDOCK:   -6.80 KCAL/MOL
REMARK 924 INTRA-LIGAND FREE ENERGY PREDICTED BY IDOCK:   -0.48 KCAL/MOL
REMARK 927      BINDING AFFINITY PREDICTED BY RF-SCORE:    0.00 PKD
ROOT
HETATM    1  C   UNK     1     -11.068   4.564  73.695  1.00  0.00    -0.369 C  
HETATM    2  C   UNK     1     -11.322   5.549  72.562  1.00  0.00    -0.323 C  
ENDROOT
BRANCH   2   3
HETATM    3  C   UNK     1     -11.092   6.997  72.984  1.00  0.00    -0.295 C  
BRANCH   3   4
HETATM    4  C   UNK     1     -11.922   7.940  72.152  1.00  0.00    -0.332 C  
HETATM    5  O   UNK     1     -12.908   7.605  71.511  1.00  0.00    -0.332 OA 
BRANCH   4   6
HETATM    6  O   UNK     1     -11.403   9.192  72.193  1.00  0.00    -0.330 OA 
BRANCH   6   7
HETATM    7  C   UNK     1     -11.479  10.022  71.011  1.00  0.00    -0.383 C  
BRANCH   7   8
HETATM    8  C   UNK     1     -10.936   9.331  69.753  1.00  0.00    -0.196 C  
BRANCH   8   9
HETATM    9  O   UNK     1      -9.787   8.536  70.050  1.00  0.00    -0.175 OA 
BRANCH   9  10
HETATM   10  P   UNK     1      -9.353   7.446  68.779  1.00  0.00    -0.142 P  
HETATM   11  O   UNK     1      -7.759   7.746  68.994  1.00  0.00    -0.104 OA 
HETATM   12  O   UNK     1      -9.715   6.265  69.680  1.00  0.00    -0.150 OA 
BRANCH  10  13
HETATM   13  O   UNK     1      -8.918   6.356  67.507  1.00  0.00    -0.118 OA 
BRANCH  13  14
HETATM   14  C   UNK     1      -9.292   6.847  66.212  1.00  0.00    -0.099 C  
BRANCH  14  15
HETATM   15  C   UNK     1      -8.094   7.458  65.483  1.00  0.00    -0.131 C  
HETATM   16  N   UNK     1      -6.804   7.259  66.207  1.00  0.00    -0.056 NA 
HETATM   17  C   UNK     1      -8.349   8.957  65.341  1.00  0.00    -0.148 C  
HETATM   18  O   UNK     1      -7.685   9.663  66.294  1.00  0.00    -0.100 OA 
HETATM   19  O   UNK     1      -9.094   9.464  64.517  1.00  0.00    -0.222 OA 
HETATM   20  H1  UNK     1      -6.006   7.666  65.720  1.00  0.00     0.000 HD 
HETATM   21  H2  UNK     1      -6.646   6.271  66.402  1.00  0.00     0.000 HD 
ENDBRANCH  14  15
ENDBRANCH  13  14
ENDBRANCH  10  13
ENDBRANCH   9  10
ENDBRANCH   8   9
ENDBRANCH   7   8
BRANCH   7  22
HETATM   22  C   UNK     1     -12.902  10.568  70.789  1.00  0.00    -0.367 C  
BRANCH  22  23
HETATM   23  O   UNK     1     -13.301  11.458  71.848  1.00  0.00    -0.435 OA 
BRANCH  23  24
HETATM   24  C   UNK     1     -13.098  12.781  71.594  1.00  0.00    -0.331 C  
HETATM   25  O   UNK     1     -12.301  13.218  70.781  1.00  0.00    -0.360 OA 
BRANCH  24  26
HETATM   26  C   UNK     1     -14.021  13.612  72.454  1.00  0.00    -0.651 C  
HETATM   27  C   UNK     1     -14.181  15.015  71.895  1.00  0.00    -0.649 C  
ENDBRANCH  24  26
ENDBRANCH  23  24
ENDBRANCH  22  23
ENDBRANCH   7  22
ENDBRANCH   6   7
ENDBRANCH   4   6
ENDBRANCH   3   4
ENDBRANCH   2   3
TORSDOF 14
ENDMDL
MODEL      291
REMARK 921   NORMALIZED FREE ENERGY PREDICTED BY IDOCK:   -3.40 KCAL/MOL
REMARK 922        TOTAL FREE ENERGY PREDICTED BY IDOCK:   -7.27 KCAL/MOL
REMARK 923 INTER-LIGAND FREE ENERGY PREDICTED BY IDOCK:   -6.28 KCAL/MOL
REMARK 924 INTRA-LIGAND FREE ENERGY PREDICTED BY IDOCK:   -0.98 KCAL/MOL
REMARK 927      BINDING AFFINITY PREDICTED BY RF-SCORE:    0.00 PKD
ROOT
HETATM    1  C   UNK     1      -7.277   8.315  64.430  1.00  0.00    -0.088 C  
HETATM    2  C   UNK     1      -8.566   8.192  65.231  1.00  0.00    -0.132 C  
ENDROOT
BRANCH   2   3
HETATM    3  C   UNK     1      -8.317   7.766  66.675  1.00  0.00    -0.126 C  
BRANCH   3   4
HETATM    4  C   UNK     1      -9.565   7.186  67.289  1.00  0.00    -0.143 C  
HETATM    5  O   UNK     1     -10.527   6.790  66.646  1.00  0.00    -0.214 OA 
BRANCH   4   6
HETATM    6  O   UNK     1      -9.478   7.197  68.641  1.00  0.00    -0.141 OA 
BRANCH   6   7
HETATM    7  C   UNK     1      -9.901   8.378  69.363  1.00  0.00    -0.185 C  
BRANCH   7   8
HETATM    8  C   UNK     1     -10.907   9.233  68.582  1.00  0.00    -0.078 C  
BRANCH   8   9
HETATM    9  O   UNK     1     -10.718  10.625  68.838  1.00  0.00    -0.191 OA 
BRANCH   9  10
HETATM   10  P   UNK     1     -10.213  11.522  67.447  1.00  0.00    -0.214 P  
HETATM   11  O   UNK     1      -8.672  10.995  67.601  1.00  0.00    -0.127 OA 
HETATM   12  O   UNK     1     -10.943  10.522  66.549  1.00  0.00    -0.125 OA 
BRANCH  10  13
HETATM   13  O   UNK     1      -9.707  12.418  66.056  1.00  0.00    -0.250 OA 
BRANCH  13  14
HETATM   14  C   UNK     1     -10.243  11.886  64.836  1.00  0.00    -0.271 C  
BRANCH  14  15
HETATM   15  C   UNK     1     -10.968  12.966  64.031  1.00  0.00    -0.411 C  
HETATM   16  N   UNK     1     -10.692  14.348  64.523  1.00  0.00    -0.616 NA 
HETATM   17  C   UNK     1     -12.467  12.700  64.136  1.00  0.00    -0.403 C  
HETATM   18  O   UNK     1     -13.046  13.500  65.071  1.00  0.00    -0.736 OA 
HETATM   19  O   UNK     1     -13.071  11.844  63.509  1.00  0.00    -0.715 OA 
HETATM   20  H1  UNK     1     -11.175  15.068  63.986  1.00  0.00     0.000 HD 
HETATM   21  H2  UNK     1      -9.689  14.529  64.554  1.00  0.00     0.000 HD 
ENDBRANCH  14  15
ENDBRANCH  13  14
ENDBRANCH  10  13
ENDBRANCH   9  10
ENDBRANCH   8   9
ENDBRANCH   7   8
BRANCH   7  22
HETATM   22  C   UNK     1     -10.424   8.028  70.768  1.00  0.00    -0.206 C  
BRANCH  22  23
HETATM   23  O   UNK     1      -9.857   6.798  71.256  1.00  0.00    -0.177 OA 
BRANCH  23  24
HETATM   24  C   UNK     1      -9.609   6.770  72.595  1.00  0.00    -0.145 C  
HETATM   25  O   UNK     1      -9.877   7.672  73.370  1.00  0.00    -0.270 OA 
BRANCH  24  26
HETATM   26  C   UNK     1      -8.974   5.450  72.968  1.00  0.00    -0.119 C  
HETATM   27  C   UNK     1      -9.880   4.284  72.617  1.00  0.00    -0.201 C  
ENDBRANCH  24  26
ENDBRANCH  23  24
ENDBRANCH  22  23
ENDBRANCH   7  22
ENDBRANCH   6   7
ENDBRANCH   4   6
ENDBRANCH   3   4
ENDBRANCH   2   3
TORSDOF 14
ENDMDL
MODEL      292
REMARK 921   NORMALIZED FREE ENERGY PREDICTED BY IDOCK:   -3.40 KCAL/MOL
REMARK 922        TOTAL FREE ENERGY PREDICTED BY IDOCK:   -7.27 KCAL/MOL
REMARK 923 INTER-LIGAND FREE ENERGY PREDICTED BY IDOCK:   -6.84 KCAL/MOL
REMARK 924 INTRA-LIGAND FREE ENERGY PREDICTED BY IDOCK:   -0.43 KCAL/MOL
REMARK 927      BINDING AFFINITY PREDICTED BY RF-SCORE:    0.00 PKD
ROOT
HETATM    1  C   UNK     1      -9.920  20.800  68.078  1.00  0.00    -0.055 C  
HETATM    2  C   UNK     1     -10.061  19.471  67.349  1.00  0.00    -0.525 C  
ENDROOT
BRANCH   2   3
HETATM    3  C   UNK     1     -11.154  18.590  67.945  1.00  0.00     0.107 C  
BRANCH   3   4
HETATM    4  C   UNK     1     -10.755  17.138  67.911  1.00  0.00    -0.355 C  
HETATM    5  O   UNK     1     -11.090  16.314  68.751  1.00  0.00    -0.323 OA 
BRANCH   4   6
HETATM    6  O   UNK     1      -9.956  16.889  66.846  1.00  0.00    -0.261 OA 
BRANCH   6   7
HETATM    7  C   UNK     1      -8.817  16.011  67.011  1.00  0.00    -0.211 C  
BRANCH   7   8
HETATM    8  C   UNK     1      -8.975  14.674  66.276  1.00  0.00    -0.077 C  
BRANCH   8   9
HETATM    9  O   UNK     1     -10.315  14.484  65.821  1.00  0.00    -0.298 OA 
BRANCH   9  10
HETATM   10  P   UNK     1     -10.573  12.960  65.044  1.00  0.00    -0.341 P  
HETATM   11  O   UNK     1     -11.599  12.473  66.221  1.00  0.00    -0.351 OA 
HETATM   12  O   UNK     1     -11.413  13.658  63.973  1.00  0.00    -0.360 OA 
BRANCH  10  13
HETATM   13  O   UNK     1     -10.830  11.436  64.267  1.00  0.00    -0.342 OA 
BRANCH  13  14
HETATM   14  C   UNK     1     -10.022  11.275  63.093  1.00  0.00    -0.365 C  
BRANCH  14  15
HETATM   15  C   UNK     1      -8.912  10.247  63.320  1.00  0.00    -0.242 C  
HETATM   16  N   UNK     1      -9.187   8.934  62.665  1.00  0.00    -0.475 NA 
HETATM   17  C   UNK     1      -8.783  10.024  64.824  1.00  0.00    -0.187 C  
HETATM   18  O   UNK     1      -9.431   8.894  65.214  1.00  0.00    -0.130 OA 
HETATM   19  O   UNK     1      -8.221  10.784  65.598  1.00  0.00    -0.162 OA 
HETATM   20  H1  UNK     1      -8.447   8.249  62.816  1.00  0.00     0.000 HD 
HETATM   21  H2  UNK     1      -9.371   9.057  61.669  1.00  0.00     0.000 HD 
ENDBRANCH  14  15
ENDBRANCH  13  14
ENDBRANCH  10  13
ENDBRANCH   9  10
ENDBRANCH   8   9
ENDBRANCH   7   8
BRANCH   7  22
HETATM   22  C   UNK     1      -7.499  16.714  66.636  1.00  0.00    -0.276 C  
BRANCH  22  23
HETATM   23  O   UNK     1      -7.709  17.751  65.660  1.00  0.00    -0.545 OA 
BRANCH  23  24
HETATM   24  C   UNK     1      -6.823  18.784  65.720  1.00  0.00    -0.270 C  
HETATM   25  O   UNK     1      -6.666  19.616  64.842  1.00  0.00    -0.373 OA 
BRANCH  24  26
HETATM   26  C   UNK     1      -6.086  18.748  67.039  1.00  0.00    -0.175 C  
HETATM   27  C   UNK     1      -6.208  20.071  67.774  1.00  0.00    -0.250 C  
ENDBRANCH  24  26
ENDBRANCH  23  24
ENDBRANCH  22  23
ENDBRANCH   7  22
ENDBRANCH   6   7
ENDBRANCH   4   6
ENDBRANCH   3   4
ENDBRANCH   2   3
TORSDOF 14
ENDMDL
MODEL      293
REMARK 921   NORMALIZED FREE ENERGY PREDICTED BY IDOCK:   -3.39 KCAL/MOL
REMARK 922        TOTAL FREE ENERGY PREDICTED BY IDOCK:   -7.26 KCAL/MOL
REMARK 923 INTER-LIGAND FREE ENERGY PREDICTED BY IDOCK:   -6.56 KCAL/MOL
REMARK 924 INTRA-LIGAND FREE ENERGY PREDICTED BY IDOCK:   -0.70 KCAL/MOL
REMARK 927      BINDING AFFINITY PREDICTED BY RF-SCORE:    0.00 PKD
ROOT
HETATM    1  C   UNK     1      -7.614   8.825  64.426  1.00  0.00    -0.116 C  
HETATM    2  C   UNK     1      -8.901   8.890  65.237  1.00  0.00    -0.227 C  
ENDROOT
BRANCH   2   3
HETATM    3  C   UNK     1      -8.692   9.514  66.613  1.00  0.00    -0.146 C  
BRANCH   3   4
HETATM    4  C   UNK     1      -9.689   8.975  67.607  1.00  0.00    -0.156 C  
HETATM    5  O   UNK     1     -10.733   8.418  67.299  1.00  0.00    -0.285 OA 
BRANCH   4   6
HETATM    6  O   UNK     1      -9.278   9.224  68.874  1.00  0.00    -0.140 OA 
BRANCH   6   7
HETATM    7  C   UNK     1     -10.095  10.062  69.725  1.00  0.00    -0.248 C  
BRANCH   7   8
HETATM    8  C   UNK     1     -11.460  10.398  69.109  1.00  0.00    -0.196 C  
BRANCH   8   9
HETATM    9  O   UNK     1     -11.774  11.783  69.263  1.00  0.00    -0.283 OA 
BRANCH   9  10
HETATM   10  P   UNK     1     -11.207  12.770  67.960  1.00  0.00    -0.316 P  
HETATM   11  O   UNK     1     -11.891  11.786  66.847  1.00  0.00    -0.591 OA 
HETATM   12  O   UNK     1     -12.247  13.831  68.324  1.00  0.00    -0.335 OA 
BRANCH  10  13
HETATM   13  O   UNK     1     -10.640  13.757  66.657  1.00  0.00    -0.272 OA 
BRANCH  13  14
HETATM   14  C   UNK     1     -11.182  15.085  66.698  1.00  0.00    -0.311 C  
BRANCH  14  15
HETATM   15  C   UNK     1     -10.077  16.130  66.865  1.00  0.00    -0.272 C  
HETATM   16  N   UNK     1      -8.875  15.851  66.027  1.00  0.00    -0.319 NA 
HETATM   17  C   UNK     1      -9.659  16.135  68.334  1.00  0.00    -0.209 C  
HETATM   18  O   UNK     1      -8.524  15.413  68.526  1.00  0.00    -0.150 OA 
HETATM   19  O   UNK     1     -10.284  16.669  69.237  1.00  0.00    -0.283 OA 
HETATM   20  H1  UNK     1      -8.139  16.548  66.138  1.00  0.00     0.000 HD 
HETATM   21  H2  UNK     1      -9.133  15.747  65.045  1.00  0.00     0.000 HD 
ENDBRANCH  14  15
ENDBRANCH  13  14
ENDBRANCH  10  13
ENDBRANCH   9  10
ENDBRANCH   8   9
ENDBRANCH   7   8
BRANCH   7  22
HETATM   22  C   UNK     1     -10.242   9.466  71.138  1.00  0.00    -0.291 C  
BRANCH  22  23
HETATM   23  O   UNK     1      -9.728   8.122  71.203  1.00  0.00    -0.157 OA 
BRANCH  23  24
HETATM   24  C   UNK     1     -10.547   7.223  71.816  1.00  0.00    -0.205 C  
HETATM   25  O   UNK     1     -11.193   7.447  72.826  1.00  0.00    -0.311 OA 
BRANCH  24  26
HETATM   26  C   UNK     1     -10.545   5.923  71.045  1.00  0.00    -0.312 C  
HETATM   27  C   UNK     1     -11.191   6.091  69.681  1.00  0.00    -0.428 C  
ENDBRANCH  24  26
ENDBRANCH  23  24
ENDBRANCH  22  23
ENDBRANCH   7  22
ENDBRANCH   6   7
ENDBRANCH   4   6
ENDBRANCH   3   4
ENDBRANCH   2   3
TORSDOF 14
ENDMDL
MODEL      294
REMARK 921   NORMALIZED FREE ENERGY PREDICTED BY IDOCK:   -3.38 KCAL/MOL
REMARK 922        TOTAL FREE ENERGY PREDICTED BY IDOCK:   -7.24 KCAL/MOL
REMARK 923 INTER-LIGAND FREE ENERGY PREDICTED BY IDOCK:   -5.90 KCAL/MOL
REMARK 924 INTRA-LIGAND FREE ENERGY PREDICTED BY IDOCK:   -1.34 KCAL/MOL
REMARK 927      BINDING AFFINITY PREDICTED BY RF-SCORE:    0.00 PKD
ROOT
HETATM    1  C   UNK     1     -11.966   6.758  70.953  1.00  0.00    -0.437 C  
HETATM    2  C   UNK     1     -10.507   7.152  71.135  1.00  0.00    -0.225 C  
ENDROOT
BRANCH   2   3
HETATM    3  C   UNK     1      -9.620   6.651  70.000  1.00  0.00    -0.163 C  
BRANCH   3   4
HETATM    4  C   UNK     1      -8.442   7.567  69.789  1.00  0.00    -0.135 C  
HETATM    5  O   UNK     1      -7.360   7.433  70.343  1.00  0.00    -0.074 OA 
BRANCH   4   6
HETATM    6  O   UNK     1      -8.765   8.566  68.933  1.00  0.00    -0.130 OA 
BRANCH   6   7
HETATM    7  C   UNK     1      -9.759   8.322  67.910  1.00  0.00    -0.161 C  
BRANCH   7   8
HETATM    8  C   UNK     1     -10.710   9.507  67.699  1.00  0.00    -0.250 C  
BRANCH   8   9
HETATM    9  O   UNK     1     -10.004  10.749  67.705  1.00  0.00    -0.167 OA 
BRANCH   9  10
HETATM   10  P   UNK     1     -10.796  11.999  66.810  1.00  0.00    -0.295 P  
HETATM   11  O   UNK     1     -10.814  11.089  65.452  1.00  0.00    -0.206 OA 
HETATM   12  O   UNK     1     -12.094  11.707  67.566  1.00  0.00    -0.611 OA 
BRANCH  10  13
HETATM   13  O   UNK     1     -11.588  13.250  65.914  1.00  0.00    -0.323 OA 
BRANCH  13  14
HETATM   14  C   UNK     1     -12.085  14.299  66.757  1.00  0.00    -0.417 C  
BRANCH  14  15
HETATM   15  C   UNK     1     -10.957  14.938  67.571  1.00  0.00    -0.302 C  
HETATM   16  N   UNK     1     -11.452  15.736  68.731  1.00  0.00    -0.370 NA 
HETATM   17  C   UNK     1     -10.176  15.862  66.639  1.00  0.00    -0.288 C  
HETATM   18  O   UNK     1     -10.554  17.158  66.799  1.00  0.00    -0.286 OA 
HETATM   19  O   UNK     1      -9.356  15.492  65.814  1.00  0.00    -0.332 OA 
HETATM   20  H1  UNK     1     -10.700  16.161  69.273  1.00  0.00     0.000 HD 
HETATM   21  H2  UNK     1     -12.057  15.172  69.328  1.00  0.00     0.000 HD 
ENDBRANCH  14  15
ENDBRANCH  13  14
ENDBRANCH  10  13
ENDBRANCH   9  10
ENDBRANCH   8   9
ENDBRANCH   7   8
BRANCH   7  22
HETATM   22  C   UNK     1      -9.114   7.868  66.588  1.00  0.00    -0.163 C  
BRANCH  22  23
HETATM   23  O   UNK     1      -7.845   8.510  66.367  1.00  0.00    -0.096 OA 
BRANCH  23  24
HETATM   24  C   UNK     1      -7.765   9.250  65.226  1.00  0.00    -0.103 C  
HETATM   25  O   UNK     1      -8.347   8.989  64.187  1.00  0.00    -0.162 OA 
BRANCH  24  26
HETATM   26  C   UNK     1      -6.867  10.443  65.454  1.00  0.00    -0.120 C  
HETATM   27  C   UNK     1      -6.623  10.675  66.935  1.00  0.00    -0.086 C  
ENDBRANCH  24  26
ENDBRANCH  23  24
ENDBRANCH  22  23
ENDBRANCH   7  22
ENDBRANCH   6   7
ENDBRANCH   4   6
ENDBRANCH   3   4
ENDBRANCH   2   3
TORSDOF 14
ENDMDL
MODEL      295
REMARK 921   NORMALIZED FREE ENERGY PREDICTED BY IDOCK:   -3.38 KCAL/MOL
REMARK 922        TOTAL FREE ENERGY PREDICTED BY IDOCK:   -7.23 KCAL/MOL
REMARK 923 INTER-LIGAND FREE ENERGY PREDICTED BY IDOCK:   -6.07 KCAL/MOL
REMARK 924 INTRA-LIGAND FREE ENERGY PREDICTED BY IDOCK:   -1.16 KCAL/MOL
REMARK 927      BINDING AFFINITY PREDICTED BY RF-SCORE:    0.00 PKD
ROOT
HETATM    1  C   UNK     1     -10.443  16.764  68.666  1.00  0.00    -0.333 C  
HETATM    2  C   UNK     1     -11.708  16.068  69.148  1.00  0.00    -0.310 C  
ENDROOT
BRANCH   2   3
HETATM    3  C   UNK     1     -11.614  15.629  70.606  1.00  0.00    -0.394 C  
BRANCH   3   4
HETATM    4  C   UNK     1     -12.586  14.516  70.899  1.00  0.00    -0.344 C  
HETATM    5  O   UNK     1     -13.766  14.688  71.171  1.00  0.00    -0.386 OA 
BRANCH   4   6
HETATM    6  O   UNK     1     -11.962  13.314  70.847  1.00  0.00    -0.246 OA 
BRANCH   6   7
HETATM    7  C   UNK     1     -12.035  12.536  69.630  1.00  0.00    -0.272 C  
BRANCH   7   8
HETATM    8  C   UNK     1     -10.753  12.607  68.791  1.00  0.00    -0.207 C  
BRANCH   8   9
HETATM    9  O   UNK     1     -10.444  11.344  68.202  1.00  0.00    -0.176 OA 
BRANCH   9  10
HETATM   10  P   UNK     1      -8.795  10.866  68.413  1.00  0.00    -0.156 P  
HETATM   11  O   UNK     1      -9.177   9.917  69.689  1.00  0.00    -0.203 OA 
HETATM   12  O   UNK     1      -8.896   9.997  67.158  1.00  0.00    -0.134 OA 
BRANCH  10  13
HETATM   13  O   UNK     1      -7.145  10.389  68.624  1.00  0.00    -0.071 OA 
BRANCH  13  14
HETATM   14  C   UNK     1      -6.293  11.493  68.963  1.00  0.00    -0.069 C  
BRANCH  14  15
HETATM   15  C   UNK     1      -6.788  12.792  68.324  1.00  0.00    -0.090 C  
HETATM   16  N   UNK     1      -6.216  13.032  66.967  1.00  0.00    -0.456 NA 
HETATM   17  C   UNK     1      -6.380  13.945  69.238  1.00  0.00    -0.112 C  
HETATM   18  O   UNK     1      -5.255  14.560  68.785  1.00  0.00    -0.084 OA 
HETATM   19  O   UNK     1      -6.949  14.251  70.274  1.00  0.00     0.024 OA 
HETATM   20  H1  UNK     1      -6.547  13.898  66.542  1.00  0.00     0.000 HD 
HETATM   21  H2  UNK     1      -6.391  12.236  66.353  1.00  0.00     0.000 HD 
ENDBRANCH  14  15
ENDBRANCH  13  14
ENDBRANCH  10  13
ENDBRANCH   9  10
ENDBRANCH   8   9
ENDBRANCH   7   8
BRANCH   7  22
HETATM   22  C   UNK     1     -12.450  11.079  69.910  1.00  0.00    -0.219 C  
BRANCH  22  23
HETATM   23  O   UNK     1     -11.977  10.630  71.193  1.00  0.00    -0.342 OA 
BRANCH  23  24
HETATM   24  C   UNK     1     -12.562   9.489  71.654  1.00  0.00    -0.388 C  
HETATM   25  O   UNK     1     -13.751   9.234  71.568  1.00  0.00    -0.378 OA 
BRANCH  24  26
HETATM   26  C   UNK     1     -11.512   8.589  72.264  1.00  0.00    -0.445 C  
HETATM   27  C   UNK     1     -11.358   7.304  71.470  1.00  0.00    -0.280 C  
ENDBRANCH  24  26
ENDBRANCH  23  24
ENDBRANCH  22  23
ENDBRANCH   7  22
ENDBRANCH   6   7
ENDBRANCH   4   6
ENDBRANCH   3   4
ENDBRANCH   2   3
TORSDOF 14
ENDMDL
MODEL      296
REMARK 921   NORMALIZED FREE ENERGY PREDICTED BY IDOCK:   -3.36 KCAL/MOL
REMARK 922        TOTAL FREE ENERGY PREDICTED BY IDOCK:   -7.21 KCAL/MOL
REMARK 923 INTER-LIGAND FREE ENERGY PREDICTED BY IDOCK:   -6.09 KCAL/MOL
REMARK 924 INTRA-LIGAND FREE ENERGY PREDICTED BY IDOCK:   -1.12 KCAL/MOL
REMARK 927      BINDING AFFINITY PREDICTED BY RF-SCORE:    0.00 PKD
ROOT
HETATM    1  C   UNK     1     -13.349  12.579  71.958  1.00  0.00    -0.528 C  
HETATM    2  C   UNK     1     -12.806  11.276  71.386  1.00  0.00    -0.515 C  
ENDROOT
BRANCH   2   3
HETATM    3  C   UNK     1     -13.239  10.058  72.195  1.00  0.00    -0.489 C  
BRANCH   3   4
HETATM    4  C   UNK     1     -12.813   8.781  71.518  1.00  0.00    -0.325 C  
HETATM    5  O   UNK     1     -13.480   7.756  71.502  1.00  0.00    -0.351 OA 
BRANCH   4   6
HETATM    6  O   UNK     1     -11.584   8.923  70.965  1.00  0.00    -0.277 OA 
BRANCH   6   7
HETATM    7  C   UNK     1     -10.632   7.839  71.079  1.00  0.00    -0.213 C  
BRANCH   7   8
HETATM    8  C   UNK     1      -9.784   7.646  69.815  1.00  0.00    -0.171 C  
BRANCH   8   9
HETATM    9  O   UNK     1      -9.110   6.388  69.826  1.00  0.00    -0.140 OA 
BRANCH   9  10
HETATM   10  P   UNK     1      -9.615   5.321  68.561  1.00  0.00    -0.152 P  
HETATM   11  O   UNK     1     -10.473   6.507  67.832  1.00  0.00    -0.173 OA 
HETATM   12  O   UNK     1      -8.202   5.362  67.976  1.00  0.00    -0.099 OA 
BRANCH  10  13
HETATM   13  O   UNK     1     -10.119   4.254  67.296  1.00  0.00    -0.137 OA 
BRANCH  13  14
HETATM   14  C   UNK     1     -10.376   4.945  66.065  1.00  0.00    -0.271 C  
BRANCH  14  15
HETATM   15  C   UNK     1      -9.902   4.129  64.861  1.00  0.00    -0.197 C  
HETATM   16  N   UNK     1      -9.786   2.670  65.153  1.00  0.00    -0.354 NA 
HETATM   17  C   UNK     1      -8.529   4.656  64.451  1.00  0.00    -0.130 C  
HETATM   18  O   UNK     1      -7.533   3.868  64.936  1.00  0.00    -0.074 OA 
HETATM   19  O   UNK     1      -8.335   5.681  63.817  1.00  0.00    -0.116 OA 
HETATM   20  H1  UNK     1      -9.470   2.125  64.350  1.00  0.00     0.000 HD 
HETATM   21  H2  UNK     1     -10.664   2.302  65.519  1.00  0.00     0.000 HD 
ENDBRANCH  14  15
ENDBRANCH  13  14
ENDBRANCH  10  13
ENDBRANCH   9  10
ENDBRANCH   8   9
ENDBRANCH   7   8
BRANCH   7  22
HETATM   22  C   UNK     1      -9.754   7.983  72.335  1.00  0.00    -0.240 C  
BRANCH  22  23
HETATM   23  O   UNK     1     -10.381   7.397  73.492  1.00  0.00    -0.342 OA 
BRANCH  23  24
HETATM   24  C   UNK     1     -10.437   6.036  73.488  1.00  0.00    -0.262 C  
HETATM   25  O   UNK     1     -11.408   5.382  73.145  1.00  0.00    -0.302 OA 
BRANCH  24  26
HETATM   26  C   UNK     1      -9.115   5.470  73.949  1.00  0.00    -0.122 C  
HETATM   27  C   UNK     1      -8.488   4.592  72.881  1.00  0.00    -0.110 C  
ENDBRANCH  24  26
ENDBRANCH  23  24
ENDBRANCH  22  23
ENDBRANCH   7  22
ENDBRANCH   6   7
ENDBRANCH   4   6
ENDBRANCH   3   4
ENDBRANCH   2   3
TORSDOF 14
ENDMDL
MODEL      297
REMARK 921   NORMALIZED FREE ENERGY PREDICTED BY IDOCK:   -3.36 KCAL/MOL
REMARK 922        TOTAL FREE ENERGY PREDICTED BY IDOCK:   -7.20 KCAL/MOL
REMARK 923 INTER-LIGAND FREE ENERGY PREDICTED BY IDOCK:   -6.42 KCAL/MOL
REMARK 924 INTRA-LIGAND FREE ENERGY PREDICTED BY IDOCK:   -0.78 KCAL/MOL
REMARK 927      BINDING AFFINITY PREDICTED BY RF-SCORE:    0.00 PKD
ROOT
HETATM    1  C   UNK     1     -10.638   3.746  64.079  1.00  0.00    -0.274 C  
HETATM    2  C   UNK     1      -9.463   3.356  64.965  1.00  0.00    -0.154 C  
ENDROOT
BRANCH   2   3
HETATM    3  C   UNK     1      -9.371   4.214  66.223  1.00  0.00    -0.173 C  
BRANCH   3   4
HETATM    4  C   UNK     1      -8.039   4.914  66.304  1.00  0.00    -0.107 C  
HETATM    5  O   UNK     1      -7.204   4.906  65.410  1.00  0.00    -0.065 OA 
BRANCH   4   6
HETATM    6  O   UNK     1      -7.891   5.517  67.508  1.00  0.00    -0.099 OA 
BRANCH   6   7
HETATM    7  C   UNK     1      -8.229   6.918  67.639  1.00  0.00    -0.117 C  
BRANCH   7   8
HETATM    8  C   UNK     1      -8.533   7.592  66.294  1.00  0.00    -0.139 C  
BRANCH   8   9
HETATM    9  O   UNK     1      -9.802   8.247  66.315  1.00  0.00    -0.232 OA 
BRANCH   9  10
HETATM   10  P   UNK     1      -9.768   9.842  65.647  1.00  0.00    -0.282 P  
HETATM   11  O   UNK     1     -10.757  10.411  66.818  1.00  0.00    -0.231 OA 
HETATM   12  O   UNK     1      -8.332  10.011  66.148  1.00  0.00    -0.117 OA 
BRANCH  10  13
HETATM   13  O   UNK     1      -9.734  11.438  64.979  1.00  0.00    -0.240 OA 
BRANCH  13  14
HETATM   14  C   UNK     1     -10.324  11.498  63.672  1.00  0.00    -0.417 C  
BRANCH  14  15
HETATM   15  C   UNK     1     -11.185  12.752  63.509  1.00  0.00    -0.373 C  
HETATM   16  N   UNK     1     -10.715  13.898  64.341  1.00  0.00    -0.589 NA 
HETATM   17  C   UNK     1     -12.610  12.396  63.927  1.00  0.00    -0.427 C  
HETATM   18  O   UNK     1     -12.868  12.807  65.197  1.00  0.00    -0.726 OA 
HETATM   19  O   UNK     1     -13.405  11.775  63.241  1.00  0.00    -0.510 OA 
HETATM   20  H1  UNK     1     -11.289  14.733  64.233  1.00  0.00     0.000 HD 
HETATM   21  H2  UNK     1      -9.733  14.104  64.154  1.00  0.00     0.000 HD 
ENDBRANCH  14  15
ENDBRANCH  13  14
ENDBRANCH  10  13
ENDBRANCH   9  10
ENDBRANCH   8   9
ENDBRANCH   7   8
BRANCH   7  22
HETATM   22  C   UNK     1      -9.366   7.136  68.653  1.00  0.00    -0.134 C  
BRANCH  22  23
HETATM   23  O   UNK     1      -8.894   7.039  70.010  1.00  0.00    -0.141 OA 
BRANCH  23  24
HETATM   24  C   UNK     1      -9.732   6.390  70.866  1.00  0.00    -0.176 C  
HETATM   25  O   UNK     1     -10.350   6.924  71.772  1.00  0.00    -0.198 OA 
BRANCH  24  26
HETATM   26  C   UNK     1      -9.792   4.924  70.506  1.00  0.00    -0.297 C  
HETATM   27  C   UNK     1      -9.346   4.053  71.667  1.00  0.00    -0.199 C  
ENDBRANCH  24  26
ENDBRANCH  23  24
ENDBRANCH  22  23
ENDBRANCH   7  22
ENDBRANCH   6   7
ENDBRANCH   4   6
ENDBRANCH   3   4
ENDBRANCH   2   3
TORSDOF 14
ENDMDL
MODEL      298
REMARK 921   NORMALIZED FREE ENERGY PREDICTED BY IDOCK:   -3.36 KCAL/MOL
REMARK 922        TOTAL FREE ENERGY PREDICTED BY IDOCK:   -7.20 KCAL/MOL
REMARK 923 INTER-LIGAND FREE ENERGY PREDICTED BY IDOCK:   -6.44 KCAL/MOL
REMARK 924 INTRA-LIGAND FREE ENERGY PREDICTED BY IDOCK:   -0.76 KCAL/MOL
REMARK 927      BINDING AFFINITY PREDICTED BY RF-SCORE:    0.00 PKD
ROOT
HETATM    1  C   UNK     1      -5.931  12.392  69.465  1.00  0.00    -0.110 C  
HETATM    2  C   UNK     1      -6.577  13.490  68.632  1.00  0.00    -0.098 C  
ENDROOT
BRANCH   2   3
HETATM    3  C   UNK     1      -6.810  14.769  69.430  1.00  0.00    -0.162 C  
BRANCH   3   4
HETATM    4  C   UNK     1      -7.696  15.724  68.673  1.00  0.00    -0.153 C  
HETATM    5  O   UNK     1      -8.490  16.490  69.202  1.00  0.00    -0.232 OA 
BRANCH   4   6
HETATM    6  O   UNK     1      -7.511  15.588  67.338  1.00  0.00    -0.167 OA 
BRANCH   6   7
HETATM    7  C   UNK     1      -8.664  15.605  66.463  1.00  0.00    -0.307 C  
BRANCH   7   8
HETATM    8  C   UNK     1      -9.854  14.812  67.019  1.00  0.00    -0.239 C  
BRANCH   8   9
HETATM    9  O   UNK     1     -10.249  13.770  66.126  1.00  0.00    -0.286 OA 
BRANCH   9  10
HETATM   10  P   UNK     1     -11.192  12.532  66.882  1.00  0.00    -0.342 P  
HETATM   11  O   UNK     1     -11.100  11.579  65.556  1.00  0.00    -0.271 OA 
HETATM   12  O   UNK     1      -9.999  12.181  67.774  1.00  0.00    -0.190 OA 
BRANCH  10  13
HETATM   13  O   UNK     1     -12.135  11.294  67.638  1.00  0.00    -0.600 OA 
BRANCH  13  14
HETATM   14  C   UNK     1     -12.028  11.319  69.069  1.00  0.00    -0.325 C  
BRANCH  14  15
HETATM   15  C   UNK     1     -12.462   9.985  69.681  1.00  0.00     0.451 C  
HETATM   16  N   UNK     1     -13.410  10.146  70.822  1.00  0.00    -0.518 NA 
HETATM   17  C   UNK     1     -11.209   9.273  70.183  1.00  0.00    -0.208 C  
HETATM   18  O   UNK     1     -11.051   9.437  71.523  1.00  0.00    -0.355 OA 
HETATM   19  O   UNK     1     -10.414   8.675  69.475  1.00  0.00    -0.216 OA 
HETATM   20  H1  UNK     1     -13.700   9.257  71.229  1.00  0.00     0.000 HD 
HETATM   21  H2  UNK     1     -14.221  10.701  70.546  1.00  0.00     0.000 HD 
ENDBRANCH  14  15
ENDBRANCH  13  14
ENDBRANCH  10  13
ENDBRANCH   9  10
ENDBRANCH   8   9
ENDBRANCH   7   8
BRANCH   7  22
HETATM   22  C   UNK     1      -9.067  17.042  66.082  1.00  0.00    -0.204 C  
BRANCH  22  23
HETATM   23  O   UNK     1      -7.920  17.844  65.746  1.00  0.00    -0.540 OA 
BRANCH  23  24
HETATM   24  C   UNK     1      -7.844  19.039  66.396  1.00  0.00    -0.278 C  
HETATM   25  O   UNK     1      -6.940  19.846  66.263  1.00  0.00    -0.218 OA 
BRANCH  24  26
HETATM   26  C   UNK     1      -9.054  19.214  67.284  1.00  0.00    -0.334 C  
HETATM   27  C   UNK     1      -9.636  20.610  67.153  1.00  0.00    -0.534 C  
ENDBRANCH  24  26
ENDBRANCH  23  24
ENDBRANCH  22  23
ENDBRANCH   7  22
ENDBRANCH   6   7
ENDBRANCH   4   6
ENDBRANCH   3   4
ENDBRANCH   2   3
TORSDOF 14
ENDMDL
MODEL      299
REMARK 921   NORMALIZED FREE ENERGY PREDICTED BY IDOCK:   -3.35 KCAL/MOL
REMARK 922        TOTAL FREE ENERGY PREDICTED BY IDOCK:   -7.19 KCAL/MOL
REMARK 923 INTER-LIGAND FREE ENERGY PREDICTED BY IDOCK:   -5.94 KCAL/MOL
REMARK 924 INTRA-LIGAND FREE ENERGY PREDICTED BY IDOCK:   -1.25 KCAL/MOL
REMARK 927      BINDING AFFINITY PREDICTED BY RF-SCORE:    0.00 PKD
ROOT
HETATM    1  C   UNK     1     -12.939   9.123  72.424  1.00  0.00    -0.468 C  
HETATM    2  C   UNK     1     -12.871   9.742  71.035  1.00  0.00    -0.374 C  
ENDROOT
BRANCH   2   3
HETATM    3  C   UNK     1     -11.476  10.256  70.692  1.00  0.00    -0.435 C  
BRANCH   3   4
HETATM    4  C   UNK     1     -10.676   9.204  69.968  1.00  0.00    -0.232 C  
HETATM    5  O   UNK     1     -10.191   8.218  70.506  1.00  0.00    -0.194 OA 
BRANCH   4   6
HETATM    6  O   UNK     1     -10.546   9.524  68.658  1.00  0.00    -0.213 OA 
BRANCH   6   7
HETATM    7  C   UNK     1      -9.494  10.434  68.258  1.00  0.00    -0.148 C  
BRANCH   7   8
HETATM    8  C   UNK     1      -8.151   9.733  68.015  1.00  0.00    -0.105 C  
BRANCH   8   9
HETATM    9  O   UNK     1      -8.058   9.231  66.681  1.00  0.00    -0.107 OA 
BRANCH   9  10
HETATM   10  P   UNK     1      -8.011   7.504  66.594  1.00  0.00    -0.116 P  
HETATM   11  O   UNK     1      -7.798   7.375  68.210  1.00  0.00    -0.117 OA 
HETATM   12  O   UNK     1      -9.519   7.485  66.335  1.00  0.00    -0.184 OA 
BRANCH  10  13
HETATM   13  O   UNK     1      -7.964   5.777  66.506  1.00  0.00    -0.100 OA 
BRANCH  13  14
HETATM   14  C   UNK     1      -8.640   5.267  65.348  1.00  0.00    -0.149 C  
BRANCH  14  15
HETATM   15  C   UNK     1      -9.798   4.348  65.741  1.00  0.00    -0.225 C  
HETATM   16  N   UNK     1     -11.108   5.058  65.823  1.00  0.00    -0.836 NA 
HETATM   17  C   UNK     1      -9.476   3.754  67.110  1.00  0.00    -0.202 C  
HETATM   18  O   UNK     1     -10.127   4.418  68.102  1.00  0.00    -0.051 OA 
HETATM   19  O   UNK     1      -8.696   2.836  67.309  1.00  0.00    -0.102 OA 
HETATM   20  H1  UNK     1     -11.879   4.444  66.086  1.00  0.00     0.000 HD 
HETATM   21  H2  UNK     1     -11.312   5.546  64.952  1.00  0.00     0.000 HD 
ENDBRANCH  14  15
ENDBRANCH  13  14
ENDBRANCH  10  13
ENDBRANCH   9  10
ENDBRANCH   8   9
ENDBRANCH   7   8
BRANCH   7  22
HETATM   22  C   UNK     1      -9.914  11.291  67.049  1.00  0.00    -0.198 C  
BRANCH  22  23
HETATM   23  O   UNK     1      -9.110  12.481  66.937  1.00  0.00    -0.202 OA 
BRANCH  23  24
HETATM   24  C   UNK     1      -9.814  13.638  66.794  1.00  0.00    -0.271 C  
HETATM   25  O   UNK     1     -10.031  14.193  65.731  1.00  0.00    -0.309 OA 
BRANCH  24  26
HETATM   26  C   UNK     1     -10.297  14.111  68.146  1.00  0.00    -0.239 C  
HETATM   27  C   UNK     1     -11.551  14.956  68.020  1.00  0.00    -0.363 C  
ENDBRANCH  24  26
ENDBRANCH  23  24
ENDBRANCH  22  23
ENDBRANCH   7  22
ENDBRANCH   6   7
ENDBRANCH   4   6
ENDBRANCH   3   4
ENDBRANCH   2   3
TORSDOF 14
ENDMDL
MODEL      300
REMARK 921   NORMALIZED FREE ENERGY PREDICTED BY IDOCK:   -3.34 KCAL/MOL
REMARK 922        TOTAL FREE ENERGY PREDICTED BY IDOCK:   -7.16 KCAL/MOL
REMARK 923 INTER-LIGAND FREE ENERGY PREDICTED BY IDOCK:   -5.80 KCAL/MOL
REMARK 924 INTRA-LIGAND FREE ENERGY PREDICTED BY IDOCK:   -1.36 KCAL/MOL
REMARK 927      BINDING AFFINITY PREDICTED BY RF-SCORE:    0.00 PKD
ROOT
HETATM    1  C   UNK     1      -9.865   2.860  71.912  1.00  0.00    -0.234 C  
HETATM    2  C   UNK     1      -9.558   4.343  72.065  1.00  0.00    -0.209 C  
ENDROOT
BRANCH   2   3
HETATM    3  C   UNK     1     -10.816   5.182  72.269  1.00  0.00    -0.241 C  
BRANCH   3   4
HETATM    4  C   UNK     1     -10.608   6.213  73.348  1.00  0.00    -0.269 C  
HETATM    5  O   UNK     1      -9.928   6.033  74.349  1.00  0.00    -0.225 OA 
BRANCH   4   6
HETATM    6  O   UNK     1     -11.303   7.342  73.067  1.00  0.00    -0.285 OA 
BRANCH   6   7
HETATM    7  C   UNK     1     -11.084   8.004  71.798  1.00  0.00    -0.260 C  
BRANCH   7   8
HETATM    8  C   UNK     1     -12.269   8.875  71.361  1.00  0.00    -0.318 C  
BRANCH   8   9
HETATM    9  O   UNK     1     -12.174  10.193  71.901  1.00  0.00    -0.332 OA 
BRANCH   9  10
HETATM   10  P   UNK     1     -12.291  11.440  70.708  1.00  0.00    -0.271 P  
HETATM   11  O   UNK     1     -13.163  10.479  69.713  1.00  0.00     0.007 OA 
HETATM   12  O   UNK     1     -13.285  12.187  71.599  1.00  0.00    -0.406 OA 
BRANCH  10  13
HETATM   13  O   UNK     1     -12.409  12.687  69.514  1.00  0.00    -0.126 OA 
BRANCH  13  14
HETATM   14  C   UNK     1     -11.139  13.286  69.219  1.00  0.00    -0.153 C  
BRANCH  14  15
HETATM   15  C   UNK     1     -10.366  12.468  68.183  1.00  0.00    -0.232 C  
HETATM   16  N   UNK     1      -8.917  12.327  68.511  1.00  0.00    -0.350 NA 
HETATM   17  C   UNK     1     -10.496  13.177  66.837  1.00  0.00    -0.256 C  
HETATM   18  O   UNK     1      -9.391  13.920  66.562  1.00  0.00    -0.277 OA 
HETATM   19  O   UNK     1     -11.482  13.135  66.118  1.00  0.00    -0.307 OA 
HETATM   20  H1  UNK     1      -8.402  11.781  67.820  1.00  0.00     0.000 HD 
HETATM   21  H2  UNK     1      -8.792  11.940  69.446  1.00  0.00     0.000 HD 
ENDBRANCH  14  15
ENDBRANCH  13  14
ENDBRANCH  10  13
ENDBRANCH   9  10
ENDBRANCH   8   9
ENDBRANCH   7   8
BRANCH   7  22
HETATM   22  C   UNK     1      -9.764   8.796  71.791  1.00  0.00    -0.310 C  
BRANCH  22  23
HETATM   23  O   UNK     1      -9.227   8.921  70.461  1.00  0.00    -0.170 OA 
BRANCH  23  24
HETATM   24  C   UNK     1      -8.519   7.843  70.022  1.00  0.00    -0.134 C  
HETATM   25  O   UNK     1      -7.825   7.133  70.731  1.00  0.00    -0.093 OA 
BRANCH  24  26
HETATM   26  C   UNK     1      -8.742   7.655  68.540  1.00  0.00    -0.128 C  
HETATM   27  C   UNK     1      -9.951   8.437  68.060  1.00  0.00    -0.221 C  
ENDBRANCH  24  26
ENDBRANCH  23  24
ENDBRANCH  22  23
ENDBRANCH   7  22
ENDBRANCH   6   7
ENDBRANCH   4   6
ENDBRANCH   3   4
ENDBRANCH   2   3
TORSDOF 14
ENDMDL
MODEL      301
REMARK 921   NORMALIZED FREE ENERGY PREDICTED BY IDOCK:   -3.33 KCAL/MOL
REMARK 922        TOTAL FREE ENERGY PREDICTED BY IDOCK:   -7.14 KCAL/MOL
REMARK 923 INTER-LIGAND FREE ENERGY PREDICTED BY IDOCK:   -6.97 KCAL/MOL
REMARK 924 INTRA-LIGAND FREE ENERGY PREDICTED BY IDOCK:   -0.17 KCAL/MOL
REMARK 927      BINDING AFFINITY PREDICTED BY RF-SCORE:    0.00 PKD
ROOT
HETATM    1  C   UNK     1     -12.125  14.223  64.371  1.00  0.00    -0.490 C  
HETATM    2  C   UNK     1     -11.084  14.758  65.344  1.00  0.00    -0.359 C  
ENDROOT
BRANCH   2   3
HETATM    3  C   UNK     1     -10.313  13.645  66.045  1.00  0.00    -0.305 C  
BRANCH   3   4
HETATM    4  C   UNK     1     -11.112  12.368  66.073  1.00  0.00    -0.308 C  
HETATM    5  O   UNK     1     -10.909  11.414  65.335  1.00  0.00    -0.281 OA 
BRANCH   4   6
HETATM    6  O   UNK     1     -12.098  12.444  67.000  1.00  0.00    -0.549 OA 
BRANCH   6   7
HETATM    7  C   UNK     1     -11.782  12.165  68.385  1.00  0.00    -0.332 C  
BRANCH   7   8
HETATM    8  C   UNK     1     -10.548  11.270  68.553  1.00  0.00    -0.199 C  
BRANCH   8   9
HETATM    9  O   UNK     1     -10.896  10.002  69.111  1.00  0.00    -0.209 OA 
BRANCH   9  10
HETATM   10  P   UNK     1      -9.785   8.739  68.706  1.00  0.00    -0.174 P  
HETATM   11  O   UNK     1      -8.854   9.067  70.010  1.00  0.00    -0.148 OA 
HETATM   12  O   UNK     1     -10.821   7.701  69.141  1.00  0.00    -0.180 OA 
BRANCH  10  13
HETATM   13  O   UNK     1      -8.674   7.477  68.301  1.00  0.00    -0.124 OA 
BRANCH  13  14
HETATM   14  C   UNK     1      -8.844   7.007  66.955  1.00  0.00    -0.124 C  
BRANCH  14  15
HETATM   15  C   UNK     1      -8.099   5.690  66.729  1.00  0.00    -0.102 C  
HETATM   16  N   UNK     1      -6.623   5.812  66.913  1.00  0.00    -0.054 NA 
HETATM   17  C   UNK     1      -8.378   5.236  65.299  1.00  0.00    -0.139 C  
HETATM   18  O   UNK     1      -7.349   5.556  64.470  1.00  0.00    -0.060 OA 
HETATM   19  O   UNK     1      -9.410   4.703  64.923  1.00  0.00    -0.155 OA 
HETATM   20  H1  UNK     1      -6.127   4.934  66.762  1.00  0.00     0.000 HD 
HETATM   21  H2  UNK     1      -6.402   6.203  67.829  1.00  0.00     0.000 HD 
ENDBRANCH  14  15
ENDBRANCH  13  14
ENDBRANCH  10  13
ENDBRANCH   9  10
ENDBRANCH   8   9
ENDBRANCH   7   8
BRANCH   7  22
HETATM   22  C   UNK     1     -11.663  13.459  69.212  1.00  0.00    -0.330 C  
BRANCH  22  23
HETATM   23  O   UNK     1     -12.272  13.319  70.509  1.00  0.00    -0.354 OA 
BRANCH  23  24
HETATM   24  C   UNK     1     -12.803  14.464  71.021  1.00  0.00    -0.353 C  
HETATM   25  O   UNK     1     -12.875  15.524  70.423  1.00  0.00    -0.410 OA 
BRANCH  24  26
HETATM   26  C   UNK     1     -13.301  14.211  72.425  1.00  0.00    -0.591 C  
HETATM   27  C   UNK     1     -13.097  15.426  73.311  1.00  0.00    -0.642 C  
ENDBRANCH  24  26
ENDBRANCH  23  24
ENDBRANCH  22  23
ENDBRANCH   7  22
ENDBRANCH   6   7
ENDBRANCH   4   6
ENDBRANCH   3   4
ENDBRANCH   2   3
TORSDOF 14
ENDMDL
MODEL      302
REMARK 921   NORMALIZED FREE ENERGY PREDICTED BY IDOCK:   -3.32 KCAL/MOL
REMARK 922        TOTAL FREE ENERGY PREDICTED BY IDOCK:   -7.13 KCAL/MOL
REMARK 923 INTER-LIGAND FREE ENERGY PREDICTED BY IDOCK:   -6.77 KCAL/MOL
REMARK 924 INTRA-LIGAND FREE ENERGY PREDICTED BY IDOCK:   -0.37 KCAL/MOL
REMARK 927      BINDING AFFINITY PREDICTED BY RF-SCORE:    0.00 PKD
ROOT
HETATM    1  C   UNK     1      -7.381  17.951  68.800  1.00  0.00    -0.271 C  
HETATM    2  C   UNK     1      -7.205  16.446  68.942  1.00  0.00    -0.203 C  
ENDROOT
BRANCH   2   3
HETATM    3  C   UNK     1      -8.125  15.660  68.013  1.00  0.00    -0.140 C  
BRANCH   3   4
HETATM    4  C   UNK     1      -9.231  14.991  68.787  1.00  0.00    -0.200 C  
HETATM    5  O   UNK     1      -9.858  15.526  69.691  1.00  0.00    -0.265 OA 
BRANCH   4   6
HETATM    6  O   UNK     1      -9.406  13.717  68.361  1.00  0.00    -0.203 OA 
BRANCH   6   7
HETATM    7  C   UNK     1     -10.649  13.356  67.715  1.00  0.00    -0.245 C  
BRANCH   7   8
HETATM    8  C   UNK     1     -11.510  12.403  68.554  1.00  0.00    -0.306 C  
BRANCH   8   9
HETATM    9  O   UNK     1     -11.383  11.053  68.105  1.00  0.00    -0.267 OA 
BRANCH   9  10
HETATM   10  P   UNK     1     -10.993   9.938  69.369  1.00  0.00    -0.174 P  
HETATM   11  O   UNK     1     -10.845   8.704  68.306  1.00  0.00    -0.098 OA 
HETATM   12  O   UNK     1      -9.614  10.585  69.503  1.00  0.00    -0.190 OA 
BRANCH  10  13
HETATM   13  O   UNK     1     -10.604   8.822  70.633  1.00  0.00    -0.200 OA 
BRANCH  13  14
HETATM   14  C   UNK     1      -9.352   8.156  70.411  1.00  0.00    -0.158 C  
BRANCH  14  15
HETATM   15  C   UNK     1      -9.416   6.693  70.851  1.00  0.00    -0.164 C  
HETATM   16  N   UNK     1      -8.448   5.819  70.125  1.00  0.00    -0.119 NA 
HETATM   17  C   UNK     1     -10.831   6.186  70.580  1.00  0.00    -0.300 C  
HETATM   18  O   UNK     1     -10.887   5.476  69.421  1.00  0.00    -0.298 OA 
HETATM   19  O   UNK     1     -11.805   6.426  71.275  1.00  0.00    -0.327 OA 
HETATM   20  H1  UNK     1      -8.491   4.844  70.419  1.00  0.00     0.000 HD 
HETATM   21  H2  UNK     1      -7.499   6.183  70.208  1.00  0.00     0.000 HD 
ENDBRANCH  14  15
ENDBRANCH  13  14
ENDBRANCH  10  13
ENDBRANCH   9  10
ENDBRANCH   8   9
ENDBRANCH   7   8
BRANCH   7  22
HETATM   22  C   UNK     1     -11.443  14.600  67.275  1.00  0.00    -0.372 C  
BRANCH  22  23
HETATM   23  O   UNK     1     -12.509  14.258  66.369  1.00  0.00    -0.441 OA 
BRANCH  23  24
HETATM   24  C   UNK     1     -12.108  13.915  65.114  1.00  0.00    -0.403 C  
HETATM   25  O   UNK     1     -11.351  14.575  64.422  1.00  0.00    -0.327 OA 
BRANCH  24  26
HETATM   26  C   UNK     1     -12.726  12.592  64.724  1.00  0.00    -0.460 C  
HETATM   27  C   UNK     1     -12.215  12.121  63.375  1.00  0.00    -0.635 C  
ENDBRANCH  24  26
ENDBRANCH  23  24
ENDBRANCH  22  23
ENDBRANCH   7  22
ENDBRANCH   6   7
ENDBRANCH   4   6
ENDBRANCH   3   4
ENDBRANCH   2   3
TORSDOF 14
ENDMDL
MODEL      303
REMARK 921   NORMALIZED FREE ENERGY PREDICTED BY IDOCK:   -3.32 KCAL/MOL
REMARK 922        TOTAL FREE ENERGY PREDICTED BY IDOCK:   -7.13 KCAL/MOL
REMARK 923 INTER-LIGAND FREE ENERGY PREDICTED BY IDOCK:   -6.18 KCAL/MOL
REMARK 924 INTRA-LIGAND FREE ENERGY PREDICTED BY IDOCK:   -0.95 KCAL/MOL
REMARK 927      BINDING AFFINITY PREDICTED BY RF-SCORE:    0.00 PKD
ROOT
HETATM    1  C   UNK     1      -6.571  16.340  69.301  1.00  0.00    -0.197 C  
HETATM    2  C   UNK     1      -7.949  15.700  69.215  1.00  0.00    -0.237 C  
ENDROOT
BRANCH   2   3
HETATM    3  C   UNK     1      -8.269  15.189  67.813  1.00  0.00    -0.159 C  
BRANCH   3   4
HETATM    4  C   UNK     1      -8.376  13.686  67.798  1.00  0.00    -0.181 C  
HETATM    5  O   UNK     1      -7.582  12.947  67.232  1.00  0.00    -0.153 OA 
BRANCH   4   6
HETATM    6  O   UNK     1      -9.482  13.281  68.466  1.00  0.00    -0.198 OA 
BRANCH   6   7
HETATM    7  C   UNK     1     -10.567  12.672  67.726  1.00  0.00    -0.220 C  
BRANCH   7   8
HETATM    8  C   UNK     1     -10.713  11.169  67.997  1.00  0.00    -0.211 C  
BRANCH   8   9
HETATM    9  O   UNK     1      -9.867  10.401  67.141  1.00  0.00    -0.170 OA 
BRANCH   9  10
HETATM   10  P   UNK     1     -10.335   8.740  67.016  1.00  0.00    -0.219 P  
HETATM   11  O   UNK     1      -9.381   8.515  65.706  1.00  0.00    -0.195 OA 
HETATM   12  O   UNK     1      -9.490   8.418  68.250  1.00  0.00    -0.138 OA 
BRANCH  10  13
HETATM   13  O   UNK     1     -10.803   7.079  66.890  1.00  0.00    -0.354 OA 
BRANCH  13  14
HETATM   14  C   UNK     1     -10.995   6.464  68.173  1.00  0.00    -0.307 C  
BRANCH  14  15
HETATM   15  C   UNK     1     -10.070   5.260  68.355  1.00  0.00    -0.159 C  
HETATM   16  N   UNK     1      -8.919   5.538  69.263  1.00  0.00    -0.111 NA 
HETATM   17  C   UNK     1      -9.527   4.877  66.980  1.00  0.00    -0.148 C  
HETATM   18  O   UNK     1      -8.274   5.370  66.790  1.00  0.00    -0.108 OA 
HETATM   19  O   UNK     1     -10.148   4.257  66.131  1.00  0.00    -0.226 OA 
HETATM   20  H1  UNK     1      -8.302   4.735  69.384  1.00  0.00     0.000 HD 
HETATM   21  H2  UNK     1      -9.243   5.887  70.165  1.00  0.00     0.000 HD 
ENDBRANCH  14  15
ENDBRANCH  13  14
ENDBRANCH  10  13
ENDBRANCH   9  10
ENDBRANCH   8   9
ENDBRANCH   7   8
BRANCH   7  22
HETATM   22  C   UNK     1     -11.895  13.420  67.945  1.00  0.00    -0.357 C  
BRANCH  22  23
HETATM   23  O   UNK     1     -11.758  14.473  68.918  1.00  0.00    -0.287 OA 
BRANCH  23  24
HETATM   24  C   UNK     1     -12.315  14.209  70.132  1.00  0.00    -0.351 C  
HETATM   25  O   UNK     1     -12.390  13.101  70.636  1.00  0.00    -0.358 OA 
BRANCH  24  26
HETATM   26  C   UNK     1     -12.802  15.495  70.760  1.00  0.00    -0.513 C  
HETATM   27  C   UNK     1     -13.885  15.230  71.790  1.00  0.00    -0.622 C  
ENDBRANCH  24  26
ENDBRANCH  23  24
ENDBRANCH  22  23
ENDBRANCH   7  22
ENDBRANCH   6   7
ENDBRANCH   4   6
ENDBRANCH   3   4
ENDBRANCH   2   3
TORSDOF 14
ENDMDL
MODEL      304
REMARK 921   NORMALIZED FREE ENERGY PREDICTED BY IDOCK:   -3.32 KCAL/MOL
REMARK 922        TOTAL FREE ENERGY PREDICTED BY IDOCK:   -7.13 KCAL/MOL
REMARK 923 INTER-LIGAND FREE ENERGY PREDICTED BY IDOCK:   -6.63 KCAL/MOL
REMARK 924 INTRA-LIGAND FREE ENERGY PREDICTED BY IDOCK:   -0.49 KCAL/MOL
REMARK 927      BINDING AFFINITY PREDICTED BY RF-SCORE:    0.00 PKD
ROOT
HETATM    1  C   UNK     1     -12.423  14.807  64.207  1.00  0.00    -0.224 C  
HETATM    2  C   UNK     1     -12.095  13.357  63.881  1.00  0.00    -0.514 C  
ENDROOT
BRANCH   2   3
HETATM    3  C   UNK     1     -12.160  12.453  65.108  1.00  0.00    -0.464 C  
BRANCH   3   4
HETATM    4  C   UNK     1     -10.778  12.113  65.603  1.00  0.00    -0.275 C  
HETATM    5  O   UNK     1      -9.789  12.043  64.886  1.00  0.00    -0.245 OA 
BRANCH   4   6
HETATM    6  O   UNK     1     -10.797  11.868  66.935  1.00  0.00    -0.239 OA 
BRANCH   6   7
HETATM    7  C   UNK     1     -11.717  12.608  67.773  1.00  0.00    -0.356 C  
BRANCH   7   8
HETATM    8  C   UNK     1     -11.640  12.208  69.252  1.00  0.00    -0.318 C  
BRANCH   8   9
HETATM    9  O   UNK     1     -12.412  11.037  69.516  1.00  0.00    -0.293 OA 
BRANCH   9  10
HETATM   10  P   UNK     1     -11.461   9.679  70.014  1.00  0.00    -0.014 P  
HETATM   11  O   UNK     1     -10.119  10.603  70.153  1.00  0.00     0.049 OA 
HETATM   12  O   UNK     1     -12.164   9.698  71.373  1.00  0.00    -0.332 OA 
BRANCH  10  13
HETATM   13  O   UNK     1     -10.511   8.322  70.512  1.00  0.00    -0.204 OA 
BRANCH  13  14
HETATM   14  C   UNK     1      -9.386   8.705  71.317  1.00  0.00    -0.224 C  
BRANCH  14  15
HETATM   15  C   UNK     1      -8.846   7.518  72.116  1.00  0.00    -0.125 C  
HETATM   16  N   UNK     1      -9.590   6.251  71.857  1.00  0.00    -0.153 NA 
HETATM   17  C   UNK     1      -8.964   7.861  73.599  1.00  0.00    -0.275 C  
HETATM   18  O   UNK     1     -10.065   7.285  74.152  1.00  0.00    -0.266 OA 
HETATM   19  O   UNK     1      -8.207   8.601  74.208  1.00  0.00    -0.317 OA 
HETATM   20  H1  UNK     1      -9.230   5.459  72.390  1.00  0.00     0.000 HD 
HETATM   21  H2  UNK     1      -9.611   6.039  70.860  1.00  0.00     0.000 HD 
ENDBRANCH  14  15
ENDBRANCH  13  14
ENDBRANCH  10  13
ENDBRANCH   9  10
ENDBRANCH   8   9
ENDBRANCH   7   8
BRANCH   7  22
HETATM   22  C   UNK     1     -11.557  14.129  67.587  1.00  0.00    -0.365 C  
BRANCH  22  23
HETATM   23  O   UNK     1     -11.971  14.854  68.759  1.00  0.00    -0.303 OA 
BRANCH  23  24
HETATM   24  C   UNK     1     -11.133  15.859  69.139  1.00  0.00    -0.302 C  
HETATM   25  O   UNK     1     -11.130  16.382  70.241  1.00  0.00    -0.359 OA 
BRANCH  24  26
HETATM   26  C   UNK     1     -10.202  16.205  68.000  1.00  0.00    -0.252 C  
HETATM   27  C   UNK     1      -9.256  17.328  68.383  1.00  0.00    -0.268 C  
ENDBRANCH  24  26
ENDBRANCH  23  24
ENDBRANCH  22  23
ENDBRANCH   7  22
ENDBRANCH   6   7
ENDBRANCH   4   6
ENDBRANCH   3   4
ENDBRANCH   2   3
TORSDOF 14
ENDMDL
MODEL      305
REMARK 921   NORMALIZED FREE ENERGY PREDICTED BY IDOCK:   -3.31 KCAL/MOL
REMARK 922        TOTAL FREE ENERGY PREDICTED BY IDOCK:   -7.11 KCAL/MOL
REMARK 923 INTER-LIGAND FREE ENERGY PREDICTED BY IDOCK:   -5.85 KCAL/MOL
REMARK 924 INTRA-LIGAND FREE ENERGY PREDICTED BY IDOCK:   -1.26 KCAL/MOL
REMARK 927      BINDING AFFINITY PREDICTED BY RF-SCORE:    0.00 PKD
ROOT
HETATM    1  C   UNK     1     -10.648   7.081  73.478  1.00  0.00    -0.405 C  
HETATM    2  C   UNK     1     -11.456   7.681  72.336  1.00  0.00    -0.392 C  
ENDROOT
BRANCH   2   3
HETATM    3  C   UNK     1     -10.870   8.997  71.835  1.00  0.00    -0.413 C  
BRANCH   3   4
HETATM    4  C   UNK     1      -9.532   8.778  71.178  1.00  0.00    -0.240 C  
HETATM    5  O   UNK     1      -8.472   9.199  71.620  1.00  0.00    -0.344 OA 
BRANCH   4   6
HETATM    6  O   UNK     1      -9.677   8.084  70.023  1.00  0.00    -0.172 OA 
BRANCH   6   7
HETATM    7  C   UNK     1     -10.501   8.637  68.969  1.00  0.00    -0.199 C  
BRANCH   7   8
HETATM    8  C   UNK     1     -10.030  10.019  68.500  1.00  0.00    -0.162 C  
BRANCH   8   9
HETATM    9  O   UNK     1     -10.198  10.176  67.090  1.00  0.00    -0.201 OA 
BRANCH   9  10
HETATM   10  P   UNK     1     -10.377  11.824  66.594  1.00  0.00    -0.234 P  
HETATM   11  O   UNK     1     -10.356  12.348  68.143  1.00  0.00    -0.212 OA 
HETATM   12  O   UNK     1      -8.930  11.822  66.099  1.00  0.00    -0.201 OA 
BRANCH  10  13
HETATM   13  O   UNK     1     -10.557  13.471  66.098  1.00  0.00    -0.283 OA 
BRANCH  13  14
HETATM   14  C   UNK     1     -10.395  14.393  67.186  1.00  0.00    -0.262 C  
BRANCH  14  15
HETATM   15  C   UNK     1      -9.078  15.163  67.068  1.00  0.00    -0.230 C  
HETATM   16  N   UNK     1      -7.878  14.276  67.074  1.00  0.00    -0.353 NA 
HETATM   17  C   UNK     1      -8.987  16.115  68.258  1.00  0.00    -0.189 C  
HETATM   18  O   UNK     1      -8.197  15.605  69.240  1.00  0.00    -0.227 OA 
HETATM   19  O   UNK     1      -9.585  17.176  68.352  1.00  0.00    -0.261 OA 
HETATM   20  H1  UNK     1      -7.000  14.789  66.995  1.00  0.00     0.000 HD 
HETATM   21  H2  UNK     1      -7.949  13.564  66.346  1.00  0.00     0.000 HD 
ENDBRANCH  14  15
ENDBRANCH  13  14
ENDBRANCH  10  13
ENDBRANCH   9  10
ENDBRANCH   8   9
ENDBRANCH   7   8
BRANCH   7  22
HETATM   22  C   UNK     1     -10.649   7.657  67.791  1.00  0.00    -0.196 C  
BRANCH  22  23
HETATM   23  O   UNK     1      -9.715   6.565  67.886  1.00  0.00    -0.122 OA 
BRANCH  23  24
HETATM   24  C   UNK     1      -8.724   6.574  66.952  1.00  0.00    -0.115 C  
HETATM   25  O   UNK     1      -8.137   7.572  66.571  1.00  0.00    -0.113 OA 
BRANCH  24  26
HETATM   26  C   UNK     1      -8.455   5.163  66.481  1.00  0.00    -0.111 C  
HETATM   27  C   UNK     1      -9.719   4.506  65.956  1.00  0.00    -0.216 C  
ENDBRANCH  24  26
ENDBRANCH  23  24
ENDBRANCH  22  23
ENDBRANCH   7  22
ENDBRANCH   6   7
ENDBRANCH   4   6
ENDBRANCH   3   4
ENDBRANCH   2   3
TORSDOF 14
ENDMDL
MODEL      306
REMARK 921   NORMALIZED FREE ENERGY PREDICTED BY IDOCK:   -3.31 KCAL/MOL
REMARK 922        TOTAL FREE ENERGY PREDICTED BY IDOCK:   -7.11 KCAL/MOL
REMARK 923 INTER-LIGAND FREE ENERGY PREDICTED BY IDOCK:   -6.73 KCAL/MOL
REMARK 924 INTRA-LIGAND FREE ENERGY PREDICTED BY IDOCK:   -0.38 KCAL/MOL
REMARK 927      BINDING AFFINITY PREDICTED BY RF-SCORE:    0.00 PKD
ROOT
HETATM    1  C   UNK     1      -6.998   9.659  62.513  1.00  0.00    -0.100 C  
HETATM    2  C   UNK     1      -8.422   9.138  62.382  1.00  0.00    -0.207 C  
ENDROOT
BRANCH   2   3
HETATM    3  C   UNK     1      -9.464  10.174  62.795  1.00  0.00    -0.287 C  
BRANCH   3   4
HETATM    4  C   UNK     1      -9.179  10.705  64.176  1.00  0.00    -0.236 C  
HETATM    5  O   UNK     1      -8.726  10.031  65.091  1.00  0.00    -0.145 OA 
BRANCH   4   6
HETATM    6  O   UNK     1      -9.525  12.012  64.263  1.00  0.00    -0.030 OA 
BRANCH   6   7
HETATM    7  C   UNK     1     -10.751  12.371  64.944  1.00  0.00    -0.294 C  
BRANCH   7   8
HETATM    8  C   UNK     1     -11.984  12.321  64.032  1.00  0.00    -0.462 C  
BRANCH   8   9
HETATM    9  O   UNK     1     -12.652  13.582  63.991  1.00  0.00    -0.661 OA 
BRANCH   9  10
HETATM   10  P   UNK     1     -11.699  14.891  64.602  1.00  0.00    -0.276 P  
HETATM   11  O   UNK     1     -12.589  15.991  63.782  1.00  0.00    -0.665 OA 
HETATM   12  O   UNK     1     -12.352  14.715  65.974  1.00  0.00    -0.256 OA 
BRANCH  10  13
HETATM   13  O   UNK     1     -10.746  16.199  65.212  1.00  0.00    -0.409 OA 
BRANCH  13  14
HETATM   14  C   UNK     1      -9.679  15.752  66.061  1.00  0.00    -0.345 C  
BRANCH  14  15
HETATM   15  C   UNK     1      -9.835  16.298  67.481  1.00  0.00    -0.238 C  
HETATM   16  N   UNK     1     -11.044  17.156  67.650  1.00  0.00    -0.139 NA 
HETATM   17  C   UNK     1      -8.595  17.130  67.800  1.00  0.00    -0.216 C  
HETATM   18  O   UNK     1      -8.838  18.458  67.637  1.00  0.00    -0.259 OA 
HETATM   19  O   UNK     1      -7.506  16.673  68.108  1.00  0.00    -0.159 OA 
HETATM   20  H1  UNK     1     -11.147  17.520  68.597  1.00  0.00     0.000 HD 
HETATM   21  H2  UNK     1     -11.885  16.660  67.356  1.00  0.00     0.000 HD 
ENDBRANCH  14  15
ENDBRANCH  13  14
ENDBRANCH  10  13
ENDBRANCH   9  10
ENDBRANCH   8   9
ENDBRANCH   7   8
BRANCH   7  22
HETATM   22  C   UNK     1     -10.956  11.536  66.222  1.00  0.00    -0.275 C  
BRANCH  22  23
HETATM   23  O   UNK     1     -10.139  12.016  67.307  1.00  0.00    -0.193 OA 
BRANCH  23  24
HETATM   24  C   UNK     1      -9.820  11.080  68.244  1.00  0.00    -0.178 C  
HETATM   25  O   UNK     1      -8.770  11.046  68.862  1.00  0.00    -0.164 OA 
BRANCH  24  26
HETATM   26  C   UNK     1     -10.970  10.113  68.410  1.00  0.00    -0.293 C  
HETATM   27  C   UNK     1     -10.522   8.680  68.186  1.00  0.00    -0.241 C  
ENDBRANCH  24  26
ENDBRANCH  23  24
ENDBRANCH  22  23
ENDBRANCH   7  22
ENDBRANCH   6   7
ENDBRANCH   4   6
ENDBRANCH   3   4
ENDBRANCH   2   3
TORSDOF 14
ENDMDL
MODEL      307
REMARK 921   NORMALIZED FREE ENERGY PREDICTED BY IDOCK:   -3.31 KCAL/MOL
REMARK 922        TOTAL FREE ENERGY PREDICTED BY IDOCK:   -7.11 KCAL/MOL
REMARK 923 INTER-LIGAND FREE ENERGY PREDICTED BY IDOCK:   -7.03 KCAL/MOL
REMARK 924 INTRA-LIGAND FREE ENERGY PREDICTED BY IDOCK:   -0.08 KCAL/MOL
REMARK 927      BINDING AFFINITY PREDICTED BY RF-SCORE:    0.00 PKD
ROOT
HETATM    1  C   UNK     1      -7.104   8.109  72.914  1.00  0.00    -0.130 C  
HETATM    2  C   UNK     1      -7.512   8.548  71.514  1.00  0.00    -0.123 C  
ENDROOT
BRANCH   2   3
HETATM    3  C   UNK     1      -8.891   8.029  71.118  1.00  0.00    -0.159 C  
BRANCH   3   4
HETATM    4  C   UNK     1      -9.497   8.881  70.033  1.00  0.00    -0.178 C  
HETATM    5  O   UNK     1      -9.581   8.543  68.860  1.00  0.00    -0.157 OA 
BRANCH   4   6
HETATM    6  O   UNK     1      -9.899  10.074  70.534  1.00  0.00    -0.155 OA 
BRANCH   6   7
HETATM    7  C   UNK     1     -10.992  10.773  69.892  1.00  0.00    -0.239 C  
BRANCH   7   8
HETATM    8  C   UNK     1     -11.035  10.559  68.373  1.00  0.00    -0.261 C  
BRANCH   8   9
HETATM    9  O   UNK     1     -12.125  11.266  67.778  1.00  0.00    -0.631 OA 
BRANCH   9  10
HETATM   10  P   UNK     1     -11.657  12.751  67.025  1.00  0.00    -0.363 P  
HETATM   11  O   UNK     1     -12.008  13.607  68.374  1.00  0.00    -0.355 OA 
HETATM   12  O   UNK     1     -10.189  12.330  67.128  1.00  0.00    -0.210 OA 
BRANCH  10  13
HETATM   13  O   UNK     1     -11.189  14.237  66.272  1.00  0.00    -0.324 OA 
BRANCH  13  14
HETATM   14  C   UNK     1     -10.122  14.895  66.972  1.00  0.00    -0.244 C  
BRANCH  14  15
HETATM   15  C   UNK     1     -10.431  16.378  67.185  1.00  0.00    -0.297 C  
HETATM   16  N   UNK     1      -9.627  17.276  66.305  1.00  0.00    -0.373 NA 
HETATM   17  C   UNK     1     -10.119  16.714  68.641  1.00  0.00    -0.270 C  
HETATM   18  O   UNK     1      -8.902  17.308  68.761  1.00  0.00    -0.276 OA 
HETATM   19  O   UNK     1     -10.837  16.441  69.591  1.00  0.00    -0.318 OA 
HETATM   20  H1  UNK     1      -9.833  18.265  66.447  1.00  0.00     0.000 HD 
HETATM   21  H2  UNK     1      -9.738  17.018  65.324  1.00  0.00     0.000 HD 
ENDBRANCH  14  15
ENDBRANCH  13  14
ENDBRANCH  10  13
ENDBRANCH   9  10
ENDBRANCH   8   9
ENDBRANCH   7   8
BRANCH   7  22
HETATM   22  C   UNK     1     -12.344  10.440  70.551  1.00  0.00    -0.322 C  
BRANCH  22  23
HETATM   23  O   UNK     1     -12.169   9.789  71.823  1.00  0.00    -0.382 OA 
BRANCH  23  24
HETATM   24  C   UNK     1     -13.123   8.867  72.133  1.00  0.00    -0.421 C  
HETATM   25  O   UNK     1     -14.315   9.105  72.227  1.00  0.00    -0.372 OA 
BRANCH  24  26
HETATM   26  C   UNK     1     -12.480   7.512  72.319  1.00  0.00    -0.149 C  
HETATM   27  C   UNK     1     -12.444   6.736  71.015  1.00  0.00    -0.318 C  
ENDBRANCH  24  26
ENDBRANCH  23  24
ENDBRANCH  22  23
ENDBRANCH   7  22
ENDBRANCH   6   7
ENDBRANCH   4   6
ENDBRANCH   3   4
ENDBRANCH   2   3
TORSDOF 14
ENDMDL
MODEL      308
REMARK 921   NORMALIZED FREE ENERGY PREDICTED BY IDOCK:   -3.30 KCAL/MOL
REMARK 922        TOTAL FREE ENERGY PREDICTED BY IDOCK:   -7.09 KCAL/MOL
REMARK 923 INTER-LIGAND FREE ENERGY PREDICTED BY IDOCK:   -6.65 KCAL/MOL
REMARK 924 INTRA-LIGAND FREE ENERGY PREDICTED BY IDOCK:   -0.45 KCAL/MOL
REMARK 927      BINDING AFFINITY PREDICTED BY RF-SCORE:    0.00 PKD
ROOT
HETATM    1  C   UNK     1      -8.783   9.825  69.532  1.00  0.00    -0.193 C  
HETATM    2  C   UNK     1     -10.293  10.018  69.584  1.00  0.00    -0.274 C  
ENDROOT
BRANCH   2   3
HETATM    3  C   UNK     1     -10.691  11.489  69.651  1.00  0.00     0.035 C  
BRANCH   3   4
HETATM    4  C   UNK     1     -10.333  12.204  68.374  1.00  0.00    -0.229 C  
HETATM    5  O   UNK     1     -10.486  11.731  67.256  1.00  0.00    -0.205 OA 
BRANCH   4   6
HETATM    6  O   UNK     1      -9.795  13.418  68.643  1.00  0.00    -0.205 OA 
BRANCH   6   7
HETATM    7  C   UNK     1     -10.645  14.460  69.176  1.00  0.00    -0.218 C  
BRANCH   7   8
HETATM    8  C   UNK     1     -10.170  15.872  68.808  1.00  0.00    -0.220 C  
BRANCH   8   9
HETATM    9  O   UNK     1      -9.368  15.861  67.628  1.00  0.00    -0.214 OA 
BRANCH   9  10
HETATM   10  P   UNK     1     -10.256  15.488  66.191  1.00  0.00    -0.354 P  
HETATM   11  O   UNK     1     -11.081  16.898  66.272  1.00  0.00     0.088 OA 
HETATM   12  O   UNK     1      -9.000  15.748  65.357  1.00  0.00    -0.022 OA 
BRANCH  10  13
HETATM   13  O   UNK     1     -11.145  15.116  64.754  1.00  0.00    -0.395 OA 
BRANCH  13  14
HETATM   14  C   UNK     1     -11.893  13.897  64.871  1.00  0.00    -0.387 C  
BRANCH  14  15
HETATM   15  C   UNK     1     -11.890  13.115  63.556  1.00  0.00    -0.476 C  
HETATM   16  N   UNK     1     -13.152  12.353  63.326  1.00  0.00    -0.487 NA 
HETATM   17  C   UNK     1     -10.725  12.130  63.603  1.00  0.00    -0.467 C  
HETATM   18  O   UNK     1     -11.146  10.882  63.939  1.00  0.00    -0.097 OA 
HETATM   19  O   UNK     1      -9.554  12.423  63.417  1.00  0.00    -0.234 OA 
HETATM   20  H1  UNK     1     -13.150  11.831  62.449  1.00  0.00     0.000 HD 
HETATM   21  H2  UNK     1     -13.964  12.968  63.381  1.00  0.00     0.000 HD 
ENDBRANCH  14  15
ENDBRANCH  13  14
ENDBRANCH  10  13
ENDBRANCH   9  10
ENDBRANCH   8   9
ENDBRANCH   7   8
BRANCH   7  22
HETATM   22  C   UNK     1     -12.121  14.241  68.796  1.00  0.00    -0.265 C  
BRANCH  22  23
HETATM   23  O   UNK     1     -12.909  13.838  69.932  1.00  0.00    -0.077 OA 
BRANCH  23  24
HETATM   24  C   UNK     1     -12.984  14.758  70.934  1.00  0.00    -0.364 C  
HETATM   25  O   UNK     1     -13.328  15.918  70.788  1.00  0.00    -0.460 OA 
BRANCH  24  26
HETATM   26  C   UNK     1     -12.599  14.114  72.246  1.00  0.00    -0.304 C  
HETATM   27  C   UNK     1     -12.966  14.999  73.423  1.00  0.00    -0.622 C  
ENDBRANCH  24  26
ENDBRANCH  23  24
ENDBRANCH  22  23
ENDBRANCH   7  22
ENDBRANCH   6   7
ENDBRANCH   4   6
ENDBRANCH   3   4
ENDBRANCH   2   3
TORSDOF 14
ENDMDL
MODEL      309
REMARK 921   NORMALIZED FREE ENERGY PREDICTED BY IDOCK:   -3.30 KCAL/MOL
REMARK 922        TOTAL FREE ENERGY PREDICTED BY IDOCK:   -7.08 KCAL/MOL
REMARK 923 INTER-LIGAND FREE ENERGY PREDICTED BY IDOCK:   -6.22 KCAL/MOL
REMARK 924 INTRA-LIGAND FREE ENERGY PREDICTED BY IDOCK:   -0.87 KCAL/MOL
REMARK 927      BINDING AFFINITY PREDICTED BY RF-SCORE:    0.00 PKD
ROOT
HETATM    1  C   UNK     1      -7.982   9.814  63.560  1.00  0.00    -0.145 C  
HETATM    2  C   UNK     1      -9.429  10.276  63.658  1.00  0.00    -0.348 C  
ENDROOT
BRANCH   2   3
HETATM    3  C   UNK     1      -9.621  11.384  64.688  1.00  0.00    -0.228 C  
BRANCH   3   4
HETATM    4  C   UNK     1     -10.028  10.815  66.023  1.00  0.00    -0.242 C  
HETATM    5  O   UNK     1     -10.538   9.713  66.174  1.00  0.00    -0.101 OA 
BRANCH   4   6
HETATM    6  O   UNK     1      -9.780  11.704  67.015  1.00  0.00    -0.184 OA 
BRANCH   6   7
HETATM    7  C   UNK     1     -10.839  12.591  67.445  1.00  0.00    -0.240 C  
BRANCH   7   8
HETATM    8  C   UNK     1     -11.880  12.862  66.351  1.00  0.00    -0.415 C  
BRANCH   8   9
HETATM    9  O   UNK     1     -12.009  14.260  66.088  1.00  0.00    -0.391 OA 
BRANCH   9  10
HETATM   10  P   UNK     1     -10.603  15.175  66.512  1.00  0.00    -0.314 P  
HETATM   11  O   UNK     1     -10.551  15.878  65.036  1.00  0.00    -0.497 OA 
HETATM   12  O   UNK     1     -11.466  16.068  67.406  1.00  0.00    -0.083 OA 
BRANCH  10  13
HETATM   13  O   UNK     1      -9.197  16.091  66.936  1.00  0.00    -0.206 OA 
BRANCH  13  14
HETATM   14  C   UNK     1      -8.937  16.076  68.347  1.00  0.00    -0.188 C  
BRANCH  14  15
HETATM   15  C   UNK     1      -8.036  14.902  68.732  1.00  0.00    -0.156 C  
HETATM   16  N   UNK     1      -7.815  14.791  70.204  1.00  0.00    -0.237 NA 
HETATM   17  C   UNK     1      -6.686  15.107  68.050  1.00  0.00    -0.141 C  
HETATM   18  O   UNK     1      -5.774  15.636  68.908  1.00  0.00    -0.101 OA 
HETATM   19  O   UNK     1      -6.457  14.880  66.872  1.00  0.00    -0.001 OA 
HETATM   20  H1  UNK     1      -7.214  14.008  70.461  1.00  0.00     0.000 HD 
HETATM   21  H2  UNK     1      -8.704  14.746  70.703  1.00  0.00     0.000 HD 
ENDBRANCH  14  15
ENDBRANCH  13  14
ENDBRANCH  10  13
ENDBRANCH   9  10
ENDBRANCH   8   9
ENDBRANCH   7   8
BRANCH   7  22
HETATM   22  C   UNK     1     -11.498  12.100  68.747  1.00  0.00    -0.307 C  
BRANCH  22  23
HETATM   23  O   UNK     1     -10.635  11.208  69.476  1.00  0.00    -0.194 OA 
BRANCH  23  24
HETATM   24  C   UNK     1     -11.267  10.169  70.090  1.00  0.00    -0.310 C  
HETATM   25  O   UNK     1     -11.050   8.991  69.861  1.00  0.00    -0.223 OA 
BRANCH  24  26
HETATM   26  C   UNK     1     -12.255  10.700  71.102  1.00  0.00    -0.479 C  
HETATM   27  C   UNK     1     -13.269   9.640  71.492  1.00  0.00    -0.484 C  
ENDBRANCH  24  26
ENDBRANCH  23  24
ENDBRANCH  22  23
ENDBRANCH   7  22
ENDBRANCH   6   7
ENDBRANCH   4   6
ENDBRANCH   3   4
ENDBRANCH   2   3
TORSDOF 14
ENDMDL
MODEL      310
REMARK 921   NORMALIZED FREE ENERGY PREDICTED BY IDOCK:   -3.28 KCAL/MOL
REMARK 922        TOTAL FREE ENERGY PREDICTED BY IDOCK:   -7.06 KCAL/MOL
REMARK 923 INTER-LIGAND FREE ENERGY PREDICTED BY IDOCK:   -6.08 KCAL/MOL
REMARK 924 INTRA-LIGAND FREE ENERGY PREDICTED BY IDOCK:   -0.98 KCAL/MOL
REMARK 927      BINDING AFFINITY PREDICTED BY RF-SCORE:    0.00 PKD
ROOT
HETATM    1  C   UNK     1      -7.266   4.531  65.428  1.00  0.00    -0.068 C  
HETATM    2  C   UNK     1      -8.783   4.556  65.553  1.00  0.00    -0.127 C  
ENDROOT
BRANCH   2   3
HETATM    3  C   UNK     1      -9.322   5.950  65.856  1.00  0.00    -0.071 C  
BRANCH   3   4
HETATM    4  C   UNK     1     -10.329   5.908  66.976  1.00  0.00    -0.243 C  
HETATM    5  O   UNK     1     -10.636   4.893  67.587  1.00  0.00    -0.023 OA 
BRANCH   4   6
HETATM    6  O   UNK     1     -10.861   7.137  67.184  1.00  0.00    -0.333 OA 
BRANCH   6   7
HETATM    7  C   UNK     1      -9.984   8.230  67.547  1.00  0.00    -0.193 C  
BRANCH   7   8
HETATM    8  C   UNK     1     -10.642   9.607  67.393  1.00  0.00    -0.268 C  
BRANCH   8   9
HETATM    9  O   UNK     1      -9.760  10.539  66.767  1.00  0.00    -0.170 OA 
BRANCH   9  10
HETATM   10  P   UNK     1     -10.509  12.050  66.383  1.00  0.00    -0.252 P  
HETATM   11  O   UNK     1     -10.510  11.704  64.785  1.00  0.00    -0.265 OA 
HETATM   12  O   UNK     1     -11.829  11.531  66.957  1.00  0.00    -0.568 OA 
BRANCH  10  13
HETATM   13  O   UNK     1     -11.259  13.561  65.999  1.00  0.00    -0.293 OA 
BRANCH  13  14
HETATM   14  C   UNK     1     -11.789  14.222  67.157  1.00  0.00    -0.425 C  
BRANCH  14  15
HETATM   15  C   UNK     1     -10.680  14.891  67.971  1.00  0.00    -0.253 C  
HETATM   16  N   UNK     1     -11.082  15.187  69.377  1.00  0.00    -0.260 NA 
HETATM   17  C   UNK     1     -10.321  16.203  67.278  1.00  0.00    -0.287 C  
HETATM   18  O   UNK     1     -10.923  17.261  67.882  1.00  0.00    -0.336 OA 
HETATM   19  O   UNK     1      -9.628  16.299  66.277  1.00  0.00    -0.268 OA 
HETATM   20  H1  UNK     1     -10.342  15.633  69.919  1.00  0.00     0.000 HD 
HETATM   21  H2  UNK     1     -11.418  14.345  69.844  1.00  0.00     0.000 HD 
ENDBRANCH  14  15
ENDBRANCH  13  14
ENDBRANCH  10  13
ENDBRANCH   9  10
ENDBRANCH   8   9
ENDBRANCH   7   8
BRANCH   7  22
HETATM   22  C   UNK     1      -9.391   8.038  68.955  1.00  0.00    -0.147 C  
BRANCH  22  23
HETATM   23  O   UNK     1     -10.404   8.119  69.975  1.00  0.00    -0.206 OA 
BRANCH  23  24
HETATM   24  C   UNK     1     -10.867   6.919  70.422  1.00  0.00    -0.261 C  
HETATM   25  O   UNK     1     -12.046   6.629  70.539  1.00  0.00    -0.390 OA 
BRANCH  24  26
HETATM   26  C   UNK     1      -9.703   6.005  70.726  1.00  0.00    -0.208 C  
HETATM   27  C   UNK     1     -10.171   4.586  70.996  1.00  0.00    -0.167 C  
ENDBRANCH  24  26
ENDBRANCH  23  24
ENDBRANCH  22  23
ENDBRANCH   7  22
ENDBRANCH   6   7
ENDBRANCH   4   6
ENDBRANCH   3   4
ENDBRANCH   2   3
TORSDOF 14
ENDMDL
MODEL      311
REMARK 921   NORMALIZED FREE ENERGY PREDICTED BY IDOCK:   -3.27 KCAL/MOL
REMARK 922        TOTAL FREE ENERGY PREDICTED BY IDOCK:   -7.04 KCAL/MOL
REMARK 923 INTER-LIGAND FREE ENERGY PREDICTED BY IDOCK:   -6.71 KCAL/MOL
REMARK 924 INTRA-LIGAND FREE ENERGY PREDICTED BY IDOCK:   -0.33 KCAL/MOL
REMARK 927      BINDING AFFINITY PREDICTED BY RF-SCORE:    0.00 PKD
ROOT
HETATM    1  C   UNK     1      -5.399  13.074  70.457  1.00  0.00    -0.145 C  
HETATM    2  C   UNK     1      -6.173  11.837  70.024  1.00  0.00    -0.136 C  
ENDROOT
BRANCH   2   3
HETATM    3  C   UNK     1      -6.189  11.659  68.509  1.00  0.00    -0.051 C  
BRANCH   3   4
HETATM    4  C   UNK     1      -7.579  11.848  67.958  1.00  0.00    -0.122 C  
HETATM    5  O   UNK     1      -8.229  12.878  68.072  1.00  0.00    -0.147 OA 
BRANCH   4   6
HETATM    6  O   UNK     1      -8.009  10.713  67.354  1.00  0.00    -0.109 OA 
BRANCH   6   7
HETATM    7  C   UNK     1      -9.248  10.109  67.795  1.00  0.00    -0.137 C  
BRANCH   7   8
HETATM    8  C   UNK     1     -10.119   9.607  66.636  1.00  0.00    -0.239 C  
BRANCH   8   9
HETATM    9  O   UNK     1     -10.440  10.663  65.730  1.00  0.00    -0.232 OA 
BRANCH   9  10
HETATM   10  P   UNK     1     -11.219  12.010  66.486  1.00  0.00    -0.333 P  
HETATM   11  O   UNK     1     -12.410  12.018  65.366  1.00  0.00    -0.457 OA 
HETATM   12  O   UNK     1     -11.676  11.096  67.624  1.00  0.00    -0.573 OA 
BRANCH  10  13
HETATM   13  O   UNK     1     -11.997  13.358  67.242  1.00  0.00    -0.362 OA 
BRANCH  13  14
HETATM   14  C   UNK     1     -12.192  14.456  66.339  1.00  0.00    -0.340 C  
BRANCH  14  15
HETATM   15  C   UNK     1     -10.865  14.929  65.744  1.00  0.00    -0.339 C  
HETATM   16  N   UNK     1      -9.869  15.331  66.780  1.00  0.00    -0.230 NA 
HETATM   17  C   UNK     1     -11.156  16.133  64.852  1.00  0.00    -0.325 C  
HETATM   18  O   UNK     1     -10.883  17.300  65.494  1.00  0.00    -0.405 OA 
HETATM   19  O   UNK     1     -11.625  16.072  63.726  1.00  0.00    -0.613 OA 
HETATM   20  H1  UNK     1      -8.984  15.646  66.383  1.00  0.00     0.000 HD 
HETATM   21  H2  UNK     1      -9.719  14.578  67.452  1.00  0.00     0.000 HD 
ENDBRANCH  14  15
ENDBRANCH  13  14
ENDBRANCH  10  13
ENDBRANCH   9  10
ENDBRANCH   8   9
ENDBRANCH   7   8
BRANCH   7  22
HETATM   22  C   UNK     1      -9.002   9.006  68.841  1.00  0.00    -0.140 C  
BRANCH  22  23
HETATM   23  O   UNK     1     -10.068   8.942  69.807  1.00  0.00    -0.188 OA 
BRANCH  23  24
HETATM   24  C   UNK     1     -10.324   7.698  70.299  1.00  0.00    -0.214 C  
HETATM   25  O   UNK     1     -10.313   6.673  69.638  1.00  0.00    -0.180 OA 
BRANCH  24  26
HETATM   26  C   UNK     1     -10.599   7.783  71.782  1.00  0.00    -0.260 C  
HETATM   27  C   UNK     1     -11.694   8.790  72.083  1.00  0.00    -0.433 C  
ENDBRANCH  24  26
ENDBRANCH  23  24
ENDBRANCH  22  23
ENDBRANCH   7  22
ENDBRANCH   6   7
ENDBRANCH   4   6
ENDBRANCH   3   4
ENDBRANCH   2   3
TORSDOF 14
ENDMDL
MODEL      312
REMARK 921   NORMALIZED FREE ENERGY PREDICTED BY IDOCK:   -3.27 KCAL/MOL
REMARK 922        TOTAL FREE ENERGY PREDICTED BY IDOCK:   -7.04 KCAL/MOL
REMARK 923 INTER-LIGAND FREE ENERGY PREDICTED BY IDOCK:   -6.11 KCAL/MOL
REMARK 924 INTRA-LIGAND FREE ENERGY PREDICTED BY IDOCK:   -0.93 KCAL/MOL
REMARK 927      BINDING AFFINITY PREDICTED BY RF-SCORE:    0.00 PKD
ROOT
HETATM    1  C   UNK     1     -11.908   5.977  71.526  1.00  0.00    -0.089 C  
HETATM    2  C   UNK     1     -12.828   7.184  71.403  1.00  0.00    -0.431 C  
ENDROOT
BRANCH   2   3
HETATM    3  C   UNK     1     -12.271   8.417  72.106  1.00  0.00    -0.434 C  
BRANCH   3   4
HETATM    4  C   UNK     1     -12.370   9.634  71.222  1.00  0.00    -0.360 C  
HETATM    5  O   UNK     1     -13.423  10.169  70.906  1.00  0.00    -0.345 OA 
BRANCH   4   6
HETATM    6  O   UNK     1     -11.140  10.022  70.808  1.00  0.00    -0.311 OA 
BRANCH   6   7
HETATM    7  C   UNK     1     -10.382   9.146  69.941  1.00  0.00    -0.212 C  
BRANCH   7   8
HETATM    8  C   UNK     1     -10.544   9.483  68.453  1.00  0.00    -0.219 C  
BRANCH   8   9
HETATM    9  O   UNK     1      -9.683  10.553  68.064  1.00  0.00    -0.145 OA 
BRANCH   9  10
HETATM   10  P   UNK     1     -10.445  11.715  67.033  1.00  0.00    -0.244 P  
HETATM   11  O   UNK     1     -11.837  11.638  67.887  1.00  0.00    -0.543 OA 
HETATM   12  O   UNK     1      -9.591  12.818  67.660  1.00  0.00    -0.182 OA 
BRANCH  10  13
HETATM   13  O   UNK     1     -11.207  12.876  66.002  1.00  0.00    -0.280 OA 
BRANCH  13  14
HETATM   14  C   UNK     1     -10.807  14.221  66.300  1.00  0.00    -0.310 C  
BRANCH  14  15
HETATM   15  C   UNK     1     -10.454  14.991  65.025  1.00  0.00    -0.386 C  
HETATM   16  N   UNK     1      -9.503  16.115  65.264  1.00  0.00    -0.215 NA 
HETATM   17  C   UNK     1     -11.749  15.560  64.451  1.00  0.00    -0.242 C  
HETATM   18  O   UNK     1     -11.902  16.869  64.782  1.00  0.00     0.163 OA 
HETATM   19  O   UNK     1     -12.576  14.919  63.821  1.00  0.00    -0.791 OA 
HETATM   20  H1  UNK     1      -9.267  16.628  64.414  1.00  0.00     0.000 HD 
HETATM   21  H2  UNK     1      -8.660  15.784  65.734  1.00  0.00     0.000 HD 
ENDBRANCH  14  15
ENDBRANCH  13  14
ENDBRANCH  10  13
ENDBRANCH   9  10
ENDBRANCH   8   9
ENDBRANCH   7   8
BRANCH   7  22
HETATM   22  C   UNK     1      -8.898   9.085  70.350  1.00  0.00    -0.200 C  
BRANCH  22  23
HETATM   23  O   UNK     1      -8.231   7.952  69.763  1.00  0.00    -0.117 OA 
BRANCH  23  24
HETATM   24  C   UNK     1      -7.074   8.244  69.106  1.00  0.00    -0.064 C  
HETATM   25  O   UNK     1      -6.814   9.323  68.602  1.00  0.00    -0.060 OA 
BRANCH  24  26
HETATM   26  C   UNK     1      -6.162   7.039  69.119  1.00  0.00    -0.031 C  
HETATM   27  C   UNK     1      -6.696   5.934  68.224  1.00  0.00    -0.057 C  
ENDBRANCH  24  26
ENDBRANCH  23  24
ENDBRANCH  22  23
ENDBRANCH   7  22
ENDBRANCH   6   7
ENDBRANCH   4   6
ENDBRANCH   3   4
ENDBRANCH   2   3
TORSDOF 14
ENDMDL
MODEL      313
REMARK 921   NORMALIZED FREE ENERGY PREDICTED BY IDOCK:   -3.26 KCAL/MOL
REMARK 922        TOTAL FREE ENERGY PREDICTED BY IDOCK:   -7.02 KCAL/MOL
REMARK 923 INTER-LIGAND FREE ENERGY PREDICTED BY IDOCK:   -5.49 KCAL/MOL
REMARK 924 INTRA-LIGAND FREE ENERGY PREDICTED BY IDOCK:   -1.54 KCAL/MOL
REMARK 927      BINDING AFFINITY PREDICTED BY RF-SCORE:    0.00 PKD
ROOT
HETATM    1  C   UNK     1     -11.759  12.826  68.188  1.00  0.00    -0.392 C  
HETATM    2  C   UNK     1     -11.946  12.426  69.645  1.00  0.00    -0.341 C  
ENDROOT
BRANCH   2   3
HETATM    3  C   UNK     1     -12.139  10.923  69.818  1.00  0.00    -0.409 C  
BRANCH   3   4
HETATM    4  C   UNK     1     -10.845  10.253  70.202  1.00  0.00    -0.302 C  
HETATM    5  O   UNK     1      -9.849  10.223  69.491  1.00  0.00    -0.224 OA 
BRANCH   4   6
HETATM    6  O   UNK     1     -10.955   9.669  71.419  1.00  0.00    -0.360 OA 
BRANCH   6   7
HETATM    7  C   UNK     1     -10.386   8.353  71.622  1.00  0.00    -0.243 C  
BRANCH   7   8
HETATM    8  C   UNK     1      -9.110   8.373  72.473  1.00  0.00    -0.256 C  
BRANCH   8   9
HETATM    9  O   UNK     1      -7.938   8.326  71.658  1.00  0.00    -0.106 OA 
BRANCH   9  10
HETATM   10  P   UNK     1      -8.100   7.300  70.274  1.00  0.00    -0.123 P  
HETATM   11  O   UNK     1      -7.012   8.182  69.429  1.00  0.00    -0.049 OA 
HETATM   12  O   UNK     1      -7.322   6.205  71.006  1.00  0.00    -0.079 OA 
BRANCH  10  13
HETATM   13  O   UNK     1      -8.261   6.275  68.890  1.00  0.00    -0.111 OA 
BRANCH  13  14
HETATM   14  C   UNK     1      -9.551   6.389  68.270  1.00  0.00    -0.123 C  
BRANCH  14  15
HETATM   15  C   UNK     1      -9.425   6.537  66.752  1.00  0.00    -0.158 C  
HETATM   16  N   UNK     1      -8.204   5.880  66.199  1.00  0.00    -0.112 NA 
HETATM   17  C   UNK     1      -9.366   8.028  66.432  1.00  0.00    -0.200 C  
HETATM   18  O   UNK     1      -8.086   8.439  66.228  1.00  0.00    -0.099 OA 
HETATM   19  O   UNK     1     -10.329   8.778  66.413  1.00  0.00    -0.271 OA 
HETATM   20  H1  UNK     1      -8.121   5.978  65.187  1.00  0.00     0.000 HD 
HETATM   21  H2  UNK     1      -8.164   4.899  66.474  1.00  0.00     0.000 HD 
ENDBRANCH  14  15
ENDBRANCH  13  14
ENDBRANCH  10  13
ENDBRANCH   9  10
ENDBRANCH   8   9
ENDBRANCH   7   8
BRANCH   7  22
HETATM   22  C   UNK     1     -11.425   7.364  72.179  1.00  0.00    -0.282 C  
BRANCH  22  23
HETATM   23  O   UNK     1     -10.815   6.372  73.026  1.00  0.00    -0.244 OA 
BRANCH  23  24
HETATM   24  C   UNK     1     -10.795   5.111  72.512  1.00  0.00    -0.223 C  
HETATM   25  O   UNK     1     -10.436   4.826  71.382  1.00  0.00    -0.159 OA 
BRANCH  24  26
HETATM   26  C   UNK     1     -11.265   4.127  73.559  1.00  0.00    -0.341 C  
HETATM   27  C   UNK     1     -10.809   2.716  73.234  1.00  0.00    -0.278 C  
ENDBRANCH  24  26
ENDBRANCH  23  24
ENDBRANCH  22  23
ENDBRANCH   7  22
ENDBRANCH   6   7
ENDBRANCH   4   6
ENDBRANCH   3   4
ENDBRANCH   2   3
TORSDOF 14
ENDMDL
MODEL      314
REMARK 921   NORMALIZED FREE ENERGY PREDICTED BY IDOCK:   -3.26 KCAL/MOL
REMARK 922        TOTAL FREE ENERGY PREDICTED BY IDOCK:   -7.01 KCAL/MOL
REMARK 923 INTER-LIGAND FREE ENERGY PREDICTED BY IDOCK:   -5.79 KCAL/MOL
REMARK 924 INTRA-LIGAND FREE ENERGY PREDICTED BY IDOCK:   -1.22 KCAL/MOL
REMARK 927      BINDING AFFINITY PREDICTED BY RF-SCORE:    0.00 PKD
ROOT
HETATM    1  C   UNK     1      -9.593   3.029  71.827  1.00  0.00    -0.224 C  
HETATM    2  C   UNK     1      -9.508   3.526  70.390  1.00  0.00    -0.254 C  
ENDROOT
BRANCH   2   3
HETATM    3  C   UNK     1     -10.004   4.960  70.238  1.00  0.00    -0.321 C  
BRANCH   3   4
HETATM    4  C   UNK     1      -8.851   5.918  70.086  1.00  0.00    -0.142 C  
HETATM    5  O   UNK     1      -7.674   5.587  70.120  1.00  0.00    -0.081 OA 
BRANCH   4   6
HETATM    6  O   UNK     1      -9.303   7.187  69.942  1.00  0.00    -0.151 OA 
BRANCH   6   7
HETATM    7  C   UNK     1      -9.999   7.551  68.726  1.00  0.00    -0.172 C  
BRANCH   7   8
HETATM    8  C   UNK     1     -10.607   8.959  68.778  1.00  0.00    -0.157 C  
BRANCH   8   9
HETATM    9  O   UNK     1      -9.698   9.937  68.272  1.00  0.00    -0.142 OA 
BRANCH   9  10
HETATM   10  P   UNK     1     -10.404  10.995  67.099  1.00  0.00    -0.243 P  
HETATM   11  O   UNK     1     -11.821  11.041  67.915  1.00  0.00    -0.600 OA 
HETATM   12  O   UNK     1      -9.541  12.142  67.628  1.00  0.00    -0.182 OA 
BRANCH  10  13
HETATM   13  O   UNK     1     -11.109  12.053  65.926  1.00  0.00    -0.301 OA 
BRANCH  13  14
HETATM   14  C   UNK     1     -10.504  13.354  65.926  1.00  0.00    -0.287 C  
BRANCH  14  15
HETATM   15  C   UNK     1     -11.560  14.457  66.023  1.00  0.00    -0.363 C  
HETATM   16  N   UNK     1     -11.176  15.701  65.293  1.00  0.00    -0.278 NA 
HETATM   17  C   UNK     1     -11.748  14.794  67.500  1.00  0.00    -0.348 C  
HETATM   18  O   UNK     1     -11.053  15.911  67.843  1.00  0.00    -0.331 OA 
HETATM   19  O   UNK     1     -12.391  14.125  68.294  1.00  0.00    -0.246 OA 
HETATM   20  H1  UNK     1     -11.881  16.436  65.358  1.00  0.00     0.000 HD 
HETATM   21  H2  UNK     1     -10.953  15.497  64.319  1.00  0.00     0.000 HD 
ENDBRANCH  14  15
ENDBRANCH  13  14
ENDBRANCH  10  13
ENDBRANCH   9  10
ENDBRANCH   8   9
ENDBRANCH   7   8
BRANCH   7  22
HETATM   22  C   UNK     1      -9.110   7.362  67.483  1.00  0.00    -0.125 C  
BRANCH  22  23
HETATM   23  O   UNK     1      -9.784   6.609  66.457  1.00  0.00    -0.168 OA 
BRANCH  23  24
HETATM   24  C   UNK     1      -9.118   5.502  66.025  1.00  0.00    -0.156 C  
HETATM   25  O   UNK     1      -8.047   5.519  65.443  1.00  0.00    -0.111 OA 
BRANCH  24  26
HETATM   26  C   UNK     1      -9.897   4.261  66.395  1.00  0.00    -0.236 C  
HETATM   27  C   UNK     1      -8.976   3.153  66.871  1.00  0.00    -0.177 C  
ENDBRANCH  24  26
ENDBRANCH  23  24
ENDBRANCH  22  23
ENDBRANCH   7  22
ENDBRANCH   6   7
ENDBRANCH   4   6
ENDBRANCH   3   4
ENDBRANCH   2   3
TORSDOF 14
ENDMDL
MODEL      315
REMARK 921   NORMALIZED FREE ENERGY PREDICTED BY IDOCK:   -3.25 KCAL/MOL
REMARK 922        TOTAL FREE ENERGY PREDICTED BY IDOCK:   -6.99 KCAL/MOL
REMARK 923 INTER-LIGAND FREE ENERGY PREDICTED BY IDOCK:   -5.94 KCAL/MOL
REMARK 924 INTRA-LIGAND FREE ENERGY PREDICTED BY IDOCK:   -1.05 KCAL/MOL
REMARK 927      BINDING AFFINITY PREDICTED BY RF-SCORE:    0.00 PKD
ROOT
HETATM    1  C   UNK     1      -5.284  14.300  70.032  1.00  0.00    -0.094 C  
HETATM    2  C   UNK     1      -5.887  12.933  69.739  1.00  0.00    -0.121 C  
ENDROOT
BRANCH   2   3
HETATM    3  C   UNK     1      -6.219  12.745  68.262  1.00  0.00    -0.078 C  
BRANCH   3   4
HETATM    4  C   UNK     1      -7.702  12.871  68.022  1.00  0.00    -0.143 C  
HETATM    5  O   UNK     1      -8.483  13.393  68.806  1.00  0.00    -0.049 OA 
BRANCH   4   6
HETATM    6  O   UNK     1      -8.042  12.300  66.842  1.00  0.00    -0.163 OA 
BRANCH   6   7
HETATM    7  C   UNK     1      -9.344  11.682  66.710  1.00  0.00    -0.186 C  
BRANCH   7   8
HETATM    8  C   UNK     1     -10.139  12.202  65.505  1.00  0.00    -0.248 C  
BRANCH   8   9
HETATM    9  O   UNK     1     -10.019  13.619  65.375  1.00  0.00    -0.283 OA 
BRANCH   9  10
HETATM   10  P   UNK     1     -10.706  14.496  66.698  1.00  0.00    -0.317 P  
HETATM   11  O   UNK     1      -9.752  15.792  66.405  1.00  0.00    -0.246 OA 
HETATM   12  O   UNK     1     -11.991  14.691  65.890  1.00  0.00    -0.332 OA 
BRANCH  10  13
HETATM   13  O   UNK     1     -11.394  15.374  68.022  1.00  0.00    -0.327 OA 
BRANCH  13  14
HETATM   14  C   UNK     1     -12.305  14.578  68.793  1.00  0.00    -0.029 C  
BRANCH  14  15
HETATM   15  C   UNK     1     -11.617  13.979  70.021  1.00  0.00    -0.232 C  
HETATM   16  N   UNK     1     -11.389  12.509  69.906  1.00  0.00    -0.509 NA 
HETATM   17  C   UNK     1     -12.510  14.243  71.231  1.00  0.00    -0.365 C  
HETATM   18  O   UNK     1     -13.251  13.147  71.545  1.00  0.00    -0.350 OA 
HETATM   19  O   UNK     1     -12.598  15.311  71.816  1.00  0.00    -0.313 OA 
HETATM   20  H1  UNK     1     -10.930  12.110  70.725  1.00  0.00     0.000 HD 
HETATM   21  H2  UNK     1     -10.872  12.287  69.056  1.00  0.00     0.000 HD 
ENDBRANCH  14  15
ENDBRANCH  13  14
ENDBRANCH  10  13
ENDBRANCH   9  10
ENDBRANCH   8   9
ENDBRANCH   7   8
BRANCH   7  22
HETATM   22  C   UNK     1      -9.246  10.145  66.704  1.00  0.00    -0.155 C  
BRANCH  22  23
HETATM   23  O   UNK     1      -9.302   9.604  68.037  1.00  0.00    -0.132 OA 
BRANCH  23  24
HETATM   24  C   UNK     1     -10.215   8.609  68.216  1.00  0.00    -0.198 C  
HETATM   25  O   UNK     1     -10.709   8.304  69.288  1.00  0.00    -0.211 OA 
BRANCH  24  26
HETATM   26  C   UNK     1     -10.532   7.963  66.887  1.00  0.00    -0.388 C  
HETATM   27  C   UNK     1     -10.959   6.517  67.064  1.00  0.00    -0.466 C  
ENDBRANCH  24  26
ENDBRANCH  23  24
ENDBRANCH  22  23
ENDBRANCH   7  22
ENDBRANCH   6   7
ENDBRANCH   4   6
ENDBRANCH   3   4
ENDBRANCH   2   3
TORSDOF 14
ENDMDL
MODEL      316
REMARK 921   NORMALIZED FREE ENERGY PREDICTED BY IDOCK:   -3.25 KCAL/MOL
REMARK 922        TOTAL FREE ENERGY PREDICTED BY IDOCK:   -6.99 KCAL/MOL
REMARK 923 INTER-LIGAND FREE ENERGY PREDICTED BY IDOCK:   -5.90 KCAL/MOL
REMARK 924 INTRA-LIGAND FREE ENERGY PREDICTED BY IDOCK:   -1.09 KCAL/MOL
REMARK 927      BINDING AFFINITY PREDICTED BY RF-SCORE:    0.00 PKD
ROOT
HETATM    1  C   UNK     1      -6.103  10.773  67.017  1.00  0.00    -0.068 C  
HETATM    2  C   UNK     1      -6.582   9.329  66.954  1.00  0.00    -0.068 C  
ENDROOT
BRANCH   2   3
HETATM    3  C   UNK     1      -6.718   8.698  68.336  1.00  0.00    -0.064 C  
BRANCH   3   4
HETATM    4  C   UNK     1      -8.096   8.120  68.532  1.00  0.00    -0.124 C  
HETATM    5  O   UNK     1      -8.725   7.532  67.663  1.00  0.00    -0.122 OA 
BRANCH   4   6
HETATM    6  O   UNK     1      -8.544   8.373  69.786  1.00  0.00    -0.128 OA 
BRANCH   6   7
HETATM    7  C   UNK     1      -9.602   9.342  69.972  1.00  0.00    -0.226 C  
BRANCH   7   8
HETATM    8  C   UNK     1      -9.504  10.535  69.011  1.00  0.00    -0.201 C  
BRANCH   8   9
HETATM    9  O   UNK     1     -10.508  10.472  67.998  1.00  0.00    -0.174 OA 
BRANCH   9  10
HETATM   10  P   UNK     1     -11.105  12.023  67.519  1.00  0.00    -0.318 P  
HETATM   11  O   UNK     1     -11.758  12.286  68.995  1.00  0.00    -0.287 OA 
HETATM   12  O   UNK     1      -9.678  12.573  67.552  1.00  0.00    -0.190 OA 
BRANCH  10  13
HETATM   13  O   UNK     1     -11.703  13.574  67.040  1.00  0.00    -0.341 OA 
BRANCH  13  14
HETATM   14  C   UNK     1     -10.691  14.591  67.088  1.00  0.00    -0.286 C  
BRANCH  14  15
HETATM   15  C   UNK     1     -11.284  15.945  67.485  1.00  0.00    -0.171 C  
HETATM   16  N   UNK     1     -10.501  17.102  66.962  1.00  0.00    -0.309 NA 
HETATM   17  C   UNK     1     -11.304  16.016  69.009  1.00  0.00    -0.363 C  
HETATM   18  O   UNK     1     -10.249  16.731  69.484  1.00  0.00    -0.248 OA 
HETATM   19  O   UNK     1     -12.123  15.461  69.725  1.00  0.00    -0.337 OA 
HETATM   20  H1  UNK     1     -10.896  18.005  67.227  1.00  0.00     0.000 HD 
HETATM   21  H2  UNK     1     -10.387  17.037  65.951  1.00  0.00     0.000 HD 
ENDBRANCH  14  15
ENDBRANCH  13  14
ENDBRANCH  10  13
ENDBRANCH   9  10
ENDBRANCH   8   9
ENDBRANCH   7   8
BRANCH   7  22
HETATM   22  C   UNK     1     -10.992   8.683  69.918  1.00  0.00    -0.168 C  
BRANCH  22  23
HETATM   23  O   UNK     1     -11.164   7.717  70.971  1.00  0.00    -0.257 OA 
BRANCH  23  24
HETATM   24  C   UNK     1     -11.467   8.244  72.191  1.00  0.00    -0.361 C  
HETATM   25  O   UNK     1     -12.247   9.162  72.376  1.00  0.00    -0.307 OA 
BRANCH  24  26
HETATM   26  C   UNK     1     -10.708   7.504  73.268  1.00  0.00    -0.437 C  
HETATM   27  C   UNK     1      -9.250   7.923  73.302  1.00  0.00    -0.346 C  
ENDBRANCH  24  26
ENDBRANCH  23  24
ENDBRANCH  22  23
ENDBRANCH   7  22
ENDBRANCH   6   7
ENDBRANCH   4   6
ENDBRANCH   3   4
ENDBRANCH   2   3
TORSDOF 14
ENDMDL
MODEL      317
REMARK 921   NORMALIZED FREE ENERGY PREDICTED BY IDOCK:   -3.24 KCAL/MOL
REMARK 922        TOTAL FREE ENERGY PREDICTED BY IDOCK:   -6.98 KCAL/MOL
REMARK 923 INTER-LIGAND FREE ENERGY PREDICTED BY IDOCK:   -6.17 KCAL/MOL
REMARK 924 INTRA-LIGAND FREE ENERGY PREDICTED BY IDOCK:   -0.81 KCAL/MOL
REMARK 927      BINDING AFFINITY PREDICTED BY RF-SCORE:    0.00 PKD
ROOT
HETATM    1  C   UNK     1      -7.833   8.889  71.083  1.00  0.00    -0.172 C  
HETATM    2  C   UNK     1      -9.038   8.719  71.998  1.00  0.00    -0.259 C  
ENDROOT
BRANCH   2   3
HETATM    3  C   UNK     1     -10.360   8.787  71.241  1.00  0.00    -0.331 C  
BRANCH   3   4
HETATM    4  C   UNK     1     -11.255   7.632  71.611  1.00  0.00    -0.247 C  
HETATM    5  O   UNK     1     -11.447   7.252  72.758  1.00  0.00    -0.288 OA 
BRANCH   4   6
HETATM    6  O   UNK     1     -11.782   7.064  70.500  1.00  0.00    -0.324 OA 
BRANCH   6   7
HETATM    7  C   UNK     1     -11.161   5.875  69.956  1.00  0.00    -0.341 C  
BRANCH   7   8
HETATM    8  C   UNK     1     -10.846   5.991  68.459  1.00  0.00    -0.286 C  
BRANCH   8   9
HETATM    9  O   UNK     1      -9.495   6.397  68.240  1.00  0.00    -0.123 OA 
BRANCH   9  10
HETATM   10  P   UNK     1      -9.350   7.975  67.547  1.00  0.00    -0.156 P  
HETATM   11  O   UNK     1      -8.177   7.476  66.523  1.00  0.00    -0.115 OA 
HETATM   12  O   UNK     1     -10.688   7.774  66.833  1.00  0.00    -0.345 OA 
BRANCH  10  13
HETATM   13  O   UNK     1      -9.205   9.554  66.855  1.00  0.00    -0.138 OA 
BRANCH  13  14
HETATM   14  C   UNK     1     -10.478  10.125  66.519  1.00  0.00    -0.166 C  
BRANCH  14  15
HETATM   15  C   UNK     1     -10.352  11.122  65.366  1.00  0.00    -0.271 C  
HETATM   16  N   UNK     1      -8.948  11.566  65.127  1.00  0.00    -0.402 NA 
HETATM   17  C   UNK     1     -11.199  12.345  65.712  1.00  0.00    -0.333 C  
HETATM   18  O   UNK     1     -10.432  13.352  66.207  1.00  0.00    -0.280 OA 
HETATM   19  O   UNK     1     -12.415  12.403  65.614  1.00  0.00    -0.640 OA 
HETATM   20  H1  UNK     1      -8.864  12.231  64.358  1.00  0.00     0.000 HD 
HETATM   21  H2  UNK     1      -8.333  10.765  64.983  1.00  0.00     0.000 HD 
ENDBRANCH  14  15
ENDBRANCH  13  14
ENDBRANCH  10  13
ENDBRANCH   9  10
ENDBRANCH   8   9
ENDBRANCH   7   8
BRANCH   7  22
HETATM   22  C   UNK     1      -9.919   5.462  70.767  1.00  0.00    -0.204 C  
BRANCH  22  23
HETATM   23  O   UNK     1     -10.200   4.355  71.644  1.00  0.00    -0.181 OA 
BRANCH  23  24
HETATM   24  C   UNK     1      -9.588   3.186  71.309  1.00  0.00    -0.159 C  
HETATM   25  O   UNK     1      -9.771   2.120  71.873  1.00  0.00    -0.118 OA 
BRANCH  24  26
HETATM   26  C   UNK     1      -8.673   3.410  70.128  1.00  0.00    -0.123 C  
HETATM   27  C   UNK     1      -8.995   2.456  68.992  1.00  0.00    -0.169 C  
ENDBRANCH  24  26
ENDBRANCH  23  24
ENDBRANCH  22  23
ENDBRANCH   7  22
ENDBRANCH   6   7
ENDBRANCH   4   6
ENDBRANCH   3   4
ENDBRANCH   2   3
TORSDOF 14
ENDMDL
MODEL      318
REMARK 921   NORMALIZED FREE ENERGY PREDICTED BY IDOCK:   -3.24 KCAL/MOL
REMARK 922        TOTAL FREE ENERGY PREDICTED BY IDOCK:   -6.98 KCAL/MOL
REMARK 923 INTER-LIGAND FREE ENERGY PREDICTED BY IDOCK:   -5.81 KCAL/MOL
REMARK 924 INTRA-LIGAND FREE ENERGY PREDICTED BY IDOCK:   -1.18 KCAL/MOL
REMARK 927      BINDING AFFINITY PREDICTED BY RF-SCORE:    0.00 PKD
ROOT
HETATM    1  C   UNK     1      -9.302  20.410  66.877  1.00  0.00    -0.477 C  
HETATM    2  C   UNK     1      -9.548  18.909  66.822  1.00  0.00    -0.354 C  
ENDROOT
BRANCH   2   3
HETATM    3  C   UNK     1     -10.638  18.460  67.790  1.00  0.00    -0.419 C  
BRANCH   3   4
HETATM    4  C   UNK     1     -10.503  16.994  68.112  1.00  0.00    -0.357 C  
HETATM    5  O   UNK     1     -11.048  16.446  69.060  1.00  0.00    -0.318 OA 
BRANCH   4   6
HETATM    6  O   UNK     1      -9.675  16.387  67.227  1.00  0.00    -0.233 OA 
BRANCH   6   7
HETATM    7  C   UNK     1      -8.898  15.246  67.661  1.00  0.00    -0.175 C  
BRANCH   7   8
HETATM    8  C   UNK     1      -9.391  13.920  67.067  1.00  0.00    -0.251 C  
BRANCH   8   9
HETATM    9  O   UNK     1      -8.563  12.829  67.470  1.00  0.00    -0.165 OA 
BRANCH   9  10
HETATM   10  P   UNK     1      -9.396  11.313  67.527  1.00  0.00    -0.166 P  
HETATM   11  O   UNK     1      -9.155  11.060  65.930  1.00  0.00    -0.186 OA 
HETATM   12  O   UNK     1      -8.206  10.698  68.266  1.00  0.00    -0.111 OA 
BRANCH  10  13
HETATM   13  O   UNK     1     -10.229   9.798  67.585  1.00  0.00    -0.185 OA 
BRANCH  13  14
HETATM   14  C   UNK     1      -9.832   8.913  66.527  1.00  0.00    -0.274 C  
BRANCH  14  15
HETATM   15  C   UNK     1      -9.254   7.610  67.082  1.00  0.00    -0.132 C  
HETATM   16  N   UNK     1      -8.117   7.082  66.272  1.00  0.00    -0.110 NA 
HETATM   17  C   UNK     1     -10.372   6.570  67.091  1.00  0.00    -0.247 C  
HETATM   18  O   UNK     1     -10.285   5.743  66.015  1.00  0.00    -0.038 OA 
HETATM   19  O   UNK     1     -11.266   6.512  67.920  1.00  0.00    -0.292 OA 
HETATM   20  H1  UNK     1      -7.731   6.213  66.643  1.00  0.00     0.000 HD 
HETATM   21  H2  UNK     1      -7.388   7.787  66.167  1.00  0.00     0.000 HD 
ENDBRANCH  14  15
ENDBRANCH  13  14
ENDBRANCH  10  13
ENDBRANCH   9  10
ENDBRANCH   8   9
ENDBRANCH   7   8
BRANCH   7  22
HETATM   22  C   UNK     1      -7.393  15.455  67.412  1.00  0.00    -0.213 C  
BRANCH  22  23
HETATM   23  O   UNK     1      -6.918  16.674  68.015  1.00  0.00    -0.141 OA 
BRANCH  23  24
HETATM   24  C   UNK     1      -6.122  17.437  67.217  1.00  0.00    -0.139 C  
HETATM   25  O   UNK     1      -5.603  17.054  66.182  1.00  0.00    -0.321 OA 
BRANCH  24  26
HETATM   26  C   UNK     1      -5.999  18.827  67.799  1.00  0.00    -0.189 C  
HETATM   27  C   UNK     1      -6.466  18.863  69.243  1.00  0.00    -0.311 C  
ENDBRANCH  24  26
ENDBRANCH  23  24
ENDBRANCH  22  23
ENDBRANCH   7  22
ENDBRANCH   6   7
ENDBRANCH   4   6
ENDBRANCH   3   4
ENDBRANCH   2   3
TORSDOF 14
ENDMDL
MODEL      319
REMARK 921   NORMALIZED FREE ENERGY PREDICTED BY IDOCK:   -3.23 KCAL/MOL
REMARK 922        TOTAL FREE ENERGY PREDICTED BY IDOCK:   -6.96 KCAL/MOL
REMARK 923 INTER-LIGAND FREE ENERGY PREDICTED BY IDOCK:   -5.87 KCAL/MOL
REMARK 924 INTRA-LIGAND FREE ENERGY PREDICTED BY IDOCK:   -1.09 KCAL/MOL
REMARK 927      BINDING AFFINITY PREDICTED BY RF-SCORE:    0.00 PKD
ROOT
HETATM    1  C   UNK     1      -9.971  10.419  65.917  1.00  0.00    -0.317 C  
HETATM    2  C   UNK     1     -10.405  10.424  67.376  1.00  0.00    -0.275 C  
ENDROOT
BRANCH   2   3
HETATM    3  C   UNK     1      -9.378  11.087  68.289  1.00  0.00    -0.172 C  
BRANCH   3   4
HETATM    4  C   UNK     1      -8.742  10.078  69.209  1.00  0.00    -0.177 C  
HETATM    5  O   UNK     1      -7.702  10.268  69.824  1.00  0.00    -0.155 OA 
BRANCH   4   6
HETATM    6  O   UNK     1      -9.464   8.931  69.229  1.00  0.00    -0.158 OA 
BRANCH   6   7
HETATM    7  C   UNK     1     -10.039   8.485  70.480  1.00  0.00    -0.192 C  
BRANCH   7   8
HETATM    8  C   UNK     1      -8.990   7.978  71.478  1.00  0.00    -0.143 C  
BRANCH   8   9
HETATM    9  O   UNK     1      -9.237   6.622  71.851  1.00  0.00    -0.148 OA 
BRANCH   9  10
HETATM   10  P   UNK     1      -9.329   5.541  70.504  1.00  0.00    -0.167 P  
HETATM   11  O   UNK     1      -8.200   4.552  71.153  1.00  0.00    -0.083 OA 
HETATM   12  O   UNK     1     -10.693   5.055  70.999  1.00  0.00    -0.139 OA 
BRANCH  10  13
HETATM   13  O   UNK     1      -9.421   4.459  69.157  1.00  0.00    -0.142 OA 
BRANCH  13  14
HETATM   14  C   UNK     1      -8.282   4.563  68.290  1.00  0.00    -0.090 C  
BRANCH  14  15
HETATM   15  C   UNK     1      -8.583   5.453  67.082  1.00  0.00    -0.108 C  
HETATM   16  N   UNK     1      -8.383   6.905  67.361  1.00  0.00    -0.121 NA 
HETATM   17  C   UNK     1     -10.040   5.226  66.688  1.00  0.00    -0.228 C  
HETATM   18  O   UNK     1     -10.842   6.211  67.173  1.00  0.00    -0.308 OA 
HETATM   19  O   UNK     1     -10.454   4.261  66.065  1.00  0.00    -0.186 OA 
HETATM   20  H1  UNK     1      -8.584   7.498  66.556  1.00  0.00     0.000 HD 
HETATM   21  H2  UNK     1      -7.444   7.082  67.717  1.00  0.00     0.000 HD 
ENDBRANCH  14  15
ENDBRANCH  13  14
ENDBRANCH  10  13
ENDBRANCH   9  10
ENDBRANCH   8   9
ENDBRANCH   7   8
BRANCH   7  22
HETATM   22  C   UNK     1     -10.945   9.561  71.105  1.00  0.00    -0.368 C  
BRANCH  22  23
HETATM   23  O   UNK     1     -11.938   8.983  71.972  1.00  0.00    -0.356 OA 
BRANCH  23  24
HETATM   24  C   UNK     1     -13.126   9.647  72.010  1.00  0.00    -0.445 C  
HETATM   25  O   UNK     1     -13.243  10.857  72.109  1.00  0.00    -0.474 OA 
BRANCH  24  26
HETATM   26  C   UNK     1     -14.266   8.661  71.890  1.00  0.00    -0.507 C  
HETATM   27  C   UNK     1     -13.777   7.310  71.400  1.00  0.00    -0.404 C  
ENDBRANCH  24  26
ENDBRANCH  23  24
ENDBRANCH  22  23
ENDBRANCH   7  22
ENDBRANCH   6   7
ENDBRANCH   4   6
ENDBRANCH   3   4
ENDBRANCH   2   3
TORSDOF 14
ENDMDL
MODEL      320
REMARK 921   NORMALIZED FREE ENERGY PREDICTED BY IDOCK:   -3.23 KCAL/MOL
REMARK 922        TOTAL FREE ENERGY PREDICTED BY IDOCK:   -6.96 KCAL/MOL
REMARK 923 INTER-LIGAND FREE ENERGY PREDICTED BY IDOCK:   -6.22 KCAL/MOL
REMARK 924 INTRA-LIGAND FREE ENERGY PREDICTED BY IDOCK:   -0.74 KCAL/MOL
REMARK 927      BINDING AFFINITY PREDICTED BY RF-SCORE:    0.00 PKD
ROOT
HETATM    1  C   UNK     1      -7.043   4.262  65.127  1.00  0.00    -0.063 C  
HETATM    2  C   UNK     1      -8.288   5.035  64.713  1.00  0.00    -0.140 C  
ENDROOT
BRANCH   2   3
HETATM    3  C   UNK     1      -8.718   6.056  65.762  1.00  0.00    -0.155 C  
BRANCH   3   4
HETATM    4  C   UNK     1     -10.017   5.651  66.409  1.00  0.00    -0.152 C  
HETATM    5  O   UNK     1     -10.410   4.496  66.498  1.00  0.00    -0.238 OA 
BRANCH   4   6
HETATM    6  O   UNK     1     -10.692   6.743  66.844  1.00  0.00    -0.312 OA 
BRANCH   6   7
HETATM    7  C   UNK     1      -9.990   7.738  67.626  1.00  0.00    -0.178 C  
BRANCH   7   8
HETATM    8  C   UNK     1     -10.591   9.143  67.493  1.00  0.00    -0.249 C  
BRANCH   8   9
HETATM    9  O   UNK     1      -9.605  10.154  67.707  1.00  0.00    -0.146 OA 
BRANCH   9  10
HETATM   10  P   UNK     1     -10.194  11.760  67.451  1.00  0.00    -0.206 P  
HETATM   11  O   UNK     1     -11.741  11.288  67.689  1.00  0.00    -0.564 OA 
HETATM   12  O   UNK     1      -9.634  12.173  68.813  1.00  0.00    -0.104 OA 
BRANCH  10  13
HETATM   13  O   UNK     1     -10.783  13.366  67.194  1.00  0.00    -0.261 OA 
BRANCH  13  14
HETATM   14  C   UNK     1      -9.840  14.192  66.495  1.00  0.00    -0.290 C  
BRANCH  14  15
HETATM   15  C   UNK     1      -9.595  15.506  67.238  1.00  0.00    -0.213 C  
HETATM   16  N   UNK     1     -10.752  16.447  67.161  1.00  0.00    -0.279 NA 
HETATM   17  C   UNK     1      -8.377  16.177  66.609  1.00  0.00    -0.286 C  
HETATM   18  O   UNK     1      -8.746  17.147  65.730  1.00  0.00    -0.527 OA 
HETATM   19  O   UNK     1      -7.217  15.857  66.817  1.00  0.00    -0.184 OA 
HETATM   20  H1  UNK     1     -10.588  17.323  67.657  1.00  0.00     0.000 HD 
HETATM   21  H2  UNK     1     -11.607  15.998  67.488  1.00  0.00     0.000 HD 
ENDBRANCH  14  15
ENDBRANCH  13  14
ENDBRANCH  10  13
ENDBRANCH   9  10
ENDBRANCH   8   9
ENDBRANCH   7   8
BRANCH   7  22
HETATM   22  C   UNK     1      -9.861   7.313  69.101  1.00  0.00    -0.166 C  
BRANCH  22  23
HETATM   23  O   UNK     1     -11.142   7.272  69.757  1.00  0.00    -0.246 OA 
BRANCH  23  24
HETATM   24  C   UNK     1     -11.101   6.949  71.079  1.00  0.00    -0.266 C  
HETATM   25  O   UNK     1     -10.604   5.930  71.530  1.00  0.00    -0.228 OA 
BRANCH  24  26
HETATM   26  C   UNK     1     -11.742   8.048  71.893  1.00  0.00    -0.351 C  
HETATM   27  C   UNK     1     -11.787   9.353  71.119  1.00  0.00    -0.413 C  
ENDBRANCH  24  26
ENDBRANCH  23  24
ENDBRANCH  22  23
ENDBRANCH   7  22
ENDBRANCH   6   7
ENDBRANCH   4   6
ENDBRANCH   3   4
ENDBRANCH   2   3
TORSDOF 14
ENDMDL
MODEL      321
REMARK 921   NORMALIZED FREE ENERGY PREDICTED BY IDOCK:   -3.19 KCAL/MOL
REMARK 922        TOTAL FREE ENERGY PREDICTED BY IDOCK:   -6.88 KCAL/MOL
REMARK 923 INTER-LIGAND FREE ENERGY PREDICTED BY IDOCK:   -6.58 KCAL/MOL
REMARK 924 INTRA-LIGAND FREE ENERGY PREDICTED BY IDOCK:   -0.30 KCAL/MOL
REMARK 927      BINDING AFFINITY PREDICTED BY RF-SCORE:    0.00 PKD
ROOT
HETATM    1  C   UNK     1      -5.530  11.126  67.961  1.00  0.00    -0.042 C  
HETATM    2  C   UNK     1      -6.401  12.324  67.610  1.00  0.00    -0.122 C  
ENDROOT
BRANCH   2   3
HETATM    3  C   UNK     1      -6.103  13.539  68.484  1.00  0.00    -0.090 C  
BRANCH   3   4
HETATM    4  C   UNK     1      -7.283  14.476  68.526  1.00  0.00    -0.120 C  
HETATM    5  O   UNK     1      -7.721  14.983  69.550  1.00  0.00    -0.197 OA 
BRANCH   4   6
HETATM    6  O   UNK     1      -7.799  14.646  67.285  1.00  0.00    -0.192 OA 
BRANCH   6   7
HETATM    7  C   UNK     1      -9.233  14.768  67.132  1.00  0.00    -0.222 C  
BRANCH   7   8
HETATM    8  C   UNK     1     -10.020  14.116  68.276  1.00  0.00    -0.241 C  
BRANCH   8   9
HETATM    9  O   UNK     1     -10.785  13.003  67.814  1.00  0.00    -0.223 OA 
BRANCH   9  10
HETATM   10  P   UNK     1     -11.281  11.931  69.079  1.00  0.00    -0.264 P  
HETATM   11  O   UNK     1     -12.159  11.025  68.039  1.00  0.00    -0.615 OA 
HETATM   12  O   UNK     1      -9.871  11.338  69.115  1.00  0.00    -0.136 OA 
BRANCH  10  13
HETATM   13  O   UNK     1     -11.776  10.860  70.344  1.00  0.00    -0.307 OA 
BRANCH  13  14
HETATM   14  C   UNK     1     -11.202   9.551  70.211  1.00  0.00    -0.261 C  
BRANCH  14  15
HETATM   15  C   UNK     1     -11.035   8.878  71.575  1.00  0.00    -0.328 C  
HETATM   16  N   UNK     1      -9.623   8.880  72.059  1.00  0.00    -0.317 NA 
HETATM   17  C   UNK     1     -11.504   7.432  71.441  1.00  0.00    -0.263 C  
HETATM   18  O   UNK     1     -10.453   6.584  71.284  1.00  0.00    -0.209 OA 
HETATM   19  O   UNK     1     -12.672   7.075  71.422  1.00  0.00    -0.373 OA 
HETATM   20  H1  UNK     1      -9.512   8.431  72.969  1.00  0.00     0.000 HD 
HETATM   21  H2  UNK     1      -9.245   9.827  72.072  1.00  0.00     0.000 HD 
ENDBRANCH  14  15
ENDBRANCH  13  14
ENDBRANCH  10  13
ENDBRANCH   9  10
ENDBRANCH   8   9
ENDBRANCH   7   8
BRANCH   7  22
HETATM   22  C   UNK     1      -9.658  16.232  66.913  1.00  0.00    -0.232 C  
BRANCH  22  23
HETATM   23  O   UNK     1      -8.522  17.116  66.879  1.00  0.00    -0.201 OA 
BRANCH  23  24
HETATM   24  C   UNK     1      -8.827  18.444  66.891  1.00  0.00    -0.279 C  
HETATM   25  O   UNK     1      -8.779  19.177  65.917  1.00  0.00    -0.450 OA 
BRANCH  24  26
HETATM   26  C   UNK     1      -9.249  18.857  68.282  1.00  0.00    -0.373 C  
HETATM   27  C   UNK     1     -10.205  20.035  68.241  1.00  0.00    -0.527 C  
ENDBRANCH  24  26
ENDBRANCH  23  24
ENDBRANCH  22  23
ENDBRANCH   7  22
ENDBRANCH   6   7
ENDBRANCH   4   6
ENDBRANCH   3   4
ENDBRANCH   2   3
TORSDOF 14
ENDMDL
MODEL      322
REMARK 921   NORMALIZED FREE ENERGY PREDICTED BY IDOCK:   -3.19 KCAL/MOL
REMARK 922        TOTAL FREE ENERGY PREDICTED BY IDOCK:   -6.88 KCAL/MOL
REMARK 923 INTER-LIGAND FREE ENERGY PREDICTED BY IDOCK:   -6.13 KCAL/MOL
REMARK 924 INTRA-LIGAND FREE ENERGY PREDICTED BY IDOCK:   -0.75 KCAL/MOL
REMARK 927      BINDING AFFINITY PREDICTED BY RF-SCORE:    0.00 PKD
ROOT
HETATM    1  C   UNK     1      -7.482  10.321  62.877  1.00  0.00    -0.140 C  
HETATM    2  C   UNK     1      -7.683   9.248  63.939  1.00  0.00    -0.117 C  
ENDROOT
BRANCH   2   3
HETATM    3  C   UNK     1      -6.766   9.438  65.143  1.00  0.00    -0.080 C  
BRANCH   3   4
HETATM    4  C   UNK     1      -7.516  10.037  66.304  1.00  0.00    -0.106 C  
HETATM    5  O   UNK     1      -7.264  11.128  66.796  1.00  0.00    -0.131 OA 
BRANCH   4   6
HETATM    6  O   UNK     1      -8.478   9.186  66.738  1.00  0.00    -0.120 OA 
BRANCH   6   7
HETATM    7  C   UNK     1      -9.801   9.703  67.013  1.00  0.00    -0.195 C  
BRANCH   7   8
HETATM    8  C   UNK     1      -9.929  10.316  68.414  1.00  0.00    -0.157 C  
BRANCH   8   9
HETATM    9  O   UNK     1     -11.246  10.142  68.940  1.00  0.00    -0.225 OA 
BRANCH   9  10
HETATM   10  P   UNK     1     -11.268   9.591  70.579  1.00  0.00    -0.316 P  
HETATM   11  O   UNK     1     -11.614   8.061  70.116  1.00  0.00    -0.097 OA 
HETATM   12  O   UNK     1      -9.744   9.713  70.632  1.00  0.00    -0.257 OA 
BRANCH  10  13
HETATM   13  O   UNK     1     -11.291   9.040  72.219  1.00  0.00    -0.312 OA 
BRANCH  13  14
HETATM   14  C   UNK     1     -10.122   8.280  72.559  1.00  0.00    -0.306 C  
BRANCH  14  15
HETATM   15  C   UNK     1     -10.442   7.204  73.599  1.00  0.00    -0.370 C  
HETATM   16  N   UNK     1      -9.304   6.927  74.523  1.00  0.00    -0.344 NA 
HETATM   17  C   UNK     1     -10.788   5.920  72.849  1.00  0.00    -0.258 C  
HETATM   18  O   UNK     1      -9.727   5.071  72.809  1.00  0.00    -0.147 OA 
HETATM   19  O   UNK     1     -11.857   5.695  72.305  1.00  0.00    -0.226 OA 
HETATM   20  H1  UNK     1      -9.518   6.209  75.216  1.00  0.00     0.000 HD 
HETATM   21  H2  UNK     1      -8.984   7.784  74.974  1.00  0.00     0.000 HD 
ENDBRANCH  14  15
ENDBRANCH  13  14
ENDBRANCH  10  13
ENDBRANCH   9  10
ENDBRANCH   8   9
ENDBRANCH   7   8
BRANCH   7  22
HETATM   22  C   UNK     1     -10.267  10.683  65.920  1.00  0.00    -0.251 C  
BRANCH  22  23
HETATM   23  O   UNK     1     -10.438  12.015  66.438  1.00  0.00    -0.224 OA 
BRANCH  23  24
HETATM   24  C   UNK     1     -11.292  12.803  65.727  1.00  0.00    -0.320 C  
HETATM   25  O   UNK     1     -12.171  13.493  66.215  1.00  0.00    -0.417 OA 
BRANCH  24  26
HETATM   26  C   UNK     1     -10.968  12.706  64.254  1.00  0.00    -0.404 C  
HETATM   27  C   UNK     1     -12.221  12.485  63.427  1.00  0.00    -0.613 C  
ENDBRANCH  24  26
ENDBRANCH  23  24
ENDBRANCH  22  23
ENDBRANCH   7  22
ENDBRANCH   6   7
ENDBRANCH   4   6
ENDBRANCH   3   4
ENDBRANCH   2   3
TORSDOF 14
ENDMDL
MODEL      323
REMARK 921   NORMALIZED FREE ENERGY PREDICTED BY IDOCK:   -3.18 KCAL/MOL
REMARK 922        TOTAL FREE ENERGY PREDICTED BY IDOCK:   -6.88 KCAL/MOL
REMARK 923 INTER-LIGAND FREE ENERGY PREDICTED BY IDOCK:   -6.05 KCAL/MOL
REMARK 924 INTRA-LIGAND FREE ENERGY PREDICTED BY IDOCK:   -0.83 KCAL/MOL
REMARK 927      BINDING AFFINITY PREDICTED BY RF-SCORE:    0.00 PKD
ROOT
HETATM    1  C   UNK     1      -7.582  10.540  62.347  1.00  0.00    -0.173 C  
HETATM    2  C   UNK     1      -7.021   9.527  63.335  1.00  0.00    -0.101 C  
ENDROOT
BRANCH   2   3
HETATM    3  C   UNK     1      -5.817  10.064  64.102  1.00  0.00    -0.128 C  
BRANCH   3   4
HETATM    4  C   UNK     1      -6.121  10.180  65.573  1.00  0.00    -0.099 C  
HETATM    5  O   UNK     1      -6.109  11.232  66.197  1.00  0.00    -0.126 OA 
BRANCH   4   6
HETATM    6  O   UNK     1      -6.374   8.959  66.103  1.00  0.00    -0.062 OA 
BRANCH   6   7
HETATM    7  C   UNK     1      -7.565   8.774  66.904  1.00  0.00    -0.090 C  
BRANCH   7   8
HETATM    8  C   UNK     1      -8.807   9.444  66.301  1.00  0.00    -0.147 C  
BRANCH   8   9
HETATM    9  O   UNK     1      -9.715   9.869  67.318  1.00  0.00    -0.161 OA 
BRANCH   9  10
HETATM   10  P   UNK     1     -10.907  10.991  66.757  1.00  0.00    -0.163 P  
HETATM   11  O   UNK     1      -9.979  12.269  67.177  1.00  0.00    -0.203 OA 
HETATM   12  O   UNK     1     -10.551  10.631  65.313  1.00  0.00    -0.231 OA 
BRANCH  10  13
HETATM   13  O   UNK     1     -12.099  12.112  66.195  1.00  0.00    -0.621 OA 
BRANCH  13  14
HETATM   14  C   UNK     1     -11.668  12.834  65.031  1.00  0.00    -0.354 C  
BRANCH  14  15
HETATM   15  C   UNK     1     -12.254  14.247  65.007  1.00  0.00    -0.433 C  
HETATM   16  N   UNK     1     -12.536  14.740  63.627  1.00  0.00    -1.051 NA 
HETATM   17  C   UNK     1     -11.241  15.182  65.663  1.00  0.00    -0.296 C  
HETATM   18  O   UNK     1     -10.507  15.846  64.731  1.00  0.00    -0.538 OA 
HETATM   19  O   UNK     1     -11.065  15.289  66.867  1.00  0.00    -0.321 OA 
HETATM   20  H1  UNK     1     -12.926  15.682  63.611  1.00  0.00     0.000 HD 
HETATM   21  H2  UNK     1     -13.138  14.088  63.125  1.00  0.00     0.000 HD 
ENDBRANCH  14  15
ENDBRANCH  13  14
ENDBRANCH  10  13
ENDBRANCH   9  10
ENDBRANCH   8   9
ENDBRANCH   7   8
BRANCH   7  22
HETATM   22  C   UNK     1      -7.817   7.287  67.215  1.00  0.00    -0.111 C  
BRANCH  22  23
HETATM   23  O   UNK     1      -7.520   6.973  68.588  1.00  0.00    -0.097 OA 
BRANCH  23  24
HETATM   24  C   UNK     1      -7.778   5.686  68.952  1.00  0.00    -0.089 C  
HETATM   25  O   UNK     1      -6.939   4.894  69.347  1.00  0.00    -0.051 OA 
BRANCH  24  26
HETATM   26  C   UNK     1      -9.255   5.402  68.810  1.00  0.00    -0.148 C  
HETATM   27  C   UNK     1     -10.008   5.748  70.082  1.00  0.00    -0.258 C  
ENDBRANCH  24  26
ENDBRANCH  23  24
ENDBRANCH  22  23
ENDBRANCH   7  22
ENDBRANCH   6   7
ENDBRANCH   4   6
ENDBRANCH   3   4
ENDBRANCH   2   3
TORSDOF 14
ENDMDL
MODEL      324
REMARK 921   NORMALIZED FREE ENERGY PREDICTED BY IDOCK:   -3.18 KCAL/MOL
REMARK 922        TOTAL FREE ENERGY PREDICTED BY IDOCK:   -6.87 KCAL/MOL
REMARK 923 INTER-LIGAND FREE ENERGY PREDICTED BY IDOCK:   -6.10 KCAL/MOL
REMARK 924 INTRA-LIGAND FREE ENERGY PREDICTED BY IDOCK:   -0.77 KCAL/MOL
REMARK 927      BINDING AFFINITY PREDICTED BY RF-SCORE:    0.00 PKD
ROOT
HETATM    1  C   UNK     1     -10.684  19.800  65.702  1.00  0.00    -0.418 C  
HETATM    2  C   UNK     1     -10.018  18.495  66.116  1.00  0.00    -0.341 C  
ENDROOT
BRANCH   2   3
HETATM    3  C   UNK     1     -10.997  17.326  66.154  1.00  0.00     0.211 C  
BRANCH   3   4
HETATM    4  C   UNK     1     -10.881  16.485  64.909  1.00  0.00    -0.204 C  
HETATM    5  O   UNK     1     -11.696  16.492  63.996  1.00  0.00    -1.111 OA 
BRANCH   4   6
HETATM    6  O   UNK     1      -9.774  15.705  64.963  1.00  0.00    -0.272 OA 
BRANCH   6   7
HETATM    7  C   UNK     1      -9.434  15.053  66.209  1.00  0.00    -0.311 C  
BRANCH   7   8
HETATM    8  C   UNK     1      -9.655  13.535  66.174  1.00  0.00    -0.204 C  
BRANCH   8   9
HETATM    9  O   UNK     1     -11.033  13.204  66.347  1.00  0.00    -0.284 OA 
BRANCH   9  10
HETATM   10  P   UNK     1     -11.338  12.214  67.733  1.00  0.00    -0.344 P  
HETATM   11  O   UNK     1      -9.739  12.014  68.008  1.00  0.00    -0.185 OA 
HETATM   12  O   UNK     1     -11.778  13.455  68.511  1.00  0.00    -0.313 OA 
BRANCH  10  13
HETATM   13  O   UNK     1     -11.643  11.224  69.118  1.00  0.00    -0.259 OA 
BRANCH  13  14
HETATM   14  C   UNK     1     -10.610  10.252  69.337  1.00  0.00    -0.237 C  
BRANCH  14  15
HETATM   15  C   UNK     1     -11.186   8.944  69.883  1.00  0.00    -0.065 C  
HETATM   16  N   UNK     1     -11.227   8.900  71.374  1.00  0.00    -0.286 NA 
HETATM   17  C   UNK     1     -10.303   7.802  69.384  1.00  0.00    -0.219 C  
HETATM   18  O   UNK     1      -9.421   7.407  70.339  1.00  0.00    -0.165 OA 
HETATM   19  O   UNK     1     -10.338   7.333  68.257  1.00  0.00    -0.182 OA 
HETATM   20  H1  UNK     1     -11.611   8.028  71.738  1.00  0.00     0.000 HD 
HETATM   21  H2  UNK     1     -11.732   9.703  71.747  1.00  0.00     0.000 HD 
ENDBRANCH  14  15
ENDBRANCH  13  14
ENDBRANCH  10  13
ENDBRANCH   9  10
ENDBRANCH   8   9
ENDBRANCH   7   8
BRANCH   7  22
HETATM   22  C   UNK     1      -8.008  15.409  66.667  1.00  0.00    -0.033 C  
BRANCH  22  23
HETATM   23  O   UNK     1      -8.017  16.382  67.728  1.00  0.00    -0.146 OA 
BRANCH  23  24
HETATM   24  C   UNK     1      -6.787  16.751  68.181  1.00  0.00    -0.149 C  
HETATM   25  O   UNK     1      -6.098  16.089  68.940  1.00  0.00    -0.114 OA 
BRANCH  24  26
HETATM   26  C   UNK     1      -6.403  18.085  67.585  1.00  0.00    -0.179 C  
HETATM   27  C   UNK     1      -7.390  19.169  67.978  1.00  0.00    -0.287 C  
ENDBRANCH  24  26
ENDBRANCH  23  24
ENDBRANCH  22  23
ENDBRANCH   7  22
ENDBRANCH   6   7
ENDBRANCH   4   6
ENDBRANCH   3   4
ENDBRANCH   2   3
TORSDOF 14
ENDMDL
MODEL      325
REMARK 921   NORMALIZED FREE ENERGY PREDICTED BY IDOCK:   -3.17 KCAL/MOL
REMARK 922        TOTAL FREE ENERGY PREDICTED BY IDOCK:   -6.85 KCAL/MOL
REMARK 923 INTER-LIGAND FREE ENERGY PREDICTED BY IDOCK:   -6.24 KCAL/MOL
REMARK 924 INTRA-LIGAND FREE ENERGY PREDICTED BY IDOCK:   -0.61 KCAL/MOL
REMARK 927      BINDING AFFINITY PREDICTED BY RF-SCORE:    0.00 PKD
ROOT
HETATM    1  C   UNK     1      -6.867   8.535  63.082  1.00  0.00    -0.090 C  
HETATM    2  C   UNK     1      -8.031   8.021  63.917  1.00  0.00    -0.128 C  
ENDROOT
BRANCH   2   3
HETATM    3  C   UNK     1      -8.049   8.614  65.323  1.00  0.00    -0.136 C  
BRANCH   3   4
HETATM    4  C   UNK     1      -8.420   7.571  66.345  1.00  0.00    -0.131 C  
HETATM    5  O   UNK     1      -8.919   6.488  66.071  1.00  0.00    -0.157 OA 
BRANCH   4   6
HETATM    6  O   UNK     1      -8.154   8.016  67.596  1.00  0.00    -0.120 OA 
BRANCH   6   7
HETATM    7  C   UNK     1      -9.256   8.339  68.477  1.00  0.00    -0.136 C  
BRANCH   7   8
HETATM    8  C   UNK     1     -10.496   8.847  67.729  1.00  0.00    -0.239 C  
BRANCH   8   9
HETATM    9  O   UNK     1     -10.882  10.145  68.182  1.00  0.00    -0.233 OA 
BRANCH   9  10
HETATM   10  P   UNK     1     -10.337  11.426  67.155  1.00  0.00    -0.231 P  
HETATM   11  O   UNK     1     -10.367  10.455  65.839  1.00  0.00    -0.245 OA 
HETATM   12  O   UNK     1     -11.713  12.085  67.261  1.00  0.00    -0.481 OA 
BRANCH  10  13
HETATM   13  O   UNK     1      -9.792  12.707  66.127  1.00  0.00    -0.253 OA 
BRANCH  13  14
HETATM   14  C   UNK     1     -10.555  13.910  66.298  1.00  0.00    -0.289 C  
BRANCH  14  15
HETATM   15  C   UNK     1     -10.593  14.731  65.008  1.00  0.00    -0.429 C  
HETATM   16  N   UNK     1     -11.083  16.125  65.215  1.00  0.00    -0.235 NA 
HETATM   17  C   UNK     1     -11.530  14.023  64.032  1.00  0.00    -0.096 C  
HETATM   18  O   UNK     1     -12.761  14.600  64.024  1.00  0.00    -0.772 OA 
HETATM   19  O   UNK     1     -11.241  13.032  63.380  1.00  0.00    -0.321 OA 
HETATM   20  H1  UNK     1     -11.108  16.672  64.354  1.00  0.00     0.000 HD 
HETATM   21  H2  UNK     1     -10.535  16.601  65.932  1.00  0.00     0.000 HD 
ENDBRANCH  14  15
ENDBRANCH  13  14
ENDBRANCH  10  13
ENDBRANCH   9  10
ENDBRANCH   8   9
ENDBRANCH   7   8
BRANCH   7  22
HETATM   22  C   UNK     1      -9.599   7.164  69.412  1.00  0.00    -0.153 C  
BRANCH  22  23
HETATM   23  O   UNK     1     -10.990   7.169  69.784  1.00  0.00    -0.244 OA 
BRANCH  23  24
HETATM   24  C   UNK     1     -11.233   6.939  71.104  1.00  0.00    -0.274 C  
HETATM   25  O   UNK     1     -10.920   5.923  71.701  1.00  0.00    -0.258 OA 
BRANCH  24  26
HETATM   26  C   UNK     1     -11.927   8.136  71.711  1.00  0.00    -0.348 C  
HETATM   27  C   UNK     1     -13.406   8.148  71.371  1.00  0.00    -0.243 C  
ENDBRANCH  24  26
ENDBRANCH  23  24
ENDBRANCH  22  23
ENDBRANCH   7  22
ENDBRANCH   6   7
ENDBRANCH   4   6
ENDBRANCH   3   4
ENDBRANCH   2   3
TORSDOF 14
ENDMDL
MODEL      326
REMARK 921   NORMALIZED FREE ENERGY PREDICTED BY IDOCK:   -3.17 KCAL/MOL
REMARK 922        TOTAL FREE ENERGY PREDICTED BY IDOCK:   -6.85 KCAL/MOL
REMARK 923 INTER-LIGAND FREE ENERGY PREDICTED BY IDOCK:   -5.72 KCAL/MOL
REMARK 924 INTRA-LIGAND FREE ENERGY PREDICTED BY IDOCK:   -1.13 KCAL/MOL
REMARK 927      BINDING AFFINITY PREDICTED BY RF-SCORE:    0.00 PKD
ROOT
HETATM    1  C   UNK     1     -13.369  12.376  71.958  1.00  0.00    -0.511 C  
HETATM    2  C   UNK     1     -13.035  11.270  70.967  1.00  0.00    -0.304 C  
ENDROOT
BRANCH   2   3
HETATM    3  C   UNK     1     -12.105  10.215  71.559  1.00  0.00    -0.442 C  
BRANCH   3   4
HETATM    4  C   UNK     1     -12.548   8.828  71.173  1.00  0.00    -0.168 C  
HETATM    5  O   UNK     1     -13.674   8.387  71.365  1.00  0.00    -0.313 OA 
BRANCH   4   6
HETATM    6  O   UNK     1     -11.522   8.137  70.620  1.00  0.00    -0.278 OA 
BRANCH   6   7
HETATM    7  C   UNK     1     -11.390   6.725  70.907  1.00  0.00    -0.315 C  
BRANCH   7   8
HETATM    8  C   UNK     1     -10.807   5.924  69.735  1.00  0.00    -0.377 C  
BRANCH   8   9
HETATM    9  O   UNK     1     -11.423   6.287  68.498  1.00  0.00    -0.229 OA 
BRANCH   9  10
HETATM   10  P   UNK     1     -10.292   6.593  67.226  1.00  0.00    -0.314 P  
HETATM   11  O   UNK     1      -9.414   7.595  68.175  1.00  0.00    -0.144 OA 
HETATM   12  O   UNK     1      -9.721   5.185  67.407  1.00  0.00    -0.135 OA 
BRANCH  10  13
HETATM   13  O   UNK     1      -9.160   6.900  65.953  1.00  0.00    -0.118 OA 
BRANCH  13  14
HETATM   14  C   UNK     1      -8.158   7.856  66.328  1.00  0.00    -0.110 C  
BRANCH  14  15
HETATM   15  C   UNK     1      -7.984   8.928  65.250  1.00  0.00    -0.116 C  
HETATM   16  N   UNK     1      -6.597   9.475  65.187  1.00  0.00    -0.079 NA 
HETATM   17  C   UNK     1      -8.946  10.070  65.568  1.00  0.00    -0.174 C  
HETATM   18  O   UNK     1      -8.308  11.093  66.196  1.00  0.00    -0.169 OA 
HETATM   19  O   UNK     1     -10.147  10.056  65.344  1.00  0.00    -0.310 OA 
HETATM   20  H1  UNK     1      -6.481  10.190  64.468  1.00  0.00     0.000 HD 
HETATM   21  H2  UNK     1      -5.916   8.725  65.068  1.00  0.00     0.000 HD 
ENDBRANCH  14  15
ENDBRANCH  13  14
ENDBRANCH  10  13
ENDBRANCH   9  10
ENDBRANCH   8   9
ENDBRANCH   7   8
BRANCH   7  22
HETATM   22  C   UNK     1     -10.605   6.479  72.208  1.00  0.00    -0.212 C  
BRANCH  22  23
HETATM   23  O   UNK     1     -11.269   5.525  73.058  1.00  0.00    -0.285 OA 
BRANCH  23  24
HETATM   24  C   UNK     1     -10.455   4.584  73.611  1.00  0.00    -0.222 C  
HETATM   25  O   UNK     1     -10.820   3.722  74.392  1.00  0.00    -0.173 OA 
BRANCH  24  26
HETATM   26  C   UNK     1      -9.046   4.760  73.093  1.00  0.00    -0.121 C  
HETATM   27  C   UNK     1      -8.043   4.820  74.231  1.00  0.00    -0.100 C  
ENDBRANCH  24  26
ENDBRANCH  23  24
ENDBRANCH  22  23
ENDBRANCH   7  22
ENDBRANCH   6   7
ENDBRANCH   4   6
ENDBRANCH   3   4
ENDBRANCH   2   3
TORSDOF 14
ENDMDL
MODEL      327
REMARK 921   NORMALIZED FREE ENERGY PREDICTED BY IDOCK:   -3.17 KCAL/MOL
REMARK 922        TOTAL FREE ENERGY PREDICTED BY IDOCK:   -6.85 KCAL/MOL
REMARK 923 INTER-LIGAND FREE ENERGY PREDICTED BY IDOCK:   -6.07 KCAL/MOL
REMARK 924 INTRA-LIGAND FREE ENERGY PREDICTED BY IDOCK:   -0.78 KCAL/MOL
REMARK 927      BINDING AFFINITY PREDICTED BY RF-SCORE:    0.00 PKD
ROOT
HETATM    1  C   UNK     1     -11.939  14.099  64.474  1.00  0.00    -0.476 C  
HETATM    2  C   UNK     1     -12.057  13.091  63.340  1.00  0.00    -0.591 C  
ENDROOT
BRANCH   2   3
HETATM    3  C   UNK     1     -11.752  11.666  63.791  1.00  0.00    -0.403 C  
BRANCH   3   4
HETATM    4  C   UNK     1     -10.285  11.354  63.642  1.00  0.00    -0.397 C  
HETATM    5  O   UNK     1      -9.541  11.912  62.847  1.00  0.00    -0.367 OA 
BRANCH   4   6
HETATM    6  O   UNK     1      -9.923  10.356  64.484  1.00  0.00    -0.332 OA 
BRANCH   6   7
HETATM    7  C   UNK     1     -10.121  10.531  65.907  1.00  0.00    -0.260 C  
BRANCH   7   8
HETATM    8  C   UNK     1      -9.533   9.386  66.742  1.00  0.00    -0.165 C  
BRANCH   8   9
HETATM    9  O   UNK     1     -10.487   8.341  66.939  1.00  0.00    -0.319 OA 
BRANCH   9  10
HETATM   10  P   UNK     1      -9.768   6.789  67.202  1.00  0.00    -0.173 P  
HETATM   11  O   UNK     1      -8.314   7.460  67.531  1.00  0.00    -0.112 OA 
HETATM   12  O   UNK     1     -10.523   6.676  68.528  1.00  0.00    -0.180 OA 
BRANCH  10  13
HETATM   13  O   UNK     1      -9.050   5.238  67.466  1.00  0.00    -0.109 OA 
BRANCH  13  14
HETATM   14  C   UNK     1      -7.720   5.331  67.996  1.00  0.00    -0.084 C  
BRANCH  14  15
HETATM   15  C   UNK     1      -6.715   4.595  67.107  1.00  0.00    -0.051 C  
HETATM   16  N   UNK     1      -6.191   5.439  65.994  1.00  0.00    -0.033 NA 
HETATM   17  C   UNK     1      -7.423   3.382  66.510  1.00  0.00    -0.076 C  
HETATM   18  O   UNK     1      -7.838   3.628  65.239  1.00  0.00    -0.084 OA 
HETATM   19  O   UNK     1      -7.644   2.338  67.104  1.00  0.00    -0.060 OA 
HETATM   20  H1  UNK     1      -5.521   4.948  65.401  1.00  0.00     0.000 HD 
HETATM   21  H2  UNK     1      -5.792   6.307  66.352  1.00  0.00     0.000 HD 
ENDBRANCH  14  15
ENDBRANCH  13  14
ENDBRANCH  10  13
ENDBRANCH   9  10
ENDBRANCH   8   9
ENDBRANCH   7   8
BRANCH   7  22
HETATM   22  C   UNK     1      -9.613  11.903  66.388  1.00  0.00    -0.225 C  
BRANCH  22  23
HETATM   23  O   UNK     1      -9.966  12.149  67.762  1.00  0.00    -0.190 OA 
BRANCH  23  24
HETATM   24  C   UNK     1     -11.224  12.635  67.955  1.00  0.00    -0.266 C  
HETATM   25  O   UNK     1     -12.236  12.153  67.475  1.00  0.00    -0.474 OA 
BRANCH  24  26
HETATM   26  C   UNK     1     -11.170  13.840  68.865  1.00  0.00    -0.309 C  
HETATM   27  C   UNK     1     -11.718  15.076  68.175  1.00  0.00    -0.335 C  
ENDBRANCH  24  26
ENDBRANCH  23  24
ENDBRANCH  22  23
ENDBRANCH   7  22
ENDBRANCH   6   7
ENDBRANCH   4   6
ENDBRANCH   3   4
ENDBRANCH   2   3
TORSDOF 14
ENDMDL
MODEL      328
REMARK 921   NORMALIZED FREE ENERGY PREDICTED BY IDOCK:   -3.16 KCAL/MOL
REMARK 922        TOTAL FREE ENERGY PREDICTED BY IDOCK:   -6.83 KCAL/MOL
REMARK 923 INTER-LIGAND FREE ENERGY PREDICTED BY IDOCK:   -5.30 KCAL/MOL
REMARK 924 INTRA-LIGAND FREE ENERGY PREDICTED BY IDOCK:   -1.53 KCAL/MOL
REMARK 927      BINDING AFFINITY PREDICTED BY RF-SCORE:    0.00 PKD
ROOT
HETATM    1  C   UNK     1     -11.835   6.037  71.970  1.00  0.00    -0.284 C  
HETATM    2  C   UNK     1     -12.670   7.236  71.544  1.00  0.00    -0.422 C  
ENDROOT
BRANCH   2   3
HETATM    3  C   UNK     1     -12.212   8.532  72.206  1.00  0.00    -0.454 C  
BRANCH   3   4
HETATM    4  C   UNK     1     -12.200   9.668  71.217  1.00  0.00    -0.363 C  
HETATM    5  O   UNK     1     -13.206  10.196  70.764  1.00  0.00    -0.379 OA 
BRANCH   4   6
HETATM    6  O   UNK     1     -10.928   9.995  70.883  1.00  0.00    -0.327 OA 
BRANCH   6   7
HETATM    7  C   UNK     1     -10.071   8.981  70.307  1.00  0.00    -0.198 C  
BRANCH   7   8
HETATM    8  C   UNK     1     -10.219   8.861  68.784  1.00  0.00    -0.206 C  
BRANCH   8   9
HETATM    9  O   UNK     1     -10.710   7.574  68.409  1.00  0.00    -0.164 OA 
BRANCH   9  10
HETATM   10  P   UNK     1      -9.831   6.851  67.105  1.00  0.00    -0.196 P  
HETATM   11  O   UNK     1     -11.157   6.047  66.587  1.00  0.00    -0.263 OA 
HETATM   12  O   UNK     1      -9.811   8.200  66.383  1.00  0.00    -0.236 OA 
BRANCH  10  13
HETATM   13  O   UNK     1      -8.952   6.129  65.802  1.00  0.00    -0.151 OA 
BRANCH  13  14
HETATM   14  C   UNK     1      -7.950   5.209  66.259  1.00  0.00    -0.104 C  
BRANCH  14  15
HETATM   15  C   UNK     1      -8.004   5.040  67.778  1.00  0.00    -0.095 C  
HETATM   16  N   UNK     1      -6.706   5.347  68.448  1.00  0.00    -0.052 NA 
HETATM   17  C   UNK     1      -8.375   3.589  68.073  1.00  0.00    -0.084 C  
HETATM   18  O   UNK     1      -7.275   2.850  68.379  1.00  0.00    -0.048 OA 
HETATM   19  O   UNK     1      -9.502   3.125  67.993  1.00  0.00    -0.200 OA 
HETATM   20  H1  UNK     1      -6.742   5.234  69.461  1.00  0.00     0.000 HD 
HETATM   21  H2  UNK     1      -6.379   6.280  68.198  1.00  0.00     0.000 HD 
ENDBRANCH  14  15
ENDBRANCH  13  14
ENDBRANCH  10  13
ENDBRANCH   9  10
ENDBRANCH   8   9
ENDBRANCH   7   8
BRANCH   7  22
HETATM   22  C   UNK     1      -8.600   9.177  70.720  1.00  0.00    -0.219 C  
BRANCH  22  23
HETATM   23  O   UNK     1      -8.445   9.166  72.152  1.00  0.00    -0.301 OA 
BRANCH  23  24
HETATM   24  C   UNK     1      -8.408   7.927  72.717  1.00  0.00    -0.151 C  
HETATM   25  O   UNK     1      -9.107   7.567  73.648  1.00  0.00    -0.207 OA 
BRANCH  24  26
HETATM   26  C   UNK     1      -7.390   7.071  72.000  1.00  0.00    -0.082 C  
HETATM   27  C   UNK     1      -7.911   5.662  71.780  1.00  0.00    -0.114 C  
ENDBRANCH  24  26
ENDBRANCH  23  24
ENDBRANCH  22  23
ENDBRANCH   7  22
ENDBRANCH   6   7
ENDBRANCH   4   6
ENDBRANCH   3   4
ENDBRANCH   2   3
TORSDOF 14
ENDMDL
MODEL      329
REMARK 921   NORMALIZED FREE ENERGY PREDICTED BY IDOCK:   -3.15 KCAL/MOL
REMARK 922        TOTAL FREE ENERGY PREDICTED BY IDOCK:   -6.81 KCAL/MOL
REMARK 923 INTER-LIGAND FREE ENERGY PREDICTED BY IDOCK:   -5.61 KCAL/MOL
REMARK 924 INTRA-LIGAND FREE ENERGY PREDICTED BY IDOCK:   -1.20 KCAL/MOL
REMARK 927      BINDING AFFINITY PREDICTED BY RF-SCORE:    0.00 PKD
ROOT
HETATM    1  C   UNK     1     -10.763   5.640  70.504  1.00  0.00    -0.344 C  
HETATM    2  C   UNK     1      -9.422   6.357  70.576  1.00  0.00    -0.173 C  
ENDROOT
BRANCH   2   3
HETATM    3  C   UNK     1      -8.645   6.275  69.266  1.00  0.00    -0.124 C  
BRANCH   3   4
HETATM    4  C   UNK     1      -7.700   7.440  69.125  1.00  0.00    -0.111 C  
HETATM    5  O   UNK     1      -6.518   7.409  69.439  1.00  0.00    -0.035 OA 
BRANCH   4   6
HETATM    6  O   UNK     1      -8.351   8.524  68.636  1.00  0.00    -0.121 OA 
BRANCH   6   7
HETATM    7  C   UNK     1      -9.145   8.383  67.435  1.00  0.00    -0.137 C  
BRANCH   7   8
HETATM    8  C   UNK     1     -10.040   9.598  67.158  1.00  0.00    -0.218 C  
BRANCH   8   9
HETATM    9  O   UNK     1     -10.051  10.500  68.265  1.00  0.00    -0.153 OA 
BRANCH   9  10
HETATM   10  P   UNK     1     -11.161  11.813  68.077  1.00  0.00    -0.314 P  
HETATM   11  O   UNK     1     -11.302  11.534  66.472  1.00  0.00    -0.330 OA 
HETATM   12  O   UNK     1     -12.243  10.986  68.776  1.00  0.00    -0.546 OA 
BRANCH  10  13
HETATM   13  O   UNK     1     -12.272  13.126  67.889  1.00  0.00    -0.262 OA 
BRANCH  13  14
HETATM   14  C   UNK     1     -12.035  14.185  68.829  1.00  0.00    -0.332 C  
BRANCH  14  15
HETATM   15  C   UNK     1     -10.612  14.731  68.702  1.00  0.00    -0.255 C  
HETATM   16  N   UNK     1     -10.048  15.203  70.001  1.00  0.00    -0.493 NA 
HETATM   17  C   UNK     1     -10.649  15.907  67.729  1.00  0.00    -0.302 C  
HETATM   18  O   UNK     1     -10.672  17.095  68.390  1.00  0.00    -0.361 OA 
HETATM   19  O   UNK     1     -10.706  15.807  66.513  1.00  0.00    -0.313 OA 
HETATM   20  H1  UNK     1      -9.099  15.567  69.916  1.00  0.00     0.000 HD 
HETATM   21  H2  UNK     1     -10.093  14.467  70.705  1.00  0.00     0.000 HD 
ENDBRANCH  14  15
ENDBRANCH  13  14
ENDBRANCH  10  13
ENDBRANCH   9  10
ENDBRANCH   8   9
ENDBRANCH   7   8
BRANCH   7  22
HETATM   22  C   UNK     1      -8.274   8.031  66.215  1.00  0.00    -0.116 C  
BRANCH  22  23
HETATM   23  O   UNK     1      -8.846   6.958  65.444  1.00  0.00    -0.043 OA 
BRANCH  23  24
HETATM   24  C   UNK     1      -8.415   5.712  65.784  1.00  0.00    -0.140 C  
HETATM   25  O   UNK     1      -7.254   5.415  66.009  1.00  0.00    -0.073 OA 
BRANCH  24  26
HETATM   26  C   UNK     1      -9.593   4.768  65.860  1.00  0.00    -0.188 C  
HETATM   27  C   UNK     1     -10.867   5.505  66.232  1.00  0.00    -0.127 C  
ENDBRANCH  24  26
ENDBRANCH  23  24
ENDBRANCH  22  23
ENDBRANCH   7  22
ENDBRANCH   6   7
ENDBRANCH   4   6
ENDBRANCH   3   4
ENDBRANCH   2   3
TORSDOF 14
ENDMDL
MODEL      330
REMARK 921   NORMALIZED FREE ENERGY PREDICTED BY IDOCK:   -3.14 KCAL/MOL
REMARK 922        TOTAL FREE ENERGY PREDICTED BY IDOCK:   -6.80 KCAL/MOL
REMARK 923 INTER-LIGAND FREE ENERGY PREDICTED BY IDOCK:   -7.61 KCAL/MOL
REMARK 924 INTRA-LIGAND FREE ENERGY PREDICTED BY IDOCK:    0.81 KCAL/MOL
REMARK 927      BINDING AFFINITY PREDICTED BY RF-SCORE:    0.00 PKD
ROOT
HETATM    1  C   UNK     1      -5.443  16.262  67.543  1.00  0.00    -0.168 C  
HETATM    2  C   UNK     1      -6.531  15.268  67.923  1.00  0.00    -0.172 C  
ENDROOT
BRANCH   2   3
HETATM    3  C   UNK     1      -7.202  15.615  69.248  1.00  0.00    -0.198 C  
BRANCH   3   4
HETATM    4  C   UNK     1      -8.255  16.676  69.058  1.00  0.00    -0.190 C  
HETATM    5  O   UNK     1      -8.092  17.861  69.318  1.00  0.00     0.005 OA 
BRANCH   4   6
HETATM    6  O   UNK     1      -9.404  16.128  68.595  1.00  0.00    -0.204 OA 
BRANCH   6   7
HETATM    7  C   UNK     1     -10.654  16.821  68.821  1.00  0.00    -0.348 C  
BRANCH   7   8
HETATM    8  C   UNK     1     -10.937  17.911  67.779  1.00  0.00    -0.081 C  
BRANCH   8   9
HETATM    9  O   UNK     1      -9.998  17.860  66.704  1.00  0.00    -0.319 OA 
BRANCH   9  10
HETATM   10  P   UNK     1      -9.803  16.278  66.031  1.00  0.00    -0.325 P  
HETATM   11  O   UNK     1     -10.840  16.612  64.811  1.00  0.00    -0.732 OA 
HETATM   12  O   UNK     1      -8.403  16.664  65.551  1.00  0.00    -0.085 OA 
BRANCH  10  13
HETATM   13  O   UNK     1      -9.609  14.696  65.357  1.00  0.00    -0.225 OA 
BRANCH  13  14
HETATM   14  C   UNK     1     -10.769  14.262  64.632  1.00  0.00    -0.365 C  
BRANCH  14  15
HETATM   15  C   UNK     1     -10.865  12.735  64.603  1.00  0.00    -0.335 C  
HETATM   16  N   UNK     1     -12.107  12.240  63.940  1.00  0.00    -0.468 NA 
HETATM   17  C   UNK     1     -10.851  12.240  66.046  1.00  0.00    -0.275 C  
HETATM   18  O   UNK     1     -12.107  11.963  66.486  1.00  0.00    -0.568 OA 
HETATM   19  O   UNK     1      -9.853  12.151  66.745  1.00  0.00    -0.201 OA 
HETATM   20  H1  UNK     1     -12.171  11.222  63.920  1.00  0.00     0.000 HD 
HETATM   21  H2  UNK     1     -12.197  12.628  63.001  1.00  0.00     0.000 HD 
ENDBRANCH  14  15
ENDBRANCH  13  14
ENDBRANCH  10  13
ENDBRANCH   9  10
ENDBRANCH   8   9
ENDBRANCH   7   8
BRANCH   7  22
HETATM   22  C   UNK     1     -11.834  15.839  68.949  1.00  0.00    -0.341 C  
BRANCH  22  23
HETATM   23  O   UNK     1     -12.481  15.949  70.230  1.00  0.00    -0.339 OA 
BRANCH  23  24
HETATM   24  C   UNK     1     -11.824  15.346  71.260  1.00  0.00    -0.380 C  
HETATM   25  O   UNK     1     -11.299  14.247  71.201  1.00  0.00     0.008 OA 
BRANCH  24  26
HETATM   26  C   UNK     1     -11.830  16.253  72.469  1.00  0.00    -0.608 C  
HETATM   27  C   UNK     1     -12.394  15.545  73.687  1.00  0.00    -0.698 C  
ENDBRANCH  24  26
ENDBRANCH  23  24
ENDBRANCH  22  23
ENDBRANCH   7  22
ENDBRANCH   6   7
ENDBRANCH   4   6
ENDBRANCH   3   4
ENDBRANCH   2   3
TORSDOF 14
ENDMDL
MODEL      331
REMARK 921   NORMALIZED FREE ENERGY PREDICTED BY IDOCK:   -3.13 KCAL/MOL
REMARK 922        TOTAL FREE ENERGY PREDICTED BY IDOCK:   -6.79 KCAL/MOL
REMARK 923 INTER-LIGAND FREE ENERGY PREDICTED BY IDOCK:   -5.39 KCAL/MOL
REMARK 924 INTRA-LIGAND FREE ENERGY PREDICTED BY IDOCK:   -1.40 KCAL/MOL
REMARK 927      BINDING AFFINITY PREDICTED BY RF-SCORE:    0.00 PKD
ROOT
HETATM    1  C   UNK     1     -11.188  16.055  69.010  1.00  0.00    -0.347 C  
HETATM    2  C   UNK     1     -12.091  14.917  69.464  1.00  0.00    -0.315 C  
ENDROOT
BRANCH   2   3
HETATM    3  C   UNK     1     -11.697  14.368  70.832  1.00  0.00    -0.281 C  
BRANCH   3   4
HETATM    4  C   UNK     1     -12.670  13.313  71.291  1.00  0.00    -0.323 C  
HETATM    5  O   UNK     1     -13.814  13.546  71.656  1.00  0.00    -0.284 OA 
BRANCH   4   6
HETATM    6  O   UNK     1     -12.088  12.089  71.272  1.00  0.00    -0.063 OA 
BRANCH   6   7
HETATM    7  C   UNK     1     -12.291  11.233  70.122  1.00  0.00    -0.276 C  
BRANCH   7   8
HETATM    8  C   UNK     1     -10.980  10.820  69.440  1.00  0.00    -0.254 C  
BRANCH   8   9
HETATM    9  O   UNK     1     -11.215   9.894  68.378  1.00  0.00    -0.188 OA 
BRANCH   9  10
HETATM   10  P   UNK     1      -9.968   8.708  68.206  1.00  0.00    -0.192 P  
HETATM   11  O   UNK     1     -11.023   7.485  68.461  1.00  0.00    -0.052 OA 
HETATM   12  O   UNK     1      -9.938   8.971  66.699  1.00  0.00    -0.232 OA 
BRANCH  10  13
HETATM   13  O   UNK     1      -8.721   7.521  68.034  1.00  0.00    -0.122 OA 
BRANCH  13  14
HETATM   14  C   UNK     1      -7.657   7.702  68.981  1.00  0.00    -0.104 C  
BRANCH  14  15
HETATM   15  C   UNK     1      -7.315   9.183  69.155  1.00  0.00    -0.071 C  
HETATM   16  N   UNK     1      -6.275   9.660  68.196  1.00  0.00    -0.055 NA 
HETATM   17  C   UNK     1      -6.794   9.377  70.576  1.00  0.00    -0.098 C  
HETATM   18  O   UNK     1      -5.436   9.418  70.604  1.00  0.00    -0.033 OA 
HETATM   19  O   UNK     1      -7.494   9.434  71.576  1.00  0.00    -0.337 OA 
HETATM   20  H1  UNK     1      -6.047  10.647  68.312  1.00  0.00     0.000 HD 
HETATM   21  H2  UNK     1      -6.550   9.461  67.234  1.00  0.00     0.000 HD 
ENDBRANCH  14  15
ENDBRANCH  13  14
ENDBRANCH  10  13
ENDBRANCH   9  10
ENDBRANCH   8   9
ENDBRANCH   7   8
BRANCH   7  22
HETATM   22  C   UNK     1     -13.160  10.011  70.471  1.00  0.00    -0.064 C  
BRANCH  22  23
HETATM   23  O   UNK     1     -12.974   9.598  71.838  1.00  0.00    -0.375 OA 
BRANCH  23  24
HETATM   24  C   UNK     1     -12.716   8.272  72.008  1.00  0.00    -0.342 C  
HETATM   25  O   UNK     1     -13.427   7.368  71.602  1.00  0.00    -0.368 OA 
BRANCH  24  26
HETATM   26  C   UNK     1     -11.412   8.097  72.752  1.00  0.00    -0.397 C  
HETATM   27  C   UNK     1     -10.360   7.444  71.874  1.00  0.00    -0.218 C  
ENDBRANCH  24  26
ENDBRANCH  23  24
ENDBRANCH  22  23
ENDBRANCH   7  22
ENDBRANCH   6   7
ENDBRANCH   4   6
ENDBRANCH   3   4
ENDBRANCH   2   3
TORSDOF 14
ENDMDL
MODEL      332
REMARK 921   NORMALIZED FREE ENERGY PREDICTED BY IDOCK:   -3.12 KCAL/MOL
REMARK 922        TOTAL FREE ENERGY PREDICTED BY IDOCK:   -6.76 KCAL/MOL
REMARK 923 INTER-LIGAND FREE ENERGY PREDICTED BY IDOCK:   -5.59 KCAL/MOL
REMARK 924 INTRA-LIGAND FREE ENERGY PREDICTED BY IDOCK:   -1.17 KCAL/MOL
REMARK 927      BINDING AFFINITY PREDICTED BY RF-SCORE:    0.00 PKD
ROOT
HETATM    1  C   UNK     1      -6.143   9.611  68.998  1.00  0.00    -0.041 C  
HETATM    2  C   UNK     1      -6.672   9.426  67.583  1.00  0.00    -0.068 C  
ENDROOT
BRANCH   2   3
HETATM    3  C   UNK     1      -6.497   7.999  67.075  1.00  0.00    -0.056 C  
BRANCH   3   4
HETATM    4  C   UNK     1      -7.470   7.064  67.744  1.00  0.00    -0.098 C  
HETATM    5  O   UNK     1      -7.151   6.200  68.549  1.00  0.00    -0.077 OA 
BRANCH   4   6
HETATM    6  O   UNK     1      -8.731   7.296  67.305  1.00  0.00    -0.120 OA 
BRANCH   6   7
HETATM    7  C   UNK     1      -9.847   6.765  68.059  1.00  0.00    -0.136 C  
BRANCH   7   8
HETATM    8  C   UNK     1     -10.738   7.857  68.665  1.00  0.00    -0.035 C  
BRANCH   8   9
HETATM    9  O   UNK     1      -9.970   8.807  69.405  1.00  0.00    -0.186 OA 
BRANCH   9  10
HETATM   10  P   UNK     1     -10.048  10.411  68.761  1.00  0.00    -0.210 P  
HETATM   11  O   UNK     1     -11.029   9.932  67.544  1.00  0.00    -0.282 OA 
HETATM   12  O   UNK     1     -10.945  10.825  69.929  1.00  0.00    -0.267 OA 
BRANCH  10  13
HETATM   13  O   UNK     1     -10.125  12.015  68.118  1.00  0.00    -0.189 OA 
BRANCH  13  14
HETATM   14  C   UNK     1     -11.349  12.265  67.412  1.00  0.00    -0.325 C  
BRANCH  14  15
HETATM   15  C   UNK     1     -11.425  13.715  66.930  1.00  0.00    -0.345 C  
HETATM   16  N   UNK     1     -12.396  14.540  67.707  1.00  0.00    -0.595 NA 
HETATM   17  C   UNK     1     -11.860  13.697  65.466  1.00  0.00    -0.362 C  
HETATM   18  O   UNK     1     -13.190  13.952  65.343  1.00  0.00    -0.750 OA 
HETATM   19  O   UNK     1     -11.130  13.434  64.523  1.00  0.00    -0.346 OA 
HETATM   20  H1  UNK     1     -12.446  15.507  67.385  1.00  0.00     0.000 HD 
HETATM   21  H2  UNK     1     -12.190  14.499  68.705  1.00  0.00     0.000 HD 
ENDBRANCH  14  15
ENDBRANCH  13  14
ENDBRANCH  10  13
ENDBRANCH   9  10
ENDBRANCH   8   9
ENDBRANCH   7   8
BRANCH   7  22
HETATM   22  C   UNK     1     -10.665   5.758  67.230  1.00  0.00    -0.261 C  
BRANCH  22  23
HETATM   23  O   UNK     1      -9.891   4.591  66.896  1.00  0.00    -0.193 OA 
BRANCH  23  24
HETATM   24  C   UNK     1     -10.000   4.180  65.602  1.00  0.00    -0.197 C  
HETATM   25  O   UNK     1     -11.002   4.297  64.918  1.00  0.00    -0.253 OA 
BRANCH  24  26
HETATM   26  C   UNK     1      -8.689   3.582  65.145  1.00  0.00    -0.118 C  
HETATM   27  C   UNK     1      -7.578   4.617  65.155  1.00  0.00    -0.077 C  
ENDBRANCH  24  26
ENDBRANCH  23  24
ENDBRANCH  22  23
ENDBRANCH   7  22
ENDBRANCH   6   7
ENDBRANCH   4   6
ENDBRANCH   3   4
ENDBRANCH   2   3
TORSDOF 14
ENDMDL
MODEL      333
REMARK 921   NORMALIZED FREE ENERGY PREDICTED BY IDOCK:   -3.12 KCAL/MOL
REMARK 922        TOTAL FREE ENERGY PREDICTED BY IDOCK:   -6.76 KCAL/MOL
REMARK 923 INTER-LIGAND FREE ENERGY PREDICTED BY IDOCK:   -6.09 KCAL/MOL
REMARK 924 INTRA-LIGAND FREE ENERGY PREDICTED BY IDOCK:   -0.67 KCAL/MOL
REMARK 927      BINDING AFFINITY PREDICTED BY RF-SCORE:    0.00 PKD
ROOT
HETATM    1  C   UNK     1      -8.167  16.971  66.234  1.00  0.00    -0.322 C  
HETATM    2  C   UNK     1      -9.225  15.924  65.916  1.00  0.00    -0.332 C  
ENDROOT
BRANCH   2   3
HETATM    3  C   UNK     1      -9.614  15.098  67.138  1.00  0.00    -0.224 C  
BRANCH   3   4
HETATM    4  C   UNK     1     -11.112  15.015  67.278  1.00  0.00    -0.334 C  
HETATM    5  O   UNK     1     -11.766  15.678  68.072  1.00  0.00    -0.306 OA 
BRANCH   4   6
HETATM    6  O   UNK     1     -11.619  14.086  66.431  1.00  0.00    -0.339 OA 
BRANCH   6   7
HETATM    7  C   UNK     1     -11.128  12.727  66.503  1.00  0.00    -0.286 C  
BRANCH   7   8
HETATM    8  C   UNK     1     -11.587  11.987  67.767  1.00  0.00    -0.330 C  
BRANCH   8   9
HETATM    9  O   UNK     1     -11.432  10.574  67.629  1.00  0.00    -0.444 OA 
BRANCH   9  10
HETATM   10  P   UNK     1     -10.744   9.815  69.023  1.00  0.00    -0.172 P  
HETATM   11  O   UNK     1      -9.501  10.878  69.055  1.00  0.00    -0.197 OA 
HETATM   12  O   UNK     1     -11.863  10.404  69.885  1.00  0.00    -0.258 OA 
BRANCH  10  13
HETATM   13  O   UNK     1     -10.057   9.056  70.418  1.00  0.00    -0.185 OA 
BRANCH  13  14
HETATM   14  C   UNK     1     -10.503   7.702  70.582  1.00  0.00    -0.216 C  
BRANCH  14  15
HETATM   15  C   UNK     1      -9.350   6.782  70.987  1.00  0.00    -0.160 C  
HETATM   16  N   UNK     1      -8.884   7.009  72.386  1.00  0.00    -0.128 NA 
HETATM   17  C   UNK     1      -8.186   7.048  70.035  1.00  0.00    -0.133 C  
HETATM   18  O   UNK     1      -7.265   7.873  70.599  1.00  0.00    -0.052 OA 
HETATM   19  O   UNK     1      -8.107   6.624  68.892  1.00  0.00    -0.113 OA 
HETATM   20  H1  UNK     1      -8.114   6.395  72.656  1.00  0.00     0.000 HD 
HETATM   21  H2  UNK     1      -9.659   6.931  73.044  1.00  0.00     0.000 HD 
ENDBRANCH  14  15
ENDBRANCH  13  14
ENDBRANCH  10  13
ENDBRANCH   9  10
ENDBRANCH   8   9
ENDBRANCH   7   8
BRANCH   7  22
HETATM   22  C   UNK     1     -11.463  11.933  65.227  1.00  0.00    -0.253 C  
BRANCH  22  23
HETATM   23  O   UNK     1     -10.581  12.273  64.142  1.00  0.00    -0.317 OA 
BRANCH  23  24
HETATM   24  C   UNK     1      -9.678  11.308  63.811  1.00  0.00    -0.298 C  
HETATM   25  O   UNK     1      -9.313  11.058  62.675  1.00  0.00    -0.311 OA 
BRANCH  24  26
HETATM   26  C   UNK     1      -9.190  10.615  65.062  1.00  0.00    -0.245 C  
HETATM   27  C   UNK     1      -9.184   9.107  64.892  1.00  0.00    -0.135 C  
ENDBRANCH  24  26
ENDBRANCH  23  24
ENDBRANCH  22  23
ENDBRANCH   7  22
ENDBRANCH   6   7
ENDBRANCH   4   6
ENDBRANCH   3   4
ENDBRANCH   2   3
TORSDOF 14
ENDMDL
MODEL      334
REMARK 921   NORMALIZED FREE ENERGY PREDICTED BY IDOCK:   -3.11 KCAL/MOL
REMARK 922        TOTAL FREE ENERGY PREDICTED BY IDOCK:   -6.74 KCAL/MOL
REMARK 923 INTER-LIGAND FREE ENERGY PREDICTED BY IDOCK:   -5.82 KCAL/MOL
REMARK 924 INTRA-LIGAND FREE ENERGY PREDICTED BY IDOCK:   -0.92 KCAL/MOL
REMARK 927      BINDING AFFINITY PREDICTED BY RF-SCORE:    0.00 PKD
ROOT
HETATM    1  C   UNK     1     -13.181  12.077  71.947  1.00  0.00    -0.469 C  
HETATM    2  C   UNK     1     -12.840  10.940  70.995  1.00  0.00    -0.472 C  
ENDROOT
BRANCH   2   3
HETATM    3  C   UNK     1     -11.916   9.905  71.628  1.00  0.00    -0.427 C  
BRANCH   3   4
HETATM    4  C   UNK     1     -12.370   8.505  71.303  1.00  0.00    -0.271 C  
HETATM    5  O   UNK     1     -13.483   8.067  71.562  1.00  0.00    -0.327 OA 
BRANCH   4   6
HETATM    6  O   UNK     1     -11.368   7.803  70.721  1.00  0.00    -0.276 OA 
BRANCH   6   7
HETATM    7  C   UNK     1     -11.297   6.373  70.932  1.00  0.00    -0.338 C  
BRANCH   7   8
HETATM    8  C   UNK     1     -10.933   5.594  69.662  1.00  0.00    -0.222 C  
BRANCH   8   9
HETATM    9  O   UNK     1     -11.363   6.283  68.487  1.00  0.00    -0.324 OA 
BRANCH   9  10
HETATM   10  P   UNK     1     -10.162   6.342  67.243  1.00  0.00    -0.257 P  
HETATM   11  O   UNK     1     -10.908   5.161  66.393  1.00  0.00    -0.283 OA 
HETATM   12  O   UNK     1     -10.738   7.676  66.763  1.00  0.00    -0.318 OA 
BRANCH  10  13
HETATM   13  O   UNK     1      -8.961   6.402  65.999  1.00  0.00    -0.157 OA 
BRANCH  13  14
HETATM   14  C   UNK     1      -8.604   5.098  65.517  1.00  0.00    -0.143 C  
BRANCH  14  15
HETATM   15  C   UNK     1      -8.509   5.077  63.991  1.00  0.00    -0.135 C  
HETATM   16  N   UNK     1      -9.713   4.486  63.337  1.00  0.00    -0.353 NA 
HETATM   17  C   UNK     1      -7.287   4.245  63.611  1.00  0.00    -0.054 C  
HETATM   18  O   UNK     1      -7.642   2.980  63.258  1.00  0.00    -0.060 OA 
HETATM   19  O   UNK     1      -6.131   4.634  63.666  1.00  0.00    -0.017 OA 
HETATM   20  H1  UNK     1      -9.649   4.472  62.319  1.00  0.00     0.000 HD 
HETATM   21  H2  UNK     1     -10.562   4.961  63.642  1.00  0.00     0.000 HD 
ENDBRANCH  14  15
ENDBRANCH  13  14
ENDBRANCH  10  13
ENDBRANCH   9  10
ENDBRANCH   8   9
ENDBRANCH   7   8
BRANCH   7  22
HETATM   22  C   UNK     1     -10.363   6.018  72.104  1.00  0.00    -0.197 C  
BRANCH  22  23
HETATM   23  O   UNK     1     -10.919   4.980  72.932  1.00  0.00    -0.242 OA 
BRANCH  23  24
HETATM   24  C   UNK     1     -10.203   3.822  72.961  1.00  0.00    -0.158 C  
HETATM   25  O   UNK     1     -10.685   2.704  72.893  1.00  0.00    -0.155 OA 
BRANCH  24  26
HETATM   26  C   UNK     1      -8.729   4.137  73.069  1.00  0.00    -0.100 C  
HETATM   27  C   UNK     1      -7.923   2.898  73.415  1.00  0.00    -0.064 C  
ENDBRANCH  24  26
ENDBRANCH  23  24
ENDBRANCH  22  23
ENDBRANCH   7  22
ENDBRANCH   6   7
ENDBRANCH   4   6
ENDBRANCH   3   4
ENDBRANCH   2   3
TORSDOF 14
ENDMDL
MODEL      335
REMARK 921   NORMALIZED FREE ENERGY PREDICTED BY IDOCK:   -3.11 KCAL/MOL
REMARK 922        TOTAL FREE ENERGY PREDICTED BY IDOCK:   -6.74 KCAL/MOL
REMARK 923 INTER-LIGAND FREE ENERGY PREDICTED BY IDOCK:   -5.92 KCAL/MOL
REMARK 924 INTRA-LIGAND FREE ENERGY PREDICTED BY IDOCK:   -0.82 KCAL/MOL
REMARK 927      BINDING AFFINITY PREDICTED BY RF-SCORE:    0.00 PKD
ROOT
HETATM    1  C   UNK     1     -12.053  14.272  64.446  1.00  0.00    -0.490 C  
HETATM    2  C   UNK     1     -12.123  13.309  63.269  1.00  0.00    -0.407 C  
ENDROOT
BRANCH   2   3
HETATM    3  C   UNK     1     -12.005  11.851  63.699  1.00  0.00    -0.578 C  
BRANCH   3   4
HETATM    4  C   UNK     1     -10.562  11.424  63.772  1.00  0.00    -0.403 C  
HETATM    5  O   UNK     1      -9.700  11.775  62.978  1.00  0.00    -0.394 OA 
BRANCH   4   6
HETATM    6  O   UNK     1     -10.368  10.581  64.815  1.00  0.00    -0.339 OA 
BRANCH   6   7
HETATM    7  C   UNK     1     -10.549  11.077  66.163  1.00  0.00    -0.228 C  
BRANCH   7   8
HETATM    8  C   UNK     1     -10.483   9.972  67.225  1.00  0.00    -0.254 C  
BRANCH   8   9
HETATM    9  O   UNK     1     -10.703   8.683  66.651  1.00  0.00    -0.180 OA 
BRANCH   9  10
HETATM   10  P   UNK     1      -9.611   7.472  67.229  1.00  0.00    -0.182 P  
HETATM   11  O   UNK     1     -10.572   6.268  66.682  1.00  0.00    -0.235 OA 
HETATM   12  O   UNK     1      -8.640   7.823  66.101  1.00  0.00    -0.136 OA 
BRANCH  10  13
HETATM   13  O   UNK     1      -8.519   6.261  67.808  1.00  0.00    -0.116 OA 
BRANCH  13  14
HETATM   14  C   UNK     1      -8.487   5.102  66.962  1.00  0.00    -0.106 C  
BRANCH  14  15
HETATM   15  C   UNK     1      -8.456   3.814  67.788  1.00  0.00    -0.095 C  
HETATM   16  N   UNK     1      -9.546   2.861  67.425  1.00  0.00    -0.379 NA 
HETATM   17  C   UNK     1      -8.612   4.198  69.257  1.00  0.00    -0.078 C  
HETATM   18  O   UNK     1      -9.893   4.027  69.679  1.00  0.00    -0.210 OA 
HETATM   19  O   UNK     1      -7.722   4.655  69.958  1.00  0.00    -0.054 OA 
HETATM   20  H1  UNK     1      -9.525   2.002  67.975  1.00  0.00     0.000 HD 
HETATM   21  H2  UNK     1      -9.530   2.654  66.426  1.00  0.00     0.000 HD 
ENDBRANCH  14  15
ENDBRANCH  13  14
ENDBRANCH  10  13
ENDBRANCH   9  10
ENDBRANCH   8   9
ENDBRANCH   7   8
BRANCH   7  22
HETATM   22  C   UNK     1      -9.578  12.229  66.480  1.00  0.00    -0.238 C  
BRANCH  22  23
HETATM   23  O   UNK     1      -9.443  12.434  67.899  1.00  0.00    -0.185 OA 
BRANCH  23  24
HETATM   24  C   UNK     1      -8.180  12.723  68.320  1.00  0.00    -0.159 C  
HETATM   25  O   UNK     1      -7.428  11.928  68.859  1.00  0.00    -0.113 OA 
BRANCH  24  26
HETATM   26  C   UNK     1      -7.852  14.162  67.998  1.00  0.00    -0.146 C  
HETATM   27  C   UNK     1      -8.513  15.112  68.981  1.00  0.00    -0.214 C  
ENDBRANCH  24  26
ENDBRANCH  23  24
ENDBRANCH  22  23
ENDBRANCH   7  22
ENDBRANCH   6   7
ENDBRANCH   4   6
ENDBRANCH   3   4
ENDBRANCH   2   3
TORSDOF 14
ENDMDL
MODEL      336
REMARK 921   NORMALIZED FREE ENERGY PREDICTED BY IDOCK:   -3.10 KCAL/MOL
REMARK 922        TOTAL FREE ENERGY PREDICTED BY IDOCK:   -6.73 KCAL/MOL
REMARK 923 INTER-LIGAND FREE ENERGY PREDICTED BY IDOCK:   -5.58 KCAL/MOL
REMARK 924 INTRA-LIGAND FREE ENERGY PREDICTED BY IDOCK:   -1.15 KCAL/MOL
REMARK 927      BINDING AFFINITY PREDICTED BY RF-SCORE:    0.00 PKD
ROOT
HETATM    1  C   UNK     1     -11.855  12.615  63.494  1.00  0.00    -0.619 C  
HETATM    2  C   UNK     1     -10.599  12.216  64.258  1.00  0.00    -0.385 C  
ENDROOT
BRANCH   2   3
HETATM    3  C   UNK     1     -10.914  11.606  65.620  1.00  0.00    -0.322 C  
BRANCH   3   4
HETATM    4  C   UNK     1      -9.649  11.261  66.362  1.00  0.00    -0.198 C  
HETATM    5  O   UNK     1      -8.695  10.680  65.862  1.00  0.00    -0.164 OA 
BRANCH   4   6
HETATM    6  O   UNK     1      -9.734  11.654  67.656  1.00  0.00    -0.175 OA 
BRANCH   6   7
HETATM    7  C   UNK     1     -10.554  10.887  68.570  1.00  0.00    -0.190 C  
BRANCH   7   8
HETATM    8  C   UNK     1      -9.736  10.150  69.639  1.00  0.00    -0.221 C  
BRANCH   8   9
HETATM    9  O   UNK     1      -8.338  10.406  69.494  1.00  0.00    -0.162 OA 
BRANCH   9  10
HETATM   10  P   UNK     1      -7.419   9.004  69.068  1.00  0.00    -0.075 P  
HETATM   11  O   UNK     1      -6.427   9.881  68.109  1.00  0.00    -0.055 OA 
HETATM   12  O   UNK     1      -6.801   8.995  70.468  1.00  0.00    -0.046 OA 
BRANCH  10  13
HETATM   13  O   UNK     1      -6.499   7.601  68.642  1.00  0.00    -0.045 OA 
BRANCH  13  14
HETATM   14  C   UNK     1      -7.331   6.480  68.310  1.00  0.00    -0.087 C  
BRANCH  14  15
HETATM   15  C   UNK     1      -8.049   5.937  69.547  1.00  0.00    -0.106 C  
HETATM   16  N   UNK     1      -7.141   5.742  70.714  1.00  0.00    -0.068 NA 
HETATM   17  C   UNK     1      -8.663   4.589  69.175  1.00  0.00    -0.084 C  
HETATM   18  O   UNK     1      -7.888   3.558  69.604  1.00  0.00    -0.051 OA 
HETATM   19  O   UNK     1      -9.689   4.443  68.529  1.00  0.00    -0.154 OA 
HETATM   20  H1  UNK     1      -7.620   5.381  71.539  1.00  0.00     0.000 HD 
HETATM   21  H2  UNK     1      -6.641   6.604  70.933  1.00  0.00     0.000 HD 
ENDBRANCH  14  15
ENDBRANCH  13  14
ENDBRANCH  10  13
ENDBRANCH   9  10
ENDBRANCH   8   9
ENDBRANCH   7   8
BRANCH   7  22
HETATM   22  C   UNK     1     -11.663  11.750  69.199  1.00  0.00    -0.325 C  
BRANCH  22  23
HETATM   23  O   UNK     1     -12.654  10.943  69.860  1.00  0.00    -0.289 OA 
BRANCH  23  24
HETATM   24  C   UNK     1     -12.940  11.315  71.139  1.00  0.00    -0.272 C  
HETATM   25  O   UNK     1     -13.214  10.544  72.043  1.00  0.00    -0.464 OA 
BRANCH  24  26
HETATM   26  C   UNK     1     -12.845  12.818  71.265  1.00  0.00    -0.355 C  
HETATM   27  C   UNK     1     -13.841  13.351  72.280  1.00  0.00    -0.671 C  
ENDBRANCH  24  26
ENDBRANCH  23  24
ENDBRANCH  22  23
ENDBRANCH   7  22
ENDBRANCH   6   7
ENDBRANCH   4   6
ENDBRANCH   3   4
ENDBRANCH   2   3
TORSDOF 14
ENDMDL
MODEL      337
REMARK 921   NORMALIZED FREE ENERGY PREDICTED BY IDOCK:   -3.10 KCAL/MOL
REMARK 922        TOTAL FREE ENERGY PREDICTED BY IDOCK:   -6.72 KCAL/MOL
REMARK 923 INTER-LIGAND FREE ENERGY PREDICTED BY IDOCK:   -5.29 KCAL/MOL
REMARK 924 INTRA-LIGAND FREE ENERGY PREDICTED BY IDOCK:   -1.43 KCAL/MOL
REMARK 927      BINDING AFFINITY PREDICTED BY RF-SCORE:    0.00 PKD
ROOT
HETATM    1  C   UNK     1      -9.341   9.192  67.328  1.00  0.00    -0.166 C  
HETATM    2  C   UNK     1     -10.139   9.083  68.620  1.00  0.00    -0.207 C  
ENDROOT
BRANCH   2   3
HETATM    3  C   UNK     1      -9.542   9.919  69.747  1.00  0.00    -0.261 C  
BRANCH   3   4
HETATM    4  C   UNK     1      -8.502   9.137  70.507  1.00  0.00    -0.205 C  
HETATM    5  O   UNK     1      -7.516   9.635  71.033  1.00  0.00    -0.327 OA 
BRANCH   4   6
HETATM    6  O   UNK     1      -8.798   7.815  70.494  1.00  0.00    -0.142 OA 
BRANCH   6   7
HETATM    7  C   UNK     1      -9.253   7.185  71.715  1.00  0.00    -0.139 C  
BRANCH   7   8
HETATM    8  C   UNK     1      -8.120   6.526  72.512  1.00  0.00    -0.104 C  
BRANCH   8   9
HETATM    9  O   UNK     1      -8.400   5.151  72.778  1.00  0.00    -0.112 OA 
BRANCH   9  10
HETATM   10  P   UNK     1      -9.102   4.317  71.435  1.00  0.00    -0.143 P  
HETATM   11  O   UNK     1      -7.817   3.311  71.321  1.00  0.00    -0.053 OA 
HETATM   12  O   UNK     1     -10.107   3.658  72.381  1.00  0.00    -0.158 OA 
BRANCH  10  13
HETATM   13  O   UNK     1      -9.803   3.482  70.091  1.00  0.00    -0.148 OA 
BRANCH  13  14
HETATM   14  C   UNK     1      -9.604   4.174  68.850  1.00  0.00    -0.152 C  
BRANCH  14  15
HETATM   15  C   UNK     1      -9.246   3.201  67.724  1.00  0.00    -0.196 C  
HETATM   16  N   UNK     1      -9.698   1.804  67.992  1.00  0.00    -0.369 NA 
HETATM   17  C   UNK     1      -7.727   3.204  67.571  1.00  0.00    -0.076 C  
HETATM   18  O   UNK     1      -7.166   2.136  68.199  1.00  0.00    -0.046 OA 
HETATM   19  O   UNK     1      -7.083   4.074  67.008  1.00  0.00    -0.061 OA 
HETATM   20  H1  UNK     1      -9.459   1.156  67.241  1.00  0.00     0.000 HD 
HETATM   21  H2  UNK     1     -10.697   1.777  68.192  1.00  0.00     0.000 HD 
ENDBRANCH  14  15
ENDBRANCH  13  14
ENDBRANCH  10  13
ENDBRANCH   9  10
ENDBRANCH   8   9
ENDBRANCH   7   8
BRANCH   7  22
HETATM   22  C   UNK     1     -10.069   8.158  72.587  1.00  0.00    -0.309 C  
BRANCH  22  23
HETATM   23  O   UNK     1     -11.399   7.664  72.833  1.00  0.00    -0.369 OA 
BRANCH  23  24
HETATM   24  C   UNK     1     -12.308   7.954  71.861  1.00  0.00    -0.315 C  
HETATM   25  O   UNK     1     -12.575   7.226  70.920  1.00  0.00    -0.293 OA 
BRANCH  24  26
HETATM   26  C   UNK     1     -12.944   9.296  72.142  1.00  0.00    -0.503 C  
HETATM   27  C   UNK     1     -13.034  10.138  70.882  1.00  0.00    -0.432 C  
ENDBRANCH  24  26
ENDBRANCH  23  24
ENDBRANCH  22  23
ENDBRANCH   7  22
ENDBRANCH   6   7
ENDBRANCH   4   6
ENDBRANCH   3   4
ENDBRANCH   2   3
TORSDOF 14
ENDMDL
MODEL      338
REMARK 921   NORMALIZED FREE ENERGY PREDICTED BY IDOCK:   -3.09 KCAL/MOL
REMARK 922        TOTAL FREE ENERGY PREDICTED BY IDOCK:   -6.72 KCAL/MOL
REMARK 923 INTER-LIGAND FREE ENERGY PREDICTED BY IDOCK:   -6.30 KCAL/MOL
REMARK 924 INTRA-LIGAND FREE ENERGY PREDICTED BY IDOCK:   -0.42 KCAL/MOL
REMARK 927      BINDING AFFINITY PREDICTED BY RF-SCORE:    0.00 PKD
ROOT
HETATM    1  C   UNK     1      -6.229  17.972  69.499  1.00  0.00    -0.237 C  
HETATM    2  C   UNK     1      -6.259  16.498  69.121  1.00  0.00    -0.174 C  
ENDROOT
BRANCH   2   3
HETATM    3  C   UNK     1      -7.155  16.221  67.919  1.00  0.00    -0.147 C  
BRANCH   3   4
HETATM    4  C   UNK     1      -8.279  15.286  68.286  1.00  0.00    -0.142 C  
HETATM    5  O   UNK     1      -8.841  15.281  69.372  1.00  0.00    -0.238 OA 
BRANCH   4   6
HETATM    6  O   UNK     1      -8.549  14.442  67.261  1.00  0.00    -0.192 OA 
BRANCH   6   7
HETATM    7  C   UNK     1      -9.514  14.839  66.259  1.00  0.00    -0.303 C  
BRANCH   7   8
HETATM    8  C   UNK     1     -10.525  13.735  65.924  1.00  0.00    -0.297 C  
BRANCH   8   9
HETATM    9  O   UNK     1     -10.321  13.223  64.607  1.00  0.00    -0.381 OA 
BRANCH   9  10
HETATM   10  P   UNK     1     -10.178  11.500  64.549  1.00  0.00    -0.333 P  
HETATM   11  O   UNK     1      -9.582  11.548  63.026  1.00  0.00    -0.374 OA 
HETATM   12  O   UNK     1      -8.984  11.576  65.502  1.00  0.00    -0.152 OA 
BRANCH  10  13
HETATM   13  O   UNK     1     -10.034   9.777  64.491  1.00  0.00    -0.115 OA 
BRANCH  13  14
HETATM   14  C   UNK     1      -9.011   9.341  63.584  1.00  0.00    -0.031 C  
BRANCH  14  15
HETATM   15  C   UNK     1      -7.820   8.746  64.336  1.00  0.00    -0.132 C  
HETATM   16  N   UNK     1      -6.987   7.841  63.490  1.00  0.00    -0.070 NA 
HETATM   17  C   UNK     1      -8.365   7.947  65.517  1.00  0.00    -0.147 C  
HETATM   18  O   UNK     1      -8.407   6.617  65.236  1.00  0.00    -0.139 OA 
HETATM   19  O   UNK     1      -8.768   8.432  66.562  1.00  0.00    -0.123 OA 
HETATM   20  H1  UNK     1      -6.192   7.444  63.992  1.00  0.00     0.000 HD 
HETATM   21  H2  UNK     1      -6.680   8.316  62.642  1.00  0.00     0.000 HD 
ENDBRANCH  14  15
ENDBRANCH  13  14
ENDBRANCH  10  13
ENDBRANCH   9  10
ENDBRANCH   8   9
ENDBRANCH   7   8
BRANCH   7  22
HETATM   22  C   UNK     1     -10.216  16.157  66.637  1.00  0.00    -0.287 C  
BRANCH  22  23
HETATM   23  O   UNK     1     -10.228  17.087  65.538  1.00  0.00    -0.589 OA 
BRANCH  23  24
HETATM   24  C   UNK     1     -10.453  18.384  65.886  1.00  0.00    -0.321 C  
HETATM   25  O   UNK     1     -11.020  19.204  65.184  1.00  0.00    -0.464 OA 
BRANCH  24  26
HETATM   26  C   UNK     1      -9.911  18.641  67.273  1.00  0.00    -0.360 C  
HETATM   27  C   UNK     1      -9.606  20.113  67.483  1.00  0.00    -0.547 C  
ENDBRANCH  24  26
ENDBRANCH  23  24
ENDBRANCH  22  23
ENDBRANCH   7  22
ENDBRANCH   6   7
ENDBRANCH   4   6
ENDBRANCH   3   4
ENDBRANCH   2   3
TORSDOF 14
ENDMDL
MODEL      339
REMARK 921   NORMALIZED FREE ENERGY PREDICTED BY IDOCK:   -3.09 KCAL/MOL
REMARK 922        TOTAL FREE ENERGY PREDICTED BY IDOCK:   -6.71 KCAL/MOL
REMARK 923 INTER-LIGAND FREE ENERGY PREDICTED BY IDOCK:   -6.25 KCAL/MOL
REMARK 924 INTRA-LIGAND FREE ENERGY PREDICTED BY IDOCK:   -0.46 KCAL/MOL
REMARK 927      BINDING AFFINITY PREDICTED BY RF-SCORE:    0.00 PKD
ROOT
HETATM    1  C   UNK     1      -5.544  13.535  68.337  1.00  0.00    -0.094 C  
HETATM    2  C   UNK     1      -6.875  14.233  68.095  1.00  0.00    -0.126 C  
ENDROOT
BRANCH   2   3
HETATM    3  C   UNK     1      -7.270  15.151  69.247  1.00  0.00    -0.182 C  
BRANCH   3   4
HETATM    4  C   UNK     1      -8.650  15.719  69.036  1.00  0.00    -0.236 C  
HETATM    5  O   UNK     1      -9.486  15.842  69.921  1.00  0.00    -0.144 OA 
BRANCH   4   6
HETATM    6  O   UNK     1      -8.838  16.040  67.733  1.00  0.00    -0.175 OA 
BRANCH   6   7
HETATM    7  C   UNK     1     -10.182  16.041  67.196  1.00  0.00    -0.278 C  
BRANCH   7   8
HETATM    8  C   UNK     1     -10.942  14.738  67.474  1.00  0.00    -0.304 C  
BRANCH   8   9
HETATM    9  O   UNK     1     -11.379  14.120  66.263  1.00  0.00    -0.322 OA 
BRANCH   9  10
HETATM   10  P   UNK     1     -10.981  12.440  66.160  1.00  0.00    -0.315 P  
HETATM   11  O   UNK     1     -11.010  12.478  64.526  1.00  0.00    -0.292 OA 
HETATM   12  O   UNK     1      -9.549  12.763  66.593  1.00  0.00    -0.242 OA 
BRANCH  10  13
HETATM   13  O   UNK     1     -10.582  10.760  66.058  1.00  0.00    -0.228 OA 
BRANCH  13  14
HETATM   14  C   UNK     1     -10.919  10.041  67.253  1.00  0.00    -0.156 C  
BRANCH  14  15
HETATM   15  C   UNK     1     -10.255   8.663  67.279  1.00  0.00    -0.268 C  
HETATM   16  N   UNK     1     -10.620   7.860  68.482  1.00  0.00    -0.358 NA 
HETATM   17  C   UNK     1      -8.743   8.874  67.271  1.00  0.00    -0.121 C  
HETATM   18  O   UNK     1      -8.223   8.762  68.522  1.00  0.00    -0.115 OA 
HETATM   19  O   UNK     1      -8.082   9.161  66.285  1.00  0.00    -0.108 OA 
HETATM   20  H1  UNK     1     -10.177   6.941  68.499  1.00  0.00     0.000 HD 
HETATM   21  H2  UNK     1     -11.633   7.777  68.571  1.00  0.00     0.000 HD 
ENDBRANCH  14  15
ENDBRANCH  13  14
ENDBRANCH  10  13
ENDBRANCH   9  10
ENDBRANCH   8   9
ENDBRANCH   7   8
BRANCH   7  22
HETATM   22  C   UNK     1     -10.978  17.274  67.660  1.00  0.00    -0.133 C  
BRANCH  22  23
HETATM   23  O   UNK     1     -10.457  18.489  67.091  1.00  0.00    -0.380 OA 
BRANCH  23  24
HETATM   24  C   UNK     1      -9.938  19.370  67.991  1.00  0.00    -0.387 C  
HETATM   25  O   UNK     1      -9.986  19.235  69.202  1.00  0.00    -0.417 OA 
BRANCH  24  26
HETATM   26  C   UNK     1      -9.281  20.518  67.260  1.00  0.00    -0.500 C  
HETATM   27  C   UNK     1      -7.794  20.278  67.079  1.00  0.00    -0.368 C  
ENDBRANCH  24  26
ENDBRANCH  23  24
ENDBRANCH  22  23
ENDBRANCH   7  22
ENDBRANCH   6   7
ENDBRANCH   4   6
ENDBRANCH   3   4
ENDBRANCH   2   3
TORSDOF 14
ENDMDL
MODEL      340
REMARK 921   NORMALIZED FREE ENERGY PREDICTED BY IDOCK:   -3.07 KCAL/MOL
REMARK 922        TOTAL FREE ENERGY PREDICTED BY IDOCK:   -6.68 KCAL/MOL
REMARK 923 INTER-LIGAND FREE ENERGY PREDICTED BY IDOCK:   -6.01 KCAL/MOL
REMARK 924 INTRA-LIGAND FREE ENERGY PREDICTED BY IDOCK:   -0.67 KCAL/MOL
REMARK 927      BINDING AFFINITY PREDICTED BY RF-SCORE:    0.00 PKD
ROOT
HETATM    1  C   UNK     1      -5.562  10.442  69.467  1.00  0.00    -0.038 C  
HETATM    2  C   UNK     1      -6.754  10.139  70.364  1.00  0.00    -0.134 C  
ENDROOT
BRANCH   2   3
HETATM    3  C   UNK     1      -7.217   8.690  70.250  1.00  0.00    -0.049 C  
BRANCH   3   4
HETATM    4  C   UNK     1      -8.465   8.456  71.061  1.00  0.00    -0.143 C  
HETATM    5  O   UNK     1      -8.626   8.857  72.206  1.00  0.00    -0.397 OA 
BRANCH   4   6
HETATM    6  O   UNK     1      -9.358   7.719  70.358  1.00  0.00    -0.159 OA 
BRANCH   6   7
HETATM    7  C   UNK     1     -10.514   8.375  69.784  1.00  0.00    -0.220 C  
BRANCH   7   8
HETATM    8  C   UNK     1     -10.543   9.886  70.049  1.00  0.00    -0.288 C  
BRANCH   8   9
HETATM    9  O   UNK     1     -10.037  10.620  68.934  1.00  0.00    -0.184 OA 
BRANCH   9  10
HETATM   10  P   UNK     1     -10.992  12.003  68.525  1.00  0.00    -0.275 P  
HETATM   11  O   UNK     1     -11.954  11.116  67.545  1.00  0.00    -0.580 OA 
HETATM   12  O   UNK     1     -11.619  11.971  69.921  1.00  0.00    -0.291 OA 
BRANCH  10  13
HETATM   13  O   UNK     1     -11.948  13.387  68.117  1.00  0.00    -0.349 OA 
BRANCH  13  14
HETATM   14  C   UNK     1     -12.049  13.585  66.699  1.00  0.00    -0.396 C  
BRANCH  14  15
HETATM   15  C   UNK     1     -11.513  14.959  66.292  1.00  0.00    -0.269 C  
HETATM   16  N   UNK     1     -10.520  14.894  65.180  1.00  0.00    -0.401 NA 
HETATM   17  C   UNK     1     -10.839  15.578  67.514  1.00  0.00    -0.306 C  
HETATM   18  O   UNK     1      -9.489  15.424  67.465  1.00  0.00    -0.203 OA 
HETATM   19  O   UNK     1     -11.428  16.098  68.449  1.00  0.00    -0.369 OA 
HETATM   20  H1  UNK     1     -10.163  15.811  64.909  1.00  0.00     0.000 HD 
HETATM   21  H2  UNK     1     -10.907  14.402  64.375  1.00  0.00     0.000 HD 
ENDBRANCH  14  15
ENDBRANCH  13  14
ENDBRANCH  10  13
ENDBRANCH   9  10
ENDBRANCH   8   9
ENDBRANCH   7   8
BRANCH   7  22
HETATM   22  C   UNK     1     -10.660   8.059  68.284  1.00  0.00    -0.101 C  
BRANCH  22  23
HETATM   23  O   UNK     1      -9.391   7.748  67.680  1.00  0.00    -0.141 OA 
BRANCH  23  24
HETATM   24  C   UNK     1      -9.257   8.147  66.384  1.00  0.00    -0.199 C  
HETATM   25  O   UNK     1      -9.720   9.177  65.924  1.00  0.00    -0.270 OA 
BRANCH  24  26
HETATM   26  C   UNK     1      -8.436   7.134  65.620  1.00  0.00    -0.141 C  
HETATM   27  C   UNK     1      -7.873   6.071  66.545  1.00  0.00    -0.104 C  
ENDBRANCH  24  26
ENDBRANCH  23  24
ENDBRANCH  22  23
ENDBRANCH   7  22
ENDBRANCH   6   7
ENDBRANCH   4   6
ENDBRANCH   3   4
ENDBRANCH   2   3
TORSDOF 14
ENDMDL
MODEL      341
REMARK 921   NORMALIZED FREE ENERGY PREDICTED BY IDOCK:   -3.06 KCAL/MOL
REMARK 922        TOTAL FREE ENERGY PREDICTED BY IDOCK:   -6.65 KCAL/MOL
REMARK 923 INTER-LIGAND FREE ENERGY PREDICTED BY IDOCK:   -5.77 KCAL/MOL
REMARK 924 INTRA-LIGAND FREE ENERGY PREDICTED BY IDOCK:   -0.89 KCAL/MOL
REMARK 927      BINDING AFFINITY PREDICTED BY RF-SCORE:    0.00 PKD
ROOT
HETATM    1  C   UNK     1      -5.725  12.940  70.271  1.00  0.00    -0.162 C  
HETATM    2  C   UNK     1      -6.524  11.967  69.415  1.00  0.00    -0.119 C  
ENDROOT
BRANCH   2   3
HETATM    3  C   UNK     1      -6.932  12.567  68.074  1.00  0.00    -0.095 C  
BRANCH   3   4
HETATM    4  C   UNK     1      -8.295  12.080  67.657  1.00  0.00    -0.160 C  
HETATM    5  O   UNK     1      -9.282  12.797  67.564  1.00  0.00    -0.177 OA 
BRANCH   4   6
HETATM    6  O   UNK     1      -8.276  10.744  67.434  1.00  0.00    -0.114 OA 
BRANCH   6   7
HETATM    7  C   UNK     1      -9.491   9.982  67.627  1.00  0.00    -0.144 C  
BRANCH   7   8
HETATM    8  C   UNK     1      -9.598   8.772  66.688  1.00  0.00    -0.220 C  
BRANCH   8   9
HETATM    9  O   UNK     1     -10.709   7.944  67.032  1.00  0.00    -0.339 OA 
BRANCH   9  10
HETATM   10  P   UNK     1     -10.252   6.428  67.729  1.00  0.00    -0.219 P  
HETATM   11  O   UNK     1     -11.109   5.595  66.612  1.00  0.00    -0.202 OA 
HETATM   12  O   UNK     1      -8.839   6.608  67.171  1.00  0.00    -0.114 OA 
BRANCH  10  13
HETATM   13  O   UNK     1      -9.795   4.912  68.426  1.00  0.00    -0.149 OA 
BRANCH  13  14
HETATM   14  C   UNK     1     -10.258   4.767  69.776  1.00  0.00    -0.148 C  
BRANCH  14  15
HETATM   15  C   UNK     1     -10.030   6.047  70.582  1.00  0.00    -0.185 C  
HETATM   16  N   UNK     1      -8.865   5.956  71.509  1.00  0.00    -0.136 NA 
HETATM   17  C   UNK     1     -11.289   6.311  71.404  1.00  0.00    -0.296 C  
HETATM   18  O   UNK     1     -11.138   5.891  72.688  1.00  0.00    -0.249 OA 
HETATM   19  O   UNK     1     -12.325   6.787  70.964  1.00  0.00    -0.378 OA 
HETATM   20  H1  UNK     1      -8.713   6.810  72.046  1.00  0.00     0.000 HD 
HETATM   21  H2  UNK     1      -8.019   5.688  71.005  1.00  0.00     0.000 HD 
ENDBRANCH  14  15
ENDBRANCH  13  14
ENDBRANCH  10  13
ENDBRANCH   9  10
ENDBRANCH   8   9
ENDBRANCH   7   8
BRANCH   7  22
HETATM   22  C   UNK     1      -9.679   9.575  69.100  1.00  0.00    -0.178 C  
BRANCH  22  23
HETATM   23  O   UNK     1     -10.339  10.608  69.856  1.00  0.00    -0.181 OA 
BRANCH  23  24
HETATM   24  C   UNK     1     -11.690  10.665  69.693  1.00  0.00    -0.296 C  
HETATM   25  O   UNK     1     -12.254  10.896  68.637  1.00  0.00    -0.533 OA 
BRANCH  24  26
HETATM   26  C   UNK     1     -12.374  10.381  71.011  1.00  0.00    -0.490 C  
HETATM   27  C   UNK     1     -13.004  11.635  71.587  1.00  0.00    -0.483 C  
ENDBRANCH  24  26
ENDBRANCH  23  24
ENDBRANCH  22  23
ENDBRANCH   7  22
ENDBRANCH   6   7
ENDBRANCH   4   6
ENDBRANCH   3   4
ENDBRANCH   2   3
TORSDOF 14
ENDMDL
MODEL      342
REMARK 921   NORMALIZED FREE ENERGY PREDICTED BY IDOCK:   -3.06 KCAL/MOL
REMARK 922        TOTAL FREE ENERGY PREDICTED BY IDOCK:   -6.65 KCAL/MOL
REMARK 923 INTER-LIGAND FREE ENERGY PREDICTED BY IDOCK:   -5.71 KCAL/MOL
REMARK 924 INTRA-LIGAND FREE ENERGY PREDICTED BY IDOCK:   -0.94 KCAL/MOL
REMARK 927      BINDING AFFINITY PREDICTED BY RF-SCORE:    0.00 PKD
ROOT
HETATM    1  C   UNK     1     -11.191  11.221  67.130  1.00  0.00    -0.344 C  
HETATM    2  C   UNK     1     -11.427  11.365  68.627  1.00  0.00    -0.359 C  
ENDROOT
BRANCH   2   3
HETATM    3  C   UNK     1     -11.251  10.048  69.376  1.00  0.00    -0.235 C  
BRANCH   3   4
HETATM    4  C   UNK     1      -9.805   9.819  69.734  1.00  0.00    -0.234 C  
HETATM    5  O   UNK     1      -8.869  10.431  69.238  1.00  0.00    -0.166 OA 
BRANCH   4   6
HETATM    6  O   UNK     1      -9.694   8.827  70.650  1.00  0.00    -0.174 OA 
BRANCH   6   7
HETATM    7  C   UNK     1      -9.966   7.464  70.247  1.00  0.00    -0.188 C  
BRANCH   7   8
HETATM    8  C   UNK     1      -8.713   6.712  69.779  1.00  0.00    -0.140 C  
BRANCH   8   9
HETATM    9  O   UNK     1      -8.600   6.724  68.355  1.00  0.00    -0.124 OA 
BRANCH   9  10
HETATM   10  P   UNK     1      -9.271   5.321  67.596  1.00  0.00    -0.122 P  
HETATM   11  O   UNK     1     -10.437   6.207  66.869  1.00  0.00    -0.218 OA 
HETATM   12  O   UNK     1      -8.076   5.278  66.642  1.00  0.00    -0.104 OA 
BRANCH  10  13
HETATM   13  O   UNK     1      -9.941   3.919  66.838  1.00  0.00    -0.153 OA 
BRANCH  13  14
HETATM   14  C   UNK     1      -9.263   3.575  65.620  1.00  0.00    -0.158 C  
BRANCH  14  15
HETATM   15  C   UNK     1     -10.091   3.966  64.395  1.00  0.00    -0.215 C  
HETATM   16  N   UNK     1     -11.467   4.429  64.741  1.00  0.00    -1.021 NA 
HETATM   17  C   UNK     1     -10.200   2.738  63.495  1.00  0.00    -0.171 C  
HETATM   18  O   UNK     1     -11.392   2.106  63.665  1.00  0.00    -0.196 OA 
HETATM   19  O   UNK     1      -9.317   2.333  62.755  1.00  0.00    -0.090 OA 
HETATM   20  H1  UNK     1     -12.019   4.690  63.923  1.00  0.00     0.000 HD 
HETATM   21  H2  UNK     1     -11.434   5.193  65.416  1.00  0.00     0.000 HD 
ENDBRANCH  14  15
ENDBRANCH  13  14
ENDBRANCH  10  13
ENDBRANCH   9  10
ENDBRANCH   8   9
ENDBRANCH   7   8
BRANCH   7  22
HETATM   22  C   UNK     1     -10.719   6.687  71.342  1.00  0.00    -0.229 C  
BRANCH  22  23
HETATM   23  O   UNK     1     -10.532   5.265  71.210  1.00  0.00    -0.226 OA 
BRANCH  23  24
HETATM   24  C   UNK     1     -10.276   4.608  72.375  1.00  0.00    -0.189 C  
HETATM   25  O   UNK     1     -10.441   5.077  73.488  1.00  0.00    -0.188 OA 
BRANCH  24  26
HETATM   26  C   UNK     1      -9.781   3.212  72.075  1.00  0.00    -0.233 C  
HETATM   27  C   UNK     1     -10.439   2.187  72.981  1.00  0.00    -0.234 C  
ENDBRANCH  24  26
ENDBRANCH  23  24
ENDBRANCH  22  23
ENDBRANCH   7  22
ENDBRANCH   6   7
ENDBRANCH   4   6
ENDBRANCH   3   4
ENDBRANCH   2   3
TORSDOF 14
ENDMDL
MODEL      343
REMARK 921   NORMALIZED FREE ENERGY PREDICTED BY IDOCK:   -3.05 KCAL/MOL
REMARK 922        TOTAL FREE ENERGY PREDICTED BY IDOCK:   -6.64 KCAL/MOL
REMARK 923 INTER-LIGAND FREE ENERGY PREDICTED BY IDOCK:   -5.73 KCAL/MOL
REMARK 924 INTRA-LIGAND FREE ENERGY PREDICTED BY IDOCK:   -0.91 KCAL/MOL
REMARK 927      BINDING AFFINITY PREDICTED BY RF-SCORE:    0.00 PKD
ROOT
HETATM    1  C   UNK     1      -6.906  11.486  67.063  1.00  0.00    -0.147 C  
HETATM    2  C   UNK     1      -6.737  10.058  66.564  1.00  0.00    -0.082 C  
ENDROOT
BRANCH   2   3
HETATM    3  C   UNK     1      -6.484   9.069  67.697  1.00  0.00    -0.060 C  
BRANCH   3   4
HETATM    4  C   UNK     1      -7.718   8.256  67.990  1.00  0.00    -0.107 C  
HETATM    5  O   UNK     1      -8.594   8.018  67.170  1.00  0.00    -0.122 OA 
BRANCH   4   6
HETATM    6  O   UNK     1      -7.729   7.859  69.285  1.00  0.00    -0.095 OA 
BRANCH   6   7
HETATM    7  C   UNK     1      -8.671   8.469  70.199  1.00  0.00    -0.137 C  
BRANCH   7   8
HETATM    8  C   UNK     1      -9.287   9.764  69.653  1.00  0.00    -0.219 C  
BRANCH   8   9
HETATM    9  O   UNK     1     -10.689   9.619  69.426  1.00  0.00    -0.217 OA 
BRANCH   9  10
HETATM   10  P   UNK     1     -11.299  10.654  68.181  1.00  0.00    -0.121 P  
HETATM   11  O   UNK     1     -12.605  11.055  69.080  1.00  0.00    -0.378 OA 
HETATM   12  O   UNK     1     -10.202  11.671  68.502  1.00  0.00    -0.200 OA 
BRANCH  10  13
HETATM   13  O   UNK     1     -11.909  11.689  66.936  1.00  0.00    -0.577 OA 
BRANCH  13  14
HETATM   14  C   UNK     1     -10.892  12.534  66.377  1.00  0.00    -0.261 C  
BRANCH  14  15
HETATM   15  C   UNK     1     -11.480  13.857  65.883  1.00  0.00    -0.325 C  
HETATM   16  N   UNK     1     -11.018  14.227  64.513  1.00  0.00    -0.583 NA 
HETATM   17  C   UNK     1     -11.051  14.951  66.857  1.00  0.00    -0.337 C  
HETATM   18  O   UNK     1      -9.986  15.647  66.379  1.00  0.00    -0.253 OA 
HETATM   19  O   UNK     1     -11.555  15.150  67.952  1.00  0.00    -0.333 OA 
HETATM   20  H1  UNK     1     -11.410  15.110  64.184  1.00  0.00     0.000 HD 
HETATM   21  H2  UNK     1     -11.205  13.476  63.850  1.00  0.00     0.000 HD 
ENDBRANCH  14  15
ENDBRANCH  13  14
ENDBRANCH  10  13
ENDBRANCH   9  10
ENDBRANCH   8   9
ENDBRANCH   7   8
BRANCH   7  22
HETATM   22  C   UNK     1      -9.755   7.471  70.648  1.00  0.00    -0.175 C  
BRANCH  22  23
HETATM   23  O   UNK     1     -10.040   7.594  72.054  1.00  0.00    -0.179 OA 
BRANCH  23  24
HETATM   24  C   UNK     1      -9.787   6.477  72.792  1.00  0.00    -0.169 C  
HETATM   25  O   UNK     1      -9.083   6.447  73.788  1.00  0.00    -0.126 OA 
BRANCH  24  26
HETATM   26  C   UNK     1     -10.523   5.298  72.201  1.00  0.00    -0.278 C  
HETATM   27  C   UNK     1     -10.475   4.097  73.128  1.00  0.00    -0.248 C  
ENDBRANCH  24  26
ENDBRANCH  23  24
ENDBRANCH  22  23
ENDBRANCH   7  22
ENDBRANCH   6   7
ENDBRANCH   4   6
ENDBRANCH   3   4
ENDBRANCH   2   3
TORSDOF 14
ENDMDL
MODEL      344
REMARK 921   NORMALIZED FREE ENERGY PREDICTED BY IDOCK:   -3.05 KCAL/MOL
REMARK 922        TOTAL FREE ENERGY PREDICTED BY IDOCK:   -6.64 KCAL/MOL
REMARK 923 INTER-LIGAND FREE ENERGY PREDICTED BY IDOCK:   -5.91 KCAL/MOL
REMARK 924 INTRA-LIGAND FREE ENERGY PREDICTED BY IDOCK:   -0.73 KCAL/MOL
REMARK 927      BINDING AFFINITY PREDICTED BY RF-SCORE:    0.00 PKD
ROOT
HETATM    1  C   UNK     1     -10.057   3.856  64.537  1.00  0.00    -0.224 C  
HETATM    2  C   UNK     1      -9.232   3.326  65.702  1.00  0.00    -0.150 C  
ENDROOT
BRANCH   2   3
HETATM    3  C   UNK     1      -9.717   3.853  67.049  1.00  0.00    -0.186 C  
BRANCH   3   4
HETATM    4  C   UNK     1      -8.635   4.639  67.742  1.00  0.00    -0.103 C  
HETATM    5  O   UNK     1      -7.502   4.783  67.304  1.00  0.00    -0.080 OA 
BRANCH   4   6
HETATM    6  O   UNK     1      -9.086   5.130  68.922  1.00  0.00    -0.102 OA 
BRANCH   6   7
HETATM    7  C   UNK     1      -9.536   6.504  68.986  1.00  0.00    -0.132 C  
BRANCH   7   8
HETATM    8  C   UNK     1      -9.329   7.267  67.672  1.00  0.00    -0.128 C  
BRANCH   8   9
HETATM    9  O   UNK     1     -10.568   7.743  67.144  1.00  0.00    -0.321 OA 
BRANCH   9  10
HETATM   10  P   UNK     1     -10.485   9.361  66.537  1.00  0.00     0.053 P  
HETATM   11  O   UNK     1     -11.136   9.967  67.909  1.00  0.00    -0.262 OA 
HETATM   12  O   UNK     1      -8.967   9.345  66.727  1.00  0.00    -0.128 OA 
BRANCH  10  13
HETATM   13  O   UNK     1     -10.402  10.979  65.929  1.00  0.00    -0.249 OA 
BRANCH  13  14
HETATM   14  C   UNK     1     -10.960  11.937  66.840  1.00  0.00    -0.289 C  
BRANCH  14  15
HETATM   15  C   UNK     1      -9.958  13.049  67.158  1.00  0.00    -0.235 C  
HETATM   16  N   UNK     1      -9.784  13.278  68.622  1.00  0.00    -0.400 NA 
HETATM   17  C   UNK     1     -10.472  14.336  66.519  1.00  0.00    -0.287 C  
HETATM   18  O   UNK     1     -11.104  15.122  67.431  1.00  0.00    -0.311 OA 
HETATM   19  O   UNK     1     -10.383  14.612  65.333  1.00  0.00    -0.331 OA 
HETATM   20  H1  UNK     1      -9.116  14.019  68.834  1.00  0.00     0.000 HD 
HETATM   21  H2  UNK     1      -9.530  12.412  69.098  1.00  0.00     0.000 HD 
ENDBRANCH  14  15
ENDBRANCH  13  14
ENDBRANCH  10  13
ENDBRANCH   9  10
ENDBRANCH   8   9
ENDBRANCH   7   8
BRANCH   7  22
HETATM   22  C   UNK     1     -10.993   6.602  69.476  1.00  0.00    -0.313 C  
BRANCH  22  23
HETATM   23  O   UNK     1     -11.182   7.723  70.360  1.00  0.00    -0.266 OA 
BRANCH  23  24
HETATM   24  C   UNK     1     -11.866   7.444  71.504  1.00  0.00    -0.297 C  
HETATM   25  O   UNK     1     -12.902   6.802  71.555  1.00  0.00    -0.346 OA 
BRANCH  24  26
HETATM   26  C   UNK     1     -11.138   8.032  72.690  1.00  0.00    -0.453 C  
HETATM   27  C   UNK     1     -10.623   6.944  73.616  1.00  0.00    -0.371 C  
ENDBRANCH  24  26
ENDBRANCH  23  24
ENDBRANCH  22  23
ENDBRANCH   7  22
ENDBRANCH   6   7
ENDBRANCH   4   6
ENDBRANCH   3   4
ENDBRANCH   2   3
TORSDOF 14
ENDMDL
MODEL      345
REMARK 921   NORMALIZED FREE ENERGY PREDICTED BY IDOCK:   -3.04 KCAL/MOL
REMARK 922        TOTAL FREE ENERGY PREDICTED BY IDOCK:   -6.61 KCAL/MOL
REMARK 923 INTER-LIGAND FREE ENERGY PREDICTED BY IDOCK:   -5.38 KCAL/MOL
REMARK 924 INTRA-LIGAND FREE ENERGY PREDICTED BY IDOCK:   -1.23 KCAL/MOL
REMARK 927      BINDING AFFINITY PREDICTED BY RF-SCORE:    0.00 PKD
ROOT
HETATM    1  C   UNK     1      -9.405  19.754  66.266  1.00  0.00    -0.472 C  
HETATM    2  C   UNK     1      -9.634  18.250  66.324  1.00  0.00    -0.256 C  
ENDROOT
BRANCH   2   3
HETATM    3  C   UNK     1     -10.755  17.867  67.285  1.00  0.00    -0.278 C  
BRANCH   3   4
HETATM    4  C   UNK     1     -10.572  16.460  67.794  1.00  0.00    -0.321 C  
HETATM    5  O   UNK     1     -11.190  15.984  68.737  1.00  0.00    -0.318 OA 
BRANCH   4   6
HETATM    6  O   UNK     1      -9.613  15.819  67.084  1.00  0.00    -0.215 OA 
BRANCH   6   7
HETATM    7  C   UNK     1      -8.821  14.798  67.735  1.00  0.00    -0.175 C  
BRANCH   7   8
HETATM    8  C   UNK     1      -9.124  13.383  67.224  1.00  0.00    -0.222 C  
BRANCH   8   9
HETATM    9  O   UNK     1      -8.282  12.412  67.849  1.00  0.00    -0.141 OA 
BRANCH   9  10
HETATM   10  P   UNK     1      -9.007  10.846  67.973  1.00  0.00    -0.156 P  
HETATM   11  O   UNK     1      -7.666  10.222  68.671  1.00  0.00    -0.086 OA 
HETATM   12  O   UNK     1      -9.904  11.362  69.101  1.00  0.00    -0.096 OA 
BRANCH  10  13
HETATM   13  O   UNK     1      -9.732   9.281  68.098  1.00  0.00    -0.145 OA 
BRANCH  13  14
HETATM   14  C   UNK     1      -9.146   8.485  69.139  1.00  0.00    -0.146 C  
BRANCH  14  15
HETATM   15  C   UNK     1     -10.191   8.074  70.178  1.00  0.00    -0.203 C  
HETATM   16  N   UNK     1      -9.656   8.060  71.571  1.00  0.00    -0.157 NA 
HETATM   17  C   UNK     1     -10.672   6.669  69.825  1.00  0.00    -0.257 C  
HETATM   18  O   UNK     1     -10.053   5.729  70.587  1.00  0.00    -0.184 OA 
HETATM   19  O   UNK     1     -11.469   6.406  68.937  1.00  0.00    -0.314 OA 
HETATM   20  H1  UNK     1     -10.353   7.786  72.264  1.00  0.00     0.000 HD 
HETATM   21  H2  UNK     1      -9.240   8.960  71.810  1.00  0.00     0.000 HD 
ENDBRANCH  14  15
ENDBRANCH  13  14
ENDBRANCH  10  13
ENDBRANCH   9  10
ENDBRANCH   8   9
ENDBRANCH   7   8
BRANCH   7  22
HETATM   22  C   UNK     1      -7.316  15.116  67.668  1.00  0.00    -0.183 C  
BRANCH  22  23
HETATM   23  O   UNK     1      -7.021  16.413  68.219  1.00  0.00    -0.131 OA 
BRANCH  23  24
HETATM   24  C   UNK     1      -6.172  17.175  67.474  1.00  0.00    -0.145 C  
HETATM   25  O   UNK     1      -5.478  16.754  66.564  1.00  0.00    -0.346 OA 
BRANCH  24  26
HETATM   26  C   UNK     1      -6.240  18.612  67.935  1.00  0.00    -0.189 C  
HETATM   27  C   UNK     1      -6.925  18.727  69.285  1.00  0.00    -0.247 C  
ENDBRANCH  24  26
ENDBRANCH  23  24
ENDBRANCH  22  23
ENDBRANCH   7  22
ENDBRANCH   6   7
ENDBRANCH   4   6
ENDBRANCH   3   4
ENDBRANCH   2   3
TORSDOF 14
ENDMDL
MODEL      346
REMARK 921   NORMALIZED FREE ENERGY PREDICTED BY IDOCK:   -3.03 KCAL/MOL
REMARK 922        TOTAL FREE ENERGY PREDICTED BY IDOCK:   -6.61 KCAL/MOL
REMARK 923 INTER-LIGAND FREE ENERGY PREDICTED BY IDOCK:   -5.97 KCAL/MOL
REMARK 924 INTRA-LIGAND FREE ENERGY PREDICTED BY IDOCK:   -0.64 KCAL/MOL
REMARK 927      BINDING AFFINITY PREDICTED BY RF-SCORE:    0.00 PKD
ROOT
HETATM    1  C   UNK     1      -7.015  17.642  67.707  1.00  0.00    -0.187 C  
HETATM    2  C   UNK     1      -6.966  16.369  66.873  1.00  0.00    -0.247 C  
ENDROOT
BRANCH   2   3
HETATM    3  C   UNK     1      -8.327  15.688  66.767  1.00  0.00    -0.313 C  
BRANCH   3   4
HETATM    4  C   UNK     1      -8.424  14.525  67.720  1.00  0.00    -0.174 C  
HETATM    5  O   UNK     1      -8.476  14.637  68.937  1.00  0.00    -0.164 OA 
BRANCH   4   6
HETATM    6  O   UNK     1      -8.414  13.352  67.042  1.00  0.00    -0.194 OA 
BRANCH   6   7
HETATM    7  C   UNK     1      -9.481  12.401  67.267  1.00  0.00    -0.191 C  
BRANCH   7   8
HETATM    8  C   UNK     1      -9.187  11.426  68.415  1.00  0.00    -0.183 C  
BRANCH   8   9
HETATM    9  O   UNK     1      -8.014  10.654  68.156  1.00  0.00    -0.107 OA 
BRANCH   9  10
HETATM   10  P   UNK     1      -7.934   9.188  69.071  1.00  0.00    -0.105 P  
HETATM   11  O   UNK     1      -6.307   9.292  69.196  1.00  0.00    -0.042 OA 
HETATM   12  O   UNK     1      -8.526   9.920  70.278  1.00  0.00    -0.178 OA 
BRANCH  10  13
HETATM   13  O   UNK     1      -7.855   7.722  69.987  1.00  0.00    -0.099 OA 
BRANCH  13  14
HETATM   14  C   UNK     1      -8.944   7.593  70.912  1.00  0.00    -0.148 C  
BRANCH  14  15
HETATM   15  C   UNK     1      -9.570   6.199  70.841  1.00  0.00    -0.173 C  
HETATM   16  N   UNK     1      -9.074   5.393  69.687  1.00  0.00    -0.115 NA 
HETATM   17  C   UNK     1     -11.081   6.374  70.702  1.00  0.00    -0.317 C  
HETATM   18  O   UNK     1     -11.477   6.237  69.408  1.00  0.00    -0.427 OA 
HETATM   19  O   UNK     1     -11.839   6.655  71.616  1.00  0.00    -0.304 OA 
HETATM   20  H1  UNK     1      -9.492   4.464  69.640  1.00  0.00     0.000 HD 
HETATM   21  H2  UNK     1      -8.056   5.334  69.696  1.00  0.00     0.000 HD 
ENDBRANCH  14  15
ENDBRANCH  13  14
ENDBRANCH  10  13
ENDBRANCH   9  10
ENDBRANCH   8   9
ENDBRANCH   7   8
BRANCH   7  22
HETATM   22  C   UNK     1     -10.839  13.103  67.452  1.00  0.00    -0.255 C  
BRANCH  22  23
HETATM   23  O   UNK     1     -11.913  12.346  66.864  1.00  0.00    -0.550 OA 
BRANCH  23  24
HETATM   24  C   UNK     1     -12.034  12.473  65.513  1.00  0.00    -0.442 C  
HETATM   25  O   UNK     1     -11.505  11.739  64.696  1.00  0.00    -0.304 OA 
BRANCH  24  26
HETATM   26  C   UNK     1     -12.934  13.644  65.190  1.00  0.00    -0.277 C  
HETATM   27  C   UNK     1     -12.189  14.714  64.413  1.00  0.00    -0.473 C  
ENDBRANCH  24  26
ENDBRANCH  23  24
ENDBRANCH  22  23
ENDBRANCH   7  22
ENDBRANCH   6   7
ENDBRANCH   4   6
ENDBRANCH   3   4
ENDBRANCH   2   3
TORSDOF 14
ENDMDL
MODEL      347
REMARK 921   NORMALIZED FREE ENERGY PREDICTED BY IDOCK:   -3.02 KCAL/MOL
REMARK 922        TOTAL FREE ENERGY PREDICTED BY IDOCK:   -6.58 KCAL/MOL
REMARK 923 INTER-LIGAND FREE ENERGY PREDICTED BY IDOCK:   -6.39 KCAL/MOL
REMARK 924 INTRA-LIGAND FREE ENERGY PREDICTED BY IDOCK:   -0.20 KCAL/MOL
REMARK 927      BINDING AFFINITY PREDICTED BY RF-SCORE:    0.00 PKD
ROOT
HETATM    1  C   UNK     1      -5.402  14.814  70.705  1.00  0.00    -0.132 C  
HETATM    2  C   UNK     1      -6.505  13.798  70.443  1.00  0.00     0.084 C  
ENDROOT
BRANCH   2   3
HETATM    3  C   UNK     1      -7.149  13.974  69.072  1.00  0.00    -0.106 C  
BRANCH   3   4
HETATM    4  C   UNK     1      -8.316  14.925  69.141  1.00  0.00    -0.150 C  
HETATM    5  O   UNK     1      -8.716  15.448  70.172  1.00  0.00     0.121 OA 
BRANCH   4   6
HETATM    6  O   UNK     1      -8.869  15.089  67.915  1.00  0.00    -0.165 OA 
BRANCH   6   7
HETATM    7  C   UNK     1     -10.305  14.981  67.772  1.00  0.00    -0.245 C  
BRANCH   7   8
HETATM    8  C   UNK     1     -10.933  13.973  68.743  1.00  0.00    -0.262 C  
BRANCH   8   9
HETATM    9  O   UNK     1     -10.253  12.718  68.703  1.00  0.00    -0.222 OA 
BRANCH   9  10
HETATM   10  P   UNK     1     -10.467  11.862  67.215  1.00  0.00    -0.237 P  
HETATM   11  O   UNK     1      -8.859  11.872  66.917  1.00  0.00    -0.185 OA 
HETATM   12  O   UNK     1     -10.771  10.587  68.003  1.00  0.00    -0.206 OA 
BRANCH  10  13
HETATM   13  O   UNK     1     -10.680  11.006  65.727  1.00  0.00    -0.228 OA 
BRANCH  13  14
HETATM   14  C   UNK     1     -11.734  11.556  64.923  1.00  0.00     0.091 C  
BRANCH  14  15
HETATM   15  C   UNK     1     -11.175  12.402  63.778  1.00  0.00    -0.453 C  
HETATM   16  N   UNK     1      -9.703  12.238  63.594  1.00  0.00    -0.648 NA 
HETATM   17  C   UNK     1     -11.469  13.866  64.093  1.00  0.00    -0.249 C  
HETATM   18  O   UNK     1     -10.379  14.486  64.619  1.00  0.00    -0.370 OA 
HETATM   19  O   UNK     1     -12.553  14.409  63.948  1.00  0.00    -0.814 OA 
HETATM   20  H1  UNK     1      -9.330  12.802  62.830  1.00  0.00     0.000 HD 
HETATM   21  H2  UNK     1      -9.459  11.255  63.473  1.00  0.00     0.000 HD 
ENDBRANCH  14  15
ENDBRANCH  13  14
ENDBRANCH  10  13
ENDBRANCH   9  10
ENDBRANCH   8   9
ENDBRANCH   7   8
BRANCH   7  22
HETATM   22  C   UNK     1     -10.989  16.358  67.861  1.00  0.00    -0.298 C  
BRANCH  22  23
HETATM   23  O   UNK     1     -10.060  17.390  68.240  1.00  0.00    -0.298 OA 
BRANCH  23  24
HETATM   24  C   UNK     1      -9.449  18.023  67.200  1.00  0.00    -0.264 C  
HETATM   25  O   UNK     1      -8.243  18.172  67.090  1.00  0.00    -0.222 OA 
BRANCH  24  26
HETATM   26  C   UNK     1     -10.487  18.488  66.205  1.00  0.00    -0.441 C  
HETATM   27  C   UNK     1     -10.201  19.901  65.730  1.00  0.00    -0.486 C  
ENDBRANCH  24  26
ENDBRANCH  23  24
ENDBRANCH  22  23
ENDBRANCH   7  22
ENDBRANCH   6   7
ENDBRANCH   4   6
ENDBRANCH   3   4
ENDBRANCH   2   3
TORSDOF 14
ENDMDL
MODEL      348
REMARK 921   NORMALIZED FREE ENERGY PREDICTED BY IDOCK:   -3.00 KCAL/MOL
REMARK 922        TOTAL FREE ENERGY PREDICTED BY IDOCK:   -6.55 KCAL/MOL
REMARK 923 INTER-LIGAND FREE ENERGY PREDICTED BY IDOCK:   -4.77 KCAL/MOL
REMARK 924 INTRA-LIGAND FREE ENERGY PREDICTED BY IDOCK:   -1.77 KCAL/MOL
REMARK 927      BINDING AFFINITY PREDICTED BY RF-SCORE:    0.00 PKD
ROOT
HETATM    1  C   UNK     1      -6.943  11.550  68.996  1.00  0.00    -0.112 C  
HETATM    2  C   UNK     1      -8.343  11.586  68.401  1.00  0.00    -0.154 C  
ENDROOT
BRANCH   2   3
HETATM    3  C   UNK     1      -8.333  11.863  66.901  1.00  0.00    -0.169 C  
BRANCH   3   4
HETATM    4  C   UNK     1      -7.738  10.705  66.142  1.00  0.00    -0.145 C  
HETATM    5  O   UNK     1      -6.671  10.751  65.544  1.00  0.00    -0.091 OA 
BRANCH   4   6
HETATM    6  O   UNK     1      -8.561   9.630  66.191  1.00  0.00    -0.124 OA 
BRANCH   6   7
HETATM    7  C   UNK     1      -8.005   8.333  66.509  1.00  0.00    -0.100 C  
BRANCH   7   8
HETATM    8  C   UNK     1      -8.276   7.899  67.955  1.00  0.00    -0.127 C  
BRANCH   8   9
HETATM    9  O   UNK     1      -8.914   6.622  68.005  1.00  0.00    -0.119 OA 
BRANCH   9  10
HETATM   10  P   UNK     1     -10.349   6.603  68.972  1.00  0.00    -0.226 P  
HETATM   11  O   UNK     1     -10.407   8.237  69.013  1.00  0.00    -0.218 OA 
HETATM   12  O   UNK     1     -11.154   6.154  67.751  1.00  0.00    -0.326 OA 
BRANCH  10  13
HETATM   13  O   UNK     1     -11.783   6.584  69.938  1.00  0.00    -0.406 OA 
BRANCH  13  14
HETATM   14  C   UNK     1     -11.517   6.260  71.311  1.00  0.00    -0.291 C  
BRANCH  14  15
HETATM   15  C   UNK     1     -11.704   7.480  72.215  1.00  0.00    -0.304 C  
HETATM   16  N   UNK     1     -12.117   8.704  71.468  1.00  0.00    -0.302 NA 
HETATM   17  C   UNK     1     -10.372   7.756  72.908  1.00  0.00    -0.334 C  
HETATM   18  O   UNK     1      -9.691   8.756  72.288  1.00  0.00    -0.301 OA 
HETATM   19  O   UNK     1      -9.938   7.130  73.863  1.00  0.00    -0.301 OA 
HETATM   20  H1  UNK     1     -12.242   9.517  72.071  1.00  0.00     0.000 HD 
HETATM   21  H2  UNK     1     -12.957   8.528  70.917  1.00  0.00     0.000 HD 
ENDBRANCH  14  15
ENDBRANCH  13  14
ENDBRANCH  10  13
ENDBRANCH   9  10
ENDBRANCH   8   9
ENDBRANCH   7   8
BRANCH   7  22
HETATM   22  C   UNK     1      -8.453   7.259  65.500  1.00  0.00    -0.111 C  
BRANCH  22  23
HETATM   23  O   UNK     1      -7.387   6.892  64.606  1.00  0.00    -0.077 OA 
BRANCH  23  24
HETATM   24  C   UNK     1      -7.142   7.783  63.606  1.00  0.00    -0.074 C  
HETATM   25  O   UNK     1      -6.097   8.394  63.460  1.00  0.00    -0.071 OA 
BRANCH  24  26
HETATM   26  C   UNK     1      -8.349   7.879  62.702  1.00  0.00    -0.049 C  
HETATM   27  C   UNK     1      -8.702   9.325  62.404  1.00  0.00    -0.241 C  
ENDBRANCH  24  26
ENDBRANCH  23  24
ENDBRANCH  22  23
ENDBRANCH   7  22
ENDBRANCH   6   7
ENDBRANCH   4   6
ENDBRANCH   3   4
ENDBRANCH   2   3
TORSDOF 14
ENDMDL
MODEL      349
REMARK 921   NORMALIZED FREE ENERGY PREDICTED BY IDOCK:   -3.00 KCAL/MOL
REMARK 922        TOTAL FREE ENERGY PREDICTED BY IDOCK:   -6.54 KCAL/MOL
REMARK 923 INTER-LIGAND FREE ENERGY PREDICTED BY IDOCK:   -5.71 KCAL/MOL
REMARK 924 INTRA-LIGAND FREE ENERGY PREDICTED BY IDOCK:   -0.83 KCAL/MOL
REMARK 927      BINDING AFFINITY PREDICTED BY RF-SCORE:    0.00 PKD
ROOT
HETATM    1  C   UNK     1      -8.491   8.855  71.126  1.00  0.00    -0.250 C  
HETATM    2  C   UNK     1      -9.389   7.990  72.000  1.00  0.00    -0.237 C  
ENDROOT
BRANCH   2   3
HETATM    3  C   UNK     1     -10.831   7.956  71.502  1.00  0.00    -0.268 C  
BRANCH   3   4
HETATM    4  C   UNK     1     -11.199   6.581  71.009  1.00  0.00    -0.309 C  
HETATM    5  O   UNK     1     -10.963   5.546  71.617  1.00  0.00    -0.238 OA 
BRANCH   4   6
HETATM    6  O   UNK     1     -11.794   6.656  69.793  1.00  0.00    -0.299 OA 
BRANCH   6   7
HETATM    7  C   UNK     1     -11.051   6.248  68.621  1.00  0.00    -0.325 C  
BRANCH   7   8
HETATM    8  C   UNK     1     -10.922   7.359  67.572  1.00  0.00    -0.106 C  
BRANCH   8   9
HETATM    9  O   UNK     1     -10.000   8.366  67.990  1.00  0.00    -0.167 OA 
BRANCH   9  10
HETATM   10  P   UNK     1     -10.416   9.955  67.446  1.00  0.00    -0.260 P  
HETATM   11  O   UNK     1     -11.243  10.267  68.821  1.00  0.00    -0.240 OA 
HETATM   12  O   UNK     1      -8.971  10.402  67.677  1.00  0.00    -0.137 OA 
BRANCH  10  13
HETATM   13  O   UNK     1     -10.832  11.543  66.901  1.00  0.00    -0.256 OA 
BRANCH  13  14
HETATM   14  C   UNK     1     -10.608  12.544  67.905  1.00  0.00    -0.218 C  
BRANCH  14  15
HETATM   15  C   UNK     1     -11.783  13.520  67.987  1.00  0.00    -0.359 C  
HETATM   16  N   UNK     1     -11.677  14.647  67.014  1.00  0.00    -0.380 NA 
HETATM   17  C   UNK     1     -11.813  14.096  69.400  1.00  0.00    -0.330 C  
HETATM   18  O   UNK     1     -11.239  15.328  69.444  1.00  0.00    -0.250 OA 
HETATM   19  O   UNK     1     -12.244  13.514  70.383  1.00  0.00    -0.339 OA 
HETATM   20  H1  UNK     1     -12.461  15.298  67.069  1.00  0.00     0.000 HD 
HETATM   21  H2  UNK     1     -11.561  14.297  66.063  1.00  0.00     0.000 HD 
ENDBRANCH  14  15
ENDBRANCH  13  14
ENDBRANCH  10  13
ENDBRANCH   9  10
ENDBRANCH   8   9
ENDBRANCH   7   8
BRANCH   7  22
HETATM   22  C   UNK     1      -9.679   5.657  68.995  1.00  0.00    -0.141 C  
BRANCH  22  23
HETATM   23  O   UNK     1      -9.240   4.679  68.034  1.00  0.00    -0.115 OA 
BRANCH  23  24
HETATM   24  C   UNK     1      -9.103   3.415  68.522  1.00  0.00    -0.151 C  
HETATM   25  O   UNK     1      -9.334   2.398  67.891  1.00  0.00    -0.193 OA 
BRANCH  24  26
HETATM   26  C   UNK     1      -8.602   3.471  69.947  1.00  0.00    -0.104 C  
HETATM   27  C   UNK     1      -7.345   2.639  70.122  1.00  0.00    -0.040 C  
ENDBRANCH  24  26
ENDBRANCH  23  24
ENDBRANCH  22  23
ENDBRANCH   7  22
ENDBRANCH   6   7
ENDBRANCH   4   6
ENDBRANCH   3   4
ENDBRANCH   2   3
TORSDOF 14
ENDMDL
MODEL      350
REMARK 921   NORMALIZED FREE ENERGY PREDICTED BY IDOCK:   -2.99 KCAL/MOL
REMARK 922        TOTAL FREE ENERGY PREDICTED BY IDOCK:   -6.52 KCAL/MOL
REMARK 923 INTER-LIGAND FREE ENERGY PREDICTED BY IDOCK:   -5.83 KCAL/MOL
REMARK 924 INTRA-LIGAND FREE ENERGY PREDICTED BY IDOCK:   -0.70 KCAL/MOL
REMARK 927      BINDING AFFINITY PREDICTED BY RF-SCORE:    0.00 PKD
ROOT
HETATM    1  C   UNK     1     -12.310   6.745  71.188  1.00  0.00    -0.386 C  
HETATM    2  C   UNK     1     -10.924   7.185  71.640  1.00  0.00    -0.255 C  
ENDROOT
BRANCH   2   3
HETATM    3  C   UNK     1      -9.812   6.578  70.790  1.00  0.00    -0.201 C  
BRANCH   3   4
HETATM    4  C   UNK     1      -8.616   7.492  70.733  1.00  0.00    -0.135 C  
HETATM    5  O   UNK     1      -7.667   7.430  71.503  1.00  0.00    -0.084 OA 
BRANCH   4   6
HETATM    6  O   UNK     1      -8.759   8.402  69.739  1.00  0.00    -0.130 OA 
BRANCH   6   7
HETATM    7  C   UNK     1      -9.664   8.113  68.648  1.00  0.00    -0.153 C  
BRANCH   7   8
HETATM    8  C   UNK     1     -10.559   9.303  68.276  1.00  0.00    -0.189 C  
BRANCH   8   9
HETATM    9  O   UNK     1      -9.835  10.533  68.320  1.00  0.00    -0.144 OA 
BRANCH   9  10
HETATM   10  P   UNK     1     -10.829  11.929  68.083  1.00  0.00    -0.255 P  
HETATM   11  O   UNK     1     -11.362  11.370  66.642  1.00  0.00    -0.355 OA 
HETATM   12  O   UNK     1     -11.794  11.412  69.152  1.00  0.00    -0.299 OA 
BRANCH  10  13
HETATM   13  O   UNK     1     -11.823  13.325  67.847  1.00  0.00    -0.337 OA 
BRANCH  13  14
HETATM   14  C   UNK     1     -11.058  14.496  67.525  1.00  0.00    -0.307 C  
BRANCH  14  15
HETATM   15  C   UNK     1     -10.462  14.401  66.119  1.00  0.00    -0.291 C  
HETATM   16  N   UNK     1      -9.083  14.965  66.028  1.00  0.00    -0.500 NA 
HETATM   17  C   UNK     1     -11.373  15.180  65.174  1.00  0.00    -0.357 C  
HETATM   18  O   UNK     1     -10.877  16.421  64.922  1.00  0.00    -0.655 OA 
HETATM   19  O   UNK     1     -12.438  14.774  64.737  1.00  0.00    -0.401 OA 
HETATM   20  H1  UNK     1      -8.687  14.902  65.091  1.00  0.00     0.000 HD 
HETATM   21  H2  UNK     1      -8.467  14.530  66.715  1.00  0.00     0.000 HD 
ENDBRANCH  14  15
ENDBRANCH  13  14
ENDBRANCH  10  13
ENDBRANCH   9  10
ENDBRANCH   8   9
ENDBRANCH   7   8
BRANCH   7  22
HETATM   22  C   UNK     1      -8.916   7.560  67.420  1.00  0.00    -0.126 C  
BRANCH  22  23
HETATM   23  O   UNK     1      -7.547   8.007  67.386  1.00  0.00    -0.094 OA 
BRANCH  23  24
HETATM   24  C   UNK     1      -6.655   7.089  66.922  1.00  0.00    -0.055 C  
HETATM   25  O   UNK     1      -6.904   5.911  66.733  1.00  0.00    -0.056 OA 
BRANCH  24  26
HETATM   26  C   UNK     1      -5.325   7.758  66.661  1.00  0.00    -0.025 C  
HETATM   27  C   UNK     1      -5.352   8.554  65.368  1.00  0.00    -0.035 C  
ENDBRANCH  24  26
ENDBRANCH  23  24
ENDBRANCH  22  23
ENDBRANCH   7  22
ENDBRANCH   6   7
ENDBRANCH   4   6
ENDBRANCH   3   4
ENDBRANCH   2   3
TORSDOF 14
ENDMDL
MODEL      351
REMARK 921   NORMALIZED FREE ENERGY PREDICTED BY IDOCK:   -2.94 KCAL/MOL
REMARK 922        TOTAL FREE ENERGY PREDICTED BY IDOCK:   -6.44 KCAL/MOL
REMARK 923 INTER-LIGAND FREE ENERGY PREDICTED BY IDOCK:   -5.73 KCAL/MOL
REMARK 924 INTRA-LIGAND FREE ENERGY PREDICTED BY IDOCK:   -0.71 KCAL/MOL
REMARK 927      BINDING AFFINITY PREDICTED BY RF-SCORE:    0.00 PKD
ROOT
HETATM    1  C   UNK     1     -10.716   8.046  67.282  1.00  0.00    -0.280 C  
HETATM    2  C   UNK     1      -9.390   7.381  67.626  1.00  0.00    -0.145 C  
ENDROOT
BRANCH   2   3
HETATM    3  C   UNK     1      -8.443   8.317  68.370  1.00  0.00    -0.129 C  
BRANCH   3   4
HETATM    4  C   UNK     1      -7.740   9.246  67.415  1.00  0.00    -0.095 C  
HETATM    5  O   UNK     1      -7.634   9.044  66.213  1.00  0.00    -0.090 OA 
BRANCH   4   6
HETATM    6  O   UNK     1      -7.222  10.307  68.078  1.00  0.00    -0.083 OA 
BRANCH   6   7
HETATM    7  C   UNK     1      -7.952  11.557  68.085  1.00  0.00    -0.136 C  
BRANCH   7   8
HETATM    8  C   UNK     1      -7.101  12.754  67.643  1.00  0.00    -0.145 C  
BRANCH   8   9
HETATM    9  O   UNK     1      -7.263  13.864  68.527  1.00  0.00    -0.093 OA 
BRANCH   9  10
HETATM   10  P   UNK     1      -7.722  15.327  67.725  1.00  0.00    -0.182 P  
HETATM   11  O   UNK     1      -7.552  16.196  69.099  1.00  0.00    -0.212 OA 
HETATM   12  O   UNK     1      -6.370  15.346  67.009  1.00  0.00    -0.267 OA 
BRANCH  10  13
HETATM   13  O   UNK     1      -8.180  16.789  66.922  1.00  0.00    -0.176 OA 
BRANCH  13  14
HETATM   14  C   UNK     1      -9.516  17.199  67.249  1.00  0.00    -0.245 C  
BRANCH  14  15
HETATM   15  C   UNK     1      -9.590  18.708  67.488  1.00  0.00    -0.294 C  
HETATM   16  N   UNK     1     -10.946  19.168  67.908  1.00  0.00    -0.324 NA 
HETATM   17  C   UNK     1      -9.221  19.406  66.181  1.00  0.00    -0.288 C  
HETATM   18  O   UNK     1     -10.330  19.810  65.506  1.00  0.00    -0.403 OA 
HETATM   19  O   UNK     1      -8.084  19.541  65.758  1.00  0.00    -0.424 OA 
HETATM   20  H1  UNK     1     -10.996  20.174  68.068  1.00  0.00     0.000 HD 
HETATM   21  H2  UNK     1     -11.266  18.654  68.729  1.00  0.00     0.000 HD 
ENDBRANCH  14  15
ENDBRANCH  13  14
ENDBRANCH  10  13
ENDBRANCH   9  10
ENDBRANCH   8   9
ENDBRANCH   7   8
BRANCH   7  22
HETATM   22  C   UNK     1      -9.257  11.457  67.274  1.00  0.00    -0.165 C  
BRANCH  22  23
HETATM   23  O   UNK     1      -9.215  12.284  66.096  1.00  0.00    -0.214 OA 
BRANCH  23  24
HETATM   24  C   UNK     1     -10.245  12.096  65.225  1.00  0.00    -0.274 C  
HETATM   25  O   UNK     1     -11.018  12.967  64.865  1.00  0.00    -0.287 OA 
BRANCH  24  26
HETATM   26  C   UNK     1     -10.266  10.657  64.764  1.00  0.00    -0.401 C  
HETATM   27  C   UNK     1      -9.542  10.491  63.440  1.00  0.00    -0.376 C  
ENDBRANCH  24  26
ENDBRANCH  23  24
ENDBRANCH  22  23
ENDBRANCH   7  22
ENDBRANCH   6   7
ENDBRANCH   4   6
ENDBRANCH   3   4
ENDBRANCH   2   3
TORSDOF 14
ENDMDL
MODEL      352
REMARK 921   NORMALIZED FREE ENERGY PREDICTED BY IDOCK:   -2.89 KCAL/MOL
REMARK 922        TOTAL FREE ENERGY PREDICTED BY IDOCK:   -6.35 KCAL/MOL
REMARK 923 INTER-LIGAND FREE ENERGY PREDICTED BY IDOCK:   -6.49 KCAL/MOL
REMARK 924 INTRA-LIGAND FREE ENERGY PREDICTED BY IDOCK:    0.14 KCAL/MOL
REMARK 927      BINDING AFFINITY PREDICTED BY RF-SCORE:    0.00 PKD
ROOT
HETATM    1  C   UNK     1     -11.488  15.006  65.286  1.00  0.00    -0.308 C  
HETATM    2  C   UNK     1     -11.220  13.790  64.411  1.00  0.00    -0.364 C  
ENDROOT
BRANCH   2   3
HETATM    3  C   UNK     1     -11.993  12.558  64.870  1.00  0.00    -0.468 C  
BRANCH   3   4
HETATM    4  C   UNK     1     -11.473  12.055  66.192  1.00  0.00    -0.339 C  
HETATM    5  O   UNK     1     -12.156  11.943  67.201  1.00  0.00    -0.590 OA 
BRANCH   4   6
HETATM    6  O   UNK     1     -10.149  11.781  66.109  1.00  0.00    -0.212 OA 
BRANCH   6   7
HETATM    7  C   UNK     1      -9.443  11.356  67.298  1.00  0.00    -0.167 C  
BRANCH   7   8
HETATM    8  C   UNK     1      -8.853  12.524  68.099  1.00  0.00    -0.191 C  
BRANCH   8   9
HETATM    9  O   UNK     1      -9.459  13.764  67.735  1.00  0.00    -0.202 OA 
BRANCH   9  10
HETATM   10  P   UNK     1      -8.642  15.148  68.374  1.00  0.00    -0.175 P  
HETATM   11  O   UNK     1      -9.875  15.470  69.398  1.00  0.00    -0.247 OA 
HETATM   12  O   UNK     1      -7.673  14.222  69.113  1.00  0.00    -0.103 OA 
BRANCH  10  13
HETATM   13  O   UNK     1      -7.824  16.532  69.014  1.00  0.00    -0.230 OA 
BRANCH  13  14
HETATM   14  C   UNK     1      -6.923  17.124  68.067  1.00  0.00    -0.171 C  
BRANCH  14  15
HETATM   15  C   UNK     1      -7.592  18.272  67.308  1.00  0.00    -0.217 C  
HETATM   16  N   UNK     1      -7.720  18.011  65.845  1.00  0.00    -0.534 NA 
HETATM   17  C   UNK     1      -6.739  19.523  67.509  1.00  0.00    -0.210 C  
HETATM   18  O   UNK     1      -5.933  19.748  66.438  1.00  0.00    -0.171 OA 
HETATM   19  O   UNK     1      -6.732  20.209  68.519  1.00  0.00    -0.296 OA 
HETATM   20  H1  UNK     1      -8.166  18.777  65.340  1.00  0.00     0.000 HD 
HETATM   21  H2  UNK     1      -8.206  17.131  65.674  1.00  0.00     0.000 HD 
ENDBRANCH  14  15
ENDBRANCH  13  14
ENDBRANCH  10  13
ENDBRANCH   9  10
ENDBRANCH   8   9
ENDBRANCH   7   8
BRANCH   7  22
HETATM   22  C   UNK     1     -10.316  10.445  68.182  1.00  0.00    -0.172 C  
BRANCH  22  23
HETATM   23  O   UNK     1      -9.815  10.374  69.530  1.00  0.00    -0.222 OA 
BRANCH  23  24
HETATM   24  C   UNK     1      -9.784   9.122  70.066  1.00  0.00    -0.195 C  
HETATM   25  O   UNK     1     -10.600   8.246  69.835  1.00  0.00    -0.227 OA 
BRANCH  24  26
HETATM   26  C   UNK     1      -8.578   8.984  70.967  1.00  0.00    -0.264 C  
HETATM   27  C   UNK     1      -8.866   8.058  72.135  1.00  0.00    -0.215 C  
ENDBRANCH  24  26
ENDBRANCH  23  24
ENDBRANCH  22  23
ENDBRANCH   7  22
ENDBRANCH   6   7
ENDBRANCH   4   6
ENDBRANCH   3   4
ENDBRANCH   2   3
TORSDOF 14
ENDMDL
MODEL      353
REMARK 921   NORMALIZED FREE ENERGY PREDICTED BY IDOCK:   -2.88 KCAL/MOL
REMARK 922        TOTAL FREE ENERGY PREDICTED BY IDOCK:   -6.32 KCAL/MOL
REMARK 923 INTER-LIGAND FREE ENERGY PREDICTED BY IDOCK:   -5.76 KCAL/MOL
REMARK 924 INTRA-LIGAND FREE ENERGY PREDICTED BY IDOCK:   -0.56 KCAL/MOL
REMARK 927      BINDING AFFINITY PREDICTED BY RF-SCORE:    0.00 PKD
ROOT
HETATM    1  C   UNK     1      -8.754   2.718  74.181  1.00  0.00    -0.075 C  
HETATM    2  C   UNK     1      -8.596   3.689  73.020  1.00  0.00    -0.090 C  
ENDROOT
BRANCH   2   3
HETATM    3  C   UNK     1      -8.276   5.107  73.484  1.00  0.00    -0.110 C  
BRANCH   3   4
HETATM    4  C   UNK     1      -9.526   5.945  73.562  1.00  0.00    -0.139 C  
HETATM    5  O   UNK     1     -10.498   5.665  74.250  1.00  0.00    -0.274 OA 
BRANCH   4   6
HETATM    6  O   UNK     1      -9.429   7.022  72.745  1.00  0.00    -0.143 OA 
BRANCH   6   7
HETATM    7  C   UNK     1     -10.191   7.042  71.516  1.00  0.00    -0.198 C  
BRANCH   7   8
HETATM    8  C   UNK     1     -10.427   5.644  70.930  1.00  0.00    -0.256 C  
BRANCH   8   9
HETATM    9  O   UNK     1     -10.929   5.716  69.595  1.00  0.00    -0.348 OA 
BRANCH   9  10
HETATM   10  P   UNK     1      -9.844   5.073  68.411  1.00  0.00    -0.099 P  
HETATM   11  O   UNK     1      -9.166   6.540  68.158  1.00  0.00    -0.115 OA 
HETATM   12  O   UNK     1      -9.045   4.394  69.526  1.00  0.00    -0.096 OA 
BRANCH  10  13
HETATM   13  O   UNK     1      -8.758   4.430  67.228  1.00  0.00    -0.104 OA 
BRANCH  13  14
HETATM   14  C   UNK     1      -9.438   3.688  66.205  1.00  0.00    -0.162 C  
BRANCH  14  15
HETATM   15  C   UNK     1     -10.025   4.619  65.142  1.00  0.00    -0.067 C  
HETATM   16  N   UNK     1     -11.499   4.459  64.973  1.00  0.00    -1.079 NA 
HETATM   17  C   UNK     1      -9.342   4.299  63.814  1.00  0.00    -0.132 C  
HETATM   18  O   UNK     1     -10.120   3.496  63.040  1.00  0.00    -0.138 OA 
HETATM   19  O   UNK     1      -8.221   4.665  63.498  1.00  0.00    -0.094 OA 
HETATM   20  H1  UNK     1     -11.890   5.079  64.264  1.00  0.00     0.000 HD 
HETATM   21  H2  UNK     1     -11.981   4.574  65.864  1.00  0.00     0.000 HD 
ENDBRANCH  14  15
ENDBRANCH  13  14
ENDBRANCH  10  13
ENDBRANCH   9  10
ENDBRANCH   8   9
ENDBRANCH   7   8
BRANCH   7  22
HETATM   22  C   UNK     1     -11.510   7.819  71.678  1.00  0.00    -0.261 C  
BRANCH  22  23
HETATM   23  O   UNK     1     -11.297   9.243  71.641  1.00  0.00    -0.358 OA 
BRANCH  23  24
HETATM   24  C   UNK     1     -11.453   9.816  70.416  1.00  0.00    -0.280 C  
HETATM   25  O   UNK     1     -10.839   9.492  69.413  1.00  0.00    -0.228 OA 
BRANCH  24  26
HETATM   26  C   UNK     1     -12.512  10.892  70.488  1.00  0.00    -0.438 C  
HETATM   27  C   UNK     1     -12.914  11.175  71.924  1.00  0.00    -0.477 C  
ENDBRANCH  24  26
ENDBRANCH  23  24
ENDBRANCH  22  23
ENDBRANCH   7  22
ENDBRANCH   6   7
ENDBRANCH   4   6
ENDBRANCH   3   4
ENDBRANCH   2   3
TORSDOF 14
ENDMDL
MODEL      354
REMARK 921   NORMALIZED FREE ENERGY PREDICTED BY IDOCK:   -2.83 KCAL/MOL
REMARK 922        TOTAL FREE ENERGY PREDICTED BY IDOCK:   -6.23 KCAL/MOL
REMARK 923 INTER-LIGAND FREE ENERGY PREDICTED BY IDOCK:   -5.53 KCAL/MOL
REMARK 924 INTRA-LIGAND FREE ENERGY PREDICTED BY IDOCK:   -0.70 KCAL/MOL
REMARK 927      BINDING AFFINITY PREDICTED BY RF-SCORE:    0.00 PKD
ROOT
HETATM    1  C   UNK     1      -6.266  17.651  68.558  1.00  0.00    -0.182 C  
HETATM    2  C   UNK     1      -6.219  16.416  67.669  1.00  0.00    -0.165 C  
ENDROOT
BRANCH   2   3
HETATM    3  C   UNK     1      -7.609  15.940  67.258  1.00  0.00    -0.236 C  
BRANCH   3   4
HETATM    4  C   UNK     1      -8.025  14.733  68.058  1.00  0.00    -0.136 C  
HETATM    5  O   UNK     1      -8.031  14.688  69.281  1.00  0.00    -0.135 OA 
BRANCH   4   6
HETATM    6  O   UNK     1      -8.356  13.708  67.236  1.00  0.00    -0.179 OA 
BRANCH   6   7
HETATM    7  C   UNK     1      -9.717  13.218  67.237  1.00  0.00    -0.231 C  
BRANCH   7   8
HETATM    8  C   UNK     1      -9.939  12.057  68.215  1.00  0.00    -0.203 C  
BRANCH   8   9
HETATM    9  O   UNK     1      -8.721  11.360  68.482  1.00  0.00    -0.152 OA 
BRANCH   9  10
HETATM   10  P   UNK     1      -8.954   9.700  68.910  1.00  0.00    -0.157 P  
HETATM   11  O   UNK     1      -7.631   9.242  68.064  1.00  0.00    -0.084 OA 
HETATM   12  O   UNK     1      -8.492  10.012  70.335  1.00  0.00    -0.101 OA 
BRANCH  10  13
HETATM   13  O   UNK     1      -9.187   8.040  69.338  1.00  0.00    -0.151 OA 
BRANCH  13  14
HETATM   14  C   UNK     1      -9.347   7.194  68.190  1.00  0.00    -0.129 C  
BRANCH  14  15
HETATM   15  C   UNK     1     -10.501   6.209  68.384  1.00  0.00    -0.231 C  
HETATM   16  N   UNK     1     -11.265   6.442  69.644  1.00  0.00    -0.395 NA 
HETATM   17  C   UNK     1      -9.911   4.801  68.423  1.00  0.00    -0.121 C  
HETATM   18  O   UNK     1      -9.778   4.358  69.701  1.00  0.00    -0.194 OA 
HETATM   19  O   UNK     1      -9.550   4.167  67.444  1.00  0.00    -0.176 OA 
HETATM   20  H1  UNK     1     -12.035   5.785  69.773  1.00  0.00     0.000 HD 
HETATM   21  H2  UNK     1     -11.597   7.405  69.695  1.00  0.00     0.000 HD 
ENDBRANCH  14  15
ENDBRANCH  13  14
ENDBRANCH  10  13
ENDBRANCH   9  10
ENDBRANCH   8   9
ENDBRANCH   7   8
BRANCH   7  22
HETATM   22  C   UNK     1     -10.730  14.354  67.465  1.00  0.00    -0.271 C  
BRANCH  22  23
HETATM   23  O   UNK     1     -11.305  14.811  66.226  1.00  0.00    -0.343 OA 
BRANCH  23  24
HETATM   24  C   UNK     1     -11.922  13.846  65.488  1.00  0.00    -0.383 C  
HETATM   25  O   UNK     1     -12.813  13.122  65.898  1.00  0.00    -0.361 OA 
BRANCH  24  26
HETATM   26  C   UNK     1     -11.349  13.830  64.090  1.00  0.00    -0.277 C  
HETATM   27  C   UNK     1     -11.206  12.411  63.570  1.00  0.00    -0.540 C  
ENDBRANCH  24  26
ENDBRANCH  23  24
ENDBRANCH  22  23
ENDBRANCH   7  22
ENDBRANCH   6   7
ENDBRANCH   4   6
ENDBRANCH   3   4
ENDBRANCH   2   3
TORSDOF 14
ENDMDL
MODEL      355
REMARK 921   NORMALIZED FREE ENERGY PREDICTED BY IDOCK:   -2.76 KCAL/MOL
REMARK 922        TOTAL FREE ENERGY PREDICTED BY IDOCK:   -6.11 KCAL/MOL
REMARK 923 INTER-LIGAND FREE ENERGY PREDICTED BY IDOCK:   -5.89 KCAL/MOL
REMARK 924 INTRA-LIGAND FREE ENERGY PREDICTED BY IDOCK:   -0.22 KCAL/MOL
REMARK 927      BINDING AFFINITY PREDICTED BY RF-SCORE:    0.00 PKD
ROOT
HETATM    1  C   UNK     1      -7.492   6.979  68.432  1.00  0.00    -0.102 C  
HETATM    2  C   UNK     1      -7.355   5.464  68.392  1.00  0.00    -0.072 C  
ENDROOT
BRANCH   2   3
HETATM    3  C   UNK     1      -7.479   4.830  69.774  1.00  0.00    -0.055 C  
BRANCH   3   4
HETATM    4  C   UNK     1      -8.302   5.695  70.693  1.00  0.00    -0.118 C  
HETATM    5  O   UNK     1      -7.941   6.784  71.119  1.00  0.00    -0.101 OA 
BRANCH   4   6
HETATM    6  O   UNK     1      -9.472   5.083  71.001  1.00  0.00    -0.148 OA 
BRANCH   6   7
HETATM    7  C   UNK     1     -10.716   5.770  70.731  1.00  0.00    -0.271 C  
BRANCH   7   8
HETATM    8  C   UNK     1     -11.102   6.771  71.827  1.00  0.00    -0.242 C  
BRANCH   8   9
HETATM    9  O   UNK     1     -10.689   8.096  71.492  1.00  0.00    -0.221 OA 
BRANCH   9  10
HETATM   10  P   UNK     1     -11.938   9.279  71.681  1.00  0.00    -0.392 P  
HETATM   11  O   UNK     1     -11.660   9.888  70.188  1.00  0.00    -0.253 OA 
HETATM   12  O   UNK     1     -12.990   8.179  71.530  1.00  0.00    -0.318 OA 
BRANCH  10  13
HETATM   13  O   UNK     1     -13.186  10.462  71.870  1.00  0.00    -0.439 OA 
BRANCH  13  14
HETATM   14  C   UNK     1     -13.030  11.573  70.975  1.00  0.00    -0.159 C  
BRANCH  14  15
HETATM   15  C   UNK     1     -12.606  12.836  71.728  1.00  0.00    -0.023 C  
HETATM   16  N   UNK     1     -13.620  13.292  72.723  1.00  0.00    -0.646 NA 
HETATM   17  C   UNK     1     -12.398  13.944  70.698  1.00  0.00    -0.381 C  
HETATM   18  O   UNK     1     -13.479  14.766  70.633  1.00  0.00    -0.278 OA 
HETATM   19  O   UNK     1     -11.417  14.057  69.981  1.00  0.00    -0.243 OA 
HETATM   20  H1  UNK     1     -13.337  14.134  73.225  1.00  0.00     0.000 HD 
HETATM   21  H2  UNK     1     -13.854  12.542  73.374  1.00  0.00     0.000 HD 
ENDBRANCH  14  15
ENDBRANCH  13  14
ENDBRANCH  10  13
ENDBRANCH   9  10
ENDBRANCH   8   9
ENDBRANCH   7   8
BRANCH   7  22
HETATM   22  C   UNK     1     -10.712   6.427  69.338  1.00  0.00    -0.289 C  
BRANCH  22  23
HETATM   23  O   UNK     1     -10.999   5.472  68.299  1.00  0.00    -0.096 OA 
BRANCH  23  24
HETATM   24  C   UNK     1     -10.894   5.954  67.030  1.00  0.00    -0.295 C  
HETATM   25  O   UNK     1     -11.000   7.129  66.722  1.00  0.00    -0.305 OA 
BRANCH  24  26
HETATM   26  C   UNK     1     -10.608   4.819  66.075  1.00  0.00    -0.300 C  
HETATM   27  C   UNK     1      -9.248   4.980  65.418  1.00  0.00    -0.144 C  
ENDBRANCH  24  26
ENDBRANCH  23  24
ENDBRANCH  22  23
ENDBRANCH   7  22
ENDBRANCH   6   7
ENDBRANCH   4   6
ENDBRANCH   3   4
ENDBRANCH   2   3
TORSDOF 14
ENDMDL
MODEL      356
REMARK 921   NORMALIZED FREE ENERGY PREDICTED BY IDOCK:   -2.76 KCAL/MOL
REMARK 922        TOTAL FREE ENERGY PREDICTED BY IDOCK:   -6.10 KCAL/MOL
REMARK 923 INTER-LIGAND FREE ENERGY PREDICTED BY IDOCK:   -5.89 KCAL/MOL
REMARK 924 INTRA-LIGAND FREE ENERGY PREDICTED BY IDOCK:   -0.22 KCAL/MOL
REMARK 927      BINDING AFFINITY PREDICTED BY RF-SCORE:    0.00 PKD
ROOT
HETATM    1  C   UNK     1     -11.163   5.667  72.269  1.00  0.00    -0.317 C  
HETATM    2  C   UNK     1     -11.861   7.016  72.370  1.00  0.00    -0.215 C  
ENDROOT
BRANCH   2   3
HETATM    3  C   UNK     1     -11.651   7.877  71.129  1.00  0.00    -0.302 C  
BRANCH   3   4
HETATM    4  C   UNK     1     -10.676   8.993  71.405  1.00  0.00    -0.331 C  
HETATM    5  O   UNK     1      -9.823   8.959  72.282  1.00  0.00    -0.284 OA 
BRANCH   4   6
HETATM    6  O   UNK     1     -10.900  10.037  70.572  1.00  0.00    -0.294 OA 
BRANCH   6   7
HETATM    7  C   UNK     1     -10.686   9.862  69.151  1.00  0.00    -0.224 C  
BRANCH   7   8
HETATM    8  C   UNK     1     -11.121  11.077  68.322  1.00  0.00    -0.257 C  
BRANCH   8   9
HETATM    9  O   UNK     1     -11.531  12.160  69.158  1.00  0.00    -0.255 OA 
BRANCH   9  10
HETATM   10  P   UNK     1     -11.188  13.718  68.491  1.00  0.00    -0.316 P  
HETATM   11  O   UNK     1      -9.812  13.175  67.793  1.00  0.00    -0.216 OA 
HETATM   12  O   UNK     1     -12.316  13.522  67.476  1.00  0.00    -0.259 OA 
BRANCH  10  13
HETATM   13  O   UNK     1     -10.845  15.277  67.823  1.00  0.00    -0.278 OA 
BRANCH  13  14
HETATM   14  C   UNK     1     -10.344  16.197  68.804  1.00  0.00    -0.248 C  
BRANCH  14  15
HETATM   15  C   UNK     1      -9.069  16.887  68.317  1.00  0.00    -0.235 C  
HETATM   16  N   UNK     1      -8.881  18.248  68.900  1.00  0.00    -0.190 NA 
HETATM   17  C   UNK     1      -9.158  17.014  66.799  1.00  0.00    -0.246 C  
HETATM   18  O   UNK     1      -9.557  18.260  66.429  1.00  0.00    -0.312 OA 
HETATM   19  O   UNK     1      -8.953  16.106  66.008  1.00  0.00    -0.330 OA 
HETATM   20  H1  UNK     1      -8.030  18.708  68.576  1.00  0.00     0.000 HD 
HETATM   21  H2  UNK     1      -8.910  18.214  69.919  1.00  0.00     0.000 HD 
ENDBRANCH  14  15
ENDBRANCH  13  14
ENDBRANCH  10  13
ENDBRANCH   9  10
ENDBRANCH   8   9
ENDBRANCH   7   8
BRANCH   7  22
HETATM   22  C   UNK     1      -9.233   9.455  68.842  1.00  0.00    -0.140 C  
BRANCH  22  23
HETATM   23  O   UNK     1      -9.166   8.155  68.227  1.00  0.00    -0.135 OA 
BRANCH  23  24
HETATM   24  C   UNK     1      -8.026   7.455  68.486  1.00  0.00    -0.124 C  
HETATM   25  O   UNK     1      -7.059   7.402  67.745  1.00  0.00    -0.079 OA 
BRANCH  24  26
HETATM   26  C   UNK     1      -8.139   6.778  69.833  1.00  0.00    -0.126 C  
HETATM   27  C   UNK     1      -9.369   5.892  69.903  1.00  0.00    -0.173 C  
ENDBRANCH  24  26
ENDBRANCH  23  24
ENDBRANCH  22  23
ENDBRANCH   7  22
ENDBRANCH   6   7
ENDBRANCH   4   6
ENDBRANCH   3   4
ENDBRANCH   2   3
TORSDOF 14
ENDMDL
MODEL      357
REMARK 921   NORMALIZED FREE ENERGY PREDICTED BY IDOCK:   -2.76 KCAL/MOL
REMARK 922        TOTAL FREE ENERGY PREDICTED BY IDOCK:   -6.10 KCAL/MOL
REMARK 923 INTER-LIGAND FREE ENERGY PREDICTED BY IDOCK:   -4.92 KCAL/MOL
REMARK 924 INTRA-LIGAND FREE ENERGY PREDICTED BY IDOCK:   -1.19 KCAL/MOL
REMARK 927      BINDING AFFINITY PREDICTED BY RF-SCORE:    0.00 PKD
ROOT
HETATM    1  C   UNK     1      -9.623   7.245  74.325  1.00  0.00    -0.139 C  
HETATM    2  C   UNK     1      -8.107   7.344  74.233  1.00  0.00    -0.204 C  
ENDROOT
BRANCH   2   3
HETATM    3  C   UNK     1      -7.628   7.679  72.824  1.00  0.00    -0.115 C  
BRANCH   3   4
HETATM    4  C   UNK     1      -8.235   6.744  71.810  1.00  0.00    -0.106 C  
HETATM    5  O   UNK     1      -8.050   5.535  71.794  1.00  0.00    -0.114 OA 
BRANCH   4   6
HETATM    6  O   UNK     1      -8.980   7.434  70.913  1.00  0.00    -0.148 OA 
BRANCH   6   7
HETATM    7  C   UNK     1      -8.528   7.514  69.540  1.00  0.00    -0.132 C  
BRANCH   7   8
HETATM    8  C   UNK     1      -7.004   7.639  69.413  1.00  0.00    -0.063 C  
BRANCH   8   9
HETATM    9  O   UNK     1      -6.563   8.963  69.716  1.00  0.00    -0.040 OA 
BRANCH   9  10
HETATM   10  P   UNK     1      -7.594  10.198  69.079  1.00  0.00    -0.117 P  
HETATM   11  O   UNK     1      -6.821  11.358  69.934  1.00  0.00    -0.092 OA 
HETATM   12  O   UNK     1      -6.882  10.083  67.729  1.00  0.00    -0.074 OA 
BRANCH  10  13
HETATM   13  O   UNK     1      -8.624  11.433  68.441  1.00  0.00    -0.146 OA 
BRANCH  13  14
HETATM   14  C   UNK     1      -9.806  10.899  67.827  1.00  0.00    -0.175 C  
BRANCH  14  15
HETATM   15  C   UNK     1     -11.048  11.701  68.223  1.00  0.00    -0.234 C  
HETATM   16  N   UNK     1     -12.270  10.856  68.360  1.00  0.00    -0.810 NA 
HETATM   17  C   UNK     1     -11.294  12.745  67.138  1.00  0.00    -0.314 C  
HETATM   18  O   UNK     1     -12.260  12.339  66.272  1.00  0.00    -0.628 OA 
HETATM   19  O   UNK     1     -10.673  13.790  67.018  1.00  0.00    -0.279 OA 
HETATM   20  H1  UNK     1     -13.098  11.391  68.624  1.00  0.00     0.000 HD 
HETATM   21  H2  UNK     1     -12.110  10.088  69.011  1.00  0.00     0.000 HD 
ENDBRANCH  14  15
ENDBRANCH  13  14
ENDBRANCH  10  13
ENDBRANCH   9  10
ENDBRANCH   8   9
ENDBRANCH   7   8
BRANCH   7  22
HETATM   22  C   UNK     1      -9.075   6.350  68.693  1.00  0.00    -0.127 C  
BRANCH  22  23
HETATM   23  O   UNK     1      -8.869   6.575  67.285  1.00  0.00    -0.113 OA 
BRANCH  23  24
HETATM   24  C   UNK     1      -9.734   7.457  66.711  1.00  0.00    -0.207 C  
HETATM   25  O   UNK     1     -10.890   7.625  67.062  1.00  0.00    -0.334 OA 
BRANCH  24  26
HETATM   26  C   UNK     1      -9.037   8.202  65.597  1.00  0.00    -0.092 C  
HETATM   27  C   UNK     1      -7.708   7.556  65.249  1.00  0.00    -0.112 C  
ENDBRANCH  24  26
ENDBRANCH  23  24
ENDBRANCH  22  23
ENDBRANCH   7  22
ENDBRANCH   6   7
ENDBRANCH   4   6
ENDBRANCH   3   4
ENDBRANCH   2   3
TORSDOF 14
ENDMDL
MODEL      358
REMARK 921   NORMALIZED FREE ENERGY PREDICTED BY IDOCK:   -2.74 KCAL/MOL
REMARK 922        TOTAL FREE ENERGY PREDICTED BY IDOCK:   -6.07 KCAL/MOL
REMARK 923 INTER-LIGAND FREE ENERGY PREDICTED BY IDOCK:   -5.04 KCAL/MOL
REMARK 924 INTRA-LIGAND FREE ENERGY PREDICTED BY IDOCK:   -1.03 KCAL/MOL
REMARK 927      BINDING AFFINITY PREDICTED BY RF-SCORE:    0.00 PKD
ROOT
HETATM    1  C   UNK     1      -5.576  16.239  69.382  1.00  0.00    -0.132 C  
HETATM    2  C   UNK     1      -6.614  15.214  69.816  1.00  0.00    -0.177 C  
ENDROOT
BRANCH   2   3
HETATM    3  C   UNK     1      -7.697  14.996  68.763  1.00  0.00    -0.141 C  
BRANCH   3   4
HETATM    4  C   UNK     1      -7.585  13.624  68.150  1.00  0.00    -0.137 C  
HETATM    5  O   UNK     1      -6.628  13.243  67.490  1.00  0.00    -0.162 OA 
BRANCH   4   6
HETATM    6  O   UNK     1      -8.699  12.897  68.405  1.00  0.00    -0.178 OA 
BRANCH   6   7
HETATM    7  C   UNK     1      -9.170  11.959  67.409  1.00  0.00    -0.177 C  
BRANCH   7   8
HETATM    8  C   UNK     1      -9.792  10.695  68.017  1.00  0.00    -0.160 C  
BRANCH   8   9
HETATM    9  O   UNK     1      -8.974   9.548  67.783  1.00  0.00    -0.123 OA 
BRANCH   9  10
HETATM   10  P   UNK     1      -9.856   8.176  67.206  1.00  0.00    -0.248 P  
HETATM   11  O   UNK     1      -9.397   8.464  65.663  1.00  0.00    -0.126 OA 
HETATM   12  O   UNK     1      -8.806   7.252  67.824  1.00  0.00    -0.125 OA 
BRANCH  10  13
HETATM   13  O   UNK     1     -10.739   6.805  66.628  1.00  0.00    -0.245 OA 
BRANCH  13  14
HETATM   14  C   UNK     1     -10.710   5.705  67.550  1.00  0.00    -0.187 C  
BRANCH  14  15
HETATM   15  C   UNK     1     -10.086   4.462  66.913  1.00  0.00    -0.120 C  
HETATM   16  N   UNK     1      -8.615   4.365  67.139  1.00  0.00    -0.104 NA 
HETATM   17  C   UNK     1     -10.347   4.528  65.410  1.00  0.00    -0.199 C  
HETATM   18  O   UNK     1      -9.258   4.991  64.740  1.00  0.00    -0.111 OA 
HETATM   19  O   UNK     1     -11.409   4.256  64.872  1.00  0.00    -0.278 OA 
HETATM   20  H1  UNK     1      -8.199   3.536  66.714  1.00  0.00     0.000 HD 
HETATM   21  H2  UNK     1      -8.396   4.412  68.134  1.00  0.00     0.000 HD 
ENDBRANCH  14  15
ENDBRANCH  13  14
ENDBRANCH  10  13
ENDBRANCH   9  10
ENDBRANCH   8   9
ENDBRANCH   7   8
BRANCH   7  22
HETATM   22  C   UNK     1     -10.120  12.630  66.400  1.00  0.00    -0.253 C  
BRANCH  22  23
HETATM   23  O   UNK     1     -11.015  13.554  67.046  1.00  0.00    -0.282 OA 
BRANCH  23  24
HETATM   24  C   UNK     1     -10.830  14.862  66.716  1.00  0.00    -0.320 C  
HETATM   25  O   UNK     1     -10.977  15.800  67.481  1.00  0.00    -0.318 OA 
BRANCH  24  26
HETATM   26  C   UNK     1     -10.397  14.966  65.272  1.00  0.00    -0.424 C  
HETATM   27  C   UNK     1     -11.318  15.880  64.484  1.00  0.00    -0.316 C  
ENDBRANCH  24  26
ENDBRANCH  23  24
ENDBRANCH  22  23
ENDBRANCH   7  22
ENDBRANCH   6   7
ENDBRANCH   4   6
ENDBRANCH   3   4
ENDBRANCH   2   3
TORSDOF 14
ENDMDL
MODEL      359
REMARK 921   NORMALIZED FREE ENERGY PREDICTED BY IDOCK:   -2.69 KCAL/MOL
REMARK 922        TOTAL FREE ENERGY PREDICTED BY IDOCK:   -5.99 KCAL/MOL
REMARK 923 INTER-LIGAND FREE ENERGY PREDICTED BY IDOCK:   -5.45 KCAL/MOL
REMARK 924 INTRA-LIGAND FREE ENERGY PREDICTED BY IDOCK:   -0.54 KCAL/MOL
REMARK 927      BINDING AFFINITY PREDICTED BY RF-SCORE:    0.00 PKD
ROOT
HETATM    1  C   UNK     1      -8.276   8.158  64.985  1.00  0.00    -0.157 C  
HETATM    2  C   UNK     1      -7.255   7.738  66.033  1.00  0.00    -0.073 C  
ENDROOT
BRANCH   2   3
HETATM    3  C   UNK     1      -7.031   6.229  66.058  1.00  0.00    -0.065 C  
BRANCH   3   4
HETATM    4  C   UNK     1      -7.128   5.692  67.463  1.00  0.00    -0.074 C  
HETATM    5  O   UNK     1      -7.092   6.388  68.468  1.00  0.00    -0.077 OA 
BRANCH   4   6
HETATM    6  O   UNK     1      -7.229   4.341  67.449  1.00  0.00    -0.066 OA 
BRANCH   6   7
HETATM    7  C   UNK     1      -8.527   3.731  67.643  1.00  0.00    -0.095 C  
BRANCH   7   8
HETATM    8  C   UNK     1      -9.635   4.752  67.932  1.00  0.00    -0.154 C  
BRANCH   8   9
HETATM    9  O   UNK     1     -10.056   4.693  69.295  1.00  0.00    -0.193 OA 
BRANCH   9  10
HETATM   10  P   UNK     1     -10.955   6.081  69.803  1.00  0.00    -0.338 P  
HETATM   11  O   UNK     1      -9.592   6.866  70.250  1.00  0.00    -0.168 OA 
HETATM   12  O   UNK     1     -11.219   6.434  68.338  1.00  0.00    -0.320 OA 
BRANCH  10  13
HETATM   13  O   UNK     1     -11.855   7.469  70.310  1.00  0.00    -0.114 OA 
BRANCH  13  14
HETATM   14  C   UNK     1     -12.378   7.328  71.639  1.00  0.00    -0.352 C  
BRANCH  14  15
HETATM   15  C   UNK     1     -12.328   8.656  72.398  1.00  0.00    -0.357 C  
HETATM   16  N   UNK     1     -13.596   8.964  73.121  1.00  0.00    -0.998 NA 
HETATM   17  C   UNK     1     -12.062   9.764  71.382  1.00  0.00    -0.400 C  
HETATM   18  O   UNK     1     -13.211  10.404  71.038  1.00  0.00    -0.373 OA 
HETATM   19  O   UNK     1     -10.973  10.017  70.892  1.00  0.00    -0.327 OA 
HETATM   20  H1  UNK     1     -13.563   9.850  73.627  1.00  0.00     0.000 HD 
HETATM   21  H2  UNK     1     -13.855   8.199  73.744  1.00  0.00     0.000 HD 
ENDBRANCH  14  15
ENDBRANCH  13  14
ENDBRANCH  10  13
ENDBRANCH   9  10
ENDBRANCH   8   9
ENDBRANCH   7   8
BRANCH   7  22
HETATM   22  C   UNK     1      -8.900   2.804  66.471  1.00  0.00    -0.146 C  
BRANCH  22  23
HETATM   23  O   UNK     1      -9.171   3.550  65.269  1.00  0.00    -0.141 OA 
BRANCH  23  24
HETATM   24  C   UNK     1      -8.518   3.108  64.159  1.00  0.00    -0.089 C  
HETATM   25  O   UNK     1      -7.353   3.352  63.894  1.00  0.00    -0.053 OA 
BRANCH  24  26
HETATM   26  C   UNK     1      -9.449   2.259  63.324  1.00  0.00    -0.094 C  
HETATM   27  C   UNK     1     -10.779   2.955  63.100  1.00  0.00    -0.220 C  
ENDBRANCH  24  26
ENDBRANCH  23  24
ENDBRANCH  22  23
ENDBRANCH   7  22
ENDBRANCH   6   7
ENDBRANCH   4   6
ENDBRANCH   3   4
ENDBRANCH   2   3
TORSDOF 14
ENDMDL
MODEL      360
REMARK 921   NORMALIZED FREE ENERGY PREDICTED BY IDOCK:   -2.68 KCAL/MOL
REMARK 922        TOTAL FREE ENERGY PREDICTED BY IDOCK:   -5.96 KCAL/MOL
REMARK 923 INTER-LIGAND FREE ENERGY PREDICTED BY IDOCK:   -5.19 KCAL/MOL
REMARK 924 INTRA-LIGAND FREE ENERGY PREDICTED BY IDOCK:   -0.77 KCAL/MOL
REMARK 927      BINDING AFFINITY PREDICTED BY RF-SCORE:    0.00 PKD
ROOT
HETATM    1  C   UNK     1      -5.915   8.043  67.141  1.00  0.00    -0.049 C  
HETATM    2  C   UNK     1      -5.845   8.960  68.353  1.00  0.00    -0.041 C  
ENDROOT
BRANCH   2   3
HETATM    3  C   UNK     1      -6.116   8.223  69.661  1.00  0.00    -0.029 C  
BRANCH   3   4
HETATM    4  C   UNK     1      -6.721   9.146  70.686  1.00  0.00    -0.076 C  
HETATM    5  O   UNK     1      -6.622  10.365  70.657  1.00  0.00    -0.290 OA 
BRANCH   4   6
HETATM    6  O   UNK     1      -7.356   8.436  71.650  1.00  0.00    -0.083 OA 
BRANCH   6   7
HETATM    7  C   UNK     1      -8.803   8.437  71.686  1.00  0.00    -0.186 C  
BRANCH   7   8
HETATM    8  C   UNK     1      -9.427   9.537  70.817  1.00  0.00    -0.168 C  
BRANCH   8   9
HETATM    9  O   UNK     1     -10.847   9.404  70.749  1.00  0.00    -0.253 OA 
BRANCH   9  10
HETATM   10  P   UNK     1     -11.581  10.432  69.567  1.00  0.00    -0.142 P  
HETATM   11  O   UNK     1     -12.163  11.434  70.722  1.00  0.00    -0.368 OA 
HETATM   12  O   UNK     1     -10.198  10.953  69.174  1.00  0.00    -0.213 OA 
BRANCH  10  13
HETATM   13  O   UNK     1     -12.316  11.460  68.386  1.00  0.00    -0.505 OA 
BRANCH  13  14
HETATM   14  C   UNK     1     -11.749  12.779  68.376  1.00  0.00    -0.339 C  
BRANCH  14  15
HETATM   15  C   UNK     1     -11.838  13.410  66.985  1.00  0.00    -0.394 C  
HETATM   16  N   UNK     1     -12.282  12.450  65.933  1.00  0.00    -0.632 NA 
HETATM   17  C   UNK     1     -10.449  13.928  66.619  1.00  0.00    -0.272 C  
HETATM   18  O   UNK     1      -9.798  13.059  65.801  1.00  0.00    -0.270 OA 
HETATM   19  O   UNK     1      -9.953  14.960  67.044  1.00  0.00    -0.235 OA 
HETATM   20  H1  UNK     1     -12.341  12.872  65.006  1.00  0.00     0.000 HD 
HETATM   21  H2  UNK     1     -13.167  12.013  66.191  1.00  0.00     0.000 HD 
ENDBRANCH  14  15
ENDBRANCH  13  14
ENDBRANCH  10  13
ENDBRANCH   9  10
ENDBRANCH   8   9
ENDBRANCH   7   8
BRANCH   7  22
HETATM   22  C   UNK     1      -9.380   7.050  71.347  1.00  0.00    -0.155 C  
BRANCH  22  23
HETATM   23  O   UNK     1      -9.120   6.685  69.979  1.00  0.00    -0.150 OA 
BRANCH  23  24
HETATM   24  C   UNK     1      -8.639   5.424  69.801  1.00  0.00    -0.100 C  
HETATM   25  O   UNK     1      -8.973   4.673  68.901  1.00  0.00    -0.099 OA 
BRANCH  24  26
HETATM   26  C   UNK     1      -7.621   5.111  70.873  1.00  0.00    -0.079 C  
HETATM   27  C   UNK     1      -7.851   3.734  71.468  1.00  0.00    -0.061 C  
ENDBRANCH  24  26
ENDBRANCH  23  24
ENDBRANCH  22  23
ENDBRANCH   7  22
ENDBRANCH   6   7
ENDBRANCH   4   6
ENDBRANCH   3   4
ENDBRANCH   2   3
TORSDOF 14
ENDMDL
MODEL      361
REMARK 921   NORMALIZED FREE ENERGY PREDICTED BY IDOCK:   -2.66 KCAL/MOL
REMARK 922        TOTAL FREE ENERGY PREDICTED BY IDOCK:   -5.92 KCAL/MOL
REMARK 923 INTER-LIGAND FREE ENERGY PREDICTED BY IDOCK:   -4.96 KCAL/MOL
REMARK 924 INTRA-LIGAND FREE ENERGY PREDICTED BY IDOCK:   -0.96 KCAL/MOL
REMARK 927      BINDING AFFINITY PREDICTED BY RF-SCORE:    0.00 PKD
ROOT
HETATM    1  C   UNK     1      -9.686   3.385  73.495  1.00  0.00    -0.148 C  
HETATM    2  C   UNK     1      -9.839   4.578  72.563  1.00  0.00    -0.212 C  
ENDROOT
BRANCH   2   3
HETATM    3  C   UNK     1     -10.060   5.885  73.318  1.00  0.00    -0.202 C  
BRANCH   3   4
HETATM    4  C   UNK     1     -11.284   6.602  72.809  1.00  0.00    -0.227 C  
HETATM    5  O   UNK     1     -12.328   6.045  72.500  1.00  0.00    -0.161 OA 
BRANCH   4   6
HETATM    6  O   UNK     1     -11.050   7.933  72.715  1.00  0.00    -0.357 OA 
BRANCH   6   7
HETATM    7  C   UNK     1     -11.115   8.568  71.416  1.00  0.00    -0.265 C  
BRANCH   7   8
HETATM    8  C   UNK     1     -10.868   7.594  70.257  1.00  0.00    -0.246 C  
BRANCH   8   9
HETATM    9  O   UNK     1     -10.031   8.177  69.257  1.00  0.00    -0.179 OA 
BRANCH   9  10
HETATM   10  P   UNK     1      -8.716   7.160  68.777  1.00  0.00    -0.121 P  
HETATM   11  O   UNK     1      -7.955   8.403  68.036  1.00  0.00    -0.115 OA 
HETATM   12  O   UNK     1      -8.224   7.129  70.225  1.00  0.00    -0.126 OA 
BRANCH  10  13
HETATM   13  O   UNK     1      -7.401   6.143  68.298  1.00  0.00    -0.082 OA 
BRANCH  13  14
HETATM   14  C   UNK     1      -7.782   5.188  67.296  1.00  0.00    -0.092 C  
BRANCH  14  15
HETATM   15  C   UNK     1      -7.138   5.511  65.947  1.00  0.00    -0.068 C  
HETATM   16  N   UNK     1      -6.325   6.763  65.972  1.00  0.00    -0.048 NA 
HETATM   17  C   UNK     1      -8.257   5.675  64.923  1.00  0.00    -0.134 C  
HETATM   18  O   UNK     1      -8.542   6.987  64.707  1.00  0.00     0.045 OA 
HETATM   19  O   UNK     1      -8.865   4.755  64.398  1.00  0.00    -0.151 OA 
HETATM   20  H1  UNK     1      -5.895   6.978  65.072  1.00  0.00     0.000 HD 
HETATM   21  H2  UNK     1      -5.623   6.726  66.710  1.00  0.00     0.000 HD 
ENDBRANCH  14  15
ENDBRANCH  13  14
ENDBRANCH  10  13
ENDBRANCH   9  10
ENDBRANCH   8   9
ENDBRANCH   7   8
BRANCH   7  22
HETATM   22  C   UNK     1     -12.428   9.350  71.231  1.00  0.00    -0.335 C  
BRANCH  22  23
HETATM   23  O   UNK     1     -12.307  10.709  71.691  1.00  0.00    -0.342 OA 
BRANCH  23  24
HETATM   24  C   UNK     1     -12.209  11.644  70.705  1.00  0.00    -0.344 C  
HETATM   25  O   UNK     1     -11.866  11.410  69.559  1.00  0.00    -0.299 OA 
BRANCH  24  26
HETATM   26  C   UNK     1     -12.607  12.998  71.245  1.00  0.00    -0.373 C  
HETATM   27  C   UNK     1     -12.531  14.065  70.168  1.00  0.00    -0.380 C  
ENDBRANCH  24  26
ENDBRANCH  23  24
ENDBRANCH  22  23
ENDBRANCH   7  22
ENDBRANCH   6   7
ENDBRANCH   4   6
ENDBRANCH   3   4
ENDBRANCH   2   3
TORSDOF 14
ENDMDL
MODEL      362
REMARK 921   NORMALIZED FREE ENERGY PREDICTED BY IDOCK:   -2.65 KCAL/MOL
REMARK 922        TOTAL FREE ENERGY PREDICTED BY IDOCK:   -5.91 KCAL/MOL
REMARK 923 INTER-LIGAND FREE ENERGY PREDICTED BY IDOCK:   -4.65 KCAL/MOL
REMARK 924 INTRA-LIGAND FREE ENERGY PREDICTED BY IDOCK:   -1.27 KCAL/MOL
REMARK 927      BINDING AFFINITY PREDICTED BY RF-SCORE:    0.00 PKD
ROOT
HETATM    1  C   UNK     1      -6.357   9.148  69.041  1.00  0.00    -0.043 C  
HETATM    2  C   UNK     1      -6.798   8.698  67.655  1.00  0.00    -0.071 C  
ENDROOT
BRANCH   2   3
HETATM    3  C   UNK     1      -6.437   7.243  67.372  1.00  0.00    -0.059 C  
BRANCH   3   4
HETATM    4  C   UNK     1      -7.544   6.318  67.806  1.00  0.00    -0.101 C  
HETATM    5  O   UNK     1      -7.520   5.651  68.831  1.00  0.00    -0.080 OA 
BRANCH   4   6
HETATM    6  O   UNK     1      -8.542   6.307  66.889  1.00  0.00    -0.112 OA 
BRANCH   6   7
HETATM    7  C   UNK     1      -9.777   5.621  67.203  1.00  0.00    -0.139 C  
BRANCH   7   8
HETATM    8  C   UNK     1     -10.903   6.572  67.631  1.00  0.00    -0.337 C  
BRANCH   8   9
HETATM    9  O   UNK     1     -10.777   6.944  69.004  1.00  0.00    -0.219 OA 
BRANCH   9  10
HETATM   10  P   UNK     1     -10.271   8.582  69.233  1.00  0.00    -0.207 P  
HETATM   11  O   UNK     1     -10.783   9.005  67.739  1.00  0.00    -0.229 OA 
HETATM   12  O   UNK     1     -11.444   8.801  70.190  1.00  0.00    -0.168 OA 
BRANCH  10  13
HETATM   13  O   UNK     1      -9.765  10.221  69.462  1.00  0.00    -0.224 OA 
BRANCH  13  14
HETATM   14  C   UNK     1     -10.362  11.117  68.514  1.00  0.00    -0.193 C  
BRANCH  14  15
HETATM   15  C   UNK     1      -9.342  12.129  67.988  1.00  0.00    -0.197 C  
HETATM   16  N   UNK     1      -9.426  13.454  68.669  1.00  0.00    -0.392 NA 
HETATM   17  C   UNK     1      -9.607  12.327  66.498  1.00  0.00    -0.238 C  
HETATM   18  O   UNK     1     -10.325  13.459  66.271  1.00  0.00    -0.280 OA 
HETATM   19  O   UNK     1      -9.272  11.549  65.618  1.00  0.00    -0.218 OA 
HETATM   20  H1  UNK     1      -8.745  14.128  68.318  1.00  0.00     0.000 HD 
HETATM   21  H2  UNK     1      -9.346  13.348  69.680  1.00  0.00     0.000 HD 
ENDBRANCH  14  15
ENDBRANCH  13  14
ENDBRANCH  10  13
ENDBRANCH   9  10
ENDBRANCH   8   9
ENDBRANCH   7   8
BRANCH   7  22
HETATM   22  C   UNK     1     -10.220   4.696  66.055  1.00  0.00    -0.277 C  
BRANCH  22  23
HETATM   23  O   UNK     1      -9.094   4.182  65.320  1.00  0.00    -0.126 OA 
BRANCH  23  24
HETATM   24  C   UNK     1      -9.310   4.002  63.988  1.00  0.00    -0.155 C  
HETATM   25  O   UNK     1      -8.443   4.045  63.131  1.00  0.00    -0.089 OA 
BRANCH  24  26
HETATM   26  C   UNK     1     -10.775   3.723  63.742  1.00  0.00    -0.246 C  
HETATM   27  C   UNK     1     -10.981   2.340  63.152  1.00  0.00    -0.245 C  
ENDBRANCH  24  26
ENDBRANCH  23  24
ENDBRANCH  22  23
ENDBRANCH   7  22
ENDBRANCH   6   7
ENDBRANCH   4   6
ENDBRANCH   3   4
ENDBRANCH   2   3
TORSDOF 14
ENDMDL
MODEL      363
REMARK 921   NORMALIZED FREE ENERGY PREDICTED BY IDOCK:   -2.64 KCAL/MOL
REMARK 922        TOTAL FREE ENERGY PREDICTED BY IDOCK:   -5.88 KCAL/MOL
REMARK 923 INTER-LIGAND FREE ENERGY PREDICTED BY IDOCK:   -4.65 KCAL/MOL
REMARK 924 INTRA-LIGAND FREE ENERGY PREDICTED BY IDOCK:   -1.23 KCAL/MOL
REMARK 927      BINDING AFFINITY PREDICTED BY RF-SCORE:    0.00 PKD
ROOT
HETATM    1  C   UNK     1     -11.234   5.671  71.853  1.00  0.00    -0.246 C  
HETATM    2  C   UNK     1     -12.250   6.804  71.858  1.00  0.00    -0.377 C  
ENDROOT
BRANCH   2   3
HETATM    3  C   UNK     1     -11.706   8.073  72.507  1.00  0.00    -0.446 C  
BRANCH   3   4
HETATM    4  C   UNK     1     -11.680   9.214  71.523  1.00  0.00    -0.363 C  
HETATM    5  O   UNK     1     -12.675   9.686  70.991  1.00  0.00    -0.314 OA 
BRANCH   4   6
HETATM    6  O   UNK     1     -10.406   9.613  71.292  1.00  0.00    -0.275 OA 
BRANCH   6   7
HETATM    7  C   UNK     1      -9.383   8.612  71.080  1.00  0.00    -0.216 C  
BRANCH   7   8
HETATM    8  C   UNK     1      -9.106   8.337  69.596  1.00  0.00    -0.154 C  
BRANCH   8   9
HETATM    9  O   UNK     1     -10.054   7.419  69.051  1.00  0.00    -0.182 OA 
BRANCH   9  10
HETATM   10  P   UNK     1      -9.360   6.286  67.942  1.00  0.00    -0.112 P  
HETATM   11  O   UNK     1     -10.294   6.832  66.716  1.00  0.00    -0.230 OA 
HETATM   12  O   UNK     1      -8.069   7.107  67.926  1.00  0.00    -0.116 OA 
BRANCH  10  13
HETATM   13  O   UNK     1      -8.666   5.153  66.834  1.00  0.00    -0.109 OA 
BRANCH  13  14
HETATM   14  C   UNK     1      -9.614   4.683  65.864  1.00  0.00    -0.185 C  
BRANCH  14  15
HETATM   15  C   UNK     1      -8.917   4.253  64.572  1.00  0.00    -0.147 C  
HETATM   16  N   UNK     1      -9.332   5.060  63.387  1.00  0.00    -0.342 NA 
HETATM   17  C   UNK     1      -9.271   2.790  64.316  1.00  0.00    -0.123 C  
HETATM   18  O   UNK     1     -10.272   2.677  63.403  1.00  0.00    -0.137 OA 
HETATM   19  O   UNK     1      -8.768   1.838  64.890  1.00  0.00    -0.098 OA 
HETATM   20  H1  UNK     1      -8.867   4.773  62.525  1.00  0.00     0.000 HD 
HETATM   21  H2  UNK     1      -9.195   6.056  63.559  1.00  0.00     0.000 HD 
ENDBRANCH  14  15
ENDBRANCH  13  14
ENDBRANCH  10  13
ENDBRANCH   9  10
ENDBRANCH   8   9
ENDBRANCH   7   8
BRANCH   7  22
HETATM   22  C   UNK     1      -8.090   8.949  71.846  1.00  0.00     0.073 C  
BRANCH  22  23
HETATM   23  O   UNK     1      -7.927   8.113  73.007  1.00  0.00    -0.149 OA 
BRANCH  23  24
HETATM   24  C   UNK     1      -7.277   6.938  72.783  1.00  0.00    -0.074 C  
HETATM   25  O   UNK     1      -6.361   6.790  71.991  1.00  0.00    -0.048 OA 
BRANCH  24  26
HETATM   26  C   UNK     1      -7.849   5.860  73.675  1.00  0.00    -0.104 C  
HETATM   27  C   UNK     1      -9.026   6.379  74.480  1.00  0.00    -0.180 C  
ENDBRANCH  24  26
ENDBRANCH  23  24
ENDBRANCH  22  23
ENDBRANCH   7  22
ENDBRANCH   6   7
ENDBRANCH   4   6
ENDBRANCH   3   4
ENDBRANCH   2   3
TORSDOF 14
ENDMDL
MODEL      364
REMARK 921   NORMALIZED FREE ENERGY PREDICTED BY IDOCK:   -2.60 KCAL/MOL
REMARK 922        TOTAL FREE ENERGY PREDICTED BY IDOCK:   -5.81 KCAL/MOL
REMARK 923 INTER-LIGAND FREE ENERGY PREDICTED BY IDOCK:   -5.21 KCAL/MOL
REMARK 924 INTRA-LIGAND FREE ENERGY PREDICTED BY IDOCK:   -0.60 KCAL/MOL
REMARK 927      BINDING AFFINITY PREDICTED BY RF-SCORE:    0.00 PKD
ROOT
HETATM    1  C   UNK     1     -10.656   8.149  67.121  1.00  0.00    -0.355 C  
HETATM    2  C   UNK     1      -9.263   7.534  67.143  1.00  0.00    -0.161 C  
ENDROOT
BRANCH   2   3
HETATM    3  C   UNK     1      -8.230   8.451  67.791  1.00  0.00    -0.126 C  
BRANCH   3   4
HETATM    4  C   UNK     1      -7.678   9.434  66.791  1.00  0.00    -0.098 C  
HETATM    5  O   UNK     1      -7.687   9.260  65.580  1.00  0.00    -0.093 OA 
BRANCH   4   6
HETATM    6  O   UNK     1      -7.149  10.509  67.423  1.00  0.00    -0.087 OA 
BRANCH   6   7
HETATM    7  C   UNK     1      -7.992  11.655  67.686  1.00  0.00    -0.136 C  
BRANCH   7   8
HETATM    8  C   UNK     1      -7.263  12.993  67.512  1.00  0.00    -0.151 C  
BRANCH   8   9
HETATM    9  O   UNK     1      -7.584  13.903  68.566  1.00  0.00    -0.122 OA 
BRANCH   9  10
HETATM   10  P   UNK     1      -7.834  15.527  68.025  1.00  0.00    -0.140 P  
HETATM   11  O   UNK     1      -7.694  15.083  66.457  1.00  0.00     0.194 OA 
HETATM   12  O   UNK     1      -9.314  15.412  68.395  1.00  0.00    -0.185 OA 
BRANCH  10  13
HETATM   13  O   UNK     1      -8.085  17.151  67.484  1.00  0.00    -0.181 OA 
BRANCH  13  14
HETATM   14  C   UNK     1      -6.938  17.689  66.811  1.00  0.00    -0.199 C  
BRANCH  14  15
HETATM   15  C   UNK     1      -7.348  18.683  65.723  1.00  0.00    -0.156 C  
HETATM   16  N   UNK     1      -6.214  19.089  64.842  1.00  0.00    -0.402 NA 
HETATM   17  C   UNK     1      -7.901  19.928  66.413  1.00  0.00    -0.316 C  
HETATM   18  O   UNK     1      -6.967  20.914  66.474  1.00  0.00    -0.250 OA 
HETATM   19  O   UNK     1      -9.016  20.019  66.901  1.00  0.00    -0.325 OA 
HETATM   20  H1  UNK     1      -6.488  19.752  64.117  1.00  0.00     0.000 HD 
HETATM   21  H2  UNK     1      -5.760  18.272  64.435  1.00  0.00     0.000 HD 
ENDBRANCH  14  15
ENDBRANCH  13  14
ENDBRANCH  10  13
ENDBRANCH   9  10
ENDBRANCH   8   9
ENDBRANCH   7   8
BRANCH   7  22
HETATM   22  C   UNK     1      -9.292  11.606  66.862  1.00  0.00    -0.188 C  
BRANCH  22  23
HETATM   23  O   UNK     1      -9.506  12.829  66.133  1.00  0.00    -0.238 OA 
BRANCH  23  24
HETATM   24  C   UNK     1     -10.782  13.022  65.697  1.00  0.00    -0.275 C  
HETATM   25  O   UNK     1     -11.486  13.967  66.008  1.00  0.00    -0.323 OA 
BRANCH  24  26
HETATM   26  C   UNK     1     -11.175  11.904  64.759  1.00  0.00    -0.356 C  
HETATM   27  C   UNK     1     -12.494  12.202  64.069  1.00  0.00    -0.541 C  
ENDBRANCH  24  26
ENDBRANCH  23  24
ENDBRANCH  22  23
ENDBRANCH   7  22
ENDBRANCH   6   7
ENDBRANCH   4   6
ENDBRANCH   3   4
ENDBRANCH   2   3
TORSDOF 14
ENDMDL
MODEL      365
REMARK 921   NORMALIZED FREE ENERGY PREDICTED BY IDOCK:   -2.59 KCAL/MOL
REMARK 922        TOTAL FREE ENERGY PREDICTED BY IDOCK:   -5.79 KCAL/MOL
REMARK 923 INTER-LIGAND FREE ENERGY PREDICTED BY IDOCK:   -4.71 KCAL/MOL
REMARK 924 INTRA-LIGAND FREE ENERGY PREDICTED BY IDOCK:   -1.08 KCAL/MOL
REMARK 927      BINDING AFFINITY PREDICTED BY RF-SCORE:    0.00 PKD
ROOT
HETATM    1  C   UNK     1      -7.853  11.243  68.078  1.00  0.00    -0.115 C  
HETATM    2  C   UNK     1      -8.656  10.356  69.020  1.00  0.00    -0.158 C  
ENDROOT
BRANCH   2   3
HETATM    3  C   UNK     1      -8.086   8.944  69.120  1.00  0.00    -0.117 C  
BRANCH   3   4
HETATM    4  C   UNK     1      -8.430   8.315  70.445  1.00  0.00    -0.129 C  
HETATM    5  O   UNK     1      -8.510   8.932  71.498  1.00  0.00    -0.239 OA 
BRANCH   4   6
HETATM    6  O   UNK     1      -8.605   6.979  70.306  1.00  0.00    -0.137 OA 
BRANCH   6   7
HETATM    7  C   UNK     1      -9.567   6.492  69.341  1.00  0.00    -0.144 C  
BRANCH   7   8
HETATM    8  C   UNK     1      -9.017   5.366  68.456  1.00  0.00    -0.107 C  
BRANCH   8   9
HETATM    9  O   UNK     1      -8.513   5.874  67.220  1.00  0.00    -0.105 OA 
BRANCH   9  10
HETATM   10  P   UNK     1      -8.062   4.638  66.097  1.00  0.00    -0.103 P  
HETATM   11  O   UNK     1      -8.930   3.512  66.906  1.00  0.00    -0.129 OA 
HETATM   12  O   UNK     1      -8.991   5.259  65.053  1.00  0.00    -0.149 OA 
BRANCH  10  13
HETATM   13  O   UNK     1      -7.610   3.401  64.974  1.00  0.00    -0.075 OA 
BRANCH  13  14
HETATM   14  C   UNK     1      -8.697   2.517  64.665  1.00  0.00    -0.107 C  
BRANCH  14  15
HETATM   15  C   UNK     1      -8.982   2.491  63.162  1.00  0.00    -0.088 C  
HETATM   16  N   UNK     1      -8.303   3.593  62.419  1.00  0.00    -0.072 NA 
HETATM   17  C   UNK     1     -10.490   2.628  62.971  1.00  0.00    -0.170 C  
HETATM   18  O   UNK     1     -10.834   3.906  62.661  1.00  0.00    -0.195 OA 
HETATM   19  O   UNK     1     -11.299   1.727  63.127  1.00  0.00    -0.269 OA 
HETATM   20  H1  UNK     1      -8.493   3.575  61.417  1.00  0.00     0.000 HD 
HETATM   21  H2  UNK     1      -7.299   3.589  62.600  1.00  0.00     0.000 HD 
ENDBRANCH  14  15
ENDBRANCH  13  14
ENDBRANCH  10  13
ENDBRANCH   9  10
ENDBRANCH   8   9
ENDBRANCH   7   8
BRANCH   7  22
HETATM   22  C   UNK     1     -10.892   6.089  70.014  1.00  0.00    -0.359 C  
BRANCH  22  23
HETATM   23  O   UNK     1     -11.628   7.240  70.471  1.00  0.00    -0.292 OA 
BRANCH  23  24
HETATM   24  C   UNK     1     -12.299   7.064  71.643  1.00  0.00    -0.368 C  
HETATM   25  O   UNK     1     -11.816   6.586  72.655  1.00  0.00    -0.171 OA 
BRANCH  24  26
HETATM   26  C   UNK     1     -13.716   7.570  71.500  1.00  0.00    -0.460 C  
HETATM   27  C   UNK     1     -13.794   9.067  71.743  1.00  0.00    -0.453 C  
ENDBRANCH  24  26
ENDBRANCH  23  24
ENDBRANCH  22  23
ENDBRANCH   7  22
ENDBRANCH   6   7
ENDBRANCH   4   6
ENDBRANCH   3   4
ENDBRANCH   2   3
TORSDOF 14
ENDMDL
MODEL      366
REMARK 921   NORMALIZED FREE ENERGY PREDICTED BY IDOCK:   -2.58 KCAL/MOL
REMARK 922        TOTAL FREE ENERGY PREDICTED BY IDOCK:   -5.79 KCAL/MOL
REMARK 923 INTER-LIGAND FREE ENERGY PREDICTED BY IDOCK:   -4.38 KCAL/MOL
REMARK 924 INTRA-LIGAND FREE ENERGY PREDICTED BY IDOCK:   -1.40 KCAL/MOL
REMARK 927      BINDING AFFINITY PREDICTED BY RF-SCORE:    0.00 PKD
ROOT
HETATM    1  C   UNK     1      -8.446  11.587  68.432  1.00  0.00    -0.159 C  
HETATM    2  C   UNK     1      -9.405  10.579  69.050  1.00  0.00    -0.205 C  
ENDROOT
BRANCH   2   3
HETATM    3  C   UNK     1      -8.895   9.146  68.943  1.00  0.00    -0.139 C  
BRANCH   3   4
HETATM    4  C   UNK     1      -8.749   8.522  70.307  1.00  0.00    -0.142 C  
HETATM    5  O   UNK     1      -8.837   9.140  71.359  1.00  0.00    -0.298 OA 
BRANCH   4   6
HETATM    6  O   UNK     1      -8.478   7.199  70.198  1.00  0.00    -0.135 OA 
BRANCH   6   7
HETATM    7  C   UNK     1      -9.199   6.412  69.221  1.00  0.00    -0.135 C  
BRANCH   7   8
HETATM    8  C   UNK     1      -8.283   5.533  68.359  1.00  0.00    -0.099 C  
BRANCH   8   9
HETATM    9  O   UNK     1      -7.159   6.270  67.877  1.00  0.00    -0.079 OA 
BRANCH   9  10
HETATM   10  P   UNK     1      -7.005   6.246  66.154  1.00  0.00    -0.068 P  
HETATM   11  O   UNK     1      -8.445   6.996  65.961  1.00  0.00    -0.127 OA 
HETATM   12  O   UNK     1      -5.936   7.338  66.244  1.00  0.00    -0.034 OA 
BRANCH  10  13
HETATM   13  O   UNK     1      -6.850   6.223  64.430  1.00  0.00    -0.040 OA 
BRANCH  13  14
HETATM   14  C   UNK     1      -7.783   7.101  63.784  1.00  0.00    -0.119 C  
BRANCH  14  15
HETATM   15  C   UNK     1      -7.060   8.164  62.953  1.00  0.00    -0.088 C  
HETATM   16  N   UNK     1      -5.583   8.166  63.164  1.00  0.00    -0.066 NA 
HETATM   17  C   UNK     1      -7.613   9.528  63.358  1.00  0.00    -0.116 C  
HETATM   18  O   UNK     1      -6.788  10.154  64.238  1.00  0.00    -0.128 OA 
HETATM   19  O   UNK     1      -8.684   9.985  62.989  1.00  0.00    -0.173 OA 
HETATM   20  H1  UNK     1      -5.101   8.874  62.610  1.00  0.00     0.000 HD 
HETATM   21  H2  UNK     1      -5.190   7.240  62.992  1.00  0.00     0.000 HD 
ENDBRANCH  14  15
ENDBRANCH  13  14
ENDBRANCH  10  13
ENDBRANCH   9  10
ENDBRANCH   8   9
ENDBRANCH   7   8
BRANCH   7  22
HETATM   22  C   UNK     1     -10.325   5.588  69.874  1.00  0.00    -0.298 C  
BRANCH  22  23
HETATM   23  O   UNK     1     -11.493   6.392  70.126  1.00  0.00    -0.385 OA 
BRANCH  23  24
HETATM   24  C   UNK     1     -11.886   6.441  71.430  1.00  0.00    -0.281 C  
HETATM   25  O   UNK     1     -12.948   6.897  71.819  1.00  0.00    -0.363 OA 
BRANCH  24  26
HETATM   26  C   UNK     1     -10.818   5.830  72.307  1.00  0.00    -0.298 C  
HETATM   27  C   UNK     1     -11.402   4.784  73.239  1.00  0.00    -0.408 C  
ENDBRANCH  24  26
ENDBRANCH  23  24
ENDBRANCH  22  23
ENDBRANCH   7  22
ENDBRANCH   6   7
ENDBRANCH   4   6
ENDBRANCH   3   4
ENDBRANCH   2   3
TORSDOF 14
ENDMDL
MODEL      367
REMARK 921   NORMALIZED FREE ENERGY PREDICTED BY IDOCK:   -2.57 KCAL/MOL
REMARK 922        TOTAL FREE ENERGY PREDICTED BY IDOCK:   -5.76 KCAL/MOL
REMARK 923 INTER-LIGAND FREE ENERGY PREDICTED BY IDOCK:   -5.18 KCAL/MOL
REMARK 924 INTRA-LIGAND FREE ENERGY PREDICTED BY IDOCK:   -0.57 KCAL/MOL
REMARK 927      BINDING AFFINITY PREDICTED BY RF-SCORE:    0.00 PKD
ROOT
HETATM    1  C   UNK     1      -9.672  20.704  67.758  1.00  0.00    -0.367 C  
HETATM    2  C   UNK     1      -9.682  19.360  67.045  1.00  0.00    -0.425 C  
ENDROOT
BRANCH   2   3
HETATM    3  C   UNK     1     -10.964  18.573  67.299  1.00  0.00    -0.184 C  
BRANCH   3   4
HETATM    4  C   UNK     1     -10.655  17.155  67.705  1.00  0.00    -0.343 C  
HETATM    5  O   UNK     1     -11.344  16.492  68.468  1.00  0.00    -0.356 OA 
BRANCH   4   6
HETATM    6  O   UNK     1      -9.499  16.737  67.133  1.00  0.00    -0.226 OA 
BRANCH   6   7
HETATM    7  C   UNK     1      -8.633  15.844  67.871  1.00  0.00    -0.163 C  
BRANCH   7   8
HETATM    8  C   UNK     1      -8.841  14.367  67.509  1.00  0.00    -0.193 C  
BRANCH   8   9
HETATM    9  O   UNK     1      -7.942  13.523  68.230  1.00  0.00    -0.133 OA 
BRANCH   9  10
HETATM   10  P   UNK     1      -7.906  11.894  67.647  1.00  0.00    -0.166 P  
HETATM   11  O   UNK     1      -6.539  12.173  66.794  1.00  0.00    -0.069 OA 
HETATM   12  O   UNK     1      -7.481  11.416  69.037  1.00  0.00    -0.117 OA 
BRANCH  10  13
HETATM   13  O   UNK     1      -7.871  10.266  67.064  1.00  0.00    -0.105 OA 
BRANCH  13  14
HETATM   14  C   UNK     1      -9.094   9.562  67.327  1.00  0.00    -0.130 C  
BRANCH  14  15
HETATM   15  C   UNK     1      -9.529   8.735  66.115  1.00  0.00    -0.247 C  
HETATM   16  N   UNK     1     -10.104   7.409  66.488  1.00  0.00    -0.454 NA 
HETATM   17  C   UNK     1      -8.299   8.506  65.241  1.00  0.00    -0.159 C  
HETATM   18  O   UNK     1      -7.766   7.274  65.452  1.00  0.00    -0.096 OA 
HETATM   19  O   UNK     1      -7.814   9.335  64.486  1.00  0.00    -0.109 OA 
HETATM   20  H1  UNK     1     -10.395   6.858  65.680  1.00  0.00     0.000 HD 
HETATM   21  H2  UNK     1     -10.874   7.519  67.148  1.00  0.00     0.000 HD 
ENDBRANCH  14  15
ENDBRANCH  13  14
ENDBRANCH  10  13
ENDBRANCH   9  10
ENDBRANCH   8   9
ENDBRANCH   7   8
BRANCH   7  22
HETATM   22  C   UNK     1      -7.154  16.256  67.748  1.00  0.00    -0.133 C  
BRANCH  22  23
HETATM   23  O   UNK     1      -6.950  17.191  66.673  1.00  0.00    -0.199 OA 
BRANCH  23  24
HETATM   24  C   UNK     1      -6.044  18.175  66.930  1.00  0.00    -0.150 C  
HETATM   25  O   UNK     1      -5.979  18.804  67.972  1.00  0.00    -0.195 OA 
BRANCH  24  26
HETATM   26  C   UNK     1      -5.129  18.348  65.740  1.00  0.00    -0.195 C  
HETATM   27  C   UNK     1      -5.881  18.893  64.540  1.00  0.00    -0.271 C  
ENDBRANCH  24  26
ENDBRANCH  23  24
ENDBRANCH  22  23
ENDBRANCH   7  22
ENDBRANCH   6   7
ENDBRANCH   4   6
ENDBRANCH   3   4
ENDBRANCH   2   3
TORSDOF 14
ENDMDL
MODEL      368
REMARK 921   NORMALIZED FREE ENERGY PREDICTED BY IDOCK:   -2.52 KCAL/MOL
REMARK 922        TOTAL FREE ENERGY PREDICTED BY IDOCK:   -5.67 KCAL/MOL
REMARK 923 INTER-LIGAND FREE ENERGY PREDICTED BY IDOCK:   -4.90 KCAL/MOL
REMARK 924 INTRA-LIGAND FREE ENERGY PREDICTED BY IDOCK:   -0.78 KCAL/MOL
REMARK 927      BINDING AFFINITY PREDICTED BY RF-SCORE:    0.00 PKD
ROOT
HETATM    1  C   UNK     1     -10.134  10.205  66.036  1.00  0.00    -0.317 C  
HETATM    2  C   UNK     1     -10.609  10.039  67.473  1.00  0.00    -0.336 C  
ENDROOT
BRANCH   2   3
HETATM    3  C   UNK     1      -9.706  10.755  68.473  1.00  0.00    -0.184 C  
BRANCH   3   4
HETATM    4  C   UNK     1      -8.954   9.767  69.326  1.00  0.00    -0.173 C  
HETATM    5  O   UNK     1      -7.892  10.008  69.883  1.00  0.00    -0.158 OA 
BRANCH   4   6
HETATM    6  O   UNK     1      -9.602   8.578  69.360  1.00  0.00    -0.167 OA 
BRANCH   6   7
HETATM    7  C   UNK     1     -10.118   8.093  70.622  1.00  0.00    -0.194 C  
BRANCH   7   8
HETATM    8  C   UNK     1      -9.026   7.536  71.545  1.00  0.00    -0.131 C  
BRANCH   8   9
HETATM    9  O   UNK     1      -9.157   6.125  71.715  1.00  0.00    -0.145 OA 
BRANCH   9  10
HETATM   10  P   UNK     1      -8.137   5.203  70.665  1.00  0.00    -0.110 P  
HETATM   11  O   UNK     1      -7.068   6.433  70.537  1.00  0.00    -0.062 OA 
HETATM   12  O   UNK     1      -7.700   4.347  71.855  1.00  0.00    -0.079 OA 
BRANCH  10  13
HETATM   13  O   UNK     1      -7.117   4.281  69.614  1.00  0.00    -0.048 OA 
BRANCH  13  14
HETATM   14  C   UNK     1      -7.177   4.735  68.254  1.00  0.00    -0.065 C  
BRANCH  14  15
HETATM   15  C   UNK     1      -7.978   3.767  67.381  1.00  0.00    -0.090 C  
HETATM   16  N   UNK     1      -9.443   4.051  67.383  1.00  0.00    -0.184 NA 
HETATM   17  C   UNK     1      -7.753   2.357  67.922  1.00  0.00    -0.059 C  
HETATM   18  O   UNK     1      -8.789   1.958  68.706  1.00  0.00    -0.069 OA 
HETATM   19  O   UNK     1      -6.752   1.685  67.728  1.00  0.00    -0.031 OA 
HETATM   20  H1  UNK     1      -9.976   3.406  66.801  1.00  0.00     0.000 HD 
HETATM   21  H2  UNK     1      -9.625   5.018  67.115  1.00  0.00     0.000 HD 
ENDBRANCH  14  15
ENDBRANCH  13  14
ENDBRANCH  10  13
ENDBRANCH   9  10
ENDBRANCH   8   9
ENDBRANCH   7   8
BRANCH   7  22
HETATM   22  C   UNK     1     -10.973   9.158  71.333  1.00  0.00    -0.344 C  
BRANCH  22  23
HETATM   23  O   UNK     1     -12.048   8.563  72.084  1.00  0.00    -0.336 OA 
BRANCH  23  24
HETATM   24  C   UNK     1     -13.200   9.288  72.110  1.00  0.00    -0.461 C  
HETATM   25  O   UNK     1     -13.267  10.478  72.367  1.00  0.00    -0.299 OA 
BRANCH  24  26
HETATM   26  C   UNK     1     -14.370   8.399  71.754  1.00  0.00    -0.558 C  
HETATM   27  C   UNK     1     -13.953   6.941  71.684  1.00  0.00    -0.298 C  
ENDBRANCH  24  26
ENDBRANCH  23  24
ENDBRANCH  22  23
ENDBRANCH   7  22
ENDBRANCH   6   7
ENDBRANCH   4   6
ENDBRANCH   3   4
ENDBRANCH   2   3
TORSDOF 14
ENDMDL
MODEL      369
REMARK 921   NORMALIZED FREE ENERGY PREDICTED BY IDOCK:   -2.51 KCAL/MOL
REMARK 922        TOTAL FREE ENERGY PREDICTED BY IDOCK:   -5.65 KCAL/MOL
REMARK 923 INTER-LIGAND FREE ENERGY PREDICTED BY IDOCK:   -4.90 KCAL/MOL
REMARK 924 INTRA-LIGAND FREE ENERGY PREDICTED BY IDOCK:   -0.75 KCAL/MOL
REMARK 927      BINDING AFFINITY PREDICTED BY RF-SCORE:    0.00 PKD
ROOT
HETATM    1  C   UNK     1      -8.470   8.644  65.692  1.00  0.00    -0.171 C  
HETATM    2  C   UNK     1      -7.517   9.171  66.755  1.00  0.00    -0.087 C  
ENDROOT
BRANCH   2   3
HETATM    3  C   UNK     1      -6.403   8.181  67.083  1.00  0.00    -0.056 C  
BRANCH   3   4
HETATM    4  C   UNK     1      -6.159   8.115  68.569  1.00  0.00    -0.041 C  
HETATM    5  O   UNK     1      -6.141   9.091  69.306  1.00  0.00    -0.041 OA 
BRANCH   4   6
HETATM    6  O   UNK     1      -5.934   6.837  68.957  1.00  0.00    -0.021 OA 
BRANCH   6   7
HETATM    7  C   UNK     1      -7.039   6.050  69.461  1.00  0.00    -0.069 C  
BRANCH   7   8
HETATM    8  C   UNK     1      -8.272   6.896  69.806  1.00  0.00    -0.131 C  
BRANCH   8   9
HETATM    9  O   UNK     1      -8.301   7.232  71.194  1.00  0.00    -0.110 OA 
BRANCH   9  10
HETATM   10  P   UNK     1      -9.747   8.050  71.677  1.00  0.00    -0.200 P  
HETATM   11  O   UNK     1     -10.567   6.641  71.800  1.00  0.00    -0.212 OA 
HETATM   12  O   UNK     1      -9.121   8.329  73.045  1.00  0.00    -0.254 OA 
BRANCH  10  13
HETATM   13  O   UNK     1     -11.193   8.868  72.160  1.00  0.00    -0.360 OA 
BRANCH  13  14
HETATM   14  C   UNK     1     -11.655   9.798  71.169  1.00  0.00    -0.392 C  
BRANCH  14  15
HETATM   15  C   UNK     1     -13.139  10.120  71.359  1.00  0.00    -0.416 C  
HETATM   16  N   UNK     1     -13.373  11.312  72.225  1.00  0.00    -0.538 NA 
HETATM   17  C   UNK     1     -13.799   8.906  72.009  1.00  0.00    -0.456 C  
HETATM   18  O   UNK     1     -13.947   9.083  73.349  1.00  0.00    -0.137 OA 
HETATM   19  O   UNK     1     -14.109   7.881  71.422  1.00  0.00    -0.371 OA 
HETATM   20  H1  UNK     1     -14.362  11.527  72.352  1.00  0.00     0.000 HD 
HETATM   21  H2  UNK     1     -12.867  12.124  71.870  1.00  0.00     0.000 HD 
ENDBRANCH  14  15
ENDBRANCH  13  14
ENDBRANCH  10  13
ENDBRANCH   9  10
ENDBRANCH   8   9
ENDBRANCH   7   8
BRANCH   7  22
HETATM   22  C   UNK     1      -7.393   4.892  68.509  1.00  0.00    -0.066 C  
BRANCH  22  23
HETATM   23  O   UNK     1      -8.198   5.340  67.403  1.00  0.00    -0.104 OA 
BRANCH  23  24
HETATM   24  C   UNK     1      -9.218   4.505  67.059  1.00  0.00    -0.134 C  
HETATM   25  O   UNK     1      -9.597   3.559  67.728  1.00  0.00    -0.195 OA 
BRANCH  24  26
HETATM   26  C   UNK     1      -9.814   4.944  65.741  1.00  0.00    -0.186 C  
HETATM   27  C   UNK     1      -9.010   4.413  64.569  1.00  0.00    -0.151 C  
ENDBRANCH  24  26
ENDBRANCH  23  24
ENDBRANCH  22  23
ENDBRANCH   7  22
ENDBRANCH   6   7
ENDBRANCH   4   6
ENDBRANCH   3   4
ENDBRANCH   2   3
TORSDOF 14
ENDMDL
MODEL      370
REMARK 921   NORMALIZED FREE ENERGY PREDICTED BY IDOCK:   -2.50 KCAL/MOL
REMARK 922        TOTAL FREE ENERGY PREDICTED BY IDOCK:   -5.63 KCAL/MOL
REMARK 923 INTER-LIGAND FREE ENERGY PREDICTED BY IDOCK:   -4.39 KCAL/MOL
REMARK 924 INTRA-LIGAND FREE ENERGY PREDICTED BY IDOCK:   -1.24 KCAL/MOL
REMARK 927      BINDING AFFINITY PREDICTED BY RF-SCORE:    0.00 PKD
ROOT
HETATM    1  C   UNK     1      -9.813  10.216  66.948  1.00  0.00    -0.244 C  
HETATM    2  C   UNK     1     -10.177   9.698  68.333  1.00  0.00    -0.214 C  
ENDROOT
BRANCH   2   3
HETATM    3  C   UNK     1      -9.217  10.191  69.411  1.00  0.00    -0.229 C  
BRANCH   3   4
HETATM    4  C   UNK     1      -8.145   9.170  69.689  1.00  0.00    -0.106 C  
HETATM    5  O   UNK     1      -7.041   9.438  70.141  1.00  0.00    -0.059 OA 
BRANCH   4   6
HETATM    6  O   UNK     1      -8.567   7.931  69.338  1.00  0.00    -0.135 OA 
BRANCH   6   7
HETATM    7  C   UNK     1      -8.752   6.933  70.369  1.00  0.00    -0.147 C  
BRANCH   7   8
HETATM    8  C   UNK     1      -7.486   6.114  70.650  1.00  0.00    -0.087 C  
BRANCH   8   9
HETATM    9  O   UNK     1      -7.750   4.711  70.596  1.00  0.00    -0.053 OA 
BRANCH   9  10
HETATM   10  P   UNK     1      -8.507   4.206  69.125  1.00  0.00    -0.081 P  
HETATM   11  O   UNK     1      -7.335   3.101  68.840  1.00  0.00    -0.048 OA 
HETATM   12  O   UNK     1      -9.598   3.507  69.938  1.00  0.00    -0.188 OA 
BRANCH  10  13
HETATM   13  O   UNK     1      -9.264   3.700  67.654  1.00  0.00    -0.153 OA 
BRANCH  13  14
HETATM   14  C   UNK     1      -8.417   2.851  66.865  1.00  0.00    -0.099 C  
BRANCH  14  15
HETATM   15  C   UNK     1      -7.978   3.549  65.576  1.00  0.00    -0.093 C  
HETATM   16  N   UNK     1      -6.787   4.429  65.764  1.00  0.00    -0.056 NA 
HETATM   17  C   UNK     1      -9.145   4.403  65.087  1.00  0.00    -0.148 C  
HETATM   18  O   UNK     1      -8.983   5.707  65.436  1.00  0.00    -0.148 OA 
HETATM   19  O   UNK     1     -10.129   3.974  64.504  1.00  0.00    -0.196 OA 
HETATM   20  H1  UNK     1      -6.494   4.895  64.905  1.00  0.00     0.000 HD 
HETATM   21  H2  UNK     1      -6.014   3.911  66.179  1.00  0.00     0.000 HD 
ENDBRANCH  14  15
ENDBRANCH  13  14
ENDBRANCH  10  13
ENDBRANCH   9  10
ENDBRANCH   8   9
ENDBRANCH   7   8
BRANCH   7  22
HETATM   22  C   UNK     1      -9.327   7.548  71.659  1.00  0.00    -0.145 C  
BRANCH  22  23
HETATM   23  O   UNK     1     -10.551   6.903  72.056  1.00  0.00    -0.209 OA 
BRANCH  23  24
HETATM   24  C   UNK     1     -11.674   7.373  71.445  1.00  0.00    -0.288 C  
HETATM   25  O   UNK     1     -12.124   6.947  70.395  1.00  0.00    -0.318 OA 
BRANCH  24  26
HETATM   26  C   UNK     1     -12.280   8.481  72.275  1.00  0.00    -0.454 C  
HETATM   27  C   UNK     1     -12.273   9.800  71.525  1.00  0.00    -0.493 C  
ENDBRANCH  24  26
ENDBRANCH  23  24
ENDBRANCH  22  23
ENDBRANCH   7  22
ENDBRANCH   6   7
ENDBRANCH   4   6
ENDBRANCH   3   4
ENDBRANCH   2   3
TORSDOF 14
ENDMDL
MODEL      371
REMARK 921   NORMALIZED FREE ENERGY PREDICTED BY IDOCK:   -2.46 KCAL/MOL
REMARK 922        TOTAL FREE ENERGY PREDICTED BY IDOCK:   -5.56 KCAL/MOL
REMARK 923 INTER-LIGAND FREE ENERGY PREDICTED BY IDOCK:   -4.95 KCAL/MOL
REMARK 924 INTRA-LIGAND FREE ENERGY PREDICTED BY IDOCK:   -0.61 KCAL/MOL
REMARK 927      BINDING AFFINITY PREDICTED BY RF-SCORE:    0.00 PKD
ROOT
HETATM    1  C   UNK     1     -10.340   6.456  74.255  1.00  0.00    -0.311 C  
HETATM    2  C   UNK     1      -9.427   5.244  74.130  1.00  0.00    -0.137 C  
ENDROOT
BRANCH   2   3
HETATM    3  C   UNK     1      -8.562   5.292  72.875  1.00  0.00    -0.115 C  
BRANCH   3   4
HETATM    4  C   UNK     1      -9.390   5.625  71.661  1.00  0.00    -0.146 C  
HETATM    5  O   UNK     1     -10.298   4.925  71.235  1.00  0.00    -0.202 OA 
BRANCH   4   6
HETATM    6  O   UNK     1      -8.966   6.783  71.099  1.00  0.00    -0.146 OA 
BRANCH   6   7
HETATM    7  C   UNK     1      -8.550   6.780  69.713  1.00  0.00    -0.141 C  
BRANCH   7   8
HETATM    8  C   UNK     1      -7.877   5.469  69.288  1.00  0.00    -0.091 C  
BRANCH   8   9
HETATM    9  O   UNK     1      -7.044   5.658  68.143  1.00  0.00    -0.067 OA 
BRANCH   9  10
HETATM   10  P   UNK     1      -7.430   4.605  66.826  1.00  0.00    -0.087 P  
HETATM   11  O   UNK     1      -6.122   5.101  65.977  1.00  0.00    -0.028 OA 
HETATM   12  O   UNK     1      -6.993   3.405  67.668  1.00  0.00    -0.049 OA 
BRANCH  10  13
HETATM   13  O   UNK     1      -7.816   3.553  65.508  1.00  0.00    -0.087 OA 
BRANCH  13  14
HETATM   14  C   UNK     1      -9.200   3.172  65.496  1.00  0.00    -0.145 C  
BRANCH  14  15
HETATM   15  C   UNK     1      -9.975   3.936  64.421  1.00  0.00    -0.196 C  
HETATM   16  N   UNK     1     -11.292   4.448  64.902  1.00  0.00    -1.085 NA 
HETATM   17  C   UNK     1     -10.218   2.982  63.255  1.00  0.00    -0.165 C  
HETATM   18  O   UNK     1     -11.473   2.461  63.296  1.00  0.00    -0.321 OA 
HETATM   19  O   UNK     1      -9.384   2.675  62.417  1.00  0.00    -0.087 OA 
HETATM   20  H1  UNK     1     -11.809   4.957  64.185  1.00  0.00     0.000 HD 
HETATM   21  H2  UNK     1     -11.177   5.017  65.741  1.00  0.00     0.000 HD 
ENDBRANCH  14  15
ENDBRANCH  13  14
ENDBRANCH  10  13
ENDBRANCH   9  10
ENDBRANCH   8   9
ENDBRANCH   7   8
BRANCH   7  22
HETATM   22  C   UNK     1      -9.710   7.154  68.771  1.00  0.00    -0.145 C  
BRANCH  22  23
HETATM   23  O   UNK     1      -9.864   8.581  68.658  1.00  0.00    -0.161 OA 
BRANCH  23  24
HETATM   24  C   UNK     1     -10.441   9.007  67.500  1.00  0.00    -0.272 C  
HETATM   25  O   UNK     1     -10.629   8.308  66.519  1.00  0.00    -0.193 OA 
BRANCH  24  26
HETATM   26  C   UNK     1     -10.828  10.462  67.628  1.00  0.00    -0.361 C  
HETATM   27  C   UNK     1      -9.804  11.366  66.966  1.00  0.00    -0.214 C  
ENDBRANCH  24  26
ENDBRANCH  23  24
ENDBRANCH  22  23
ENDBRANCH   7  22
ENDBRANCH   6   7
ENDBRANCH   4   6
ENDBRANCH   3   4
ENDBRANCH   2   3
TORSDOF 14
ENDMDL
MODEL      372
REMARK 921   NORMALIZED FREE ENERGY PREDICTED BY IDOCK:   -2.43 KCAL/MOL
REMARK 922        TOTAL FREE ENERGY PREDICTED BY IDOCK:   -5.52 KCAL/MOL
REMARK 923 INTER-LIGAND FREE ENERGY PREDICTED BY IDOCK:   -4.62 KCAL/MOL
REMARK 924 INTRA-LIGAND FREE ENERGY PREDICTED BY IDOCK:   -0.90 KCAL/MOL
REMARK 927      BINDING AFFINITY PREDICTED BY RF-SCORE:    0.00 PKD
ROOT
HETATM    1  C   UNK     1      -5.543  16.327  69.388  1.00  0.00    -0.132 C  
HETATM    2  C   UNK     1      -6.530  15.253  69.823  1.00  0.00    -0.169 C  
ENDROOT
BRANCH   2   3
HETATM    3  C   UNK     1      -7.704  15.114  68.859  1.00  0.00    -0.159 C  
BRANCH   3   4
HETATM    4  C   UNK     1      -7.573  13.865  68.027  1.00  0.00    -0.144 C  
HETATM    5  O   UNK     1      -6.785  13.735  67.100  1.00  0.00    -0.163 OA 
BRANCH   4   6
HETATM    6  O   UNK     1      -8.468  12.930  68.428  1.00  0.00    -0.163 OA 
BRANCH   6   7
HETATM    7  C   UNK     1      -9.044  12.039  67.443  1.00  0.00    -0.178 C  
BRANCH   7   8
HETATM    8  C   UNK     1      -9.106  10.580  67.913  1.00  0.00    -0.136 C  
BRANCH   8   9
HETATM    9  O   UNK     1      -8.183   9.762  67.194  1.00  0.00    -0.119 OA 
BRANCH   9  10
HETATM   10  P   UNK     1      -8.870   8.279  66.625  1.00  0.00    -0.161 P  
HETATM   11  O   UNK     1      -9.086   8.893  65.125  1.00  0.00    -0.187 OA 
HETATM   12  O   UNK     1      -7.482   7.636  66.653  1.00  0.00    -0.089 OA 
BRANCH  10  13
HETATM   13  O   UNK     1      -9.557   6.797  66.056  1.00  0.00    -0.025 OA 
BRANCH  13  14
HETATM   14  C   UNK     1      -8.933   5.643  66.639  1.00  0.00    -0.120 C  
BRANCH  14  15
HETATM   15  C   UNK     1      -8.857   4.489  65.638  1.00  0.00    -0.127 C  
HETATM   16  N   UNK     1      -9.982   3.518  65.778  1.00  0.00    -0.408 NA 
HETATM   17  C   UNK     1      -7.542   3.751  65.876  1.00  0.00    -0.085 C  
HETATM   18  O   UNK     1      -7.732   2.631  66.623  1.00  0.00    -0.074 OA 
HETATM   19  O   UNK     1      -6.446   4.135  65.498  1.00  0.00    -0.035 OA 
HETATM   20  H1  UNK     1      -9.931   2.748  65.111  1.00  0.00     0.000 HD 
HETATM   21  H2  UNK     1     -10.882   3.993  65.717  1.00  0.00     0.000 HD 
ENDBRANCH  14  15
ENDBRANCH  13  14
ENDBRANCH  10  13
ENDBRANCH   9  10
ENDBRANCH   8   9
ENDBRANCH   7   8
BRANCH   7  22
HETATM   22  C   UNK     1     -10.418  12.539  66.960  1.00  0.00    -0.231 C  
BRANCH  22  23
HETATM   23  O   UNK     1     -11.331  12.727  68.058  1.00  0.00    -0.254 OA 
BRANCH  23  24
HETATM   24  C   UNK     1     -11.753  14.009  68.242  1.00  0.00    -0.357 C  
HETATM   25  O   UNK     1     -11.823  14.850  67.362  1.00  0.00    -0.348 OA 
BRANCH  24  26
HETATM   26  C   UNK     1     -12.136  14.216  69.689  1.00  0.00    -0.400 C  
HETATM   27  C   UNK     1     -11.496  15.471  70.254  1.00  0.00    -0.352 C  
ENDBRANCH  24  26
ENDBRANCH  23  24
ENDBRANCH  22  23
ENDBRANCH   7  22
ENDBRANCH   6   7
ENDBRANCH   4   6
ENDBRANCH   3   4
ENDBRANCH   2   3
TORSDOF 14
ENDMDL
MODEL      373
REMARK 921   NORMALIZED FREE ENERGY PREDICTED BY IDOCK:   -2.42 KCAL/MOL
REMARK 922        TOTAL FREE ENERGY PREDICTED BY IDOCK:   -5.49 KCAL/MOL
REMARK 923 INTER-LIGAND FREE ENERGY PREDICTED BY IDOCK:   -4.92 KCAL/MOL
REMARK 924 INTRA-LIGAND FREE ENERGY PREDICTED BY IDOCK:   -0.57 KCAL/MOL
REMARK 927      BINDING AFFINITY PREDICTED BY RF-SCORE:    0.00 PKD
ROOT
HETATM    1  C   UNK     1      -7.782  11.784  68.528  1.00  0.00    -0.137 C  
HETATM    2  C   UNK     1      -7.325  12.048  67.100  1.00  0.00    -0.134 C  
ENDROOT
BRANCH   2   3
HETATM    3  C   UNK     1      -6.558  10.871  66.505  1.00  0.00    -0.127 C  
BRANCH   3   4
HETATM    4  C   UNK     1      -7.503   9.814  65.995  1.00  0.00    -0.102 C  
HETATM    5  O   UNK     1      -8.662  10.029  65.666  1.00  0.00    -0.144 OA 
BRANCH   4   6
HETATM    6  O   UNK     1      -6.898   8.601  65.984  1.00  0.00    -0.064 OA 
BRANCH   6   7
HETATM    7  C   UNK     1      -7.220   7.647  67.023  1.00  0.00    -0.089 C  
BRANCH   7   8
HETATM    8  C   UNK     1      -7.935   8.281  68.224  1.00  0.00    -0.119 C  
BRANCH   8   9
HETATM    9  O   UNK     1      -7.291   7.941  69.452  1.00  0.00    -0.077 OA 
BRANCH   9  10
HETATM   10  P   UNK     1      -8.203   8.380  70.855  1.00  0.00    -0.146 P  
HETATM   11  O   UNK     1      -9.503   8.783  69.949  1.00  0.00    -0.163 OA 
HETATM   12  O   UNK     1      -8.346   6.900  71.214  1.00  0.00    -0.117 OA 
BRANCH  10  13
HETATM   13  O   UNK     1      -9.115   8.819  72.258  1.00  0.00    -0.355 OA 
BRANCH  13  14
HETATM   14  C   UNK     1      -9.158   7.769  73.236  1.00  0.00    -0.244 C  
BRANCH  14  15
HETATM   15  C   UNK     1     -10.596   7.455  73.651  1.00  0.00    -0.265 C  
HETATM   16  N   UNK     1     -10.796   6.026  74.035  1.00  0.00    -0.367 NA 
HETATM   17  C   UNK     1     -11.503   7.773  72.465  1.00  0.00    -0.373 C  
HETATM   18  O   UNK     1     -11.825   6.648  71.773  1.00  0.00    -0.304 OA 
HETATM   19  O   UNK     1     -11.856   8.895  72.136  1.00  0.00    -0.361 OA 
HETATM   20  H1  UNK     1     -11.755   5.817  74.311  1.00  0.00     0.000 HD 
HETATM   21  H2  UNK     1     -10.139   5.751  74.765  1.00  0.00     0.000 HD 
ENDBRANCH  14  15
ENDBRANCH  13  14
ENDBRANCH  10  13
ENDBRANCH   9  10
ENDBRANCH   8   9
ENDBRANCH   7   8
BRANCH   7  22
HETATM   22  C   UNK     1      -8.003   6.443  66.467  1.00  0.00    -0.109 C  
BRANCH  22  23
HETATM   23  O   UNK     1      -9.356   6.801  66.127  1.00  0.00    -0.144 OA 
BRANCH  23  24
HETATM   24  C   UNK     1     -10.315   6.000  66.668  1.00  0.00    -0.204 C  
HETATM   25  O   UNK     1     -11.234   6.392  67.367  1.00  0.00    -0.352 OA 
BRANCH  24  26
HETATM   26  C   UNK     1     -10.076   4.566  66.253  1.00  0.00    -0.280 C  
HETATM   27  C   UNK     1     -10.739   4.259  64.922  1.00  0.00    -0.137 C  
ENDBRANCH  24  26
ENDBRANCH  23  24
ENDBRANCH  22  23
ENDBRANCH   7  22
ENDBRANCH   6   7
ENDBRANCH   4   6
ENDBRANCH   3   4
ENDBRANCH   2   3
TORSDOF 14
ENDMDL
MODEL      374
REMARK 921   NORMALIZED FREE ENERGY PREDICTED BY IDOCK:   -2.41 KCAL/MOL
REMARK 922        TOTAL FREE ENERGY PREDICTED BY IDOCK:   -5.47 KCAL/MOL
REMARK 923 INTER-LIGAND FREE ENERGY PREDICTED BY IDOCK:   -4.40 KCAL/MOL
REMARK 924 INTRA-LIGAND FREE ENERGY PREDICTED BY IDOCK:   -1.07 KCAL/MOL
REMARK 927      BINDING AFFINITY PREDICTED BY RF-SCORE:    0.00 PKD
ROOT
HETATM    1  C   UNK     1     -10.389   8.149  66.963  1.00  0.00    -0.403 C  
HETATM    2  C   UNK     1      -9.049   7.441  66.819  1.00  0.00    -0.178 C  
ENDROOT
BRANCH   2   3
HETATM    3  C   UNK     1      -7.866   8.391  66.976  1.00  0.00    -0.096 C  
BRANCH   3   4
HETATM    4  C   UNK     1      -7.600   9.139  65.696  1.00  0.00    -0.094 C  
HETATM    5  O   UNK     1      -7.830   8.695  64.579  1.00  0.00    -0.116 OA 
BRANCH   4   6
HETATM    6  O   UNK     1      -7.046  10.348  65.958  1.00  0.00    -0.120 OA 
BRANCH   6   7
HETATM    7  C   UNK     1      -7.741  11.263  66.837  1.00  0.00    -0.152 C  
BRANCH   7   8
HETATM    8  C   UNK     1      -6.809  12.286  67.501  1.00  0.00    -0.135 C  
BRANCH   8   9
HETATM    9  O   UNK     1      -7.403  12.851  68.670  1.00  0.00    -0.107 OA 
BRANCH   9  10
HETATM   10  P   UNK     1      -7.290  14.576  68.738  1.00  0.00    -0.141 P  
HETATM   11  O   UNK     1      -5.971  14.504  69.701  1.00  0.00    -0.097 OA 
HETATM   12  O   UNK     1      -6.793  14.591  67.292  1.00  0.00    -0.252 OA 
BRANCH  10  13
HETATM   13  O   UNK     1      -7.178  16.301  68.807  1.00  0.00    -0.156 OA 
BRANCH  13  14
HETATM   14  C   UNK     1      -7.058  16.895  67.506  1.00  0.00    -0.147 C  
BRANCH  14  15
HETATM   15  C   UNK     1      -6.070  18.064  67.519  1.00  0.00    -0.156 C  
HETATM   16  N   UNK     1      -6.524  19.205  68.366  1.00  0.00    -0.233 NA 
HETATM   17  C   UNK     1      -5.910  18.554  66.082  1.00  0.00    -0.167 C  
HETATM   18  O   UNK     1      -6.671  19.656  65.849  1.00  0.00    -0.219 OA 
HETATM   19  O   UNK     1      -5.231  18.006  65.228  1.00  0.00    -0.159 OA 
HETATM   20  H1  UNK     1      -5.865  19.984  68.375  1.00  0.00     0.000 HD 
HETATM   21  H2  UNK     1      -6.731  18.893  69.315  1.00  0.00     0.000 HD 
ENDBRANCH  14  15
ENDBRANCH  13  14
ENDBRANCH  10  13
ENDBRANCH   9  10
ENDBRANCH   8   9
ENDBRANCH   7   8
BRANCH   7  22
HETATM   22  C   UNK     1      -8.922  11.949  66.125  1.00  0.00    -0.116 C  
BRANCH  22  23
HETATM   23  O   UNK     1     -10.184  11.574  66.707  1.00  0.00    -0.210 OA 
BRANCH  23  24
HETATM   24  C   UNK     1     -11.272  11.810  65.922  1.00  0.00    -0.290 C  
HETATM   25  O   UNK     1     -11.488  11.268  64.852  1.00  0.00    -0.055 OA 
BRANCH  24  26
HETATM   26  C   UNK     1     -12.171  12.825  66.590  1.00  0.00    -0.162 C  
HETATM   27  C   UNK     1     -12.883  13.690  65.566  1.00  0.00    -0.443 C  
ENDBRANCH  24  26
ENDBRANCH  23  24
ENDBRANCH  22  23
ENDBRANCH   7  22
ENDBRANCH   6   7
ENDBRANCH   4   6
ENDBRANCH   3   4
ENDBRANCH   2   3
TORSDOF 14
ENDMDL
MODEL      375
REMARK 921   NORMALIZED FREE ENERGY PREDICTED BY IDOCK:   -2.40 KCAL/MOL
REMARK 922        TOTAL FREE ENERGY PREDICTED BY IDOCK:   -5.45 KCAL/MOL
REMARK 923 INTER-LIGAND FREE ENERGY PREDICTED BY IDOCK:   -4.76 KCAL/MOL
REMARK 924 INTRA-LIGAND FREE ENERGY PREDICTED BY IDOCK:   -0.68 KCAL/MOL
REMARK 927      BINDING AFFINITY PREDICTED BY RF-SCORE:    0.00 PKD
ROOT
HETATM    1  C   UNK     1      -7.127  12.097  68.070  1.00  0.00    -0.096 C  
HETATM    2  C   UNK     1      -6.098  11.596  67.065  1.00  0.00    -0.138 C  
ENDROOT
BRANCH   2   3
HETATM    3  C   UNK     1      -5.883  10.089  67.151  1.00  0.00    -0.050 C  
BRANCH   3   4
HETATM    4  C   UNK     1      -6.715   9.365  66.124  1.00  0.00    -0.077 C  
HETATM    5  O   UNK     1      -7.223   9.901  65.150  1.00  0.00    -0.119 OA 
BRANCH   4   6
HETATM    6  O   UNK     1      -6.842   8.056  66.452  1.00  0.00    -0.060 OA 
BRANCH   6   7
HETATM    7  C   UNK     1      -8.076   7.600  67.055  1.00  0.00    -0.117 C  
BRANCH   7   8
HETATM    8  C   UNK     1      -8.937   8.745  67.606  1.00  0.00    -0.135 C  
BRANCH   8   9
HETATM    9  O   UNK     1     -10.113   8.938  66.819  1.00  0.00    -0.237 OA 
BRANCH   9  10
HETATM   10  P   UNK     1     -11.020  10.343  67.263  1.00  0.00    -0.065 P  
HETATM   11  O   UNK     1     -10.235  10.462  68.693  1.00  0.00    -0.166 OA 
HETATM   12  O   UNK     1     -10.228  11.164  66.244  1.00  0.00    -0.224 OA 
BRANCH  10  13
HETATM   13  O   UNK     1     -11.926  11.747  67.707  1.00  0.00    -0.586 OA 
BRANCH  13  14
HETATM   14  C   UNK     1     -11.724  12.841  66.800  1.00  0.00    -0.392 C  
BRANCH  14  15
HETATM   15  C   UNK     1     -11.933  14.186  67.498  1.00  0.00    -0.384 C  
HETATM   16  N   UNK     1     -11.187  15.304  66.850  1.00  0.00    -0.298 NA 
HETATM   17  C   UNK     1     -11.449  14.045  68.939  1.00  0.00    -0.294 C  
HETATM   18  O   UNK     1     -10.198  14.555  69.092  1.00  0.00    -0.226 OA 
HETATM   19  O   UNK     1     -12.072  13.497  69.835  1.00  0.00    -0.329 OA 
HETATM   20  H1  UNK     1     -11.326  16.201  67.315  1.00  0.00     0.000 HD 
HETATM   21  H2  UNK     1     -11.417  15.369  65.859  1.00  0.00     0.000 HD 
ENDBRANCH  14  15
ENDBRANCH  13  14
ENDBRANCH  10  13
ENDBRANCH   9  10
ENDBRANCH   8   9
ENDBRANCH   7   8
BRANCH   7  22
HETATM   22  C   UNK     1      -8.877   6.698  66.098  1.00  0.00    -0.149 C  
BRANCH  22  23
HETATM   23  O   UNK     1      -9.165   5.417  66.691  1.00  0.00    -0.126 OA 
BRANCH  23  24
HETATM   24  C   UNK     1      -8.609   4.350  66.053  1.00  0.00    -0.113 C  
HETATM   25  O   UNK     1      -7.896   3.516  66.586  1.00  0.00    -0.080 OA 
BRANCH  24  26
HETATM   26  C   UNK     1      -9.026   4.350  64.600  1.00  0.00    -0.150 C  
HETATM   27  C   UNK     1     -10.082   3.295  64.330  1.00  0.00    -0.152 C  
ENDBRANCH  24  26
ENDBRANCH  23  24
ENDBRANCH  22  23
ENDBRANCH   7  22
ENDBRANCH   6   7
ENDBRANCH   4   6
ENDBRANCH   3   4
ENDBRANCH   2   3
TORSDOF 14
ENDMDL
MODEL      376
REMARK 921   NORMALIZED FREE ENERGY PREDICTED BY IDOCK:   -2.35 KCAL/MOL
REMARK 922        TOTAL FREE ENERGY PREDICTED BY IDOCK:   -5.36 KCAL/MOL
REMARK 923 INTER-LIGAND FREE ENERGY PREDICTED BY IDOCK:   -4.04 KCAL/MOL
REMARK 924 INTRA-LIGAND FREE ENERGY PREDICTED BY IDOCK:   -1.32 KCAL/MOL
REMARK 927      BINDING AFFINITY PREDICTED BY RF-SCORE:    0.00 PKD
ROOT
HETATM    1  C   UNK     1      -6.166  12.967  69.785  1.00  0.00    -0.105 C  
HETATM    2  C   UNK     1      -6.867  11.946  68.900  1.00  0.00    -0.103 C  
ENDROOT
BRANCH   2   3
HETATM    3  C   UNK     1      -7.496  12.580  67.663  1.00  0.00    -0.139 C  
BRANCH   3   4
HETATM    4  C   UNK     1      -8.769  11.870  67.281  1.00  0.00    -0.171 C  
HETATM    5  O   UNK     1      -9.837  12.433  67.082  1.00  0.00    -0.201 OA 
BRANCH   4   6
HETATM    6  O   UNK     1      -8.567  10.531  67.221  1.00  0.00    -0.123 OA 
BRANCH   6   7
HETATM    7  C   UNK     1      -9.629   9.641  67.639  1.00  0.00    -0.142 C  
BRANCH   7   8
HETATM    8  C   UNK     1      -9.887   8.502  66.644  1.00  0.00    -0.272 C  
BRANCH   8   9
HETATM    9  O   UNK     1     -10.951   7.657  67.084  1.00  0.00    -0.266 OA 
BRANCH   9  10
HETATM   10  P   UNK     1     -10.456   6.030  67.399  1.00  0.00    -0.309 P  
HETATM   11  O   UNK     1     -11.347   5.461  66.152  1.00  0.00     0.109 OA 
HETATM   12  O   UNK     1      -9.066   6.356  66.849  1.00  0.00    -0.126 OA 
BRANCH  10  13
HETATM   13  O   UNK     1      -9.961   4.402  67.714  1.00  0.00    -0.130 OA 
BRANCH  13  14
HETATM   14  C   UNK     1      -9.626   4.188  69.093  1.00  0.00    -0.172 C  
BRANCH  14  15
HETATM   15  C   UNK     1      -8.128   3.936  69.268  1.00  0.00    -0.054 C  
HETATM   16  N   UNK     1      -7.303   5.169  69.104  1.00  0.00    -0.057 NA 
HETATM   17  C   UNK     1      -7.700   2.917  68.215  1.00  0.00    -0.055 C  
HETATM   18  O   UNK     1      -7.118   3.526  67.147  1.00  0.00    -0.057 OA 
HETATM   19  O   UNK     1      -7.898   1.714  68.284  1.00  0.00    -0.052 OA 
HETATM   20  H1  UNK     1      -6.304   5.000  69.220  1.00  0.00     0.000 HD 
HETATM   21  H2  UNK     1      -7.624   5.906  69.731  1.00  0.00     0.000 HD 
ENDBRANCH  14  15
ENDBRANCH  13  14
ENDBRANCH  10  13
ENDBRANCH   9  10
ENDBRANCH   8   9
ENDBRANCH   7   8
BRANCH   7  22
HETATM   22  C   UNK     1      -9.395   9.107  69.064  1.00  0.00    -0.151 C  
BRANCH  22  23
HETATM   23  O   UNK     1      -9.904  10.013  70.061  1.00  0.00    -0.241 OA 
BRANCH  23  24
HETATM   24  C   UNK     1     -11.259  10.021  70.193  1.00  0.00    -0.304 C  
HETATM   25  O   UNK     1     -11.977  10.973  69.936  1.00  0.00    -0.292 OA 
BRANCH  24  26
HETATM   26  C   UNK     1     -11.731   8.672  70.684  1.00  0.00    -0.178 C  
HETATM   27  C   UNK     1     -11.617   8.563  72.193  1.00  0.00    -0.447 C  
ENDBRANCH  24  26
ENDBRANCH  23  24
ENDBRANCH  22  23
ENDBRANCH   7  22
ENDBRANCH   6   7
ENDBRANCH   4   6
ENDBRANCH   3   4
ENDBRANCH   2   3
TORSDOF 14
ENDMDL
MODEL      377
REMARK 921   NORMALIZED FREE ENERGY PREDICTED BY IDOCK:   -2.25 KCAL/MOL
REMARK 922        TOTAL FREE ENERGY PREDICTED BY IDOCK:   -5.18 KCAL/MOL
REMARK 923 INTER-LIGAND FREE ENERGY PREDICTED BY IDOCK:   -4.03 KCAL/MOL
REMARK 924 INTRA-LIGAND FREE ENERGY PREDICTED BY IDOCK:   -1.16 KCAL/MOL
REMARK 927      BINDING AFFINITY PREDICTED BY RF-SCORE:    0.00 PKD
ROOT
HETATM    1  C   UNK     1      -6.383   8.096  69.522  1.00  0.00    -0.034 C  
HETATM    2  C   UNK     1      -7.093   8.394  68.209  1.00  0.00    -0.085 C  
ENDROOT
BRANCH   2   3
HETATM    3  C   UNK     1      -6.641   7.475  67.079  1.00  0.00    -0.062 C  
BRANCH   3   4
HETATM    4  C   UNK     1      -7.452   6.206  67.057  1.00  0.00    -0.087 C  
HETATM    5  O   UNK     1      -7.030   5.114  67.412  1.00  0.00    -0.062 OA 
BRANCH   4   6
HETATM    6  O   UNK     1      -8.692   6.443  66.563  1.00  0.00    -0.123 OA 
BRANCH   6   7
HETATM    7  C   UNK     1      -9.812   5.692  67.086  1.00  0.00    -0.149 C  
BRANCH   7   8
HETATM    8  C   UNK     1     -10.947   6.585  67.605  1.00  0.00    -0.337 C  
BRANCH   8   9
HETATM    9  O   UNK     1     -10.446   7.637  68.431  1.00  0.00    -0.196 OA 
BRANCH   9  10
HETATM   10  P   UNK     1     -10.708   7.373  70.121  1.00  0.00    -0.243 P  
HETATM   11  O   UNK     1     -11.974   6.381  69.824  1.00  0.00    -0.257 OA 
HETATM   12  O   UNK     1      -9.453   6.501  70.170  1.00  0.00    -0.157 OA 
BRANCH  10  13
HETATM   13  O   UNK     1     -10.971   7.110  71.810  1.00  0.00    -0.225 OA 
BRANCH  13  14
HETATM   14  C   UNK     1      -9.808   6.591  72.472  1.00  0.00    -0.165 C  
BRANCH  14  15
HETATM   15  C   UNK     1     -10.103   5.246  73.140  1.00  0.00    -0.180 C  
HETATM   16  N   UNK     1     -10.729   5.387  74.487  1.00  0.00    -0.400 NA 
HETATM   17  C   UNK     1      -8.780   4.500  73.291  1.00  0.00    -0.100 C  
HETATM   18  O   UNK     1      -8.286   4.622  74.551  1.00  0.00    -0.094 OA 
HETATM   19  O   UNK     1      -8.202   3.912  72.390  1.00  0.00    -0.089 OA 
HETATM   20  H1  UNK     1     -10.926   4.490  74.932  1.00  0.00     0.000 HD 
HETATM   21  H2  UNK     1     -11.571   5.962  74.439  1.00  0.00     0.000 HD 
ENDBRANCH  14  15
ENDBRANCH  13  14
ENDBRANCH  10  13
ENDBRANCH   9  10
ENDBRANCH   8   9
ENDBRANCH   7   8
BRANCH   7  22
HETATM   22  C   UNK     1     -10.326   4.654  66.071  1.00  0.00    -0.284 C  
BRANCH  22  23
HETATM   23  O   UNK     1      -9.669   3.383  66.231  1.00  0.00    -0.105 OA 
BRANCH  23  24
HETATM   24  C   UNK     1      -9.410   2.719  65.071  1.00  0.00    -0.126 C  
HETATM   25  O   UNK     1      -8.856   1.635  64.999  1.00  0.00    -0.106 OA 
BRANCH  24  26
HETATM   26  C   UNK     1      -9.932   3.518  63.899  1.00  0.00    -0.183 C  
HETATM   27  C   UNK     1     -10.597   2.620  62.872  1.00  0.00    -0.178 C  
ENDBRANCH  24  26
ENDBRANCH  23  24
ENDBRANCH  22  23
ENDBRANCH   7  22
ENDBRANCH   6   7
ENDBRANCH   4   6
ENDBRANCH   3   4
ENDBRANCH   2   3
TORSDOF 14
ENDMDL
MODEL      378
REMARK 921   NORMALIZED FREE ENERGY PREDICTED BY IDOCK:   -1.97 KCAL/MOL
REMARK 922        TOTAL FREE ENERGY PREDICTED BY IDOCK:   -4.67 KCAL/MOL
REMARK 923 INTER-LIGAND FREE ENERGY PREDICTED BY IDOCK:   -4.19 KCAL/MOL
REMARK 924 INTRA-LIGAND FREE ENERGY PREDICTED BY IDOCK:   -0.47 KCAL/MOL
REMARK 927      BINDING AFFINITY PREDICTED BY RF-SCORE:    0.00 PKD
ROOT
HETATM    1  C   UNK     1     -11.368   5.151  72.937  1.00  0.00    -0.354 C  
HETATM    2  C   UNK     1     -11.469   6.005  71.681  1.00  0.00    -0.293 C  
ENDROOT
BRANCH   2   3
HETATM    3  C   UNK     1     -10.147   6.092  70.925  1.00  0.00    -0.246 C  
BRANCH   3   4
HETATM    4  C   UNK     1      -9.297   7.218  71.453  1.00  0.00    -0.149 C  
HETATM    5  O   UNK     1      -8.942   7.323  72.619  1.00  0.00    -0.127 OA 
BRANCH   4   6
HETATM    6  O   UNK     1      -9.014   8.103  70.467  1.00  0.00    -0.141 OA 
BRANCH   6   7
HETATM    7  C   UNK     1      -8.642   7.604  69.160  1.00  0.00    -0.139 C  
BRANCH   7   8
HETATM    8  C   UNK     1      -8.216   8.713  68.190  1.00  0.00    -0.115 C  
BRANCH   8   9
HETATM    9  O   UNK     1      -9.136   9.806  68.212  1.00  0.00    -0.123 OA 
BRANCH   9  10
HETATM   10  P   UNK     1      -8.386  11.345  67.964  1.00  0.00    -0.157 P  
HETATM   11  O   UNK     1      -6.900  10.668  67.882  1.00  0.00    -0.071 OA 
HETATM   12  O   UNK     1      -8.946  11.379  66.541  1.00  0.00    -0.177 OA 
BRANCH  10  13
HETATM   13  O   UNK     1      -7.637  12.885  67.717  1.00  0.00    -0.113 OA 
BRANCH  13  14
HETATM   14  C   UNK     1      -8.594  13.941  67.549  1.00  0.00    -0.193 C  
BRANCH  14  15
HETATM   15  C   UNK     1      -8.221  15.166  68.385  1.00  0.00    -0.145 C  
HETATM   16  N   UNK     1      -8.036  14.854  69.832  1.00  0.00    -0.391 NA 
HETATM   17  C   UNK     1      -9.347  16.187  68.245  1.00  0.00    -0.205 C  
HETATM   18  O   UNK     1     -10.186  16.147  69.314  1.00  0.00    -0.226 OA 
HETATM   19  O   UNK     1      -9.517  16.913  67.278  1.00  0.00    -0.236 OA 
HETATM   20  H1  UNK     1      -7.787  15.671  70.390  1.00  0.00     0.000 HD 
HETATM   21  H2  UNK     1      -7.354  14.106  69.959  1.00  0.00     0.000 HD 
ENDBRANCH  14  15
ENDBRANCH  13  14
ENDBRANCH  10  13
ENDBRANCH   9  10
ENDBRANCH   8   9
ENDBRANCH   7   8
BRANCH   7  22
HETATM   22  C   UNK     1      -7.579   6.494  69.257  1.00  0.00    -0.100 C  
BRANCH  22  23
HETATM   23  O   UNK     1      -7.752   5.501  68.229  1.00  0.00    -0.083 OA 
BRANCH  23  24
HETATM   24  C   UNK     1      -7.500   4.220  68.619  1.00  0.00    -0.059 C  
HETATM   25  O   UNK     1      -6.425   3.818  69.030  1.00  0.00    -0.035 OA 
BRANCH  24  26
HETATM   26  C   UNK     1      -8.755   3.390  68.484  1.00  0.00    -0.139 C  
HETATM   27  C   UNK     1      -9.702   3.984  67.457  1.00  0.00    -0.177 C  
ENDBRANCH  24  26
ENDBRANCH  23  24
ENDBRANCH  22  23
ENDBRANCH   7  22
ENDBRANCH   6   7
ENDBRANCH   4   6
ENDBRANCH   3   4
ENDBRANCH   2   3
TORSDOF 14
ENDMDL
MODEL      379
REMARK 921   NORMALIZED FREE ENERGY PREDICTED BY IDOCK:   -1.37 KCAL/MOL
REMARK 922        TOTAL FREE ENERGY PREDICTED BY IDOCK:   -3.58 KCAL/MOL
REMARK 923 INTER-LIGAND FREE ENERGY PREDICTED BY IDOCK:   -3.17 KCAL/MOL
REMARK 924 INTRA-LIGAND FREE ENERGY PREDICTED BY IDOCK:   -0.41 KCAL/MOL
REMARK 927      BINDING AFFINITY PREDICTED BY RF-SCORE:    0.00 PKD
ROOT
HETATM    1  C   UNK     1      -8.475   2.223  74.354  1.00  0.00    -0.059 C  
HETATM    2  C   UNK     1      -8.179   2.942  73.045  1.00  0.00    -0.071 C  
ENDROOT
BRANCH   2   3
HETATM    3  C   UNK     1      -7.666   4.362  73.262  1.00  0.00    -0.086 C  
BRANCH   3   4
HETATM    4  C   UNK     1      -8.681   5.378  72.807  1.00  0.00    -0.123 C  
HETATM    5  O   UNK     1      -9.831   5.434  73.221  1.00  0.00    -0.158 OA 
BRANCH   4   6
HETATM    6  O   UNK     1      -8.150   6.190  71.861  1.00  0.00    -0.106 OA 
BRANCH   6   7
HETATM    7  C   UNK     1      -8.686   6.149  70.518  1.00  0.00    -0.142 C  
BRANCH   7   8
HETATM    8  C   UNK     1      -9.565   4.918  70.257  1.00  0.00    -0.195 C  
BRANCH   8   9
HETATM    9  O   UNK     1      -9.837   4.758  68.865  1.00  0.00    -0.169 OA 
BRANCH   9  10
HETATM   10  P   UNK     1      -8.756   3.665  68.070  1.00  0.00    -0.127 P  
HETATM   11  O   UNK     1      -7.527   4.741  68.150  1.00  0.00    -0.072 OA 
HETATM   12  O   UNK     1      -8.695   2.816  69.341  1.00  0.00    -0.067 OA 
BRANCH  10  13
HETATM   13  O   UNK     1      -7.675   2.573  67.276  1.00  0.00    -0.064 OA 
BRANCH  13  14
HETATM   14  C   UNK     1      -7.774   2.645  65.846  1.00  0.00    -0.080 C  
BRANCH  14  15
HETATM   15  C   UNK     1      -9.204   2.965  65.405  1.00  0.00    -0.131 C  
HETATM   16  N   UNK     1      -9.889   1.809  64.756  1.00  0.00    -0.335 NA 
HETATM   17  C   UNK     1      -9.136   4.117  64.406  1.00  0.00    -0.147 C  
HETATM   18  O   UNK     1      -9.214   3.666  63.126  1.00  0.00    -0.096 OA 
HETATM   19  O   UNK     1      -8.977   5.291  64.702  1.00  0.00    -0.099 OA 
HETATM   20  H1  UNK     1     -10.842   2.023  64.462  1.00  0.00     0.000 HD 
HETATM   21  H2  UNK     1      -9.871   0.989  65.362  1.00  0.00     0.000 HD 
ENDBRANCH  14  15
ENDBRANCH  13  14
ENDBRANCH  10  13
ENDBRANCH   9  10
ENDBRANCH   8   9
ENDBRANCH   7   8
BRANCH   7  22
HETATM   22  C   UNK     1      -9.416   7.455  70.156  1.00  0.00    -0.165 C  
BRANCH  22  23
HETATM   23  O   UNK     1      -8.537   8.394  69.508  1.00  0.00    -0.126 OA 
BRANCH  23  24
HETATM   24  C   UNK     1      -9.163   9.420  68.868  1.00  0.00    -0.140 C  
HETATM   25  O   UNK     1     -10.356   9.660  68.940  1.00  0.00    -0.189 OA 
BRANCH  24  26
HETATM   26  C   UNK     1      -8.153  10.221  68.079  1.00  0.00    -0.106 C  
HETATM   27  C   UNK     1      -8.065  11.649  68.584  1.00  0.00    -0.121 C  
ENDBRANCH  24  26
ENDBRANCH  23  24
ENDBRANCH  22  23
ENDBRANCH   7  22
ENDBRANCH   6   7
ENDBRANCH   4   6
ENDBRANCH   3   4
ENDBRANCH   2   3
TORSDOF 14
ENDMDL
MODEL      380
REMARK 921   NORMALIZED FREE ENERGY PREDICTED BY IDOCK:   -0.94 KCAL/MOL
REMARK 922        TOTAL FREE ENERGY PREDICTED BY IDOCK:   -2.80 KCAL/MOL
REMARK 923 INTER-LIGAND FREE ENERGY PREDICTED BY IDOCK:   -4.03 KCAL/MOL
REMARK 924 INTRA-LIGAND FREE ENERGY PREDICTED BY IDOCK:    1.23 KCAL/MOL
REMARK 927      BINDING AFFINITY PREDICTED BY RF-SCORE:    0.00 PKD
ROOT
HETATM    1  C   UNK     1     -11.145   9.736  66.382  1.00  0.00     0.517 C  
HETATM    2  C   UNK     1      -9.792   9.106  66.680  1.00  0.00    -0.307 C  
ENDROOT
BRANCH   2   3
HETATM    3  C   UNK     1      -9.011   9.874  67.743  1.00  0.00    -0.134 C  
BRANCH   3   4
HETATM    4  C   UNK     1      -8.436  11.146  67.176  1.00  0.00    -0.137 C  
HETATM    5  O   UNK     1      -8.653  11.554  66.043  1.00  0.00    -0.148 OA 
BRANCH   4   6
HETATM    6  O   UNK     1      -7.629  11.748  68.082  1.00  0.00    -0.102 OA 
BRANCH   6   7
HETATM    7  C   UNK     1      -7.954  13.083  68.536  1.00  0.00    -0.090 C  
BRANCH   7   8
HETATM    8  C   UNK     1      -7.248  14.182  67.732  1.00  0.00    -0.176 C  
BRANCH   8   9
HETATM    9  O   UNK     1      -7.684  15.482  68.132  1.00  0.00    -0.119 OA 
BRANCH   9  10
HETATM   10  P   UNK     1      -6.463  16.698  67.982  1.00  0.00    -0.148 P  
HETATM   11  O   UNK     1      -7.545  17.792  67.427  1.00  0.00    -0.196 OA 
HETATM   12  O   UNK     1      -6.425  16.834  69.506  1.00  0.00    -0.221 OA 
BRANCH  10  13
HETATM   13  O   UNK     1      -5.241  17.914  67.833  1.00  0.00    -0.136 OA 
BRANCH  13  14
HETATM   14  C   UNK     1      -5.783  19.243  67.858  1.00  0.00    -0.194 C  
BRANCH  14  15
HETATM   15  C   UNK     1      -5.557  19.960  66.526  1.00  0.00    -0.171 C  
HETATM   16  N   UNK     1      -6.407  21.176  66.364  1.00  0.00    -0.383 NA 
HETATM   17  C   UNK     1      -5.890  18.978  65.406  1.00  0.00    -0.207 C  
HETATM   18  O   UNK     1      -7.138  19.196  64.912  1.00  0.00    -0.314 OA 
HETATM   19  O   UNK     1      -5.161  18.074  65.029  1.00  0.00    -0.122 OA 
HETATM   20  H1  UNK     1      -6.256  21.654  65.476  1.00  0.00     0.000 HD 
HETATM   21  H2  UNK     1      -6.279  21.816  67.148  1.00  0.00     0.000 HD 
ENDBRANCH  14  15
ENDBRANCH  13  14
ENDBRANCH  10  13
ENDBRANCH   9  10
ENDBRANCH   8   9
ENDBRANCH   7   8
BRANCH   7  22
HETATM   22  C   UNK     1      -9.477  13.309  68.592  1.00  0.00    -0.016 C  
BRANCH  22  23
HETATM   23  O   UNK     1      -9.940  14.088  67.473  1.00  0.00    -0.232 OA 
BRANCH  23  24
HETATM   24  C   UNK     1     -11.289  14.083  67.288  1.00  0.00    -0.330 C  
HETATM   25  O   UNK     1     -12.057  13.282  67.794  1.00  0.00    -0.331 OA 
BRANCH  24  26
HETATM   26  C   UNK     1     -11.684  15.228  66.384  1.00  0.00     0.096 C  
HETATM   27  C   UNK     1     -10.611  15.508  65.348  1.00  0.00    -0.428 C  
ENDBRANCH  24  26
ENDBRANCH  23  24
ENDBRANCH  22  23
ENDBRANCH   7  22
ENDBRANCH   6   7
ENDBRANCH   4   6
ENDBRANCH   3   4
ENDBRANCH   2   3
TORSDOF 14
ENDMDL
MODEL      381
REMARK 921   NORMALIZED FREE ENERGY PREDICTED BY IDOCK:   -0.70 KCAL/MOL
REMARK 922        TOTAL FREE ENERGY PREDICTED BY IDOCK:   -2.36 KCAL/MOL
REMARK 923 INTER-LIGAND FREE ENERGY PREDICTED BY IDOCK:   -3.46 KCAL/MOL
REMARK 924 INTRA-LIGAND FREE ENERGY PREDICTED BY IDOCK:    1.10 KCAL/MOL
REMARK 927      BINDING AFFINITY PREDICTED BY RF-SCORE:    0.00 PKD
ROOT
HETATM    1  C   UNK     1      -8.212   2.348  73.978  1.00  0.00    -0.059 C  
HETATM    2  C   UNK     1      -7.787   2.785  72.583  1.00  0.00    -0.054 C  
ENDROOT
BRANCH   2   3
HETATM    3  C   UNK     1      -7.420   4.264  72.521  1.00  0.00    -0.074 C  
BRANCH   3   4
HETATM    4  C   UNK     1      -8.630   5.109  72.215  1.00  0.00    -0.125 C  
HETATM    5  O   UNK     1      -9.685   5.046  72.830  1.00  0.00    -0.145 OA 
BRANCH   4   6
HETATM    6  O   UNK     1      -8.391   5.914  71.151  1.00  0.00    -0.120 OA 
BRANCH   6   7
HETATM    7  C   UNK     1      -9.182   5.746  69.951  1.00  0.00    -0.144 C  
BRANCH   7   8
HETATM    8  C   UNK     1      -9.874   4.379  69.872  1.00  0.00    -0.220 C  
BRANCH   8   9
HETATM    9  O   UNK     1      -9.904   3.887  68.532  1.00  0.00    -0.090 OA 
BRANCH   9  10
HETATM   10  P   UNK     1      -8.346   3.831  67.781  1.00  0.00    -0.097 P  
HETATM   11  O   UNK     1      -8.154   5.447  67.936  1.00  0.00    -0.099 OA 
HETATM   12  O   UNK     1      -7.772   3.185  69.043  1.00  0.00    -0.048 OA 
BRANCH  10  13
HETATM   13  O   UNK     1      -6.788   3.774  67.030  1.00  0.00    -0.049 OA 
BRANCH  13  14
HETATM   14  C   UNK     1      -6.871   3.708  65.599  1.00  0.00    -0.056 C  
BRANCH  14  15
HETATM   15  C   UNK     1      -8.191   3.081  65.148  1.00  0.00    -0.091 C  
HETATM   16  N   UNK     1      -8.056   1.645  64.765  1.00  0.00    -0.069 NA 
HETATM   17  C   UNK     1      -8.690   3.865  63.937  1.00  0.00    -0.105 C  
HETATM   18  O   UNK     1      -8.390   3.224  62.776  1.00  0.00    -0.073 OA 
HETATM   19  O   UNK     1      -9.238   4.955  63.987  1.00  0.00    -0.063 OA 
HETATM   20  H1  UNK     1      -8.936   1.227  64.464  1.00  0.00     0.000 HD 
HETATM   21  H2  UNK     1      -7.636   1.105  65.522  1.00  0.00     0.000 HD 
ENDBRANCH  14  15
ENDBRANCH  13  14
ENDBRANCH  10  13
ENDBRANCH   9  10
ENDBRANCH   8   9
ENDBRANCH   7   8
BRANCH   7  22
HETATM   22  C   UNK     1     -10.184   6.901  69.765  1.00  0.00    -0.196 C  
BRANCH  22  23
HETATM   23  O   UNK     1     -11.322   6.764  70.637  1.00  0.00    -0.290 OA 
BRANCH  23  24
HETATM   24  C   UNK     1     -11.932   7.934  70.975  1.00  0.00    -0.252 C  
HETATM   25  O   UNK     1     -11.614   9.031  70.548  1.00  0.00    -0.254 OA 
BRANCH  24  26
HETATM   26  C   UNK     1     -13.065   7.659  71.936  1.00  0.00    -0.292 C  
HETATM   27  C   UNK     1     -14.407   8.015  71.323  1.00  0.00    -0.397 C  
ENDBRANCH  24  26
ENDBRANCH  23  24
ENDBRANCH  22  23
ENDBRANCH   7  22
ENDBRANCH   6   7
ENDBRANCH   4   6
ENDBRANCH   3   4
ENDBRANCH   2   3
TORSDOF 14
ENDMDL
MODEL      382
REMARK 921   NORMALIZED FREE ENERGY PREDICTED BY IDOCK:   -0.45 KCAL/MOL
REMARK 922        TOTAL FREE ENERGY PREDICTED BY IDOCK:   -1.90 KCAL/MOL
REMARK 923 INTER-LIGAND FREE ENERGY PREDICTED BY IDOCK:   -4.49 KCAL/MOL
REMARK 924 INTRA-LIGAND FREE ENERGY PREDICTED BY IDOCK:    2.59 KCAL/MOL
REMARK 927      BINDING AFFINITY PREDICTED BY RF-SCORE:    0.00 PKD
ROOT
HETATM    1  C   UNK     1      -9.998  20.740  68.264  1.00  0.00     0.127 C  
HETATM    2  C   UNK     1      -9.608  19.411  67.633  1.00  0.00    -0.414 C  
ENDROOT
BRANCH   2   3
HETATM    3  C   UNK     1     -10.821  18.592  67.201  1.00  0.00    -0.341 C  
BRANCH   3   4
HETATM    4  C   UNK     1     -10.613  17.127  67.487  1.00  0.00    -0.323 C  
HETATM    5  O   UNK     1     -11.490  16.375  67.888  1.00  0.00    -0.177 OA 
BRANCH   4   6
HETATM    6  O   UNK     1      -9.322  16.778  67.268  1.00  0.00    -0.226 OA 
BRANCH   6   7
HETATM    7  C   UNK     1      -8.462  16.520  68.403  1.00  0.00    -0.208 C  
BRANCH   7   8
HETATM    8  C   UNK     1      -8.264  15.025  68.681  1.00  0.00    -0.156 C  
BRANCH   8   9
HETATM    9  O   UNK     1      -8.251  14.267  67.471  1.00  0.00    -0.163 OA 
BRANCH   9  10
HETATM   10  P   UNK     1      -8.840  12.651  67.659  1.00  0.00    -0.209 P  
HETATM   11  O   UNK     1      -7.323  12.039  67.633  1.00  0.00    -0.102 OA 
HETATM   12  O   UNK     1      -9.177  12.955  69.120  1.00  0.00     0.396 OA 
BRANCH  10  13
HETATM   13  O   UNK     1      -9.428  11.035  67.848  1.00  0.00    -0.159 OA 
BRANCH  13  14
HETATM   14  C   UNK     1     -10.631  10.799  67.102  1.00  0.00    -0.256 C  
BRANCH  14  15
HETATM   15  C   UNK     1     -11.813  11.565  67.697  1.00  0.00    -0.118 C  
HETATM   16  N   UNK     1     -11.663  13.046  67.592  1.00  0.00    -0.354 NA 
HETATM   17  C   UNK     1     -11.919  11.188  69.172  1.00  0.00    -0.343 C  
HETATM   18  O   UNK     1     -11.354  12.136  69.966  1.00  0.00    -0.135 OA 
HETATM   19  O   UNK     1     -12.397  10.147  69.595  1.00  0.00     0.010 OA 
HETATM   20  H1  UNK     1     -12.452  13.558  67.988  1.00  0.00     0.000 HD 
HETATM   21  H2  UNK     1     -11.497  13.327  66.625  1.00  0.00     0.000 HD 
ENDBRANCH  14  15
ENDBRANCH  13  14
ENDBRANCH  10  13
ENDBRANCH   9  10
ENDBRANCH   8   9
ENDBRANCH   7   8
BRANCH   7  22
HETATM   22  C   UNK     1      -7.117  17.258  68.276  1.00  0.00    -0.197 C  
BRANCH  22  23
HETATM   23  O   UNK     1      -6.920  17.780  66.949  1.00  0.00    -0.164 OA 
BRANCH  23  24
HETATM   24  C   UNK     1      -6.197  18.932  66.886  1.00  0.00    -0.181 C  
HETATM   25  O   UNK     1      -5.135  19.056  66.299  1.00  0.00    -0.137 OA 
BRANCH  24  26
HETATM   26  C   UNK     1      -6.921  20.029  67.632  1.00  0.00    -0.296 C  
HETATM   27  C   UNK     1      -6.406  20.162  69.054  1.00  0.00    -0.360 C  
ENDBRANCH  24  26
ENDBRANCH  23  24
ENDBRANCH  22  23
ENDBRANCH   7  22
ENDBRANCH   6   7
ENDBRANCH   4   6
ENDBRANCH   3   4
ENDBRANCH   2   3
TORSDOF 14
ENDMDL
MODEL      383
REMARK 921   NORMALIZED FREE ENERGY PREDICTED BY IDOCK:   -0.21 KCAL/MOL
REMARK 922        TOTAL FREE ENERGY PREDICTED BY IDOCK:   -1.47 KCAL/MOL
REMARK 923 INTER-LIGAND FREE ENERGY PREDICTED BY IDOCK:   -4.24 KCAL/MOL
REMARK 924 INTRA-LIGAND FREE ENERGY PREDICTED BY IDOCK:    2.77 KCAL/MOL
REMARK 927      BINDING AFFINITY PREDICTED BY RF-SCORE:    0.00 PKD
ROOT
HETATM    1  C   UNK     1     -11.155   9.731  66.380  1.00  0.00     0.517 C  
HETATM    2  C   UNK     1      -9.801   9.099  66.675  1.00  0.00    -0.307 C  
ENDROOT
BRANCH   2   3
HETATM    3  C   UNK     1      -9.004   9.884  67.711  1.00  0.00    -0.134 C  
BRANCH   3   4
HETATM    4  C   UNK     1      -8.429  11.141  67.111  1.00  0.00    -0.137 C  
HETATM    5  O   UNK     1      -8.665  11.532  65.976  1.00  0.00    -0.176 OA 
BRANCH   4   6
HETATM    6  O   UNK     1      -7.597  11.751  67.991  1.00  0.00    -0.102 OA 
BRANCH   6   7
HETATM    7  C   UNK     1      -7.894  13.101  68.419  1.00  0.00    -0.135 C  
BRANCH   7   8
HETATM    8  C   UNK     1      -7.210  14.170  67.557  1.00  0.00    -0.169 C  
BRANCH   8   9
HETATM    9  O   UNK     1      -7.631  15.484  67.925  1.00  0.00    -0.119 OA 
BRANCH   9  10
HETATM   10  P   UNK     1      -6.421  16.694  67.673  1.00  0.00    -0.182 P  
HETATM   11  O   UNK     1      -7.528  17.760  67.112  1.00  0.00    -0.186 OA 
HETATM   12  O   UNK     1      -6.324  16.899  69.186  1.00  0.00    -0.178 OA 
BRANCH  10  13
HETATM   13  O   UNK     1      -5.211  17.905  67.421  1.00  0.00    -0.131 OA 
BRANCH  13  14
HETATM   14  C   UNK     1      -5.755  19.232  67.413  1.00  0.00    -0.171 C  
BRANCH  14  15
HETATM   15  C   UNK     1      -6.637  19.478  68.638  1.00  0.00    -0.282 C  
HETATM   16  N   UNK     1      -7.501  20.687  68.505  1.00  0.00     0.148 NA 
HETATM   17  C   UNK     1      -5.719  19.663  69.844  1.00  0.00    -0.264 C  
HETATM   18  O   UNK     1      -5.548  20.979  70.137  1.00  0.00    -0.543 OA 
HETATM   19  O   UNK     1      -5.160  18.757  70.442  1.00  0.00    -0.190 OA 
HETATM   20  H1  UNK     1      -8.089  20.851  69.323  1.00  0.00     0.000 HD 
HETATM   21  H2  UNK     1      -8.064  20.640  67.656  1.00  0.00     0.000 HD 
ENDBRANCH  14  15
ENDBRANCH  13  14
ENDBRANCH  10  13
ENDBRANCH   9  10
ENDBRANCH   8   9
ENDBRANCH   7   8
BRANCH   7  22
HETATM   22  C   UNK     1      -9.411  13.342  68.526  1.00  0.00    -0.097 C  
BRANCH  22  23
HETATM   23  O   UNK     1      -9.884  14.224  67.491  1.00  0.00    -0.226 OA 
BRANCH  23  24
HETATM   24  C   UNK     1     -10.961  14.984  67.831  1.00  0.00    -0.291 C  
HETATM   25  O   UNK     1     -11.850  14.631  68.588  1.00  0.00    -0.319 OA 
BRANCH  24  26
HETATM   26  C   UNK     1     -10.874  16.328  67.145  1.00  0.00    -0.190 C  
HETATM   27  C   UNK     1     -10.581  17.436  68.140  1.00  0.00    -0.376 C  
ENDBRANCH  24  26
ENDBRANCH  23  24
ENDBRANCH  22  23
ENDBRANCH   7  22
ENDBRANCH   6   7
ENDBRANCH   4   6
ENDBRANCH   3   4
ENDBRANCH   2   3
TORSDOF 14
ENDMDL
MODEL      384
REMARK 921   NORMALIZED FREE ENERGY PREDICTED BY IDOCK:    1.49 KCAL/MOL
REMARK 922        TOTAL FREE ENERGY PREDICTED BY IDOCK:    1.63 KCAL/MOL
REMARK 923 INTER-LIGAND FREE ENERGY PREDICTED BY IDOCK:   -1.58 KCAL/MOL
REMARK 924 INTRA-LIGAND FREE ENERGY PREDICTED BY IDOCK:    3.21 KCAL/MOL
REMARK 927      BINDING AFFINITY PREDICTED BY RF-SCORE:    0.00 PKD
ROOT
HETATM    1  C   UNK     1     -11.817  16.493  66.920  1.00  0.00     1.350 C  
HETATM    2  C   UNK     1     -11.864  16.350  68.435  1.00  0.00     0.222 C  
ENDROOT
BRANCH   2   3
HETATM    3  C   UNK     1     -10.509  16.609  69.087  1.00  0.00    -0.333 C  
BRANCH   3   4
HETATM    4  C   UNK     1     -10.168  15.521  70.072  1.00  0.00    -0.273 C  
HETATM    5  O   UNK     1     -10.694  15.396  71.169  1.00  0.00    -0.243 OA 
BRANCH   4   6
HETATM    6  O   UNK     1      -9.181  14.730  69.583  1.00  0.00     0.029 OA 
BRANCH   6   7
HETATM    7  C   UNK     1      -9.412  13.997  68.357  1.00  0.00    -0.213 C  
BRANCH   7   8
HETATM    8  C   UNK     1      -8.525  14.468  67.197  1.00  0.00    -0.212 C  
BRANCH   8   9
HETATM    9  O   UNK     1      -7.341  15.110  67.673  1.00  0.00    -0.148 OA 
BRANCH   9  10
HETATM   10  P   UNK     1      -6.648  14.341  69.060  1.00  0.00    -0.117 P  
HETATM   11  O   UNK     1      -5.191  14.217  68.328  1.00  0.00    -0.098 OA 
HETATM   12  O   UNK     1      -6.668  15.680  69.800  1.00  0.00    -0.179 OA 
BRANCH  10  13
HETATM   13  O   UNK     1      -5.955  13.572  70.446  1.00  0.00    -0.157 OA 
BRANCH  13  14
HETATM   14  C   UNK     1      -5.276  12.352  70.115  1.00  0.00    -0.101 C  
BRANCH  14  15
HETATM   15  C   UNK     1      -6.236  11.332  69.500  1.00  0.00    -0.099 C  
HETATM   16  N   UNK     1      -6.134   9.981  70.125  1.00  0.00    -0.059 NA 
HETATM   17  C   UNK     1      -5.901  11.212  68.016  1.00  0.00    -0.042 C  
HETATM   18  O   UNK     1      -5.134  10.116  67.770  1.00  0.00    -0.032 OA 
HETATM   19  O   UNK     1      -6.226  12.017  67.158  1.00  0.00    -0.136 OA 
HETATM   20  H1  UNK     1      -6.775   9.301  69.715  1.00  0.00     0.000 HD 
HETATM   21  H2  UNK     1      -6.261  10.037  71.135  1.00  0.00     0.000 HD 
ENDBRANCH  14  15
ENDBRANCH  13  14
ENDBRANCH  10  13
ENDBRANCH   9  10
ENDBRANCH   8   9
ENDBRANCH   7   8
BRANCH   7  22
HETATM   22  C   UNK     1      -9.301  12.477  68.575  1.00  0.00    -0.082 C  
BRANCH  22  23
HETATM   23  O   UNK     1     -10.414  11.966  69.332  1.00  0.00    -0.001 OA 
BRANCH  23  24
HETATM   24  C   UNK     1     -11.642  12.288  68.837  1.00  0.00    -0.316 C  
HETATM   25  O   UNK     1     -12.230  13.332  69.063  1.00  0.00    -0.277 OA 
BRANCH  24  26
HETATM   26  C   UNK     1     -12.147  11.168  67.957  1.00  0.00     0.125 C  
HETATM   27  C   UNK     1     -11.195   9.985  67.970  1.00  0.00    -0.190 C  
ENDBRANCH  24  26
ENDBRANCH  23  24
ENDBRANCH  22  23
ENDBRANCH   7  22
ENDBRANCH   6   7
ENDBRANCH   4   6
ENDBRANCH   3   4
ENDBRANCH   2   3
TORSDOF 14
ENDMDL
MODEL      385
REMARK 921   NORMALIZED FREE ENERGY PREDICTED BY IDOCK:    9.42 KCAL/MOL
REMARK 922        TOTAL FREE ENERGY PREDICTED BY IDOCK:   16.04 KCAL/MOL
REMARK 923 INTER-LIGAND FREE ENERGY PREDICTED BY IDOCK:    2.73 KCAL/MOL
REMARK 924 INTRA-LIGAND FREE ENERGY PREDICTED BY IDOCK:   13.31 KCAL/MOL
REMARK 927      BINDING AFFINITY PREDICTED BY RF-SCORE:    0.00 PKD
ROOT
HETATM    1  C   UNK     1     -12.404  16.817  66.817  1.00  0.00     3.383 C  
HETATM    2  C   UNK     1     -12.292  16.603  68.320  1.00  0.00     1.664 C  
ENDROOT
BRANCH   2   3
HETATM    3  C   UNK     1     -10.907  16.952  68.858  1.00  0.00    -0.274 C  
BRANCH   3   4
HETATM    4  C   UNK     1     -10.284  15.769  69.553  1.00  0.00    -0.271 C  
HETATM    5  O   UNK     1     -10.501  15.463  70.717  1.00  0.00    -0.209 OA 
BRANCH   4   6
HETATM    6  O   UNK     1      -9.434  15.121  68.719  1.00  0.00    -0.193 OA 
BRANCH   6   7
HETATM    7  C   UNK     1      -9.847  14.862  67.357  1.00  0.00    -0.221 C  
BRANCH   7   8
HETATM    8  C   UNK     1      -8.897  15.465  66.314  1.00  0.00    -0.267 C  
BRANCH   8   9
HETATM    9  O   UNK     1      -7.531  15.221  66.651  1.00  0.00    -0.017 OA 
BRANCH   9  10
HETATM   10  P   UNK     1      -7.295  13.785  67.585  1.00  0.00    -0.135 P  
HETATM   11  O   UNK     1      -6.277  13.161  66.468  1.00  0.00     0.873 OA 
HETATM   12  O   UNK     1      -6.444  14.581  68.577  1.00  0.00    -0.084 OA 
BRANCH  10  13
HETATM   13  O   UNK     1      -7.059  12.348  68.520  1.00  0.00    -0.087 OA 
BRANCH  13  14
HETATM   14  C   UNK     1      -6.867  11.186  67.701  1.00  0.00    -0.076 C  
BRANCH  14  15
HETATM   15  C   UNK     1      -5.594  10.435  68.094  1.00  0.00    -0.036 C  
HETATM   16  N   UNK     1      -5.338   9.233  67.247  1.00  0.00    -0.037 NA 
HETATM   17  C   UNK     1      -5.745   9.986  69.545  1.00  0.00    -0.037 C  
HETATM   18  O   UNK     1      -6.121   8.682  69.622  1.00  0.00    -0.032 OA 
HETATM   19  O   UNK     1      -5.605  10.710  70.519  1.00  0.00    -0.069 OA 
HETATM   20  H1  UNK     1      -4.488   8.732  67.509  1.00  0.00     0.000 HD 
HETATM   21  H2  UNK     1      -5.323   9.482  66.258  1.00  0.00     0.000 HD 
ENDBRANCH  14  15
ENDBRANCH  13  14
ENDBRANCH  10  13
ENDBRANCH   9  10
ENDBRANCH   8   9
ENDBRANCH   7   8
BRANCH   7  22
HETATM   22  C   UNK     1     -10.082  13.361  67.110  1.00  0.00    -0.240 C  
BRANCH  22  23
HETATM   23  O   UNK     1     -11.148  12.847  67.930  1.00  0.00    -0.233 OA 
BRANCH  23  24
HETATM   24  C   UNK     1     -12.031  13.783  68.377  1.00  0.00    -0.360 C  
HETATM   25  O   UNK     1     -12.293  13.986  69.551  1.00  0.00    -0.332 OA 
BRANCH  24  26
HETATM   26  C   UNK     1     -12.614  14.536  67.204  1.00  0.00     0.448 C  
HETATM   27  C   UNK     1     -11.997  14.080  65.894  1.00  0.00    -0.424 C  
ENDBRANCH  24  26
ENDBRANCH  23  24
ENDBRANCH  22  23
ENDBRANCH   7  22
ENDBRANCH   6   7
ENDBRANCH   4   6
ENDBRANCH   3   4
ENDBRANCH   2   3
TORSDOF 14
ENDMDL
